MODEL 1
REMARK VINA RESULT:     -12.8      0.000      0.000
REMARK SMILES O=C(OCCOC(=O)c1ccc(-c2c3nc(c(-c4cccc(S(=O)(=O)[O-])c4F)c4ccc([nH]4)c(-c4cccc(S(=O)(=O)[O-])c4F)c4nc(c(-c5cccc(S(=O)(=O)[O-])c5F)c5ccc2[nH]5)C=C4)C=C3)cc1)C1=Cc2cc(S(F)(F)(F)(F)F)ccc2O[C@H]1C(F)(F)F
REMARK SMILES IDX 5 1 4 2 3 3 2 4 1 5 72 6 73 7 87 8 74 9 86 10 75 11 85 12
REMARK SMILES IDX 76 13 84 14 83 15 88 16 89 17 90 18 91 19 77 20 78 21 79 22
REMARK SMILES IDX 80 23 81 24 82 25 6 26 7 27 8 28 9 29 10 30 71 31 11 32
REMARK SMILES IDX 70 33 12 34 13 35 14 36 64 37 15 38 69 39 63 40 65 41 16 42
REMARK SMILES IDX 68 43 62 44 61 45 17 47 49 48 29 49 48 50 30 51 33 52 47 53
REMARK SMILES IDX 66 54 31 55 32 56 46 58 67 59 34 60 18 61 19 62 27 63 20 64
REMARK SMILES IDX 22 65 28 66 21 67 23 68 24 69 25 70 26 71 50 72 51 73 59 74
REMARK SMILES IDX 52 75 54 76 60 77 53 78 55 79 56 80 57 81 58 82 35 83 36 84
REMARK SMILES IDX 44 85 37 86 39 87 45 88 38 89 40 90 41 91 42 92 43 93
REMARK H PARENT 65 46 33 57
REMARK Flexibility Score: inf
ROOT
ATOM      1  C   UNL A   1      36.931  21.435  24.226  1.00  0.00     0.275 C 
ENDROOT
BRANCH   1   2
ATOM      2  C   UNL A   1      36.300  22.779  23.901  1.00  0.00     0.275 C 
BRANCH   2   3
ATOM      3  O   UNL A   1      35.105  22.935  24.653  1.00  0.00    -0.459 OA
BRANCH   3   4
ATOM      4  C   UNL A   1      33.844  22.762  24.025  1.00  0.00     0.338 C 
ATOM      5  O   UNL A   1      33.776  22.610  22.765  1.00  0.00    -0.246 OA
BRANCH   4   6
ATOM      6  C   UNL A   1      32.574  22.758  24.860  1.00  0.00     0.087 C 
ATOM      7  C   UNL A   1      32.065  23.929  25.329  1.00  0.00     0.027 C 
ATOM      8  C   UNL A   1      31.872  21.446  25.171  1.00  0.00     0.316 C 
ATOM      9  C   UNL A   1      32.768  25.241  25.019  1.00  0.00     0.019 A 
ATOM     10  O   UNL A   1      33.211  24.445  22.825  1.00  0.00    -0.475 OA
ATOM     11  C   UNL A   1      32.881  26.188  26.024  1.00  0.00     0.036 A 
ATOM     12  C   UNL A   1      33.196  25.489  23.788  1.00  0.00     0.128 A 
ATOM     13  C   UNL A   1      33.204  27.484  25.556  1.00  0.00     0.107 A 
ATOM     14  C   UNL A   1      33.625  26.746  23.435  1.00  0.00     0.048 A 
ATOM     15  C   UNL A   1      33.707  27.746  24.364  1.00  0.00     0.028 A 
BRANCH   8  16
ATOM     16  C   UNL A   1      32.638  20.299  24.533  1.00  0.00     0.430 C 
ATOM     17  F   UNL A   1      32.528  20.367  23.209  1.00  0.00    -0.167 F 
ATOM     18  F   UNL A   1      33.920  20.387  24.877  1.00  0.00    -0.167 F 
ATOM     19  F   UNL A   1      32.145  19.141  24.960  1.00  0.00    -0.167 F 
ENDBRANCH   8  16
BRANCH  13  20
ATOM     20  S   UNL A   1      32.904  28.879  26.669  1.00  0.00     0.310 S 
ATOM     21  F   UNL A   1      32.365  27.926  27.817  1.00  0.00    -0.094 F 
ATOM     22  F   UNL A   1      31.426  28.952  26.130  1.00  0.00    -0.094 F 
ATOM     23  F   UNL A   1      32.644  30.077  27.625  1.00  0.00    -0.094 F 
ATOM     24  F   UNL A   1      34.342  28.701  27.298  1.00  0.00    -0.094 F 
ATOM     25  F   UNL A   1      33.147  27.591  25.786  1.00  0.00    -0.094 F 
ENDBRANCH  13  20
ENDBRANCH   4   6
ENDBRANCH   3   4
ENDBRANCH   2   3
ENDBRANCH   1   2
BRANCH   1  26
ATOM     26  O   UNL A   1      37.242  21.379  25.610  1.00  0.00    -0.458 OA
BRANCH  26  27
ATOM     27  C   UNL A   1      38.596  21.344  26.034  1.00  0.00     0.338 C 
ATOM     28  O   UNL A   1      39.237  20.246  26.025  1.00  0.00    -0.246 OA
BRANCH  27  29
ATOM     29  C   UNL A   1      39.280  22.619  26.500  1.00  0.00     0.060 A 
ATOM     30  C   UNL A   1      40.453  22.488  27.226  1.00  0.00     0.016 A 
ATOM     31  C   UNL A   1      38.822  23.813  26.140  1.00  0.00     0.016 A 
ATOM     32  C   UNL A   1      40.925  23.703  27.777  1.00  0.00     0.010 A 
ATOM     33  C   UNL A   1      39.415  24.959  26.608  1.00  0.00     0.010 A 
ATOM     34  C   UNL A   1      40.544  24.904  27.380  1.00  0.00    -0.014 A 
BRANCH  34  35
ATOM     35  C   UNL A   1      41.317  26.155  27.758  1.00  0.00     0.031 A 
ATOM     36  C   UNL A   1      40.668  27.174  28.458  1.00  0.00     0.074 A 
ATOM     37  C   UNL A   1      42.606  26.257  27.261  1.00  0.00     0.049 A 
ATOM     38  N   UNL A   1      41.156  28.370  28.794  1.00  0.00    -0.248 NA
ATOM     39  C   UNL A   1      39.288  27.082  28.957  1.00  0.00     0.031 C 
ATOM     40  C   UNL A   1      43.270  25.231  26.563  1.00  0.00     0.029 A 
ATOM     41  N   UNL A   1      43.461  27.334  27.343  1.00  0.00    -0.354 N 
ATOM     42  C   UNL A   1      40.244  29.065  29.476  1.00  0.00     0.074 A 
ATOM     43  C   UNL A   1      39.026  28.249  29.586  1.00  0.00     0.031 C 
ATOM     44  C   UNL A   1      44.504  25.686  26.218  1.00  0.00     0.029 A 
ATOM     45  C   UNL A   1      44.631  27.004  26.697  1.00  0.00     0.049 A 
ATOM     46  H   UNL A   1      43.269  28.191  27.788  1.00  0.00     0.167 HD
ATOM     47  C   UNL A   1      40.379  30.346  30.013  1.00  0.00     0.034 A 
ATOM     48  C   UNL A   1      45.756  27.794  26.522  1.00  0.00     0.034 A 
ATOM     49  C   UNL A   1      41.520  31.120  29.875  1.00  0.00     0.049 A 
ATOM     50  C   UNL A   1      45.870  29.099  27.008  1.00  0.00     0.074 A 
ATOM     51  C   UNL A   1      41.677  32.411  30.416  1.00  0.00     0.029 A 
ATOM     52  N   UNL A   1      42.681  30.800  29.207  1.00  0.00    -0.354 N 
ATOM     53  N   UNL A   1      44.973  29.778  27.725  1.00  0.00    -0.248 NA
ATOM     54  C   UNL A   1      47.044  29.957  26.802  1.00  0.00     0.031 C 
ATOM     55  C   UNL A   1      42.910  32.866  30.072  1.00  0.00     0.029 A 
ATOM     56  C   UNL A   1      43.546  31.868  29.309  1.00  0.00     0.049 A 
ATOM     57  H   UNL A   1      42.862  29.954  28.738  1.00  0.00     0.167 HD
ATOM     58  C   UNL A   1      45.445  30.990  28.024  1.00  0.00     0.074 A 
ATOM     59  C   UNL A   1      46.782  31.125  27.428  1.00  0.00     0.031 C 
ATOM     60  C   UNL A   1      44.819  31.986  28.774  1.00  0.00     0.034 A 
BRANCH  47  61
ATOM     61  C   UNL A   1      39.209  30.925  30.792  1.00  0.00     0.023 A 
ATOM     62  C   UNL A   1      39.159  30.944  32.175  1.00  0.00     0.012 A 
ATOM     63  C   UNL A   1      38.245  31.470  30.059  1.00  0.00     0.148 A 
ATOM     64  C   UNL A   1      37.897  31.312  32.699  1.00  0.00     0.002 A 
ATOM     65  C   UNL A   1      37.094  31.933  30.652  1.00  0.00     0.091 A 
ATOM     66  F   UNL A   1      38.393  31.570  28.742  1.00  0.00    -0.205 F 
ATOM     67  C   UNL A   1      36.952  31.928  32.011  1.00  0.00     0.022 A 
BRANCH  65  68
ATOM     68  S   UNL A   1      35.747  32.558  29.616  1.00  0.00     0.127 S 
ATOM     69  O   UNL A   1      36.202  33.829  28.898  1.00  0.00    -0.237 OA
ATOM     70  O   UNL A   1      35.365  31.496  28.582  1.00  0.00    -0.237 OA
ATOM     71  O   UNL A   1      34.392  32.912  30.597  1.00  0.00    -0.744 OA
ENDBRANCH  65  68
ENDBRANCH  47  61
BRANCH  48  72
ATOM     72  C   UNL A   1      46.931  27.208  25.757  1.00  0.00     0.023 A 
ATOM     73  C   UNL A   1      47.903  26.456  26.396  1.00  0.00     0.012 A 
ATOM     74  C   UNL A   1      47.038  27.524  24.472  1.00  0.00     0.148 A 
ATOM     75  C   UNL A   1      49.103  26.324  25.656  1.00  0.00     0.002 A 
ATOM     76  C   UNL A   1      48.189  27.243  23.776  1.00  0.00     0.091 A 
ATOM     77  F   UNL A   1      46.022  28.116  23.852  1.00  0.00    -0.205 F 
ATOM     78  C   UNL A   1      49.215  26.554  24.361  1.00  0.00     0.022 A 
BRANCH  76  79
ATOM     79  S   UNL A   1      48.350  27.794  22.059  1.00  0.00     0.127 S 
ATOM     80  O   UNL A   1      47.156  28.679  21.693  1.00  0.00    -0.237 OA
ATOM     81  O   UNL A   1      49.646  28.593  21.899  1.00  0.00    -0.237 OA
ATOM     82  O   UNL A   1      48.389  26.433  21.025  1.00  0.00    -0.744 OA
ENDBRANCH  76  79
ENDBRANCH  48  72
BRANCH  60  83
ATOM     83  C   UNL A   1      45.578  33.281  29.017  1.00  0.00     0.023 A 
ATOM     84  C   UNL A   1      46.353  33.346  30.162  1.00  0.00     0.012 A 
ATOM     85  C   UNL A   1      45.595  34.257  28.117  1.00  0.00     0.148 A 
ATOM     86  C   UNL A   1      46.901  34.626  30.411  1.00  0.00     0.002 A 
ATOM     87  C   UNL A   1      46.263  35.430  28.369  1.00  0.00     0.091 A 
ATOM     88  F   UNL A   1      44.957  34.098  26.959  1.00  0.00    -0.205 F 
ATOM     89  C   UNL A   1      47.002  35.586  29.510  1.00  0.00     0.022 A 
BRANCH  87  90
ATOM     90  S   UNL A   1      46.165  36.788  27.177  1.00  0.00     0.127 S 
ATOM     91  O   UNL A   1      46.716  36.321  25.827  1.00  0.00    -0.237 OA
ATOM     92  O   UNL A   1      44.706  37.219  27.012  1.00  0.00    -0.237 OA
ATOM     93  O   UNL A   1      47.090  38.110  27.741  1.00  0.00    -0.744 OA
ENDBRANCH  87  90
ENDBRANCH  60  83
ENDBRANCH  34  35
ENDBRANCH  27  29
ENDBRANCH  26  27
ENDBRANCH   1  26
TORSDOF 16
ENDMDL
MODEL 2
REMARK VINA RESULT:     -12.7      5.316     10.133
REMARK SMILES O=C(OCCOC(=O)c1ccc(-c2c3nc(c(-c4cccc(S(=O)(=O)[O-])c4F)c4ccc([nH]4)c(-c4cccc(S(=O)(=O)[O-])c4F)c4nc(c(-c5cccc(S(=O)(=O)[O-])c5F)c5ccc2[nH]5)C=C4)C=C3)cc1)C1=Cc2cc(S(F)(F)(F)(F)F)ccc2O[C@H]1C(F)(F)F
REMARK SMILES IDX 5 1 4 2 3 3 2 4 1 5 72 6 73 7 87 8 74 9 86 10 75 11 85 12
REMARK SMILES IDX 76 13 84 14 83 15 88 16 89 17 90 18 91 19 77 20 78 21 79 22
REMARK SMILES IDX 80 23 81 24 82 25 6 26 7 27 8 28 9 29 10 30 71 31 11 32
REMARK SMILES IDX 70 33 12 34 13 35 14 36 64 37 15 38 69 39 63 40 65 41 16 42
REMARK SMILES IDX 68 43 62 44 61 45 17 47 49 48 29 49 48 50 30 51 33 52 47 53
REMARK SMILES IDX 66 54 31 55 32 56 46 58 67 59 34 60 18 61 19 62 27 63 20 64
REMARK SMILES IDX 22 65 28 66 21 67 23 68 24 69 25 70 26 71 50 72 51 73 59 74
REMARK SMILES IDX 52 75 54 76 60 77 53 78 55 79 56 80 57 81 58 82 35 83 36 84
REMARK SMILES IDX 44 85 37 86 39 87 45 88 38 89 40 90 41 91 42 92 43 93
REMARK H PARENT 65 46 33 57
REMARK Flexibility Score: inf
ROOT
ATOM      1  C   UNL A   1      31.727  29.879  26.855  1.00  0.00     0.275 C 
ENDROOT
BRANCH   1   2
ATOM      2  C   UNL A   1      32.016  28.391  26.975  1.00  0.00     0.275 C 
BRANCH   2   3
ATOM      3  O   UNL A   1      32.339  27.866  25.696  1.00  0.00    -0.459 OA
BRANCH   3   4
ATOM      4  C   UNL A   1      31.386  27.091  24.985  1.00  0.00     0.338 C 
ATOM      5  O   UNL A   1      30.292  26.760  25.543  1.00  0.00    -0.246 OA
BRANCH   4   6
ATOM      6  C   UNL A   1      31.673  26.656  23.557  1.00  0.00     0.087 C 
ATOM      7  C   UNL A   1      32.550  25.645  23.318  1.00  0.00     0.027 C 
ATOM      8  C   UNL A   1      30.979  27.351  22.397  1.00  0.00     0.316 C 
ATOM      9  C   UNL A   1      33.244  24.950  24.478  1.00  0.00     0.019 A 
ATOM     10  O   UNL A   1      31.217  25.062  25.713  1.00  0.00    -0.475 OA
ATOM     11  C   UNL A   1      34.589  24.640  24.359  1.00  0.00     0.036 A 
ATOM     12  C   UNL A   1      32.547  24.591  25.549  1.00  0.00     0.128 A 
ATOM     13  C   UNL A   1      35.043  23.689  25.304  1.00  0.00     0.107 A 
ATOM     14  C   UNL A   1      33.100  23.770  26.502  1.00  0.00     0.048 A 
ATOM     15  C   UNL A   1      34.406  23.376  26.417  1.00  0.00     0.028 A 
BRANCH   8  16
ATOM     16  C   UNL A   1      30.058  28.434  22.934  1.00  0.00     0.430 C 
ATOM     17  F   UNL A   1      29.634  29.201  21.932  1.00  0.00    -0.167 F 
ATOM     18  F   UNL A   1      29.012  27.862  23.526  1.00  0.00    -0.167 F 
ATOM     19  F   UNL A   1      30.713  29.180  23.817  1.00  0.00    -0.167 F 
ENDBRANCH   8  16
BRANCH  13  20
ATOM     20  S   UNL A   1      36.607  22.844  24.962  1.00  0.00     0.310 S 
ATOM     21  F   UNL A   1      36.819  23.652  23.613  1.00  0.00    -0.094 F 
ATOM     22  F   UNL A   1      35.810  21.779  24.117  1.00  0.00    -0.094 F 
ATOM     23  F   UNL A   1      37.949  22.117  24.665  1.00  0.00    -0.094 F 
ATOM     24  F   UNL A   1      37.402  23.996  25.692  1.00  0.00    -0.094 F 
ATOM     25  F   UNL A   1      35.266  23.654  25.175  1.00  0.00    -0.094 F 
ENDBRANCH  13  20
ENDBRANCH   4   6
ENDBRANCH   3   4
ENDBRANCH   2   3
ENDBRANCH   1   2
BRANCH   1  26
ATOM     26  O   UNL A   1      32.886  30.549  26.381  1.00  0.00    -0.458 OA
BRANCH  26  27
ATOM     27  C   UNL A   1      33.591  31.438  27.235  1.00  0.00     0.338 C 
ATOM     28  O   UNL A   1      33.136  32.604  27.455  1.00  0.00    -0.246 OA
BRANCH  27  29
ATOM     29  C   UNL A   1      34.892  30.994  27.884  1.00  0.00     0.060 A 
ATOM     30  C   UNL A   1      35.767  31.983  28.304  1.00  0.00     0.016 A 
ATOM     31  C   UNL A   1      35.135  29.711  28.126  1.00  0.00     0.016 A 
ATOM     32  C   UNL A   1      37.026  31.492  28.727  1.00  0.00     0.010 A 
ATOM     33  C   UNL A   1      36.333  29.315  28.666  1.00  0.00     0.010 A 
ATOM     34  C   UNL A   1      37.270  30.235  29.050  1.00  0.00    -0.014 A 
BRANCH  34  35
ATOM     35  C   UNL A   1      38.523  29.833  29.810  1.00  0.00     0.031 A 
ATOM     36  C   UNL A   1      39.429  28.953  29.217  1.00  0.00     0.074 A 
ATOM     37  C   UNL A   1      38.619  30.276  31.119  1.00  0.00     0.049 A 
ATOM     38  N   UNL A   1      40.526  28.423  29.761  1.00  0.00    -0.248 NA
ATOM     39  C   UNL A   1      39.311  28.454  27.838  1.00  0.00     0.031 C 
ATOM     40  C   UNL A   1      37.714  31.171  31.722  1.00  0.00     0.029 A 
ATOM     41  N   UNL A   1      39.573  29.947  32.055  1.00  0.00    -0.354 N 
ATOM     42  C   UNL A   1      41.149  27.642  28.877  1.00  0.00     0.074 A 
ATOM     43  C   UNL A   1      40.372  27.645  27.629  1.00  0.00     0.031 C 
ATOM     44  C   UNL A   1      38.110  31.369  33.007  1.00  0.00     0.029 A 
ATOM     45  C   UNL A   1      39.270  30.602  33.228  1.00  0.00     0.049 A 
ATOM     46  H   UNL A   1      40.341  29.346  31.911  1.00  0.00     0.167 HD
ATOM     47  C   UNL A   1      42.333  26.927  29.062  1.00  0.00     0.034 A 
ATOM     48  C   UNL A   1      39.952  30.546  34.433  1.00  0.00     0.034 A 
ATOM     49  C   UNL A   1      43.040  26.906  30.254  1.00  0.00     0.049 A 
ATOM     50  C   UNL A   1      41.106  29.785  34.635  1.00  0.00     0.074 A 
ATOM     51  C   UNL A   1      44.240  26.197  30.454  1.00  0.00     0.029 A 
ATOM     52  N   UNL A   1      42.723  27.541  31.434  1.00  0.00    -0.354 N 
ATOM     53  N   UNL A   1      41.750  29.035  33.739  1.00  0.00    -0.248 NA
ATOM     54  C   UNL A   1      41.820  29.692  35.916  1.00  0.00     0.031 C 
ATOM     55  C   UNL A   1      44.637  26.395  31.739  1.00  0.00     0.029 A 
ATOM     56  C   UNL A   1      43.691  27.230  32.364  1.00  0.00     0.049 A 
ATOM     57  H   UNL A   1      41.940  28.118  31.586  1.00  0.00     0.167 HD
ATOM     58  C   UNL A   1      42.824  28.472  34.297  1.00  0.00     0.074 A 
ATOM     59  C   UNL A   1      42.880  28.881  35.707  1.00  0.00     0.031 C 
ATOM     60  C   UNL A   1      43.762  27.639  33.686  1.00  0.00     0.034 A 
BRANCH  47  61
ATOM     61  C   UNL A   1      42.880  26.129  27.889  1.00  0.00     0.023 A 
ATOM     62  C   UNL A   1      43.813  26.636  27.000  1.00  0.00     0.012 A 
ATOM     63  C   UNL A   1      42.446  24.878  27.794  1.00  0.00     0.148 A 
ATOM     64  C   UNL A   1      44.016  25.825  25.858  1.00  0.00     0.002 A 
ATOM     65  C   UNL A   1      42.795  24.096  26.719  1.00  0.00     0.091 A 
ATOM     66  F   UNL A   1      41.668  24.375  28.748  1.00  0.00    -0.205 F 
ATOM     67  C   UNL A   1      43.666  24.554  25.770  1.00  0.00     0.022 A 
BRANCH  65  68
ATOM     68  S   UNL A   1      42.089  22.438  26.555  1.00  0.00     0.127 S 
ATOM     69  O   UNL A   1      42.403  21.622  27.810  1.00  0.00    -0.237 OA
ATOM     70  O   UNL A   1      40.571  22.544  26.382  1.00  0.00    -0.237 OA
ATOM     71  O   UNL A   1      42.765  21.663  25.188  1.00  0.00    -0.744 OA
ENDBRANCH  65  68
ENDBRANCH  47  61
BRANCH  48  72
ATOM     72  C   UNL A   1      39.414  31.357  35.600  1.00  0.00     0.023 A 
ATOM     73  C   UNL A   1      38.426  30.856  36.431  1.00  0.00     0.012 A 
ATOM     74  C   UNL A   1      39.863  32.600  35.734  1.00  0.00     0.148 A 
ATOM     75  C   UNL A   1      37.765  31.845  37.197  1.00  0.00     0.002 A 
ATOM     76  C   UNL A   1      39.253  33.473  36.602  1.00  0.00     0.091 A 
ATOM     77  F   UNL A   1      40.912  33.002  35.023  1.00  0.00    -0.205 F 
ATOM     78  C   UNL A   1      38.231  33.062  37.412  1.00  0.00     0.022 A 
BRANCH  76  79
ATOM     79  S   UNL A   1      39.810  35.194  36.673  1.00  0.00     0.127 S 
ATOM     80  O   UNL A   1      39.282  35.952  35.452  1.00  0.00    -0.237 OA
ATOM     81  O   UNL A   1      39.279  35.850  37.950  1.00  0.00    -0.237 OA
ATOM     82  O   UNL A   1      41.519  35.240  36.678  1.00  0.00    -0.744 OA
ENDBRANCH  76  79
ENDBRANCH  48  72
BRANCH  60  83
ATOM     83  C   UNL A   1      44.933  27.148  34.523  1.00  0.00     0.023 A 
ATOM     84  C   UNL A   1      46.067  27.943  34.539  1.00  0.00     0.012 A 
ATOM     85  C   UNL A   1      44.833  26.074  35.296  1.00  0.00     0.148 A 
ATOM     86  C   UNL A   1      47.170  27.353  35.200  1.00  0.00     0.002 A 
ATOM     87  C   UNL A   1      45.912  25.630  36.021  1.00  0.00     0.091 A 
ATOM     88  F   UNL A   1      43.677  25.418  35.369  1.00  0.00    -0.205 F 
ATOM     89  C   UNL A   1      47.085  26.335  36.038  1.00  0.00     0.022 A 
BRANCH  87  90
ATOM     90  S   UNL A   1      45.782  24.094  36.970  1.00  0.00     0.127 S 
ATOM     91  O   UNL A   1      47.170  23.681  37.463  1.00  0.00    -0.237 OA
ATOM     92  O   UNL A   1      44.857  24.312  38.169  1.00  0.00    -0.237 OA
ATOM     93  O   UNL A   1      45.141  22.862  35.973  1.00  0.00    -0.744 OA
ENDBRANCH  87  90
ENDBRANCH  60  83
ENDBRANCH  34  35
ENDBRANCH  27  29
ENDBRANCH  26  27
ENDBRANCH   1  26
TORSDOF 16
ENDMDL
MODEL 3
REMARK VINA RESULT:     -12.6      1.492      1.759
REMARK SMILES O=C(OCCOC(=O)c1ccc(-c2c3nc(c(-c4cccc(S(=O)(=O)[O-])c4F)c4ccc([nH]4)c(-c4cccc(S(=O)(=O)[O-])c4F)c4nc(c(-c5cccc(S(=O)(=O)[O-])c5F)c5ccc2[nH]5)C=C4)C=C3)cc1)C1=Cc2cc(S(F)(F)(F)(F)F)ccc2O[C@H]1C(F)(F)F
REMARK SMILES IDX 5 1 4 2 3 3 2 4 1 5 72 6 73 7 87 8 74 9 86 10 75 11 85 12
REMARK SMILES IDX 76 13 84 14 83 15 88 16 89 17 90 18 91 19 77 20 78 21 79 22
REMARK SMILES IDX 80 23 81 24 82 25 6 26 7 27 8 28 9 29 10 30 71 31 11 32
REMARK SMILES IDX 70 33 12 34 13 35 14 36 64 37 15 38 69 39 63 40 65 41 16 42
REMARK SMILES IDX 68 43 62 44 61 45 17 47 49 48 29 49 48 50 30 51 33 52 47 53
REMARK SMILES IDX 66 54 31 55 32 56 46 58 67 59 34 60 18 61 19 62 27 63 20 64
REMARK SMILES IDX 22 65 28 66 21 67 23 68 24 69 25 70 26 71 50 72 51 73 59 74
REMARK SMILES IDX 52 75 54 76 60 77 53 78 55 79 56 80 57 81 58 82 35 83 36 84
REMARK SMILES IDX 44 85 37 86 39 87 45 88 38 89 40 90 41 91 42 92 43 93
REMARK H PARENT 65 46 33 57
REMARK Flexibility Score: inf
ROOT
ATOM      1  C   UNL A   1      36.908  21.578  25.682  1.00  0.00     0.275 C 
ENDROOT
BRANCH   1   2
ATOM      2  C   UNL A   1      36.301  22.354  24.524  1.00  0.00     0.275 C 
BRANCH   2   3
ATOM      3  O   UNL A   1      35.098  22.977  24.951  1.00  0.00    -0.459 OA
BRANCH   3   4
ATOM      4  C   UNL A   1      33.881  22.711  24.270  1.00  0.00     0.338 C 
ATOM      5  O   UNL A   1      33.890  22.473  23.021  1.00  0.00    -0.246 OA
BRANCH   4   6
ATOM      6  C   UNL A   1      32.566  22.712  25.033  1.00  0.00     0.087 C 
ATOM      7  C   UNL A   1      32.021  23.887  25.447  1.00  0.00     0.027 C 
ATOM      8  C   UNL A   1      31.862  21.399  25.336  1.00  0.00     0.316 C 
ATOM      9  C   UNL A   1      32.726  25.200  25.146  1.00  0.00     0.019 A 
ATOM     10  O   UNL A   1      33.298  24.360  22.998  1.00  0.00    -0.475 OA
ATOM     11  C   UNL A   1      32.774  26.170  26.133  1.00  0.00     0.036 A 
ATOM     12  C   UNL A   1      33.218  25.425  23.934  1.00  0.00     0.128 A 
ATOM     13  C   UNL A   1      33.108  27.459  25.654  1.00  0.00     0.107 A 
ATOM     14  C   UNL A   1      33.653  26.678  23.577  1.00  0.00     0.048 A 
ATOM     15  C   UNL A   1      33.673  27.700  24.485  1.00  0.00     0.028 A 
BRANCH   8  16
ATOM     16  C   UNL A   1      32.674  20.247  24.768  1.00  0.00     0.430 C 
ATOM     17  F   UNL A   1      32.668  20.305  23.439  1.00  0.00    -0.167 F 
ATOM     18  F   UNL A   1      33.927  20.337  25.209  1.00  0.00    -0.167 F 
ATOM     19  F   UNL A   1      32.149  19.092  25.164  1.00  0.00    -0.167 F 
ENDBRANCH   8  16
BRANCH  13  20
ATOM     20  S   UNL A   1      32.733  28.876  26.716  1.00  0.00     0.310 S 
ATOM     21  F   UNL A   1      31.915  27.974  27.733  1.00  0.00    -0.094 F 
ATOM     22  F   UNL A   1      31.389  29.077  25.920  1.00  0.00    -0.094 F 
ATOM     23  F   UNL A   1      32.408  30.092  27.628  1.00  0.00    -0.094 F 
ATOM     24  F   UNL A   1      34.013  28.572  27.590  1.00  0.00    -0.094 F 
ATOM     25  F   UNL A   1      33.020  27.571  25.871  1.00  0.00    -0.094 F 
ENDBRANCH  13  20
ENDBRANCH   4   6
ENDBRANCH   3   4
ENDBRANCH   2   3
ENDBRANCH   1   2
BRANCH   1  26
ATOM     26  O   UNL A   1      38.134  20.994  25.269  1.00  0.00    -0.458 OA
BRANCH  26  27
ATOM     27  C   UNL A   1      39.268  21.044  26.122  1.00  0.00     0.338 C 
ATOM     28  O   UNL A   1      39.832  19.967  26.494  1.00  0.00    -0.246 OA
BRANCH  27  29
ATOM     29  C   UNL A   1      39.806  22.386  26.591  1.00  0.00     0.060 A 
ATOM     30  C   UNL A   1      40.861  22.374  27.489  1.00  0.00     0.016 A 
ATOM     31  C   UNL A   1      39.345  23.524  26.085  1.00  0.00     0.016 A 
ATOM     32  C   UNL A   1      41.180  23.648  28.015  1.00  0.00     0.010 A 
ATOM     33  C   UNL A   1      39.800  24.732  26.552  1.00  0.00     0.010 A 
ATOM     34  C   UNL A   1      40.801  24.796  27.483  1.00  0.00    -0.014 A 
BRANCH  34  35
ATOM     35  C   UNL A   1      41.442  26.114  27.881  1.00  0.00     0.031 A 
ATOM     36  C   UNL A   1      40.692  27.051  28.594  1.00  0.00     0.074 A 
ATOM     37  C   UNL A   1      42.714  26.355  27.389  1.00  0.00     0.049 A 
ATOM     38  N   UNL A   1      41.054  28.285  28.948  1.00  0.00    -0.248 NA
ATOM     39  C   UNL A   1      39.328  26.811  29.088  1.00  0.00     0.031 C 
ATOM     40  C   UNL A   1      43.481  25.412  26.677  1.00  0.00     0.029 A 
ATOM     41  N   UNL A   1      43.454  27.511  27.488  1.00  0.00    -0.354 N 
ATOM     42  C   UNL A   1      40.075  28.873  29.638  1.00  0.00     0.074 A 
ATOM     43  C   UNL A   1      38.948  27.935  29.733  1.00  0.00     0.031 C 
ATOM     44  C   UNL A   1      44.661  25.996  26.342  1.00  0.00     0.029 A 
ATOM     45  C   UNL A   1      44.652  27.313  26.840  1.00  0.00     0.049 A 
ATOM     46  H   UNL A   1      43.175  28.338  27.945  1.00  0.00     0.167 HD
ATOM     47  C   UNL A   1      40.078  30.154  30.193  1.00  0.00     0.034 A 
ATOM     48  C   UNL A   1      45.691  28.216  26.679  1.00  0.00     0.034 A 
ATOM     49  C   UNL A   1      41.134  31.042  30.069  1.00  0.00     0.049 A 
ATOM     50  C   UNL A   1      45.671  29.518  27.184  1.00  0.00     0.074 A 
ATOM     51  C   UNL A   1      41.157  32.334  30.629  1.00  0.00     0.029 A 
ATOM     52  N   UNL A   1      42.322  30.852  29.399  1.00  0.00    -0.354 N 
ATOM     53  N   UNL A   1      44.708  30.092  27.908  1.00  0.00    -0.248 NA
ATOM     54  C   UNL A   1      46.750  30.495  26.992  1.00  0.00     0.031 C 
ATOM     55  C   UNL A   1      42.338  32.918  30.294  1.00  0.00     0.029 A 
ATOM     56  C   UNL A   1      43.073  32.002  29.518  1.00  0.00     0.049 A 
ATOM     57  H   UNL A   1      42.589  30.036  28.919  1.00  0.00     0.167 HD
ATOM     58  C   UNL A   1      45.054  31.341  28.226  1.00  0.00     0.074 A 
ATOM     59  C   UNL A   1      46.370  31.621  27.635  1.00  0.00     0.031 C 
ATOM     60  C   UNL A   1      44.328  32.257  28.988  1.00  0.00     0.034 A 
BRANCH  47  61
ATOM     61  C   UNL A   1      38.854  30.599  30.977  1.00  0.00     0.023 A 
ATOM     62  C   UNL A   1      38.720  30.402  32.342  1.00  0.00     0.012 A 
ATOM     63  C   UNL A   1      37.928  31.245  30.279  1.00  0.00     0.148 A 
ATOM     64  C   UNL A   1      37.423  30.678  32.836  1.00  0.00     0.002 A 
ATOM     65  C   UNL A   1      36.737  31.605  30.863  1.00  0.00     0.091 A 
ATOM     66  F   UNL A   1      38.155  31.550  29.005  1.00  0.00    -0.205 F 
ATOM     67  C   UNL A   1      36.512  31.388  32.194  1.00  0.00     0.022 A 
BRANCH  65  68
ATOM     68  S   UNL A   1      35.447  32.376  29.855  1.00  0.00     0.127 S 
ATOM     69  O   UNL A   1      35.016  31.410  28.750  1.00  0.00    -0.237 OA
ATOM     70  O   UNL A   1      34.242  32.710  30.738  1.00  0.00    -0.237 OA
ATOM     71  O   UNL A   1      36.053  33.812  29.152  1.00  0.00    -0.744 OA
ENDBRANCH  65  68
ENDBRANCH  47  61
BRANCH  48  72
ATOM     72  C   UNL A   1      46.921  27.765  25.908  1.00  0.00     0.023 A 
ATOM     73  C   UNL A   1      46.981  27.863  24.527  1.00  0.00     0.012 A 
ATOM     74  C   UNL A   1      47.895  27.188  26.602  1.00  0.00     0.148 A 
ATOM     75  C   UNL A   1      47.988  27.060  23.940  1.00  0.00     0.002 A 
ATOM     76  C   UNL A   1      48.920  26.537  25.958  1.00  0.00     0.091 A 
ATOM     77  F   UNL A   1      47.879  27.243  27.930  1.00  0.00    -0.205 F 
ATOM     78  C   UNL A   1      49.011  26.542  24.594  1.00  0.00     0.022 A 
BRANCH  76  79
ATOM     79  S   UNL A   1      50.166  25.657  26.932  1.00  0.00     0.127 S 
ATOM     80  O   UNL A   1      49.520  24.453  27.622  1.00  0.00    -0.237 OA
ATOM     81  O   UNL A   1      51.288  25.175  26.009  1.00  0.00    -0.237 OA
ATOM     82  O   UNL A   1      50.814  26.710  28.114  1.00  0.00    -0.744 OA
ENDBRANCH  76  79
ENDBRANCH  48  72
BRANCH  60  83
ATOM     83  C   UNL A   1      44.950  33.619  29.251  1.00  0.00     0.023 A 
ATOM     84  C   UNL A   1      45.668  33.762  30.427  1.00  0.00     0.012 A 
ATOM     85  C   UNL A   1      44.911  34.588  28.345  1.00  0.00     0.148 A 
ATOM     86  C   UNL A   1      46.081  35.089  30.688  1.00  0.00     0.002 A 
ATOM     87  C   UNL A   1      45.454  35.821  28.615  1.00  0.00     0.091 A 
ATOM     88  F   UNL A   1      44.340  34.365  27.164  1.00  0.00    -0.205 F 
ATOM     89  C   UNL A   1      46.128  36.052  29.783  1.00  0.00     0.022 A 
BRANCH  87  90
ATOM     90  S   UNL A   1      45.278  37.159  27.409  1.00  0.00     0.127 S 
ATOM     91  O   UNL A   1      43.830  37.214  26.918  1.00  0.00    -0.237 OA
ATOM     92  O   UNL A   1      45.646  38.491  28.066  1.00  0.00    -0.237 OA
ATOM     93  O   UNL A   1      46.318  36.871  26.082  1.00  0.00    -0.744 OA
ENDBRANCH  87  90
ENDBRANCH  60  83
ENDBRANCH  34  35
ENDBRANCH  27  29
ENDBRANCH  26  27
ENDBRANCH   1  26
TORSDOF 16
ENDMDL
