MODEL 1
REMARK VINA RESULT:     -11.9      0.000      0.000
REMARK SMILES O=C(/C=C/c1cc(F)cc(CN2CCCCC2=O)c1)OCCOC(=O)c1ccc(-c2c3nc(c(-c4cccc(S(=O)(=O)[O-])c4F)c4ccc([nH]4)c(-c4cccc(S(=O)(=O)[O-])c4F)c4nc(c(-c5cccc(S(=O)(=O)[O-])c5F)c5ccc2[nH]5)C=C4)C=C3)cc1
REMARK SMILES IDX 21 1 20 2 2 3 1 4 3 5 4 6 5 7 6 8 19 9 7 10 10 11 8 12 9 13
REMARK SMILES IDX 11 14 12 15 13 16 17 17 14 18 16 19 18 20 15 21 22 22 23 23
REMARK SMILES IDX 24 24 25 25 26 26 27 27 88 28 28 29 87 30 29 31 30 32 31 33
REMARK SMILES IDX 81 34 32 35 86 36 80 37 82 38 33 39 85 40 79 41 78 42 34 44
REMARK SMILES IDX 66 45 46 46 65 47 47 48 50 49 64 50 83 51 48 52 49 53 63 55
REMARK SMILES IDX 84 56 51 57 35 58 36 59 44 60 37 61 39 62 45 63 38 64 40 65
REMARK SMILES IDX 41 66 42 67 43 68 67 69 68 70 76 71 69 72 71 73 77 74 70 75
REMARK SMILES IDX 72 76 73 77 74 78 75 79 52 80 53 81 61 82 54 83 56 84 62 85
REMARK SMILES IDX 55 86 57 87 58 88 59 89 60 90
REMARK H PARENT 82 43 50 54
REMARK Flexibility Score: inf
ROOT
ATOM      1  C   UNL A   1      31.793  29.261  24.853  1.00  0.00     0.275 C 
ENDROOT
BRANCH   1   2
ATOM      2  O   UNL A   1      33.137  28.792  24.627  1.00  0.00    -0.459 OA
BRANCH   2   3
ATOM      3  C   UNL A   1      33.551  27.793  23.814  1.00  0.00     0.330 C 
ATOM      4  O   UNL A   1      33.659  27.982  22.605  1.00  0.00    -0.247 OA
BRANCH   3   5
ATOM      5  C   UNL A   1      33.692  26.417  24.321  1.00  0.00     0.094 C 
ATOM      6  C   UNL A   1      33.794  25.272  23.632  1.00  0.00     0.016 C 
BRANCH   6   7
ATOM      7  C   UNL A   1      34.100  23.994  24.288  1.00  0.00    -0.022 A 
ATOM      8  C   UNL A   1      35.329  23.765  24.901  1.00  0.00     0.047 A 
ATOM      9  C   UNL A   1      33.115  22.985  24.314  1.00  0.00     0.014 A 
ATOM     10  C   UNL A   1      35.562  22.547  25.523  1.00  0.00     0.124 A 
ATOM     11  C   UNL A   1      33.347  21.746  24.942  1.00  0.00    -0.025 A 
ATOM     12  F   UNL A   1      36.742  22.340  26.119  1.00  0.00    -0.207 F 
ATOM     13  C   UNL A   1      34.592  21.551  25.556  1.00  0.00     0.044 A 
BRANCH  11  14
ATOM     14  C   UNL A   1      32.244  20.708  25.050  1.00  0.00     0.155 C 
BRANCH  14  15
ATOM     15  N   UNL A   1      32.509  19.464  24.325  1.00  0.00    -0.338 N 
ATOM     16  C   UNL A   1      32.443  19.477  22.869  1.00  0.00     0.120 C 
ATOM     17  C   UNL A   1      32.747  18.305  25.047  1.00  0.00     0.222 C 
ATOM     18  C   UNL A   1      32.351  18.082  22.270  1.00  0.00     0.022 C 
ATOM     19  C   UNL A   1      33.388  17.131  24.324  1.00  0.00     0.100 C 
ATOM     20  O   UNL A   1      32.485  18.219  26.247  1.00  0.00    -0.275 OA
ATOM     21  C   UNL A   1      33.498  17.255  22.813  1.00  0.00     0.012 C 
ENDBRANCH  14  15
ENDBRANCH  11  14
ENDBRANCH   6   7
ENDBRANCH   3   5
ENDBRANCH   2   3
ENDBRANCH   1   2
BRANCH   1  22
ATOM     22  C   UNL A   1      31.671  30.504  25.739  1.00  0.00     0.275 C 
BRANCH  22  23
ATOM     23  O   UNL A   1      32.465  30.435  26.932  1.00  0.00    -0.458 OA
BRANCH  23  24
ATOM     24  C   UNL A   1      33.131  31.578  27.242  1.00  0.00     0.338 C 
ATOM     25  O   UNL A   1      32.681  32.711  27.187  1.00  0.00    -0.246 OA
BRANCH  24  26
ATOM     26  C   UNL A   1      34.471  31.264  27.792  1.00  0.00     0.060 A 
ATOM     27  C   UNL A   1      34.746  29.932  28.127  1.00  0.00     0.016 A 
ATOM     28  C   UNL A   1      35.445  32.248  27.983  1.00  0.00     0.016 A 
ATOM     29  C   UNL A   1      35.981  29.586  28.679  1.00  0.00     0.010 A 
ATOM     30  C   UNL A   1      36.682  31.899  28.536  1.00  0.00     0.010 A 
ATOM     31  C   UNL A   1      36.949  30.572  28.915  1.00  0.00    -0.014 A 
BRANCH  31  32
ATOM     32  C   UNL A   1      38.187  30.250  29.669  1.00  0.00     0.031 A 
ATOM     33  C   UNL A   1      39.176  29.288  29.071  1.00  0.00     0.074 A 
ATOM     34  C   UNL A   1      38.426  30.785  30.882  1.00  0.00     0.049 A 
ATOM     35  N   UNL A   1      40.280  28.811  29.583  1.00  0.00    -0.248 NA
ATOM     36  C   UNL A   1      38.882  28.796  27.714  1.00  0.00     0.031 C 
ATOM     37  C   UNL A   1      37.559  31.736  31.572  1.00  0.00     0.029 A 
ATOM     38  N   UNL A   1      39.463  30.576  31.759  1.00  0.00    -0.354 N 
ATOM     39  C   UNL A   1      40.801  27.949  28.626  1.00  0.00     0.074 A 
ATOM     40  C   UNL A   1      39.886  27.957  27.506  1.00  0.00     0.031 C 
ATOM     41  C   UNL A   1      38.083  32.007  32.780  1.00  0.00     0.029 A 
ATOM     42  C   UNL A   1      39.312  31.236  32.957  1.00  0.00     0.049 A 
ATOM     43  H   UNL A   1      40.241  30.011  31.549  1.00  0.00     0.167 HD
ATOM     44  C   UNL A   1      41.948  27.231  28.667  1.00  0.00     0.034 A 
ATOM     45  C   UNL A   1      40.067  31.204  34.076  1.00  0.00     0.034 A 
ATOM     46  C   UNL A   1      42.877  27.240  29.763  1.00  0.00     0.049 A 
ATOM     47  C   UNL A   1      41.321  30.364  34.105  1.00  0.00     0.074 A 
ATOM     48  C   UNL A   1      44.083  26.568  29.868  1.00  0.00     0.029 A 
ATOM     49  N   UNL A   1      42.711  27.948  30.941  1.00  0.00    -0.354 N 
ATOM     50  N   UNL A   1      41.855  29.640  33.152  1.00  0.00    -0.248 NA
ATOM     51  C   UNL A   1      42.093  30.361  35.358  1.00  0.00     0.031 C 
ATOM     52  C   UNL A   1      44.635  26.853  31.119  1.00  0.00     0.029 A 
ATOM     53  C   UNL A   1      43.785  27.721  31.785  1.00  0.00     0.049 A 
ATOM     54  H   UNL A   1      41.943  28.528  31.149  1.00  0.00     0.167 HD
ATOM     55  C   UNL A   1      43.037  29.124  33.678  1.00  0.00     0.074 A 
ATOM     56  C   UNL A   1      43.154  29.638  35.025  1.00  0.00     0.031 C 
ATOM     57  C   UNL A   1      43.931  28.282  33.102  1.00  0.00     0.034 A 
BRANCH  44  58
ATOM     58  C   UNL A   1      42.299  26.397  27.465  1.00  0.00     0.023 A 
ATOM     59  C   UNL A   1      43.085  26.960  26.441  1.00  0.00     0.012 A 
ATOM     60  C   UNL A   1      41.941  25.037  27.401  1.00  0.00     0.148 A 
ATOM     61  C   UNL A   1      43.503  26.183  25.362  1.00  0.00     0.002 A 
ATOM     62  C   UNL A   1      42.395  24.258  26.343  1.00  0.00     0.091 A 
ATOM     63  F   UNL A   1      41.175  24.532  28.377  1.00  0.00    -0.205 F 
ATOM     64  C   UNL A   1      43.169  24.831  25.320  1.00  0.00     0.022 A 
BRANCH  62  65
ATOM     65  S   UNL A   1      42.083  22.493  26.232  1.00  0.00     0.127 S 
ATOM     66  O   UNL A   1      42.787  22.148  24.996  1.00  0.00    -0.237 OA
ATOM     67  O   UNL A   1      42.711  21.994  27.453  1.00  0.00    -0.237 OA
ATOM     68  O   UNL A   1      40.635  22.342  26.180  1.00  0.00    -0.744 OA
ENDBRANCH  62  65
ENDBRANCH  44  58
BRANCH  45  69
ATOM     69  C   UNL A   1      39.690  32.032  35.257  1.00  0.00     0.023 A 
ATOM     70  C   UNL A   1      40.182  33.349  35.358  1.00  0.00     0.012 A 
ATOM     71  C   UNL A   1      38.855  31.532  36.276  1.00  0.00     0.148 A 
ATOM     72  C   UNL A   1      39.877  34.141  36.466  1.00  0.00     0.002 A 
ATOM     73  C   UNL A   1      38.511  32.345  37.351  1.00  0.00     0.091 A 
ATOM     74  F   UNL A   1      38.414  30.271  36.175  1.00  0.00    -0.205 F 
ATOM     75  C   UNL A   1      39.035  33.644  37.455  1.00  0.00     0.022 A 
BRANCH  73  76
ATOM     76  S   UNL A   1      37.346  31.840  38.621  1.00  0.00     0.127 S 
ATOM     77  O   UNL A   1      38.117  32.070  39.842  1.00  0.00    -0.237 OA
ATOM     78  O   UNL A   1      36.242  32.775  38.406  1.00  0.00    -0.237 OA
ATOM     79  O   UNL A   1      37.025  30.449  38.334  1.00  0.00    -0.744 OA
ENDBRANCH  73  76
ENDBRANCH  45  69
BRANCH  57  80
ATOM     80  C   UNL A   1      45.140  27.868  33.904  1.00  0.00     0.023 A 
ATOM     81  C   UNL A   1      46.259  28.722  33.967  1.00  0.00     0.012 A 
ATOM     82  C   UNL A   1      45.127  26.691  34.680  1.00  0.00     0.148 A 
ATOM     83  C   UNL A   1      47.353  28.401  34.770  1.00  0.00     0.002 A 
ATOM     84  C   UNL A   1      46.200  26.402  35.516  1.00  0.00     0.091 A 
ATOM     85  F   UNL A   1      44.061  25.881  34.598  1.00  0.00    -0.205 F 
ATOM     86  C   UNL A   1      47.319  27.251  35.554  1.00  0.00     0.022 A 
BRANCH  84  87
ATOM     87  S   UNL A   1      46.199  24.999  36.640  1.00  0.00     0.127 S 
ATOM     88  O   UNL A   1      45.301  25.463  37.695  1.00  0.00    -0.237 OA
ATOM     89  O   UNL A   1      45.655  23.929  35.803  1.00  0.00    -0.237 OA
ATOM     90  O   UNL A   1      47.587  24.805  37.038  1.00  0.00    -0.744 OA
ENDBRANCH  84  87
ENDBRANCH  57  80
ENDBRANCH  31  32
ENDBRANCH  24  26
ENDBRANCH  23  24
ENDBRANCH  22  23
ENDBRANCH   1  22
TORSDOF 17
ENDMDL
MODEL 2
REMARK VINA RESULT:     -11.8      2.333      8.829
REMARK SMILES O=C(/C=C/c1cc(F)cc(CN2CCCCC2=O)c1)OCCOC(=O)c1ccc(-c2c3nc(c(-c4cccc(S(=O)(=O)[O-])c4F)c4ccc([nH]4)c(-c4cccc(S(=O)(=O)[O-])c4F)c4nc(c(-c5cccc(S(=O)(=O)[O-])c5F)c5ccc2[nH]5)C=C4)C=C3)cc1
REMARK SMILES IDX 21 1 20 2 2 3 1 4 3 5 4 6 5 7 6 8 19 9 7 10 10 11 8 12 9 13
REMARK SMILES IDX 11 14 12 15 13 16 17 17 14 18 16 19 18 20 15 21 22 22 23 23
REMARK SMILES IDX 24 24 25 25 26 26 27 27 88 28 28 29 87 30 29 31 30 32 31 33
REMARK SMILES IDX 81 34 32 35 86 36 80 37 82 38 33 39 85 40 79 41 78 42 34 44
REMARK SMILES IDX 66 45 46 46 65 47 47 48 50 49 64 50 83 51 48 52 49 53 63 55
REMARK SMILES IDX 84 56 51 57 35 58 36 59 44 60 37 61 39 62 45 63 38 64 40 65
REMARK SMILES IDX 41 66 42 67 43 68 67 69 68 70 76 71 69 72 71 73 77 74 70 75
REMARK SMILES IDX 72 76 73 77 74 78 75 79 52 80 53 81 61 82 54 83 56 84 62 85
REMARK SMILES IDX 55 86 57 87 58 88 59 89 60 90
REMARK H PARENT 82 43 50 54
REMARK Flexibility Score: inf
ROOT
ATOM      1  C   UNL A   1      44.530  21.531  25.681  1.00  0.00     0.275 C 
ENDROOT
BRANCH   1   2
ATOM      2  O   UNL A   1      43.987  20.198  25.680  1.00  0.00    -0.459 OA
BRANCH   2   3
ATOM      3  C   UNL A   1      42.816  19.768  26.205  1.00  0.00     0.330 C 
ATOM      4  O   UNL A   1      42.727  18.641  26.685  1.00  0.00    -0.247 OA
BRANCH   3   5
ATOM      5  C   UNL A   1      41.582  20.556  26.038  1.00  0.00     0.094 C 
ATOM      6  C   UNL A   1      40.826  21.145  26.975  1.00  0.00     0.016 C 
BRANCH   6   7
ATOM      7  C   UNL A   1      39.714  22.041  26.628  1.00  0.00    -0.022 A 
ATOM      8  C   UNL A   1      39.637  23.336  27.133  1.00  0.00     0.047 A 
ATOM      9  C   UNL A   1      38.715  21.581  25.746  1.00  0.00     0.014 A 
ATOM     10  C   UNL A   1      38.576  24.149  26.760  1.00  0.00     0.124 A 
ATOM     11  C   UNL A   1      37.635  22.400  25.366  1.00  0.00    -0.025 A 
ATOM     12  F   UNL A   1      38.516  25.396  27.241  1.00  0.00    -0.207 F 
ATOM     13  C   UNL A   1      37.591  23.702  25.886  1.00  0.00     0.044 A 
BRANCH  11  14
ATOM     14  C   UNL A   1      36.621  21.929  24.337  1.00  0.00     0.155 C 
BRANCH  14  15
ATOM     15  N   UNL A   1      35.238  22.300  24.637  1.00  0.00    -0.338 N 
ATOM     16  C   UNL A   1      34.530  21.572  25.682  1.00  0.00     0.120 C 
ATOM     17  C   UNL A   1      34.626  23.281  23.872  1.00  0.00     0.222 C 
ATOM     18  C   UNL A   1      33.024  21.777  25.629  1.00  0.00     0.022 C 
ATOM     19  C   UNL A   1      33.359  23.923  24.413  1.00  0.00     0.100 C 
ATOM     20  O   UNL A   1      35.097  23.660  22.799  1.00  0.00    -0.275 OA
ATOM     21  C   UNL A   1      32.747  23.266  25.639  1.00  0.00     0.012 C 
ENDBRANCH  14  15
ENDBRANCH  11  14
ENDBRANCH   6   7
ENDBRANCH   3   5
ENDBRANCH   2   3
ENDBRANCH   1   2
BRANCH   1  22
ATOM     22  C   UNL A   1      44.353  22.314  24.377  1.00  0.00     0.275 C 
BRANCH  22  23
ATOM     23  O   UNL A   1      43.676  23.566  24.550  1.00  0.00    -0.458 OA
BRANCH  23  24
ATOM     24  C   UNL A   1      44.455  24.580  25.011  1.00  0.00     0.338 C 
ATOM     25  O   UNL A   1      45.568  24.873  24.606  1.00  0.00    -0.246 OA
BRANCH  24  26
ATOM     26  C   UNL A   1      43.716  25.390  26.008  1.00  0.00     0.060 A 
ATOM     27  C   UNL A   1      43.993  26.762  26.072  1.00  0.00     0.016 A 
ATOM     28  C   UNL A   1      42.773  24.828  26.872  1.00  0.00     0.016 A 
ATOM     29  C   UNL A   1      43.350  27.567  27.015  1.00  0.00     0.010 A 
ATOM     30  C   UNL A   1      42.129  25.635  27.816  1.00  0.00     0.010 A 
ATOM     31  C   UNL A   1      42.434  27.004  27.914  1.00  0.00    -0.014 A 
BRANCH  31  32
ATOM     32  C   UNL A   1      41.887  27.807  29.036  1.00  0.00     0.031 A 
ATOM     33  C   UNL A   1      42.566  27.745  30.377  1.00  0.00     0.074 A 
ATOM     34  C   UNL A   1      40.787  28.569  28.880  1.00  0.00     0.049 A 
ATOM     35  N   UNL A   1      42.219  28.301  31.508  1.00  0.00    -0.248 NA
ATOM     36  C   UNL A   1      43.801  26.946  30.456  1.00  0.00     0.031 C 
ATOM     37  C   UNL A   1      40.039  28.728  27.637  1.00  0.00     0.029 A 
ATOM     38  N   UNL A   1      40.093  29.329  29.791  1.00  0.00    -0.354 N 
ATOM     39  C   UNL A   1      43.174  27.906  32.435  1.00  0.00     0.074 A 
ATOM     40  C   UNL A   1      44.110  27.050  31.740  1.00  0.00     0.031 C 
ATOM     41  C   UNL A   1      38.972  29.512  27.867  1.00  0.00     0.029 A 
ATOM     42  C   UNL A   1      38.949  29.895  29.278  1.00  0.00     0.049 A 
ATOM     43  H   UNL A   1      40.388  29.459  30.721  1.00  0.00     0.167 HD
ATOM     44  C   UNL A   1      43.275  28.241  33.743  1.00  0.00     0.034 A 
ATOM     45  C   UNL A   1      37.984  30.621  29.881  1.00  0.00     0.034 A 
ATOM     46  C   UNL A   1      42.366  29.114  34.433  1.00  0.00     0.049 A 
ATOM     47  C   UNL A   1      38.105  30.947  31.350  1.00  0.00     0.074 A 
ATOM     48  C   UNL A   1      42.420  29.533  35.752  1.00  0.00     0.029 A 
ATOM     49  N   UNL A   1      41.244  29.698  33.873  1.00  0.00    -0.354 N 
ATOM     50  N   UNL A   1      39.071  30.656  32.186  1.00  0.00    -0.248 NA
ATOM     51  C   UNL A   1      37.013  31.729  31.952  1.00  0.00     0.031 C 
ATOM     52  C   UNL A   1      41.316  30.355  35.994  1.00  0.00     0.029 A 
ATOM     53  C   UNL A   1      40.588  30.466  34.821  1.00  0.00     0.049 A 
ATOM     54  H   UNL A   1      40.953  29.585  32.939  1.00  0.00     0.167 HD
ATOM     55  C   UNL A   1      38.721  31.243  33.399  1.00  0.00     0.074 A 
ATOM     56  C   UNL A   1      37.465  31.930  33.183  1.00  0.00     0.031 C 
ATOM     57  C   UNL A   1      39.371  31.199  34.588  1.00  0.00     0.034 A 
BRANCH  44  58
ATOM     58  C   UNL A   1      44.443  27.698  34.519  1.00  0.00     0.023 A 
ATOM     59  C   UNL A   1      45.625  28.460  34.611  1.00  0.00     0.012 A 
ATOM     60  C   UNL A   1      44.335  26.492  35.239  1.00  0.00     0.148 A 
ATOM     61  C   UNL A   1      46.688  28.024  35.400  1.00  0.00     0.002 A 
ATOM     62  C   UNL A   1      45.382  26.085  36.055  1.00  0.00     0.091 A 
ATOM     63  F   UNL A   1      43.208  25.776  35.117  1.00  0.00    -0.205 F 
ATOM     64  C   UNL A   1      46.561  26.845  36.132  1.00  0.00     0.022 A 
BRANCH  62  65
ATOM     65  S   UNL A   1      45.293  24.622  37.093  1.00  0.00     0.127 S 
ATOM     66  O   UNL A   1      44.150  24.938  37.949  1.00  0.00    -0.237 OA
ATOM     67  O   UNL A   1      45.049  23.565  36.113  1.00  0.00    -0.237 OA
ATOM     68  O   UNL A   1      46.574  24.536  37.781  1.00  0.00    -0.744 OA
ENDBRANCH  62  65
ENDBRANCH  44  58
BRANCH  45  69
ATOM     69  C   UNL A   1      36.830  31.137  29.089  1.00  0.00     0.023 A 
ATOM     70  C   UNL A   1      36.696  32.527  28.899  1.00  0.00     0.012 A 
ATOM     71  C   UNL A   1      35.870  30.272  28.527  1.00  0.00     0.148 A 
ATOM     72  C   UNL A   1      35.611  33.048  28.193  1.00  0.00     0.002 A 
ATOM     73  C   UNL A   1      34.821  30.795  27.778  1.00  0.00     0.091 A 
ATOM     74  F   UNL A   1      36.002  28.955  28.736  1.00  0.00    -0.205 F 
ATOM     75  C   UNL A   1      34.681  32.184  27.625  1.00  0.00     0.022 A 
BRANCH  73  76
ATOM     76  S   UNL A   1      33.633  29.762  26.913  1.00  0.00     0.127 S 
ATOM     77  O   UNL A   1      33.106  28.939  28.000  1.00  0.00    -0.237 OA
ATOM     78  O   UNL A   1      32.698  30.757  26.387  1.00  0.00    -0.237 OA
ATOM     79  O   UNL A   1      34.394  29.050  25.897  1.00  0.00    -0.744 OA
ENDBRANCH  73  76
ENDBRANCH  45  69
BRANCH  57  80
ATOM     80  C   UNL A   1      38.764  31.928  35.762  1.00  0.00     0.023 A 
ATOM     81  C   UNL A   1      38.703  33.335  35.750  1.00  0.00     0.012 A 
ATOM     82  C   UNL A   1      38.157  31.220  36.819  1.00  0.00     0.148 A 
ATOM     83  C   UNL A   1      38.069  34.027  36.783  1.00  0.00     0.002 A 
ATOM     84  C   UNL A   1      37.485  31.914  37.820  1.00  0.00     0.091 A 
ATOM     85  F   UNL A   1      38.236  29.881  36.823  1.00  0.00    -0.205 F 
ATOM     86  C   UNL A   1      37.449  33.318  37.808  1.00  0.00     0.022 A 
BRANCH  84  87
ATOM     87  S   UNL A   1      36.568  31.082  39.123  1.00  0.00     0.127 S 
ATOM     88  O   UNL A   1      35.408  31.959  39.278  1.00  0.00    -0.237 OA
ATOM     89  O   UNL A   1      36.274  29.783  38.519  1.00  0.00    -0.237 OA
ATOM     90  O   UNL A   1      37.466  31.024  40.269  1.00  0.00    -0.744 OA
ENDBRANCH  84  87
ENDBRANCH  57  80
ENDBRANCH  31  32
ENDBRANCH  24  26
ENDBRANCH  23  24
ENDBRANCH  22  23
ENDBRANCH   1  22
TORSDOF 17
ENDMDL
MODEL 3
REMARK VINA RESULT:     -11.7      1.840      2.490
REMARK SMILES O=C(/C=C/c1cc(F)cc(CN2CCCCC2=O)c1)OCCOC(=O)c1ccc(-c2c3nc(c(-c4cccc(S(=O)(=O)[O-])c4F)c4ccc([nH]4)c(-c4cccc(S(=O)(=O)[O-])c4F)c4nc(c(-c5cccc(S(=O)(=O)[O-])c5F)c5ccc2[nH]5)C=C4)C=C3)cc1
REMARK SMILES IDX 21 1 20 2 2 3 1 4 3 5 4 6 5 7 6 8 19 9 7 10 10 11 8 12 9 13
REMARK SMILES IDX 11 14 12 15 13 16 17 17 14 18 16 19 18 20 15 21 22 22 23 23
REMARK SMILES IDX 24 24 25 25 26 26 27 27 88 28 28 29 87 30 29 31 30 32 31 33
REMARK SMILES IDX 81 34 32 35 86 36 80 37 82 38 33 39 85 40 79 41 78 42 34 44
REMARK SMILES IDX 66 45 46 46 65 47 47 48 50 49 64 50 83 51 48 52 49 53 63 55
REMARK SMILES IDX 84 56 51 57 35 58 36 59 44 60 37 61 39 62 45 63 38 64 40 65
REMARK SMILES IDX 41 66 42 67 43 68 67 69 68 70 76 71 69 72 71 73 77 74 70 75
REMARK SMILES IDX 72 76 73 77 74 78 75 79 52 80 53 81 61 82 54 83 56 84 62 85
REMARK SMILES IDX 55 86 57 87 58 88 59 89 60 90
REMARK H PARENT 82 43 50 54
REMARK Flexibility Score: inf
ROOT
ATOM      1  C   UNL A   1      31.745  31.142  26.505  1.00  0.00     0.275 C 
ENDROOT
BRANCH   1   2
ATOM      2  O   UNL A   1      33.079  30.598  26.533  1.00  0.00    -0.459 OA
BRANCH   2   3
ATOM      3  C   UNL A   1      33.454  29.303  26.650  1.00  0.00     0.330 C 
ATOM      4  O   UNL A   1      34.312  28.977  27.467  1.00  0.00    -0.247 OA
BRANCH   3   5
ATOM      5  C   UNL A   1      32.995  28.295  25.679  1.00  0.00     0.094 C 
ATOM      6  C   UNL A   1      33.676  27.715  24.681  1.00  0.00     0.016 C 
BRANCH   6   7
ATOM      7  C   UNL A   1      33.120  26.598  23.905  1.00  0.00    -0.022 A 
ATOM      8  C   UNL A   1      33.271  26.525  22.522  1.00  0.00     0.047 A 
ATOM      9  C   UNL A   1      32.436  25.568  24.582  1.00  0.00     0.014 A 
ATOM     10  C   UNL A   1      32.743  25.441  21.837  1.00  0.00     0.124 A 
ATOM     11  C   UNL A   1      31.897  24.466  23.892  1.00  0.00    -0.025 A 
ATOM     12  F   UNL A   1      32.902  25.373  20.511  1.00  0.00    -0.207 F 
ATOM     13  C   UNL A   1      32.072  24.419  22.502  1.00  0.00     0.044 A 
BRANCH  11  14
ATOM     14  C   UNL A   1      31.251  23.314  24.644  1.00  0.00     0.155 C 
BRANCH  14  15
ATOM     15  N   UNL A   1      32.135  22.644  25.598  1.00  0.00    -0.338 N 
ATOM     16  C   UNL A   1      33.127  21.705  25.089  1.00  0.00     0.120 C 
ATOM     17  C   UNL A   1      31.954  22.870  26.953  1.00  0.00     0.222 C 
ATOM     18  C   UNL A   1      33.700  20.805  26.175  1.00  0.00     0.022 C 
ATOM     19  C   UNL A   1      33.083  22.491  27.899  1.00  0.00     0.100 C 
ATOM     20  O   UNL A   1      30.931  23.392  27.396  1.00  0.00    -0.275 OA
ATOM     21  C   UNL A   1      34.218  21.683  27.294  1.00  0.00     0.012 C 
ENDBRANCH  14  15
ENDBRANCH  11  14
ENDBRANCH   6   7
ENDBRANCH   3   5
ENDBRANCH   2   3
ENDBRANCH   1   2
BRANCH   1  22
ATOM     22  C   UNL A   1      31.627  32.613  26.912  1.00  0.00     0.275 C 
BRANCH  22  23
ATOM     23  O   UNL A   1      32.872  33.323  26.858  1.00  0.00    -0.458 OA
BRANCH  23  24
ATOM     24  C   UNL A   1      33.255  33.897  28.028  1.00  0.00     0.338 C 
ATOM     25  O   UNL A   1      32.636  34.747  28.649  1.00  0.00    -0.246 OA
BRANCH  24  26
ATOM     26  C   UNL A   1      34.489  33.258  28.540  1.00  0.00     0.060 A 
ATOM     27  C   UNL A   1      34.360  32.056  29.249  1.00  0.00     0.016 A 
ATOM     28  C   UNL A   1      35.754  33.817  28.341  1.00  0.00     0.016 A 
ATOM     29  C   UNL A   1      35.487  31.428  29.782  1.00  0.00     0.010 A 
ATOM     30  C   UNL A   1      36.883  33.186  28.875  1.00  0.00     0.010 A 
ATOM     31  C   UNL A   1      36.755  32.003  29.624  1.00  0.00    -0.014 A 
BRANCH  31  32
ATOM     32  C   UNL A   1      37.931  31.448  30.341  1.00  0.00     0.031 A 
ATOM     33  C   UNL A   1      38.764  30.392  29.667  1.00  0.00     0.074 A 
ATOM     34  C   UNL A   1      38.248  31.855  31.585  1.00  0.00     0.049 A 
ATOM     35  N   UNL A   1      39.784  29.720  30.133  1.00  0.00    -0.248 NA
ATOM     36  C   UNL A   1      38.398  30.045  28.283  1.00  0.00     0.031 C 
ATOM     37  C   UNL A   1      37.535  32.875  32.348  1.00  0.00     0.029 A 
ATOM     38  N   UNL A   1      39.243  31.433  32.434  1.00  0.00    -0.354 N 
ATOM     39  C   UNL A   1      40.169  28.859  29.114  1.00  0.00     0.074 A 
ATOM     40  C   UNL A   1      39.265  29.082  28.007  1.00  0.00     0.031 C 
ATOM     41  C   UNL A   1      38.094  32.980  33.565  1.00  0.00     0.029 A 
ATOM     42  C   UNL A   1      39.193  32.023  33.676  1.00  0.00     0.049 A 
ATOM     43  H   UNL A   1      39.927  30.773  32.177  1.00  0.00     0.167 HD
ATOM     44  C   UNL A   1      41.195  27.976  29.093  1.00  0.00     0.034 A 
ATOM     45  C   UNL A   1      39.936  31.801  34.781  1.00  0.00     0.034 A 
ATOM     46  C   UNL A   1      42.115  27.770  30.177  1.00  0.00     0.049 A 
ATOM     47  C   UNL A   1      41.049  30.783  34.739  1.00  0.00     0.074 A 
ATOM     48  C   UNL A   1      43.206  26.918  30.221  1.00  0.00     0.029 A 
ATOM     49  N   UNL A   1      42.058  28.411  31.402  1.00  0.00    -0.354 N 
ATOM     50  N   UNL A   1      41.468  30.055  33.733  1.00  0.00    -0.248 NA
ATOM     51  C   UNL A   1      41.812  30.577  35.981  1.00  0.00     0.031 C 
ATOM     52  C   UNL A   1      43.796  27.030  31.483  1.00  0.00     0.029 A 
ATOM     53  C   UNL A   1      43.087  27.967  32.216  1.00  0.00     0.049 A 
ATOM     54  H   UNL A   1      41.386  29.084  31.658  1.00  0.00     0.167 HD
ATOM     55  C   UNL A   1      42.559  29.331  34.209  1.00  0.00     0.074 A 
ATOM     56  C   UNL A   1      42.753  29.728  35.587  1.00  0.00     0.031 C 
ATOM     57  C   UNL A   1      43.316  28.408  33.567  1.00  0.00     0.034 A 
BRANCH  44  58
ATOM     58  C   UNL A   1      41.416  27.185  27.833  1.00  0.00     0.023 A 
ATOM     59  C   UNL A   1      41.987  27.818  26.712  1.00  0.00     0.012 A 
ATOM     60  C   UNL A   1      41.157  25.801  27.794  1.00  0.00     0.148 A 
ATOM     61  C   UNL A   1      42.289  27.087  25.564  1.00  0.00     0.002 A 
ATOM     62  C   UNL A   1      41.497  25.071  26.662  1.00  0.00     0.091 A 
ATOM     63  F   UNL A   1      40.593  25.227  28.866  1.00  0.00    -0.205 F 
ATOM     64  C   UNL A   1      42.056  25.713  25.544  1.00  0.00     0.022 A 
BRANCH  62  65
ATOM     65  S   UNL A   1      41.306  23.288  26.561  1.00  0.00     0.127 S 
ATOM     66  O   UNL A   1      42.163  22.965  25.420  1.00  0.00    -0.237 OA
ATOM     67  O   UNL A   1      41.823  22.851  27.857  1.00  0.00    -0.237 OA
ATOM     68  O   UNL A   1      39.885  23.045  26.354  1.00  0.00    -0.744 OA
ENDBRANCH  62  65
ENDBRANCH  44  58
BRANCH  45  69
ATOM     69  C   UNL A   1      39.688  32.592  36.021  1.00  0.00     0.023 A 
ATOM     70  C   UNL A   1      40.399  33.791  36.224  1.00  0.00     0.012 A 
ATOM     71  C   UNL A   1      38.761  32.171  36.996  1.00  0.00     0.148 A 
ATOM     72  C   UNL A   1      40.218  34.540  37.387  1.00  0.00     0.002 A 
ATOM     73  C   UNL A   1      38.546  32.950  38.128  1.00  0.00     0.091 A 
ATOM     74  F   UNL A   1      38.110  31.017  36.797  1.00  0.00    -0.205 F 
ATOM     75  C   UNL A   1      39.286  34.126  38.333  1.00  0.00     0.022 A 
BRANCH  73  76
ATOM     76  S   UNL A   1      37.289  32.563  39.351  1.00  0.00     0.127 S 
ATOM     77  O   UNL A   1      37.527  33.593  40.361  1.00  0.00    -0.237 OA
ATOM     78  O   UNL A   1      36.057  32.731  38.581  1.00  0.00    -0.237 OA
ATOM     79  O   UNL A   1      37.556  31.196  39.774  1.00  0.00    -0.744 OA
ENDBRANCH  73  76
ENDBRANCH  45  69
BRANCH  57  80
ATOM     80  C   UNL A   1      44.450  27.762  34.325  1.00  0.00     0.023 A 
ATOM     81  C   UNL A   1      45.736  28.334  34.272  1.00  0.00     0.012 A 
ATOM     82  C   UNL A   1      44.219  26.660  35.174  1.00  0.00     0.148 A 
ATOM     83  C   UNL A   1      46.780  27.805  35.032  1.00  0.00     0.002 A 
ATOM     84  C   UNL A   1      45.252  26.169  35.966  1.00  0.00     0.091 A 
ATOM     85  F   UNL A   1      42.993  26.118  35.202  1.00  0.00    -0.205 F 
ATOM     86  C   UNL A   1      46.536  26.734  35.888  1.00  0.00     0.022 A 
BRANCH  84  87
ATOM     87  S   UNL A   1      45.006  24.862  37.174  1.00  0.00     0.127 S 
ATOM     88  O   UNL A   1      46.336  24.752  37.771  1.00  0.00    -0.237 OA
ATOM     89  O   UNL A   1      43.988  25.437  38.055  1.00  0.00    -0.237 OA
ATOM     90  O   UNL A   1      44.560  23.699  36.419  1.00  0.00    -0.744 OA
ENDBRANCH  84  87
ENDBRANCH  57  80
ENDBRANCH  31  32
ENDBRANCH  24  26
ENDBRANCH  23  24
ENDBRANCH  22  23
ENDBRANCH   1  22
TORSDOF 17
ENDMDL
