MODEL 1
REMARK VINA RESULT:     -12.2      0.000      0.000
REMARK SMILES CC(C)N1C[C@@H](C(=O)N2CCC(C(=O)OCCOC(=O)c3ccc(-c4c5nc(c(-c6cccc(S(=O)(=O)[O-])c6F)c6ccc([nH]6)c(-c6cccc(S(=O)(=O)[O-])c6F)c6nc(c(-c7cccc(S(=O)(=O)[O-])c7F)c7ccc4[nH]7)C=C6)C=C5)cc3)CC2)CC1=O
REMARK SMILES IDX 17 1 16 2 15 3 13 4 14 5 12 6 7 7 8 8 9 9 10 10 85 11 11 12
REMARK SMILES IDX 84 13 6 14 4 15 5 16 87 17 86 18 88 19 2 20 1 21 3 22 18 23
REMARK SMILES IDX 19 24 20 25 21 26 22 27 83 28 23 29 82 30 24 31 25 32 26 33
REMARK SMILES IDX 76 34 27 35 81 36 75 37 77 38 28 39 80 40 74 41 73 42 29 44
REMARK SMILES IDX 61 45 41 46 60 47 42 48 45 49 59 50 78 51 43 52 44 53 58 55
REMARK SMILES IDX 79 56 46 57 30 58 31 59 39 60 32 61 34 62 40 63 33 64 35 65
REMARK SMILES IDX 36 66 37 67 38 68 62 69 63 70 71 71 64 72 66 73 72 74 65 75
REMARK SMILES IDX 67 76 68 77 69 78 70 79 47 80 48 81 56 82 49 83 51 84 57 85
REMARK SMILES IDX 50 86 52 87 53 88 54 89 55 90
REMARK H PARENT 77 43 45 54
REMARK Flexibility Score: inf
ROOT
ATOM      1  C   UNL A   1      31.714  29.879  26.360  1.00  0.00     0.275 C 
ENDROOT
BRANCH   1   2
ATOM      2  C   UNL A   1      31.523  28.744  25.350  1.00  0.00     0.274 C 
BRANCH   2   3
ATOM      3  O   UNL A   1      32.358  27.617  25.674  1.00  0.00    -0.462 OA
BRANCH   3   4
ATOM      4  C   UNL A   1      31.713  26.474  26.016  1.00  0.00     0.309 C 
ATOM      5  O   UNL A   1      30.820  26.398  26.852  1.00  0.00    -0.252 OA
BRANCH   4   6
ATOM      6  C   UNL A   1      32.191  25.262  25.245  1.00  0.00     0.103 C 
ATOM      7  C   UNL A   1      32.868  21.298  25.377  1.00  0.00     0.227 C 
ATOM      8  O   UNL A   1      33.518  21.204  26.424  1.00  0.00    -0.274 OA
ATOM      9  N   UNL A   1      32.774  22.504  24.709  1.00  0.00    -0.342 N 
ATOM     10  C   UNL A   1      33.874  23.457  24.856  1.00  0.00     0.120 C 
ATOM     11  C   UNL A   1      31.532  23.084  24.207  1.00  0.00     0.120 C 
ATOM     12  C   UNL A   1      33.485  24.621  25.758  1.00  0.00     0.037 C 
ATOM     13  C   UNL A   1      31.079  24.218  25.131  1.00  0.00     0.037 C 
BRANCH   7  14
ATOM     14  C   UNL A   1      32.376  20.019  24.716  1.00  0.00     0.107 C 
ATOM     15  N   UNL A   1      32.932  17.799  24.267  1.00  0.00    -0.339 N 
ATOM     16  C   UNL A   1      33.127  18.818  25.264  1.00  0.00     0.133 C 
ATOM     17  C   UNL A   1      32.497  18.323  23.061  1.00  0.00     0.223 C 
ATOM     18  C   UNL A   1      32.375  19.822  23.209  1.00  0.00     0.115 C 
ATOM     19  O   UNL A   1      32.271  17.709  22.030  1.00  0.00    -0.275 OA
BRANCH  15  20
ATOM     20  C   UNL A   1      33.216  16.393  24.550  1.00  0.00     0.078 C 
ATOM     21  C   UNL A   1      34.705  16.173  24.806  1.00  0.00     0.031 C 
ATOM     22  C   UNL A   1      32.363  15.852  25.695  1.00  0.00     0.031 C 
ENDBRANCH  15  20
ENDBRANCH   7  14
ENDBRANCH   4   6
ENDBRANCH   3   4
ENDBRANCH   2   3
ENDBRANCH   1   2
BRANCH   1  23
ATOM     23  O   UNL A   1      32.886  30.663  26.069  1.00  0.00    -0.458 OA
BRANCH  23  24
ATOM     24  C   UNL A   1      33.211  31.580  27.009  1.00  0.00     0.338 C 
ATOM     25  O   UNL A   1      32.513  32.485  27.431  1.00  0.00    -0.246 OA
BRANCH  24  26
ATOM     26  C   UNL A   1      34.531  31.273  27.577  1.00  0.00     0.060 A 
ATOM     27  C   UNL A   1      34.797  29.951  27.936  1.00  0.00     0.016 A 
ATOM     28  C   UNL A   1      35.448  32.282  27.866  1.00  0.00     0.016 A 
ATOM     29  C   UNL A   1      35.969  29.626  28.611  1.00  0.00     0.010 A 
ATOM     30  C   UNL A   1      36.638  31.953  28.526  1.00  0.00     0.010 A 
ATOM     31  C   UNL A   1      36.897  30.626  28.918  1.00  0.00    -0.014 A 
BRANCH  31  32
ATOM     32  C   UNL A   1      38.117  30.285  29.689  1.00  0.00     0.031 A 
ATOM     33  C   UNL A   1      39.143  29.361  29.097  1.00  0.00     0.074 A 
ATOM     34  C   UNL A   1      38.301  30.811  30.915  1.00  0.00     0.049 A 
ATOM     35  N   UNL A   1      40.222  28.866  29.645  1.00  0.00    -0.248 NA
ATOM     36  C   UNL A   1      38.928  28.937  27.704  1.00  0.00     0.031 C 
ATOM     37  C   UNL A   1      37.387  31.740  31.582  1.00  0.00     0.029 A 
ATOM     38  N   UNL A   1      39.309  30.622  31.827  1.00  0.00    -0.354 N 
ATOM     39  C   UNL A   1      40.791  28.039  28.685  1.00  0.00     0.074 A 
ATOM     40  C   UNL A   1      39.938  28.099  27.517  1.00  0.00     0.031 C 
ATOM     41  C   UNL A   1      37.866  32.027  32.802  1.00  0.00     0.029 A 
ATOM     42  C   UNL A   1      39.095  31.270  33.021  1.00  0.00     0.049 A 
ATOM     43  H   UNL A   1      40.108  30.077  31.643  1.00  0.00     0.167 HD
ATOM     44  C   UNL A   1      41.929  27.309  28.764  1.00  0.00     0.034 A 
ATOM     45  C   UNL A   1      39.793  31.231  34.173  1.00  0.00     0.034 A 
ATOM     46  C   UNL A   1      42.790  27.281  29.916  1.00  0.00     0.049 A 
ATOM     47  C   UNL A   1      41.040  30.391  34.241  1.00  0.00     0.074 A 
ATOM     48  C   UNL A   1      43.973  26.586  30.090  1.00  0.00     0.029 A 
ATOM     49  N   UNL A   1      42.564  27.984  31.090  1.00  0.00    -0.354 N 
ATOM     50  N   UNL A   1      41.601  29.671  33.300  1.00  0.00    -0.248 NA
ATOM     51  C   UNL A   1      41.761  30.375  35.521  1.00  0.00     0.031 C 
ATOM     52  C   UNL A   1      44.458  26.862  31.373  1.00  0.00     0.029 A 
ATOM     53  C   UNL A   1      43.584  27.741  31.992  1.00  0.00     0.049 A 
ATOM     54  H   UNL A   1      41.791  28.569  31.257  1.00  0.00     0.167 HD
ATOM     55  C   UNL A   1      42.757  29.142  33.864  1.00  0.00     0.074 A 
ATOM     56  C   UNL A   1      42.826  29.644  35.222  1.00  0.00     0.031 C 
ATOM     57  C   UNL A   1      43.667  28.299  33.317  1.00  0.00     0.034 A 
BRANCH  44  58
ATOM     58  C   UNL A   1      42.327  26.502  27.557  1.00  0.00     0.023 A 
ATOM     59  C   UNL A   1      43.058  27.119  26.521  1.00  0.00     0.012 A 
ATOM     60  C   UNL A   1      42.029  25.128  27.470  1.00  0.00     0.148 A 
ATOM     61  C   UNL A   1      43.462  26.388  25.405  1.00  0.00     0.002 A 
ATOM     62  C   UNL A   1      42.468  24.397  26.372  1.00  0.00     0.091 A 
ATOM     63  F   UNL A   1      41.312  24.566  28.453  1.00  0.00    -0.205 F 
ATOM     64  C   UNL A   1      43.177  25.027  25.335  1.00  0.00     0.022 A 
BRANCH  62  65
ATOM     65  S   UNL A   1      42.208  22.626  26.222  1.00  0.00     0.127 S 
ATOM     66  O   UNL A   1      42.940  22.121  27.382  1.00  0.00    -0.237 OA
ATOM     67  O   UNL A   1      40.751  22.517  26.326  1.00  0.00    -0.237 OA
ATOM     68  O   UNL A   1      42.752  22.251  24.924  1.00  0.00    -0.744 OA
ENDBRANCH  62  65
ENDBRANCH  44  58
BRANCH  45  69
ATOM     69  C   UNL A   1      39.343  32.033  35.345  1.00  0.00     0.023 A 
ATOM     70  C   UNL A   1      38.496  31.444  36.302  1.00  0.00     0.012 A 
ATOM     71  C   UNL A   1      39.764  33.365  35.529  1.00  0.00     0.148 A 
ATOM     72  C   UNL A   1      38.055  32.174  37.408  1.00  0.00     0.002 A 
ATOM     73  C   UNL A   1      39.366  34.068  36.661  1.00  0.00     0.091 A 
ATOM     74  F   UNL A   1      40.550  33.919  34.596  1.00  0.00    -0.205 F 
ATOM     75  C   UNL A   1      38.499  33.481  37.593  1.00  0.00     0.022 A 
BRANCH  73  76
ATOM     76  S   UNL A   1      40.005  35.705  37.037  1.00  0.00     0.127 S 
ATOM     77  O   UNL A   1      39.343  36.000  38.304  1.00  0.00    -0.237 OA
ATOM     78  O   UNL A   1      41.444  35.459  37.136  1.00  0.00    -0.237 OA
ATOM     79  O   UNL A   1      39.620  36.537  35.905  1.00  0.00    -0.744 OA
ENDBRANCH  73  76
ENDBRANCH  45  69
BRANCH  57  80
ATOM     80  C   UNL A   1      44.838  27.893  34.172  1.00  0.00     0.023 A 
ATOM     81  C   UNL A   1      45.975  28.722  34.235  1.00  0.00     0.012 A 
ATOM     82  C   UNL A   1      44.784  26.730  34.964  1.00  0.00     0.148 A 
ATOM     83  C   UNL A   1      47.052  28.385  35.053  1.00  0.00     0.002 A 
ATOM     84  C   UNL A   1      45.842  26.423  35.810  1.00  0.00     0.091 A 
ATOM     85  F   UNL A   1      43.702  25.943  34.872  1.00  0.00    -0.205 F 
ATOM     86  C   UNL A   1      46.981  27.243  35.849  1.00  0.00     0.022 A 
BRANCH  84  87
ATOM     87  S   UNL A   1      45.796  25.023  36.933  1.00  0.00     0.127 S 
ATOM     88  O   UNL A   1      44.603  25.316  37.726  1.00  0.00    -0.237 OA
ATOM     89  O   UNL A   1      45.655  23.890  36.017  1.00  0.00    -0.237 OA
ATOM     90  O   UNL A   1      47.057  25.054  37.662  1.00  0.00    -0.744 OA
ENDBRANCH  84  87
ENDBRANCH  57  80
ENDBRANCH  31  32
ENDBRANCH  24  26
ENDBRANCH  23  24
ENDBRANCH   1  23
TORSDOF 16
ENDMDL
MODEL 2
REMARK VINA RESULT:     -12.1      5.339     10.531
REMARK SMILES CC(C)N1C[C@@H](C(=O)N2CCC(C(=O)OCCOC(=O)c3ccc(-c4c5nc(c(-c6cccc(S(=O)(=O)[O-])c6F)c6ccc([nH]6)c(-c6cccc(S(=O)(=O)[O-])c6F)c6nc(c(-c7cccc(S(=O)(=O)[O-])c7F)c7ccc4[nH]7)C=C6)C=C5)cc3)CC2)CC1=O
REMARK SMILES IDX 17 1 16 2 15 3 13 4 14 5 12 6 7 7 8 8 9 9 10 10 85 11 11 12
REMARK SMILES IDX 84 13 6 14 4 15 5 16 87 17 86 18 88 19 2 20 1 21 3 22 18 23
REMARK SMILES IDX 19 24 20 25 21 26 22 27 83 28 23 29 82 30 24 31 25 32 26 33
REMARK SMILES IDX 76 34 27 35 81 36 75 37 77 38 28 39 80 40 74 41 73 42 29 44
REMARK SMILES IDX 61 45 41 46 60 47 42 48 45 49 59 50 78 51 43 52 44 53 58 55
REMARK SMILES IDX 79 56 46 57 30 58 31 59 39 60 32 61 34 62 40 63 33 64 35 65
REMARK SMILES IDX 36 66 37 67 38 68 62 69 63 70 71 71 64 72 66 73 72 74 65 75
REMARK SMILES IDX 67 76 68 77 69 78 70 79 47 80 48 81 56 82 49 83 51 84 57 85
REMARK SMILES IDX 50 86 52 87 53 88 54 89 55 90
REMARK H PARENT 77 43 45 54
REMARK Flexibility Score: inf
ROOT
ATOM      1  C   UNL A   1      36.845  20.474  24.993  1.00  0.00     0.275 C 
ENDROOT
BRANCH   1   2
ATOM      2  C   UNL A   1      35.329  20.675  24.913  1.00  0.00     0.274 C 
BRANCH   2   3
ATOM      3  O   UNL A   1      34.971  22.040  25.200  1.00  0.00    -0.462 OA
BRANCH   3   4
ATOM      4  C   UNL A   1      34.606  22.798  24.137  1.00  0.00     0.309 C 
ATOM      5  O   UNL A   1      35.309  23.014  23.156  1.00  0.00    -0.252 OA
BRANCH   4   6
ATOM      6  C   UNL A   1      33.206  23.363  24.257  1.00  0.00     0.103 C 
ATOM      7  C   UNL A   1      30.963  26.703  24.267  1.00  0.00     0.227 C 
ATOM      8  O   UNL A   1      31.588  27.405  25.068  1.00  0.00    -0.274 OA
ATOM      9  N   UNL A   1      31.117  25.330  24.258  1.00  0.00    -0.342 N 
ATOM     10  C   UNL A   1      31.491  24.674  25.513  1.00  0.00     0.120 C 
ATOM     11  C   UNL A   1      31.339  24.522  23.063  1.00  0.00     0.120 C 
ATOM     12  C   UNL A   1      32.947  24.228  25.494  1.00  0.00     0.037 C 
ATOM     13  C   UNL A   1      32.811  24.110  22.982  1.00  0.00     0.037 C 
BRANCH   7  14
ATOM     14  C   UNL A   1      29.852  27.351  23.455  1.00  0.00     0.107 C 
ATOM     15  N   UNL A   1      28.760  29.368  23.033  1.00  0.00    -0.339 N 
ATOM     16  C   UNL A   1      30.059  28.854  23.380  1.00  0.00     0.133 C 
ATOM     17  C   UNL A   1      27.754  28.441  23.250  1.00  0.00     0.223 C 
ATOM     18  C   UNL A   1      28.380  27.177  23.793  1.00  0.00     0.115 C 
ATOM     19  O   UNL A   1      26.556  28.600  23.073  1.00  0.00    -0.275 OA
BRANCH  15  20
ATOM     20  C   UNL A   1      28.589  30.737  22.546  1.00  0.00     0.078 C 
ATOM     21  C   UNL A   1      28.108  30.749  21.098  1.00  0.00     0.031 C 
ATOM     22  C   UNL A   1      27.673  31.559  23.449  1.00  0.00     0.031 C 
ENDBRANCH  15  20
ENDBRANCH   7  14
ENDBRANCH   4   6
ENDBRANCH   3   4
ENDBRANCH   2   3
ENDBRANCH   1   2
BRANCH   1  23
ATOM     23  O   UNL A   1      37.486  21.531  25.731  1.00  0.00    -0.458 OA
BRANCH  23  24
ATOM     24  C   UNL A   1      38.776  21.297  26.065  1.00  0.00     0.338 C 
ATOM     25  O   UNL A   1      39.423  20.286  25.853  1.00  0.00    -0.246 OA
BRANCH  24  26
ATOM     26  C   UNL A   1      39.376  22.509  26.640  1.00  0.00     0.060 A 
ATOM     27  C   UNL A   1      38.930  23.745  26.170  1.00  0.00     0.016 A 
ATOM     28  C   UNL A   1      40.441  22.436  27.535  1.00  0.00     0.016 A 
ATOM     29  C   UNL A   1      39.560  24.919  26.568  1.00  0.00     0.010 A 
ATOM     30  C   UNL A   1      41.063  23.619  27.953  1.00  0.00     0.010 A 
ATOM     31  C   UNL A   1      40.638  24.866  27.458  1.00  0.00    -0.014 A 
BRANCH  31  32
ATOM     32  C   UNL A   1      41.343  26.115  27.834  1.00  0.00     0.031 A 
ATOM     33  C   UNL A   1      40.616  27.186  28.594  1.00  0.00     0.074 A 
ATOM     34  C   UNL A   1      42.637  26.279  27.494  1.00  0.00     0.049 A 
ATOM     35  N   UNL A   1      41.024  28.382  28.929  1.00  0.00    -0.248 NA
ATOM     36  C   UNL A   1      39.248  26.871  29.038  1.00  0.00     0.031 C 
ATOM     37  C   UNL A   1      43.453  25.297  26.779  1.00  0.00     0.029 A 
ATOM     38  N   UNL A   1      43.484  27.340  27.689  1.00  0.00    -0.354 N 
ATOM     39  C   UNL A   1      39.953  28.980  29.581  1.00  0.00     0.074 A 
ATOM     40  C   UNL A   1      38.875  28.015  29.597  1.00  0.00     0.031 C 
ATOM     41  C   UNL A   1      44.678  25.807  26.580  1.00  0.00     0.029 A 
ATOM     42  C   UNL A   1      44.720  27.166  27.111  1.00  0.00     0.049 A 
ATOM     43  H   UNL A   1      43.232  28.147  28.193  1.00  0.00     0.167 HD
ATOM     44  C   UNL A   1      39.881  30.217  30.131  1.00  0.00     0.034 A 
ATOM     45  C   UNL A   1      45.757  28.018  26.995  1.00  0.00     0.034 A 
ATOM     46  C   UNL A   1      40.968  31.158  30.142  1.00  0.00     0.049 A 
ATOM     47  C   UNL A   1      45.640  29.394  27.593  1.00  0.00     0.074 A 
ATOM     48  C   UNL A   1      41.000  32.429  30.687  1.00  0.00     0.029 A 
ATOM     49  N   UNL A   1      42.218  30.930  29.587  1.00  0.00    -0.354 N 
ATOM     50  N   UNL A   1      44.645  29.918  28.268  1.00  0.00    -0.248 NA
ATOM     51  C   UNL A   1      46.794  30.289  27.432  1.00  0.00     0.031 C 
ATOM     52  C   UNL A   1      42.267  32.974  30.453  1.00  0.00     0.029 A 
ATOM     53  C   UNL A   1      43.029  32.035  29.775  1.00  0.00     0.049 A 
ATOM     54  H   UNL A   1      42.488  30.104  29.125  1.00  0.00     0.167 HD
ATOM     55  C   UNL A   1      45.065  31.190  28.639  1.00  0.00     0.074 A 
ATOM     56  C   UNL A   1      46.414  31.348  28.134  1.00  0.00     0.031 C 
ATOM     57  C   UNL A   1      44.390  32.150  29.318  1.00  0.00     0.034 A 
BRANCH  44  58
ATOM     58  C   UNL A   1      38.589  30.610  30.796  1.00  0.00     0.023 A 
ATOM     59  C   UNL A   1      38.388  30.301  32.157  1.00  0.00     0.012 A 
ATOM     60  C   UNL A   1      37.601  31.330  30.097  1.00  0.00     0.148 A 
ATOM     61  C   UNL A   1      37.212  30.679  32.804  1.00  0.00     0.002 A 
ATOM     62  C   UNL A   1      36.448  31.736  30.759  1.00  0.00     0.091 A 
ATOM     63  F   UNL A   1      37.800  31.593  28.798  1.00  0.00    -0.205 F 
ATOM     64  C   UNL A   1      36.248  31.405  32.110  1.00  0.00     0.022 A 
BRANCH  62  65
ATOM     65  S   UNL A   1      35.178  32.732  29.969  1.00  0.00     0.127 S 
ATOM     66  O   UNL A   1      34.608  31.781  29.016  1.00  0.00    -0.237 OA
ATOM     67  O   UNL A   1      34.302  33.067  31.093  1.00  0.00    -0.237 OA
ATOM     68  O   UNL A   1      35.871  33.870  29.381  1.00  0.00    -0.744 OA
ENDBRANCH  62  65
ENDBRANCH  44  58
BRANCH  45  69
ATOM     69  C   UNL A   1      47.006  27.584  26.308  1.00  0.00     0.023 A 
ATOM     70  C   UNL A   1      47.982  26.873  27.030  1.00  0.00     0.012 A 
ATOM     71  C   UNL A   1      47.224  27.852  24.942  1.00  0.00     0.148 A 
ATOM     72  C   UNL A   1      49.164  26.459  26.413  1.00  0.00     0.002 A 
ATOM     73  C   UNL A   1      48.376  27.388  24.319  1.00  0.00     0.091 A 
ATOM     74  F   UNL A   1      46.296  28.552  24.274  1.00  0.00    -0.205 F 
ATOM     75  C   UNL A   1      49.356  26.705  25.056  1.00  0.00     0.022 A 
BRANCH  73  76
ATOM     76  S   UNL A   1      48.631  27.548  22.548  1.00  0.00     0.127 S 
ATOM     77  O   UNL A   1      49.901  28.266  22.492  1.00  0.00    -0.237 OA
ATOM     78  O   UNL A   1      48.694  26.151  22.118  1.00  0.00    -0.237 OA
ATOM     79  O   UNL A   1      47.466  28.270  22.055  1.00  0.00    -0.744 OA
ENDBRANCH  73  76
ENDBRANCH  45  69
BRANCH  57  80
ATOM     80  C   UNL A   1      45.108  33.446  29.587  1.00  0.00     0.023 A 
ATOM     81  C   UNL A   1      45.875  33.586  30.761  1.00  0.00     0.012 A 
ATOM     82  C   UNL A   1      45.081  34.494  28.648  1.00  0.00     0.148 A 
ATOM     83  C   UNL A   1      46.581  34.762  31.008  1.00  0.00     0.002 A 
ATOM     84  C   UNL A   1      45.822  35.646  28.880  1.00  0.00     0.091 A 
ATOM     85  F   UNL A   1      44.326  34.348  27.548  1.00  0.00    -0.205 F 
ATOM     86  C   UNL A   1      46.565  35.786  30.063  1.00  0.00     0.022 A 
BRANCH  84  87
ATOM     87  S   UNL A   1      45.929  36.975  27.677  1.00  0.00     0.127 S 
ATOM     88  O   UNL A   1      46.475  36.280  26.512  1.00  0.00    -0.237 OA
ATOM     89  O   UNL A   1      44.531  37.387  27.540  1.00  0.00    -0.237 OA
ATOM     90  O   UNL A   1      46.797  37.982  28.271  1.00  0.00    -0.744 OA
ENDBRANCH  84  87
ENDBRANCH  57  80
ENDBRANCH  31  32
ENDBRANCH  24  26
ENDBRANCH  23  24
ENDBRANCH   1  23
TORSDOF 16
ENDMDL
MODEL 3
REMARK VINA RESULT:     -11.8      1.738      7.855
REMARK SMILES CC(C)N1C[C@@H](C(=O)N2CCC(C(=O)OCCOC(=O)c3ccc(-c4c5nc(c(-c6cccc(S(=O)(=O)[O-])c6F)c6ccc([nH]6)c(-c6cccc(S(=O)(=O)[O-])c6F)c6nc(c(-c7cccc(S(=O)(=O)[O-])c7F)c7ccc4[nH]7)C=C6)C=C5)cc3)CC2)CC1=O
REMARK SMILES IDX 17 1 16 2 15 3 13 4 14 5 12 6 7 7 8 8 9 9 10 10 85 11 11 12
REMARK SMILES IDX 84 13 6 14 4 15 5 16 87 17 86 18 88 19 2 20 1 21 3 22 18 23
REMARK SMILES IDX 19 24 20 25 21 26 22 27 83 28 23 29 82 30 24 31 25 32 26 33
REMARK SMILES IDX 76 34 27 35 81 36 75 37 77 38 28 39 80 40 74 41 73 42 29 44
REMARK SMILES IDX 61 45 41 46 60 47 42 48 45 49 59 50 78 51 43 52 44 53 58 55
REMARK SMILES IDX 79 56 46 57 30 58 31 59 39 60 32 61 34 62 40 63 33 64 35 65
REMARK SMILES IDX 36 66 37 67 38 68 62 69 63 70 71 71 64 72 66 73 72 74 65 75
REMARK SMILES IDX 67 76 68 77 69 78 70 79 47 80 48 81 56 82 49 83 51 84 57 85
REMARK SMILES IDX 50 86 52 87 53 88 54 89 55 90
REMARK H PARENT 77 43 45 54
REMARK Flexibility Score: inf
ROOT
ATOM      1  C   UNL A   1      31.593  31.019  25.910  1.00  0.00     0.275 C 
ENDROOT
BRANCH   1   2
ATOM      2  C   UNL A   1      31.695  29.694  25.149  1.00  0.00     0.274 C 
BRANCH   2   3
ATOM      3  O   UNL A   1      30.605  29.545  24.219  1.00  0.00    -0.462 OA
BRANCH   3   4
ATOM      4  C   UNL A   1      30.577  28.389  23.511  1.00  0.00     0.309 C 
ATOM      5  O   UNL A   1      29.981  28.230  22.452  1.00  0.00    -0.252 OA
BRANCH   4   6
ATOM      6  C   UNL A   1      31.383  27.277  24.148  1.00  0.00     0.103 C 
ATOM      7  C   UNL A   1      31.870  23.296  24.472  1.00  0.00     0.227 C 
ATOM      8  O   UNL A   1      30.713  22.934  24.706  1.00  0.00    -0.274 OA
ATOM      9  N   UNL A   1      32.264  24.601  24.698  1.00  0.00    -0.342 N 
ATOM     10  C   UNL A   1      31.565  25.358  25.738  1.00  0.00     0.120 C 
ATOM     11  C   UNL A   1      33.014  25.422  23.752  1.00  0.00     0.120 C 
ATOM     12  C   UNL A   1      30.619  26.389  25.135  1.00  0.00     0.037 C 
ATOM     13  C   UNL A   1      32.075  26.428  23.080  1.00  0.00     0.037 C 
BRANCH   7  14
ATOM     14  C   UNL A   1      32.910  22.230  24.160  1.00  0.00     0.107 C 
ATOM     15  N   UNL A   1      33.466  19.990  24.494  1.00  0.00    -0.339 N 
ATOM     16  C   UNL A   1      32.317  20.843  24.346  1.00  0.00     0.133 C 
ATOM     17  C   UNL A   1      34.616  20.705  24.786  1.00  0.00     0.223 C 
ATOM     18  C   UNL A   1      34.261  22.172  24.854  1.00  0.00     0.115 C 
ATOM     19  O   UNL A   1      35.732  20.253  24.990  1.00  0.00    -0.275 OA
BRANCH  15  20
ATOM     20  C   UNL A   1      33.355  18.537  24.373  1.00  0.00     0.078 C 
ATOM     21  C   UNL A   1      32.799  17.919  25.653  1.00  0.00     0.031 C 
ATOM     22  C   UNL A   1      32.542  18.121  23.149  1.00  0.00     0.031 C 
ENDBRANCH  15  20
ENDBRANCH   7  14
ENDBRANCH   4   6
ENDBRANCH   3   4
ENDBRANCH   2   3
ENDBRANCH   1   2
BRANCH   1  23
ATOM     23  O   UNL A   1      32.313  30.976  27.156  1.00  0.00    -0.458 OA
BRANCH  23  24
ATOM     24  C   UNL A   1      33.119  32.037  27.390  1.00  0.00     0.338 C 
ATOM     25  O   UNL A   1      32.834  33.218  27.288  1.00  0.00    -0.246 OA
BRANCH  24  26
ATOM     26  C   UNL A   1      34.411  31.581  27.922  1.00  0.00     0.060 A 
ATOM     27  C   UNL A   1      34.603  30.208  28.085  1.00  0.00     0.016 A 
ATOM     28  C   UNL A   1      35.371  32.486  28.367  1.00  0.00     0.016 A 
ATOM     29  C   UNL A   1      35.743  29.726  28.717  1.00  0.00     0.010 A 
ATOM     30  C   UNL A   1      36.531  32.002  28.984  1.00  0.00     0.010 A 
ATOM     31  C   UNL A   1      36.715  30.621  29.179  1.00  0.00    -0.014 A 
BRANCH  31  32
ATOM     32  C   UNL A   1      37.902  30.106  29.905  1.00  0.00     0.031 A 
ATOM     33  C   UNL A   1      38.188  30.578  31.302  1.00  0.00     0.074 A 
ATOM     34  C   UNL A   1      38.713  29.212  29.308  1.00  0.00     0.049 A 
ATOM     35  N   UNL A   1      39.220  30.324  32.063  1.00  0.00    -0.248 NA
ATOM     36  C   UNL A   1      37.181  31.452  31.925  1.00  0.00     0.031 C 
ATOM     37  C   UNL A   1      38.521  28.661  27.966  1.00  0.00     0.029 A 
ATOM     38  N   UNL A   1      39.873  28.626  29.747  1.00  0.00    -0.354 N 
ATOM     39  C   UNL A   1      39.012  31.040  33.236  1.00  0.00     0.074 A 
ATOM     40  C   UNL A   1      37.753  31.739  33.087  1.00  0.00     0.031 C 
ATOM     41  C   UNL A   1      39.536  27.830  27.683  1.00  0.00     0.029 A 
ATOM     42  C   UNL A   1      40.473  27.825  28.803  1.00  0.00     0.049 A 
ATOM     43  H   UNL A   1      40.241  28.765  30.650  1.00  0.00     0.167 HD
ATOM     44  C   UNL A   1      39.792  31.096  34.343  1.00  0.00     0.034 A 
ATOM     45  C   UNL A   1      41.658  27.185  28.827  1.00  0.00     0.034 A 
ATOM     46  C   UNL A   1      41.025  30.371  34.497  1.00  0.00     0.049 A 
ATOM     47  C   UNL A   1      42.516  27.286  30.059  1.00  0.00     0.074 A 
ATOM     48  C   UNL A   1      41.879  30.348  35.584  1.00  0.00     0.029 A 
ATOM     49  N   UNL A   1      41.577  29.536  33.538  1.00  0.00    -0.354 N 
ATOM     50  N   UNL A   1      42.271  27.909  31.186  1.00  0.00    -0.248 NA
ATOM     51  C   UNL A   1      43.803  26.577  30.032  1.00  0.00     0.031 C 
ATOM     52  C   UNL A   1      42.954  29.506  35.278  1.00  0.00     0.029 A 
ATOM     53  C   UNL A   1      42.760  28.992  34.006  1.00  0.00     0.049 A 
ATOM     54  H   UNL A   1      41.185  29.356  32.653  1.00  0.00     0.167 HD
ATOM     55  C   UNL A   1      43.357  27.643  32.012  1.00  0.00     0.074 A 
ATOM     56  C   UNL A   1      44.250  26.782  31.264  1.00  0.00     0.031 C 
ATOM     57  C   UNL A   1      43.604  28.088  33.269  1.00  0.00     0.034 A 
BRANCH  44  58
ATOM     58  C   UNL A   1      39.317  31.948  35.489  1.00  0.00     0.023 A 
ATOM     59  C   UNL A   1      39.588  33.331  35.483  1.00  0.00     0.012 A 
ATOM     60  C   UNL A   1      38.558  31.396  36.539  1.00  0.00     0.148 A 
ATOM     61  C   UNL A   1      39.135  34.147  36.519  1.00  0.00     0.002 A 
ATOM     62  C   UNL A   1      38.077  32.222  37.549  1.00  0.00     0.091 A 
ATOM     63  F   UNL A   1      38.332  30.074  36.539  1.00  0.00    -0.205 F 
ATOM     64  C   UNL A   1      38.372  33.596  37.544  1.00  0.00     0.022 A 
BRANCH  62  65
ATOM     65  S   UNL A   1      37.030  31.617  38.878  1.00  0.00     0.127 S 
ATOM     66  O   UNL A   1      36.806  30.232  38.470  1.00  0.00    -0.237 OA
ATOM     67  O   UNL A   1      37.893  31.777  40.049  1.00  0.00    -0.237 OA
ATOM     68  O   UNL A   1      35.850  32.471  38.875  1.00  0.00    -0.744 OA
ENDBRANCH  62  65
ENDBRANCH  44  58
BRANCH  45  69
ATOM     69  C   UNL A   1      42.090  26.371  27.656  1.00  0.00     0.023 A 
ATOM     70  C   UNL A   1      42.856  26.973  26.640  1.00  0.00     0.012 A 
ATOM     71  C   UNL A   1      41.765  25.005  27.551  1.00  0.00     0.148 A 
ATOM     72  C   UNL A   1      43.270  26.236  25.529  1.00  0.00     0.002 A 
ATOM     73  C   UNL A   1      42.227  24.262  26.470  1.00  0.00     0.091 A 
ATOM     74  F   UNL A   1      41.013  24.453  28.514  1.00  0.00    -0.205 F 
ATOM     75  C   UNL A   1      42.966  24.879  25.449  1.00  0.00     0.022 A 
BRANCH  73  76
ATOM     76  S   UNL A   1      41.992  22.484  26.366  1.00  0.00     0.127 S 
ATOM     77  O   UNL A   1      40.537  22.376  26.334  1.00  0.00    -0.237 OA
ATOM     78  O   UNL A   1      42.663  22.157  25.108  1.00  0.00    -0.237 OA
ATOM     79  O   UNL A   1      42.648  21.940  27.549  1.00  0.00    -0.744 OA
ENDBRANCH  73  76
ENDBRANCH  45  69
BRANCH  57  80
ATOM     80  C   UNL A   1      44.874  27.624  33.932  1.00  0.00     0.023 A 
ATOM     81  C   UNL A   1      46.038  28.412  33.834  1.00  0.00     0.012 A 
ATOM     82  C   UNL A   1      44.896  26.449  34.707  1.00  0.00     0.148 A 
ATOM     83  C   UNL A   1      47.212  28.022  34.475  1.00  0.00     0.002 A 
ATOM     84  C   UNL A   1      46.057  26.089  35.379  1.00  0.00     0.091 A 
ATOM     85  F   UNL A   1      43.783  25.703  34.769  1.00  0.00    -0.205 F 
ATOM     86  C   UNL A   1      47.219  26.868  35.257  1.00  0.00     0.022 A 
BRANCH  84  87
ATOM     87  S   UNL A   1      46.128  24.670  36.478  1.00  0.00     0.127 S 
ATOM     88  O   UNL A   1      45.077  24.989  37.444  1.00  0.00    -0.237 OA
ATOM     89  O   UNL A   1      45.811  23.561  35.577  1.00  0.00    -0.237 OA
ATOM     90  O   UNL A   1      47.483  24.644  37.010  1.00  0.00    -0.744 OA
ENDBRANCH  84  87
ENDBRANCH  57  80
ENDBRANCH  31  32
ENDBRANCH  24  26
ENDBRANCH  23  24
ENDBRANCH   1  23
TORSDOF 16
ENDMDL
