MODEL 1
REMARK VINA RESULT:      -8.7      0.000      0.000
REMARK SMILES CCCCCCNC(=O)Oc1cccc(-c2ccc([C@@H](C)C(=O)OCCOC(=O)c3ccc(-c4c5nc(c(-c6cccc(S(=O)(=O)[O-])c6F)c6ccc([nH]6)c(-c6cccc(S(=O)(=O)[O-])c6F)c6nc(c(-c7cccc(S(=O)(=O)[O-])c7F)c7ccc4[nH]7)C=C6)C=C5)cc3)cc2N)c1
REMARK SMILES IDX 20 1 21 2 19 3 16 4 17 5 94 6 18 7 93 8 15 9 11 10 12 11
REMARK SMILES IDX 96 12 13 13 14 14 10 15 8 16 7 17 9 19 6 20 5 21 4 22 3 23
REMARK SMILES IDX 2 24 1 25 95 26 22 29 23 30 24 31 25 32 26 33 27 34 28 35
REMARK SMILES IDX 29 36 30 37 31 38 92 39 32 40 91 41 33 42 34 43 35 44 85 45
REMARK SMILES IDX 36 46 90 47 84 48 86 49 37 50 89 51 83 52 82 53 38 55 70 56
REMARK SMILES IDX 50 57 69 58 51 59 54 60 68 61 87 62 52 63 53 64 67 66 88 67
REMARK SMILES IDX 55 68 39 69 40 70 48 71 41 72 43 73 49 74 42 75 44 76 45 77
REMARK SMILES IDX 46 78 47 79 71 80 72 81 80 82 73 83 75 84 81 85 74 86 76 87
REMARK SMILES IDX 77 88 78 89 79 90 56 91 57 92 65 93 58 94 60 95 66 96 59 97
REMARK SMILES IDX 61 98 62 99 63 100 64 101
REMARK H PARENT 7 18 95 27 95 28 86 54 54 65
REMARK Flexibility Score: inf
ROOT
ATOM      1  C   UNL A   1      44.185  22.747  25.603  1.00  0.00     0.126 C 
ATOM      2  C   UNL A   1      45.500  23.012  24.872  1.00  0.00     0.025 C 
ENDROOT
BRANCH   1   3
ATOM      3  C   UNL A   1      44.211  23.248  27.040  1.00  0.00    -0.032 A 
ATOM      4  C   UNL A   1      44.329  24.208  29.715  1.00  0.00     0.005 A 
ATOM      5  C   UNL A   1      43.206  23.508  29.231  1.00  0.00     0.011 A 
ATOM      6  C   UNL A   1      45.404  24.445  28.833  1.00  0.00     0.040 A 
ATOM      7  C   UNL A   1      43.148  23.033  27.919  1.00  0.00     0.005 A 
ATOM      8  C   UNL A   1      45.338  23.939  27.522  1.00  0.00     0.030 A 
BRANCH   4   9
ATOM      9  C   UNL A   1      44.326  24.658  31.122  1.00  0.00    -0.013 A 
ATOM     10  C   UNL A   1      44.125  26.399  32.799  1.00  0.00     0.133 A 
ATOM     11  C   UNL A   1      44.325  25.475  33.822  1.00  0.00     0.047 A 
ATOM     12  C   UNL A   1      44.125  26.008  31.459  1.00  0.00     0.056 A 
ATOM     13  C   UNL A   1      44.510  24.133  33.503  1.00  0.00     0.004 A 
ATOM     14  C   UNL A   1      44.514  23.732  32.165  1.00  0.00     0.009 A 
BRANCH  10  15
ATOM     15  O   UNL A   1      44.058  27.751  33.177  1.00  0.00    -0.410 OA
BRANCH  15  16
ATOM     16  C   UNL A   1      44.849  28.669  32.501  1.00  0.00     0.412 C 
ATOM     17  N   UNL A   1      44.127  29.690  31.946  1.00  0.00    -0.321 N 
ATOM     18  H   UNL A   1      44.641  30.390  31.483  1.00  0.00     0.167 HD
ATOM     19  O   UNL A   1      46.064  28.608  32.363  1.00  0.00    -0.224 OA
BRANCH  17  20
ATOM     20  C   UNL A   1      42.687  29.853  31.967  1.00  0.00     0.119 C 
BRANCH  20  21
ATOM     21  C   UNL A   1      42.103  29.706  33.371  1.00  0.00     0.021 C 
BRANCH  21  22
ATOM     22  C   UNL A   1      42.005  31.009  34.173  1.00  0.00     0.002 C 
BRANCH  22  23
ATOM     23  C   UNL A   1      40.889  31.970  33.751  1.00  0.00    -0.000 C 
BRANCH  23  24
ATOM     24  C   UNL A   1      41.216  33.460  33.876  1.00  0.00    -0.003 C 
ATOM     25  C   UNL A   1      42.464  33.736  34.702  1.00  0.00     0.004 C 
ENDBRANCH  23  24
ENDBRANCH  22  23
ENDBRANCH  21  22
ENDBRANCH  20  21
ENDBRANCH  17  20
ENDBRANCH  15  16
ENDBRANCH  10  15
ENDBRANCH   4   9
BRANCH   6  26
ATOM     26  N   UNL A   1      46.606  25.019  29.252  1.00  0.00    -0.398 N 
ATOM     27  H   UNL A   1      47.438  24.837  28.756  1.00  0.00     0.156 HD
ATOM     28  H   UNL A   1      46.623  25.606  30.042  1.00  0.00     0.156 HD
ENDBRANCH   6  26
ENDBRANCH   1   3
BRANCH   1  29
ATOM     29  C   UNL A   1      43.768  21.293  25.405  1.00  0.00     0.313 C 
ATOM     30  O   UNL A   1      44.590  20.383  25.342  1.00  0.00    -0.252 OA
BRANCH  29  31
ATOM     31  O   UNL A   1      42.423  21.105  25.368  1.00  0.00    -0.462 OA
BRANCH  31  32
ATOM     32  C   UNL A   1      41.887  20.056  26.197  1.00  0.00     0.274 C 
BRANCH  32  33
ATOM     33  C   UNL A   1      40.402  20.279  26.488  1.00  0.00     0.275 C 
BRANCH  33  34
ATOM     34  O   UNL A   1      40.183  21.548  27.128  1.00  0.00    -0.458 OA
BRANCH  34  35
ATOM     35  C   UNL A   1      39.354  22.384  26.461  1.00  0.00     0.338 C 
ATOM     36  O   UNL A   1      38.481  22.080  25.668  1.00  0.00    -0.246 OA
BRANCH  35  37
ATOM     37  C   UNL A   1      39.562  23.764  26.924  1.00  0.00     0.060 A 
ATOM     38  C   UNL A   1      39.988  24.707  25.987  1.00  0.00     0.016 A 
ATOM     39  C   UNL A   1      39.436  24.103  28.271  1.00  0.00     0.016 A 
ATOM     40  C   UNL A   1      40.324  25.993  26.395  1.00  0.00     0.010 A 
ATOM     41  C   UNL A   1      39.762  25.401  28.678  1.00  0.00     0.010 A 
ATOM     42  C   UNL A   1      40.232  26.345  27.747  1.00  0.00    -0.014 A 
BRANCH  42  43
ATOM     43  C   UNL A   1      40.680  27.690  28.178  1.00  0.00     0.031 A 
ATOM     44  C   UNL A   1      42.135  28.052  28.119  1.00  0.00     0.074 A 
ATOM     45  C   UNL A   1      39.775  28.588  28.608  1.00  0.00     0.049 A 
ATOM     46  N   UNL A   1      42.719  29.177  28.440  1.00  0.00    -0.248 NA
ATOM     47  C   UNL A   1      43.058  27.011  27.639  1.00  0.00     0.031 C 
ATOM     48  C   UNL A   1      38.338  28.343  28.725  1.00  0.00     0.029 A 
ATOM     49  N   UNL A   1      39.934  29.880  29.041  1.00  0.00    -0.354 N 
ATOM     50  C   UNL A   1      44.077  28.972  28.236  1.00  0.00     0.074 A 
ATOM     51  C   UNL A   1      44.233  27.609  27.774  1.00  0.00     0.031 C 
ATOM     52  C   UNL A   1      37.746  29.443  29.217  1.00  0.00     0.029 A 
ATOM     53  C   UNL A   1      38.764  30.461  29.469  1.00  0.00     0.049 A 
ATOM     54  H   UNL A   1      40.801  30.345  29.045  1.00  0.00     0.167 HD
ATOM     55  C   UNL A   1      45.100  29.846  28.399  1.00  0.00     0.034 A 
ATOM     56  C   UNL A   1      38.539  31.671  30.017  1.00  0.00     0.034 A 
ATOM     57  C   UNL A   1      44.937  31.209  28.827  1.00  0.00     0.049 A 
ATOM     58  C   UNL A   1      39.686  32.631  30.167  1.00  0.00     0.074 A 
ATOM     59  C   UNL A   1      45.904  32.189  28.967  1.00  0.00     0.029 A 
ATOM     60  N   UNL A   1      43.729  31.785  29.193  1.00  0.00    -0.354 N 
ATOM     61  N   UNL A   1      40.946  32.466  29.847  1.00  0.00    -0.248 NA
ATOM     62  C   UNL A   1      39.376  33.957  30.720  1.00  0.00     0.031 C 
ATOM     63  C   UNL A   1      45.281  33.354  29.431  1.00  0.00     0.029 A 
ATOM     64  C   UNL A   1      43.924  33.104  29.566  1.00  0.00     0.049 A 
ATOM     65  H   UNL A   1      42.860  31.323  29.189  1.00  0.00     0.167 HD
ATOM     66  C   UNL A   1      41.578  33.671  30.138  1.00  0.00     0.074 A 
ATOM     67  C   UNL A   1      40.553  34.565  30.638  1.00  0.00     0.031 C 
ATOM     68  C   UNL A   1      42.889  33.997  30.020  1.00  0.00     0.034 A 
BRANCH  55  69
ATOM     69  C   UNL A   1      46.485  29.353  28.074  1.00  0.00     0.023 A 
ATOM     70  C   UNL A   1      47.470  29.339  29.083  1.00  0.00     0.012 A 
ATOM     71  C   UNL A   1      46.809  28.885  26.786  1.00  0.00     0.148 A 
ATOM     72  C   UNL A   1      48.765  28.902  28.805  1.00  0.00     0.002 A 
ATOM     73  C   UNL A   1      48.092  28.415  26.527  1.00  0.00     0.091 A 
ATOM     74  F   UNL A   1      45.870  28.931  25.830  1.00  0.00    -0.205 F 
ATOM     75  C   UNL A   1      49.073  28.432  27.531  1.00  0.00     0.022 A 
BRANCH  73  76
ATOM     76  S   UNL A   1      48.553  27.729  24.932  1.00  0.00     0.127 S 
ATOM     77  O   UNL A   1      48.320  26.302  25.144  1.00  0.00    -0.237 OA
ATOM     78  O   UNL A   1      47.600  28.372  24.025  1.00  0.00    -0.237 OA
ATOM     79  O   UNL A   1      49.939  28.122  24.723  1.00  0.00    -0.744 OA
ENDBRANCH  73  76
ENDBRANCH  55  69
BRANCH  56  80
ATOM     80  C   UNL A   1      37.152  32.043  30.408  1.00  0.00     0.023 A 
ATOM     81  C   UNL A   1      36.718  31.824  31.728  1.00  0.00     0.012 A 
ATOM     82  C   UNL A   1      36.290  32.688  29.496  1.00  0.00     0.148 A 
ATOM     83  C   UNL A   1      35.447  32.231  32.134  1.00  0.00     0.002 A 
ATOM     84  C   UNL A   1      35.047  33.138  29.921  1.00  0.00     0.091 A 
ATOM     85  F   UNL A   1      36.718  32.870  28.240  1.00  0.00    -0.205 F 
ATOM     86  C   UNL A   1      34.618  32.900  31.237  1.00  0.00     0.022 A 
BRANCH  84  87
ATOM     87  S   UNL A   1      33.972  34.129  28.877  1.00  0.00     0.127 S 
ATOM     88  O   UNL A   1      33.000  34.634  29.842  1.00  0.00    -0.237 OA
ATOM     89  O   UNL A   1      34.901  35.132  28.354  1.00  0.00    -0.237 OA
ATOM     90  O   UNL A   1      33.448  33.215  27.871  1.00  0.00    -0.744 OA
ENDBRANCH  84  87
ENDBRANCH  56  80
BRANCH  68  91
ATOM     91  C   UNL A   1      43.299  35.388  30.428  1.00  0.00     0.023 A 
ATOM     92  C   UNL A   1      43.766  35.617  31.737  1.00  0.00     0.012 A 
ATOM     93  C   UNL A   1      43.299  36.447  29.499  1.00  0.00     0.148 A 
ATOM     94  C   UNL A   1      44.204  36.882  32.124  1.00  0.00     0.002 A 
ATOM     95  C   UNL A   1      43.776  37.696  29.879  1.00  0.00     0.091 A 
ATOM     96  F   UNL A   1      42.831  36.216  28.264  1.00  0.00    -0.205 F 
ATOM     97  C   UNL A   1      44.222  37.918  31.193  1.00  0.00     0.022 A 
BRANCH  95  98
ATOM     98  S   UNL A   1      43.917  39.061  28.718  1.00  0.00     0.127 S 
ATOM     99  O   UNL A   1      44.744  38.475  27.666  1.00  0.00    -0.237 OA
ATOM    100  O   UNL A   1      42.522  39.294  28.337  1.00  0.00    -0.237 OA
ATOM    101  O   UNL A   1      44.525  40.155  29.464  1.00  0.00    -0.744 OA
ENDBRANCH  95  98
ENDBRANCH  68  91
ENDBRANCH  42  43
ENDBRANCH  35  37
ENDBRANCH  34  35
ENDBRANCH  33  34
ENDBRANCH  32  33
ENDBRANCH  31  32
ENDBRANCH  29  31
ENDBRANCH   1  29
TORSDOF 24
ENDMDL
MODEL 2
REMARK VINA RESULT:      -8.7      1.713      2.383
REMARK SMILES CCCCCCNC(=O)Oc1cccc(-c2ccc([C@@H](C)C(=O)OCCOC(=O)c3ccc(-c4c5nc(c(-c6cccc(S(=O)(=O)[O-])c6F)c6ccc([nH]6)c(-c6cccc(S(=O)(=O)[O-])c6F)c6nc(c(-c7cccc(S(=O)(=O)[O-])c7F)c7ccc4[nH]7)C=C6)C=C5)cc3)cc2N)c1
REMARK SMILES IDX 20 1 21 2 19 3 16 4 17 5 94 6 18 7 93 8 15 9 11 10 12 11
REMARK SMILES IDX 96 12 13 13 14 14 10 15 8 16 7 17 9 19 6 20 5 21 4 22 3 23
REMARK SMILES IDX 2 24 1 25 95 26 22 29 23 30 24 31 25 32 26 33 27 34 28 35
REMARK SMILES IDX 29 36 30 37 31 38 92 39 32 40 91 41 33 42 34 43 35 44 85 45
REMARK SMILES IDX 36 46 90 47 84 48 86 49 37 50 89 51 83 52 82 53 38 55 70 56
REMARK SMILES IDX 50 57 69 58 51 59 54 60 68 61 87 62 52 63 53 64 67 66 88 67
REMARK SMILES IDX 55 68 39 69 40 70 48 71 41 72 43 73 49 74 42 75 44 76 45 77
REMARK SMILES IDX 46 78 47 79 71 80 72 81 80 82 73 83 75 84 81 85 74 86 76 87
REMARK SMILES IDX 77 88 78 89 79 90 56 91 57 92 65 93 58 94 60 95 66 96 59 97
REMARK SMILES IDX 61 98 62 99 63 100 64 101
REMARK H PARENT 7 18 95 27 95 28 86 54 54 65
REMARK Flexibility Score: inf
ROOT
ATOM      1  C   UNL A   1      44.740  22.715  25.187  1.00  0.00     0.126 C 
ATOM      2  C   UNL A   1      46.049  22.901  24.423  1.00  0.00     0.025 C 
ENDROOT
BRANCH   1   3
ATOM      3  C   UNL A   1      44.822  23.239  26.613  1.00  0.00    -0.032 A 
ATOM      4  C   UNL A   1      44.907  24.197  29.290  1.00  0.00     0.005 A 
ATOM      5  C   UNL A   1      45.984  24.391  28.402  1.00  0.00     0.011 A 
ATOM      6  C   UNL A   1      43.775  23.492  28.828  1.00  0.00     0.040 A 
ATOM      7  C   UNL A   1      45.943  23.926  27.086  1.00  0.00     0.005 A 
ATOM      8  C   UNL A   1      43.741  23.051  27.493  1.00  0.00     0.030 A 
BRANCH   4   9
ATOM      9  C   UNL A   1      45.016  24.740  30.659  1.00  0.00    -0.013 A 
ATOM     10  C   UNL A   1      44.642  24.576  33.050  1.00  0.00     0.133 A 
ATOM     11  C   UNL A   1      45.248  25.814  33.258  1.00  0.00     0.047 A 
ATOM     12  C   UNL A   1      44.520  24.035  31.769  1.00  0.00     0.056 A 
ATOM     13  C   UNL A   1      45.757  26.515  32.168  1.00  0.00     0.004 A 
ATOM     14  C   UNL A   1      45.637  25.984  30.883  1.00  0.00     0.009 A 
BRANCH  10  15
ATOM     15  O   UNL A   1      44.049  23.970  34.171  1.00  0.00    -0.410 OA
BRANCH  15  16
ATOM     16  C   UNL A   1      44.351  24.465  35.431  1.00  0.00     0.412 C 
ATOM     17  N   UNL A   1      43.271  25.019  36.061  1.00  0.00    -0.321 N 
ATOM     18  H   UNL A   1      43.420  25.357  36.974  1.00  0.00     0.167 HD
ATOM     19  O   UNL A   1      45.455  24.457  35.962  1.00  0.00    -0.224 OA
BRANCH  17  20
ATOM     20  C   UNL A   1      41.930  25.164  35.530  1.00  0.00     0.119 C 
BRANCH  20  21
ATOM     21  C   UNL A   1      41.528  26.627  35.351  1.00  0.00     0.021 C 
BRANCH  21  22
ATOM     22  C   UNL A   1      42.110  27.314  34.110  1.00  0.00     0.002 C 
BRANCH  22  23
ATOM     23  C   UNL A   1      41.260  28.436  33.508  1.00  0.00    -0.000 C 
BRANCH  23  24
ATOM     24  C   UNL A   1      40.033  27.982  32.712  1.00  0.00    -0.003 C 
ATOM     25  C   UNL A   1      38.886  28.981  32.749  1.00  0.00     0.004 C 
ENDBRANCH  23  24
ENDBRANCH  22  23
ENDBRANCH  21  22
ENDBRANCH  20  21
ENDBRANCH  17  20
ENDBRANCH  15  16
ENDBRANCH  10  15
ENDBRANCH   4   9
BRANCH   6  26
ATOM     26  N   UNL A   1      42.614  23.356  29.591  1.00  0.00    -0.398 N 
ATOM     27  H   UNL A   1      41.765  23.108  29.156  1.00  0.00     0.156 HD
ATOM     28  H   UNL A   1      42.642  23.507  30.563  1.00  0.00     0.156 HD
ENDBRANCH   6  26
ENDBRANCH   1   3
BRANCH   1  29
ATOM     29  C   UNL A   1      44.247  21.280  25.023  1.00  0.00     0.313 C 
ATOM     30  O   UNL A   1      45.022  20.332  24.937  1.00  0.00    -0.252 OA
BRANCH  29  31
ATOM     31  O   UNL A   1      42.893  21.157  25.046  1.00  0.00    -0.462 OA
BRANCH  31  32
ATOM     32  C   UNL A   1      42.336  20.269  26.034  1.00  0.00     0.274 C 
BRANCH  32  33
ATOM     33  C   UNL A   1      40.831  20.491  26.196  1.00  0.00     0.275 C 
BRANCH  33  34
ATOM     34  O   UNL A   1      40.560  21.669  26.975  1.00  0.00    -0.458 OA
BRANCH  34  35
ATOM     35  C   UNL A   1      39.549  22.437  26.508  1.00  0.00     0.338 C 
ATOM     36  O   UNL A   1      38.560  22.067  25.900  1.00  0.00    -0.246 OA
BRANCH  35  37
ATOM     37  C   UNL A   1      39.735  23.826  26.950  1.00  0.00     0.060 A 
ATOM     38  C   UNL A   1      40.319  24.722  26.053  1.00  0.00     0.016 A 
ATOM     39  C   UNL A   1      39.435  24.218  28.255  1.00  0.00     0.016 A 
ATOM     40  C   UNL A   1      40.636  26.012  26.462  1.00  0.00     0.010 A 
ATOM     41  C   UNL A   1      39.743  25.520  28.661  1.00  0.00     0.010 A 
ATOM     42  C   UNL A   1      40.369  26.416  27.776  1.00  0.00    -0.014 A 
BRANCH  42  43
ATOM     43  C   UNL A   1      40.797  27.763  28.222  1.00  0.00     0.031 A 
ATOM     44  C   UNL A   1      42.248  28.140  28.187  1.00  0.00     0.074 A 
ATOM     45  C   UNL A   1      39.877  28.649  28.644  1.00  0.00     0.049 A 
ATOM     46  N   UNL A   1      42.816  29.269  28.524  1.00  0.00    -0.248 NA
ATOM     47  C   UNL A   1      43.189  27.112  27.715  1.00  0.00     0.031 C 
ATOM     48  C   UNL A   1      38.440  28.388  28.738  1.00  0.00     0.029 A 
ATOM     49  N   UNL A   1      40.015  29.939  29.087  1.00  0.00    -0.354 N 
ATOM     50  C   UNL A   1      44.179  29.079  28.339  1.00  0.00     0.074 A 
ATOM     51  C   UNL A   1      44.356  27.720  27.871  1.00  0.00     0.031 C 
ATOM     52  C   UNL A   1      37.830  29.479  29.227  1.00  0.00     0.029 A 
ATOM     53  C   UNL A   1      38.833  30.506  29.501  1.00  0.00     0.049 A 
ATOM     54  H   UNL A   1      40.877  30.414  29.107  1.00  0.00     0.167 HD
ATOM     55  C   UNL A   1      45.190  29.962  28.523  1.00  0.00     0.034 A 
ATOM     56  C   UNL A   1      38.588  31.710  30.052  1.00  0.00     0.034 A 
ATOM     57  C   UNL A   1      45.007  31.321  28.957  1.00  0.00     0.049 A 
ATOM     58  C   UNL A   1      39.723  32.681  30.226  1.00  0.00     0.074 A 
ATOM     59  C   UNL A   1      45.962  32.310  29.117  1.00  0.00     0.029 A 
ATOM     60  N   UNL A   1      43.788  31.882  29.308  1.00  0.00    -0.354 N 
ATOM     61  N   UNL A   1      40.989  32.531  29.924  1.00  0.00    -0.248 NA
ATOM     62  C   UNL A   1      39.390  34.000  30.782  1.00  0.00     0.031 C 
ATOM     63  C   UNL A   1      45.320  33.465  29.579  1.00  0.00     0.029 A 
ATOM     64  C   UNL A   1      43.964  33.201  29.692  1.00  0.00     0.049 A 
ATOM     65  H   UNL A   1      42.924  31.411  29.287  1.00  0.00     0.167 HD
ATOM     66  C   UNL A   1      41.604  33.740  30.232  1.00  0.00     0.074 A 
ATOM     67  C   UNL A   1      40.563  34.621  30.722  1.00  0.00     0.031 C 
ATOM     68  C   UNL A   1      42.913  34.081  30.135  1.00  0.00     0.034 A 
BRANCH  55  69
ATOM     69  C   UNL A   1      46.585  29.485  28.216  1.00  0.00     0.023 A 
ATOM     70  C   UNL A   1      47.050  29.515  26.884  1.00  0.00     0.012 A 
ATOM     71  C   UNL A   1      47.443  29.032  29.236  1.00  0.00     0.148 A 
ATOM     72  C   UNL A   1      48.332  29.066  26.569  1.00  0.00     0.002 A 
ATOM     73  C   UNL A   1      48.734  28.622  28.919  1.00  0.00     0.091 A 
ATOM     74  F   UNL A   1      46.978  28.983  30.492  1.00  0.00    -0.205 F 
ATOM     75  C   UNL A   1      49.176  28.629  27.586  1.00  0.00     0.022 A 
BRANCH  73  76
ATOM     76  S   UNL A   1      49.908  28.108  30.178  1.00  0.00     0.127 S 
ATOM     77  O   UNL A   1      49.237  26.942  30.750  1.00  0.00    -0.237 OA
ATOM     78  O   UNL A   1      51.100  27.797  29.389  1.00  0.00    -0.237 OA
ATOM     79  O   UNL A   1      50.056  29.254  31.065  1.00  0.00    -0.744 OA
ENDBRANCH  73  76
ENDBRANCH  55  69
BRANCH  56  80
ATOM     80  C   UNL A   1      37.191  32.066  30.424  1.00  0.00     0.023 A 
ATOM     81  C   UNL A   1      36.744  31.848  31.740  1.00  0.00     0.012 A 
ATOM     82  C   UNL A   1      36.332  32.694  29.499  1.00  0.00     0.148 A 
ATOM     83  C   UNL A   1      35.463  32.240  32.129  1.00  0.00     0.002 A 
ATOM     84  C   UNL A   1      35.078  33.130  29.907  1.00  0.00     0.091 A 
ATOM     85  F   UNL A   1      36.772  32.876  28.247  1.00  0.00    -0.205 F 
ATOM     86  C   UNL A   1      34.636  32.894  31.218  1.00  0.00     0.022 A 
BRANCH  84  87
ATOM     87  S   UNL A   1      34.003  34.101  28.844  1.00  0.00     0.127 S 
ATOM     88  O   UNL A   1      33.566  33.104  27.870  1.00  0.00    -0.237 OA
ATOM     89  O   UNL A   1      32.969  34.541  29.782  1.00  0.00    -0.237 OA
ATOM     90  O   UNL A   1      34.834  35.176  28.319  1.00  0.00    -0.744 OA
ENDBRANCH  84  87
ENDBRANCH  56  80
BRANCH  68  91
ATOM     91  C   UNL A   1      43.303  35.473  30.559  1.00  0.00     0.023 A 
ATOM     92  C   UNL A   1      43.736  35.700  31.879  1.00  0.00     0.012 A 
ATOM     93  C   UNL A   1      43.318  36.535  29.634  1.00  0.00     0.148 A 
ATOM     94  C   UNL A   1      44.155  36.968  32.281  1.00  0.00     0.002 A 
ATOM     95  C   UNL A   1      43.777  37.786  30.029  1.00  0.00     0.091 A 
ATOM     96  F   UNL A   1      42.882  36.305  28.387  1.00  0.00    -0.205 F 
ATOM     97  C   UNL A   1      44.188  38.007  31.354  1.00  0.00     0.022 A 
BRANCH  95  98
ATOM     98  S   UNL A   1      43.936  39.156  28.876  1.00  0.00     0.127 S 
ATOM     99  O   UNL A   1      44.864  38.610  27.889  1.00  0.00    -0.237 OA
ATOM    100  O   UNL A   1      42.563  39.323  28.396  1.00  0.00    -0.237 OA
ATOM    101  O   UNL A   1      44.437  40.277  29.661  1.00  0.00    -0.744 OA
ENDBRANCH  95  98
ENDBRANCH  68  91
ENDBRANCH  42  43
ENDBRANCH  35  37
ENDBRANCH  34  35
ENDBRANCH  33  34
ENDBRANCH  32  33
ENDBRANCH  31  32
ENDBRANCH  29  31
ENDBRANCH   1  29
TORSDOF 24
ENDMDL
MODEL 3
REMARK VINA RESULT:      -8.5      1.957      7.601
REMARK SMILES CCCCCCNC(=O)Oc1cccc(-c2ccc([C@@H](C)C(=O)OCCOC(=O)c3ccc(-c4c5nc(c(-c6cccc(S(=O)(=O)[O-])c6F)c6ccc([nH]6)c(-c6cccc(S(=O)(=O)[O-])c6F)c6nc(c(-c7cccc(S(=O)(=O)[O-])c7F)c7ccc4[nH]7)C=C6)C=C5)cc3)cc2N)c1
REMARK SMILES IDX 20 1 21 2 19 3 16 4 17 5 94 6 18 7 93 8 15 9 11 10 12 11
REMARK SMILES IDX 96 12 13 13 14 14 10 15 8 16 7 17 9 19 6 20 5 21 4 22 3 23
REMARK SMILES IDX 2 24 1 25 95 26 22 29 23 30 24 31 25 32 26 33 27 34 28 35
REMARK SMILES IDX 29 36 30 37 31 38 92 39 32 40 91 41 33 42 34 43 35 44 85 45
REMARK SMILES IDX 36 46 90 47 84 48 86 49 37 50 89 51 83 52 82 53 38 55 70 56
REMARK SMILES IDX 50 57 69 58 51 59 54 60 68 61 87 62 52 63 53 64 67 66 88 67
REMARK SMILES IDX 55 68 39 69 40 70 48 71 41 72 43 73 49 74 42 75 44 76 45 77
REMARK SMILES IDX 46 78 47 79 71 80 72 81 80 82 73 83 75 84 81 85 74 86 76 87
REMARK SMILES IDX 77 88 78 89 79 90 56 91 57 92 65 93 58 94 60 95 66 96 59 97
REMARK SMILES IDX 61 98 62 99 63 100 64 101
REMARK H PARENT 7 18 95 27 95 28 86 54 54 65
REMARK Flexibility Score: inf
ROOT
ATOM      1  C   UNL A   1      44.739  22.752  25.586  1.00  0.00     0.126 C 
ATOM      2  C   UNL A   1      46.179  22.758  25.078  1.00  0.00     0.025 C 
ENDROOT
BRANCH   1   3
ATOM      3  C   UNL A   1      44.603  23.422  26.946  1.00  0.00    -0.032 A 
ATOM      4  C   UNL A   1      44.419  24.688  29.486  1.00  0.00     0.005 A 
ATOM      5  C   UNL A   1      43.316  24.028  28.909  1.00  0.00     0.011 A 
ATOM      6  C   UNL A   1      45.631  24.728  28.763  1.00  0.00     0.040 A 
ATOM      7  C   UNL A   1      43.405  23.402  27.665  1.00  0.00     0.005 A 
ATOM      8  C   UNL A   1      45.709  24.072  27.522  1.00  0.00     0.030 A 
BRANCH   4   9
ATOM      9  C   UNL A   1      44.254  25.306  30.817  1.00  0.00    -0.013 A 
ATOM     10  C   UNL A   1      43.665  27.186  32.234  1.00  0.00     0.133 A 
ATOM     11  C   UNL A   1      43.949  26.446  33.380  1.00  0.00     0.047 A 
ATOM     12  C   UNL A   1      43.814  26.633  30.960  1.00  0.00     0.056 A 
ATOM     13  C   UNL A   1      44.371  25.126  33.253  1.00  0.00     0.004 A 
ATOM     14  C   UNL A   1      44.525  24.565  31.983  1.00  0.00     0.009 A 
BRANCH  10  15
ATOM     15  O   UNL A   1      43.354  28.543  32.422  1.00  0.00    -0.410 OA
BRANCH  15  16
ATOM     16  C   UNL A   1      42.029  28.941  32.318  1.00  0.00     0.412 C 
ATOM     17  N   UNL A   1      41.815  30.213  32.775  1.00  0.00    -0.321 N 
ATOM     18  H   UNL A   1      40.898  30.560  32.694  1.00  0.00     0.167 HD
ATOM     19  O   UNL A   1      41.104  28.259  31.894  1.00  0.00    -0.224 OA
BRANCH  17  20
ATOM     20  C   UNL A   1      42.793  31.103  33.367  1.00  0.00     0.119 C 
BRANCH  20  21
ATOM     21  C   UNL A   1      42.276  31.780  34.635  1.00  0.00     0.021 C 
BRANCH  21  22
ATOM     22  C   UNL A   1      40.758  31.701  34.839  1.00  0.00     0.002 C 
BRANCH  22  23
ATOM     23  C   UNL A   1      39.973  32.973  34.507  1.00  0.00    -0.000 C 
BRANCH  23  24
ATOM     24  C   UNL A   1      38.448  32.835  34.529  1.00  0.00    -0.003 C 
ATOM     25  C   UNL A   1      37.721  34.171  34.539  1.00  0.00     0.004 C 
ENDBRANCH  23  24
ENDBRANCH  22  23
ENDBRANCH  21  22
ENDBRANCH  20  21
ENDBRANCH  17  20
ENDBRANCH  15  16
ENDBRANCH  10  15
ENDBRANCH   4   9
BRANCH   6  26
ATOM     26  N   UNL A   1      46.809  25.250  29.302  1.00  0.00    -0.398 N 
ATOM     27  H   UNL A   1      46.919  25.310  30.279  1.00  0.00     0.156 HD
ATOM     28  H   UNL A   1      47.529  25.559  28.707  1.00  0.00     0.156 HD
ENDBRANCH   6  26
ENDBRANCH   1   3
BRANCH   1  29
ATOM     29  C   UNL A   1      44.154  21.348  25.465  1.00  0.00     0.313 C 
ATOM     30  O   UNL A   1      44.843  20.343  25.606  1.00  0.00    -0.252 OA
BRANCH  29  31
ATOM     31  O   UNL A   1      42.812  21.327  25.252  1.00  0.00    -0.462 OA
BRANCH  31  32
ATOM     32  C   UNL A   1      42.009  20.626  26.220  1.00  0.00     0.274 C 
BRANCH  32  33
ATOM     33  C   UNL A   1      40.532  21.003  26.097  1.00  0.00     0.275 C 
BRANCH  33  34
ATOM     34  O   UNL A   1      40.190  22.068  27.002  1.00  0.00    -0.458 OA
BRANCH  34  35
ATOM     35  C   UNL A   1      39.209  22.891  26.564  1.00  0.00     0.338 C 
ATOM     36  O   UNL A   1      38.195  22.578  25.966  1.00  0.00    -0.246 OA
BRANCH  35  37
ATOM     37  C   UNL A   1      39.467  24.261  27.028  1.00  0.00     0.060 A 
ATOM     38  C   UNL A   1      40.051  25.154  26.128  1.00  0.00     0.016 A 
ATOM     39  C   UNL A   1      39.232  24.636  28.351  1.00  0.00     0.016 A 
ATOM     40  C   UNL A   1      40.435  26.421  26.551  1.00  0.00     0.010 A 
ATOM     41  C   UNL A   1      39.607  25.915  28.772  1.00  0.00     0.010 A 
ATOM     42  C   UNL A   1      40.234  26.806  27.882  1.00  0.00    -0.014 A 
BRANCH  42  43
ATOM     43  C   UNL A   1      40.731  28.124  28.339  1.00  0.00     0.031 A 
ATOM     44  C   UNL A   1      39.771  29.148  28.868  1.00  0.00     0.074 A 
ATOM     45  C   UNL A   1      42.049  28.393  28.291  1.00  0.00     0.049 A 
ATOM     46  N   UNL A   1      40.013  30.350  29.323  1.00  0.00    -0.248 NA
ATOM     47  C   UNL A   1      38.347  28.776  28.882  1.00  0.00     0.031 C 
ATOM     48  C   UNL A   1      43.074  27.482  27.782  1.00  0.00     0.029 A 
ATOM     49  N   UNL A   1      42.747  29.514  28.661  1.00  0.00    -0.354 N 
ATOM     50  C   UNL A   1      38.775  30.891  29.646  1.00  0.00     0.074 A 
ATOM     51  C   UNL A   1      37.781  29.890  29.323  1.00  0.00     0.031 C 
ATOM     52  C   UNL A   1      44.270  28.088  27.853  1.00  0.00     0.029 A 
ATOM     53  C   UNL A   1      44.092  29.434  28.393  1.00  0.00     0.049 A 
ATOM     54  H   UNL A   1      42.325  30.299  29.078  1.00  0.00     0.167 HD
ATOM     55  C   UNL A   1      38.494  32.103  30.182  1.00  0.00     0.034 A 
ATOM     56  C   UNL A   1      45.070  30.347  28.550  1.00  0.00     0.034 A 
ATOM     57  C   UNL A   1      39.488  33.082  30.531  1.00  0.00     0.049 A 
ATOM     58  C   UNL A   1      44.738  31.677  29.168  1.00  0.00     0.074 A 
ATOM     59  C   UNL A   1      39.309  34.315  31.133  1.00  0.00     0.029 A 
ATOM     60  N   UNL A   1      40.850  32.943  30.304  1.00  0.00    -0.354 N 
ATOM     61  N   UNL A   1      43.580  32.123  29.589  1.00  0.00    -0.248 NA
ATOM     62  C   UNL A   1      45.851  32.616  29.365  1.00  0.00     0.031 C 
ATOM     63  C   UNL A   1      40.562  34.928  31.256  1.00  0.00     0.029 A 
ATOM     64  C   UNL A   1      41.523  34.070  30.745  1.00  0.00     0.049 A 
ATOM     65  H   UNL A   1      41.275  32.158  29.889  1.00  0.00     0.167 HD
ATOM     66  C   UNL A   1      43.825  33.385  30.120  1.00  0.00     0.074 A 
ATOM     67  C   UNL A   1      45.248  33.620  29.991  1.00  0.00     0.031 C 
ATOM     68  C   UNL A   1      42.947  34.273  30.650  1.00  0.00     0.034 A 
BRANCH  55  69
ATOM     69  C   UNL A   1      37.047  32.416  30.456  1.00  0.00     0.023 A 
ATOM     70  C   UNL A   1      36.485  32.063  31.701  1.00  0.00     0.012 A 
ATOM     71  C   UNL A   1      36.250  33.076  29.501  1.00  0.00     0.148 A 
ATOM     72  C   UNL A   1      35.144  32.328  31.975  1.00  0.00     0.002 A 
ATOM     73  C   UNL A   1      34.924  33.371  29.797  1.00  0.00     0.091 A 
ATOM     74  F   UNL A   1      36.791  33.380  28.312  1.00  0.00    -0.205 F 
ATOM     75  C   UNL A   1      34.366  32.989  31.028  1.00  0.00     0.022 A 
BRANCH  73  76
ATOM     76  S   UNL A   1      33.872  34.281  28.660  1.00  0.00     0.127 S 
ATOM     77  O   UNL A   1      32.809  34.748  29.548  1.00  0.00    -0.237 OA
ATOM     78  O   UNL A   1      34.766  35.334  28.177  1.00  0.00    -0.237 OA
ATOM     79  O   UNL A   1      33.473  33.319  27.641  1.00  0.00    -0.744 OA
ENDBRANCH  73  76
ENDBRANCH  55  69
BRANCH  56  80
ATOM     80  C   UNL A   1      46.462  29.994  28.158  1.00  0.00     0.023 A 
ATOM     81  C   UNL A   1      47.031  30.575  27.010  1.00  0.00     0.012 A 
ATOM     82  C   UNL A   1      47.250  29.147  28.964  1.00  0.00     0.148 A 
ATOM     83  C   UNL A   1      48.357  30.313  26.664  1.00  0.00     0.002 A 
ATOM     84  C   UNL A   1      48.584  28.933  28.644  1.00  0.00     0.091 A 
ATOM     85  F   UNL A   1      46.682  28.590  30.043  1.00  0.00    -0.205 F 
ATOM     86  C   UNL A   1      49.137  29.506  27.488  1.00  0.00     0.022 A 
BRANCH  84  87
ATOM     87  S   UNL A   1      49.699  28.021  29.719  1.00  0.00     0.127 S 
ATOM     88  O   UNL A   1      49.013  28.111  31.005  1.00  0.00    -0.237 OA
ATOM     89  O   UNL A   1      49.689  26.692  29.107  1.00  0.00    -0.237 OA
ATOM     90  O   UNL A   1      50.979  28.711  29.635  1.00  0.00    -0.744 OA
ENDBRANCH  84  87
ENDBRANCH  56  80
BRANCH  68  91
ATOM     91  C   UNL A   1      43.496  35.586  31.143  1.00  0.00     0.023 A 
ATOM     92  C   UNL A   1      43.747  36.622  30.222  1.00  0.00     0.012 A 
ATOM     93  C   UNL A   1      43.688  35.822  32.518  1.00  0.00     0.148 A 
ATOM     94  C   UNL A   1      44.204  37.865  30.658  1.00  0.00     0.002 A 
ATOM     95  C   UNL A   1      44.103  37.077  32.951  1.00  0.00     0.091 A 
ATOM     96  F   UNL A   1      43.465  34.818  33.378  1.00  0.00    -0.205 F 
ATOM     97  C   UNL A   1      44.369  38.097  32.022  1.00  0.00     0.022 A 
BRANCH  95  98
ATOM     98  S   UNL A   1      44.255  37.487  34.694  1.00  0.00     0.127 S 
ATOM     99  O   UNL A   1      42.979  37.015  35.225  1.00  0.00    -0.237 OA
ATOM    100  O   UNL A   1      45.416  36.694  35.102  1.00  0.00    -0.237 OA
ATOM    101  O   UNL A   1      44.465  38.928  34.744  1.00  0.00    -0.744 OA
ENDBRANCH  95  98
ENDBRANCH  68  91
ENDBRANCH  42  43
ENDBRANCH  35  37
ENDBRANCH  34  35
ENDBRANCH  33  34
ENDBRANCH  32  33
ENDBRANCH  31  32
ENDBRANCH  29  31
ENDBRANCH   1  29
TORSDOF 24
ENDMDL
