MODEL 1
REMARK VINA RESULT:     -10.5      0.000      0.000
REMARK SMILES CC(C)C[C@@H](C[C@@H]1CCCCO1)C(=O)OCCOC(=O)c1ccc(-c2c3nc(c(-c4cccc(S(=O)(=O)[O-])c4F)c4ccc([nH]4)c(-c4cccc(S(=O)(=O)[O-])c4F)c4nc(c(-c5cccc(S(=O)(=O)[O-])c5F)c5ccc2[nH]5)C=C4)C=C3)cc1
REMARK SMILES IDX 17 1 16 2 15 3 13 4 14 5 5 6 4 7 2 8 1 9 3 10 6 11 7 12 8 13
REMARK SMILES IDX 12 14 9 15 11 16 10 17 18 18 19 19 20 20 21 21 22 22 83 23
REMARK SMILES IDX 23 24 82 25 24 26 25 27 26 28 76 29 27 30 81 31 75 32 77 33
REMARK SMILES IDX 28 34 80 35 74 36 73 37 29 39 61 40 41 41 60 42 42 43 45 44
REMARK SMILES IDX 59 45 78 46 43 47 44 48 58 50 79 51 46 52 30 53 31 54 39 55
REMARK SMILES IDX 32 56 34 57 40 58 33 59 35 60 36 61 37 62 38 63 62 64 63 65
REMARK SMILES IDX 71 66 64 67 66 68 72 69 65 70 67 71 68 72 69 73 70 74 47 75
REMARK SMILES IDX 48 76 56 77 49 78 51 79 57 80 50 81 52 82 53 83 54 84 55 85
REMARK H PARENT 77 38 45 49
REMARK Flexibility Score: inf
ROOT
ATOM      1  C   UNL A   1      37.060  21.179  24.801  1.00  0.00     0.275 C 
ENDROOT
BRANCH   1   2
ATOM      2  C   UNL A   1      36.752  22.249  23.753  1.00  0.00     0.274 C 
BRANCH   2   3
ATOM      3  O   UNL A   1      36.210  23.434  24.370  1.00  0.00    -0.462 OA
BRANCH   3   4
ATOM      4  C   UNL A   1      35.034  23.885  23.864  1.00  0.00     0.309 C 
ATOM      5  O   UNL A   1      34.754  23.920  22.672  1.00  0.00    -0.252 OA
BRANCH   4   6
ATOM      6  C   UNL A   1      34.087  24.414  24.931  1.00  0.00     0.102 C 
BRANCH   6   7
ATOM      7  C   UNL A   1      34.392  23.938  26.369  1.00  0.00     0.018 C 
BRANCH   7   8
ATOM      8  C   UNL A   1      33.378  22.929  26.958  1.00  0.00    -0.017 C 
ATOM      9  C   UNL A   1      32.056  22.909  26.187  1.00  0.00     0.007 C 
ATOM     10  C   UNL A   1      33.980  21.521  26.977  1.00  0.00     0.007 C 
ENDBRANCH   7   8
ENDBRANCH   6   7
BRANCH   6  11
ATOM     11  C   UNL A   1      33.860  25.920  24.746  1.00  0.00     0.047 C 
BRANCH  11  12
ATOM     12  C   UNL A   1      33.529  26.798  25.969  1.00  0.00     0.119 C 
ATOM     13  C   UNL A   1      32.092  26.841  26.484  1.00  0.00     0.032 C 
ATOM     14  O   UNL A   1      33.971  28.149  25.723  1.00  0.00    -0.378 OA
ATOM     15  C   UNL A   1      31.160  27.579  25.536  1.00  0.00     0.005 C 
ATOM     16  C   UNL A   1      33.177  28.875  24.781  1.00  0.00     0.160 C 
ATOM     17  C   UNL A   1      31.718  28.955  25.209  1.00  0.00     0.029 C 
ENDBRANCH  11  12
ENDBRANCH   6  11
ENDBRANCH   4   6
ENDBRANCH   3   4
ENDBRANCH   2   3
ENDBRANCH   1   2
BRANCH   1  18
ATOM     18  O   UNL A   1      37.635  21.773  25.976  1.00  0.00    -0.458 OA
BRANCH  18  19
ATOM     19  C   UNL A   1      38.959  21.555  26.144  1.00  0.00     0.338 C 
ATOM     20  O   UNL A   1      39.600  20.571  25.822  1.00  0.00    -0.246 OA
BRANCH  19  21
ATOM     21  C   UNL A   1      39.567  22.767  26.706  1.00  0.00     0.060 A 
ATOM     22  C   UNL A   1      39.163  24.010  26.216  1.00  0.00     0.016 A 
ATOM     23  C   UNL A   1      40.576  22.672  27.661  1.00  0.00     0.016 A 
ATOM     24  C   UNL A   1      39.774  25.175  26.665  1.00  0.00     0.010 A 
ATOM     25  C   UNL A   1      41.171  23.844  28.135  1.00  0.00     0.010 A 
ATOM     26  C   UNL A   1      40.780  25.098  27.632  1.00  0.00    -0.014 A 
BRANCH  26  27
ATOM     27  C   UNL A   1      41.437  26.329  28.125  1.00  0.00     0.031 A 
ATOM     28  C   UNL A   1      40.622  27.379  28.820  1.00  0.00     0.074 A 
ATOM     29  C   UNL A   1      42.748  26.521  27.888  1.00  0.00     0.049 A 
ATOM     30  N   UNL A   1      40.963  28.590  29.166  1.00  0.00    -0.248 NA
ATOM     31  C   UNL A   1      39.235  27.020  29.163  1.00  0.00     0.031 C 
ATOM     32  C   UNL A   1      43.637  25.560  27.232  1.00  0.00     0.029 A 
ATOM     33  N   UNL A   1      43.551  27.607  28.132  1.00  0.00    -0.354 N 
ATOM     34  C   UNL A   1      39.821  29.163  29.710  1.00  0.00     0.074 A 
ATOM     35  C   UNL A   1      38.779  28.158  29.669  1.00  0.00     0.031 C 
ATOM     36  C   UNL A   1      44.851  26.114  27.089  1.00  0.00     0.029 A 
ATOM     37  C   UNL A   1      44.811  27.482  27.596  1.00  0.00     0.049 A 
ATOM     38  H   UNL A   1      43.254  28.397  28.640  1.00  0.00     0.167 HD
ATOM     39  C   UNL A   1      39.661  30.413  30.201  1.00  0.00     0.034 A 
ATOM     40  C   UNL A   1      45.804  28.386  27.479  1.00  0.00     0.034 A 
ATOM     41  C   UNL A   1      40.718  31.384  30.284  1.00  0.00     0.049 A 
ATOM     42  C   UNL A   1      45.592  29.772  28.022  1.00  0.00     0.074 A 
ATOM     43  C   UNL A   1      40.680  32.649  30.843  1.00  0.00     0.029 A 
ATOM     44  N   UNL A   1      41.998  31.203  29.785  1.00  0.00    -0.354 N 
ATOM     45  N   UNL A   1      44.546  30.262  28.642  1.00  0.00    -0.248 NA
ATOM     46  C   UNL A   1      46.700  30.725  27.865  1.00  0.00     0.031 C 
ATOM     47  C   UNL A   1      41.935  33.241  30.663  1.00  0.00     0.029 A 
ATOM     48  C   UNL A   1      42.756  32.340  30.003  1.00  0.00     0.049 A 
ATOM     49  H   UNL A   1      42.321  30.385  29.342  1.00  0.00     0.167 HD
ATOM     50  C   UNL A   1      44.875  31.574  28.965  1.00  0.00     0.074 A 
ATOM     51  C   UNL A   1      46.229  31.792  28.496  1.00  0.00     0.031 C 
ATOM     52  C   UNL A   1      44.118  32.520  29.574  1.00  0.00     0.034 A 
BRANCH  39  53
ATOM     53  C   UNL A   1      38.300  30.803  30.707  1.00  0.00     0.023 A 
ATOM     54  C   UNL A   1      37.955  30.553  32.049  1.00  0.00     0.012 A 
ATOM     55  C   UNL A   1      37.391  31.481  29.872  1.00  0.00     0.148 A 
ATOM     56  C   UNL A   1      36.717  30.956  32.550  1.00  0.00     0.002 A 
ATOM     57  C   UNL A   1      36.173  31.910  30.386  1.00  0.00     0.091 A 
ATOM     58  F   UNL A   1      37.729  31.685  28.591  1.00  0.00    -0.205 F 
ATOM     59  C   UNL A   1      35.833  31.642  31.722  1.00  0.00     0.022 A 
BRANCH  57  60
ATOM     60  S   UNL A   1      34.995  32.859  29.417  1.00  0.00     0.127 S 
ATOM     61  O   UNL A   1      34.007  33.224  30.431  1.00  0.00    -0.237 OA
ATOM     62  O   UNL A   1      35.815  33.971  28.936  1.00  0.00    -0.237 OA
ATOM     63  O   UNL A   1      34.518  31.962  28.374  1.00  0.00    -0.744 OA
ENDBRANCH  57  60
ENDBRANCH  39  53
BRANCH  40  64
ATOM     64  C   UNL A   1      47.083  28.002  26.819  1.00  0.00     0.023 A 
ATOM     65  C   UNL A   1      48.201  27.679  27.610  1.00  0.00     0.012 A 
ATOM     66  C   UNL A   1      47.188  27.920  25.416  1.00  0.00     0.148 A 
ATOM     67  C   UNL A   1      49.407  27.303  27.017  1.00  0.00     0.002 A 
ATOM     68  C   UNL A   1      48.375  27.491  24.833  1.00  0.00     0.091 A 
ATOM     69  F   UNL A   1      46.122  28.257  24.676  1.00  0.00    -0.205 F 
ATOM     70  C   UNL A   1      49.491  27.196  25.630  1.00  0.00     0.022 A 
BRANCH  68  71
ATOM     71  S   UNL A   1      48.511  27.200  23.065  1.00  0.00     0.127 S 
ATOM     72  O   UNL A   1      48.159  25.787  22.965  1.00  0.00    -0.237 OA
ATOM     73  O   UNL A   1      47.514  28.123  22.520  1.00  0.00    -0.237 OA
ATOM     74  O   UNL A   1      49.886  27.545  22.725  1.00  0.00    -0.744 OA
ENDBRANCH  68  71
ENDBRANCH  40  64
BRANCH  52  75
ATOM     75  C   UNL A   1      44.733  33.876  29.783  1.00  0.00     0.023 A 
ATOM     76  C   UNL A   1      45.451  34.134  30.967  1.00  0.00     0.012 A 
ATOM     77  C   UNL A   1      44.683  34.857  28.773  1.00  0.00     0.148 A 
ATOM     78  C   UNL A   1      46.093  35.357  31.152  1.00  0.00     0.002 A 
ATOM     79  C   UNL A   1      45.362  36.056  28.946  1.00  0.00     0.091 A 
ATOM     80  F   UNL A   1      43.979  34.595  27.662  1.00  0.00    -0.205 F 
ATOM     81  C   UNL A   1      46.060  36.311  30.138  1.00  0.00     0.022 A 
BRANCH  79  82
ATOM     82  S   UNL A   1      45.451  37.306  27.658  1.00  0.00     0.127 S 
ATOM     83  O   UNL A   1      44.058  37.744  27.573  1.00  0.00    -0.237 OA
ATOM     84  O   UNL A   1      46.366  38.289  28.241  1.00  0.00    -0.237 OA
ATOM     85  O   UNL A   1      45.967  36.628  26.477  1.00  0.00    -0.744 OA
ENDBRANCH  79  82
ENDBRANCH  52  75
ENDBRANCH  26  27
ENDBRANCH  19  21
ENDBRANCH  18  19
ENDBRANCH   1  18
TORSDOF 18
ENDMDL
MODEL 2
REMARK VINA RESULT:     -10.4      5.250      9.209
REMARK SMILES CC(C)C[C@@H](C[C@@H]1CCCCO1)C(=O)OCCOC(=O)c1ccc(-c2c3nc(c(-c4cccc(S(=O)(=O)[O-])c4F)c4ccc([nH]4)c(-c4cccc(S(=O)(=O)[O-])c4F)c4nc(c(-c5cccc(S(=O)(=O)[O-])c5F)c5ccc2[nH]5)C=C4)C=C3)cc1
REMARK SMILES IDX 17 1 16 2 15 3 13 4 14 5 5 6 4 7 2 8 1 9 3 10 6 11 7 12 8 13
REMARK SMILES IDX 12 14 9 15 11 16 10 17 18 18 19 19 20 20 21 21 22 22 83 23
REMARK SMILES IDX 23 24 82 25 24 26 25 27 26 28 76 29 27 30 81 31 75 32 77 33
REMARK SMILES IDX 28 34 80 35 74 36 73 37 29 39 61 40 41 41 60 42 42 43 45 44
REMARK SMILES IDX 59 45 78 46 43 47 44 48 58 50 79 51 46 52 30 53 31 54 39 55
REMARK SMILES IDX 32 56 34 57 40 58 33 59 35 60 36 61 37 62 38 63 62 64 63 65
REMARK SMILES IDX 71 66 64 67 66 68 72 69 65 70 67 71 68 72 69 73 70 74 47 75
REMARK SMILES IDX 48 76 56 77 49 78 51 79 57 80 50 81 52 82 53 83 54 84 55 85
REMARK H PARENT 77 38 45 49
REMARK Flexibility Score: inf
ROOT
ATOM      1  C   UNL A   1      33.832  32.749  28.102  1.00  0.00     0.275 C 
ENDROOT
BRANCH   1   2
ATOM      2  C   UNL A   1      34.200  33.348  29.460  1.00  0.00     0.274 C 
BRANCH   2   3
ATOM      3  O   UNL A   1      34.688  32.329  30.357  1.00  0.00    -0.462 OA
BRANCH   3   4
ATOM      4  C   UNL A   1      34.882  32.713  31.644  1.00  0.00     0.309 C 
ATOM      5  O   UNL A   1      33.998  33.102  32.399  1.00  0.00    -0.252 OA
BRANCH   4   6
ATOM      6  C   UNL A   1      36.343  32.673  32.066  1.00  0.00     0.102 C 
BRANCH   6   7
ATOM      7  C   UNL A   1      36.707  31.544  33.055  1.00  0.00     0.018 C 
BRANCH   7   8
ATOM      8  C   UNL A   1      37.744  31.925  34.138  1.00  0.00    -0.017 C 
ATOM      9  C   UNL A   1      37.192  32.934  35.148  1.00  0.00     0.007 C 
ATOM     10  C   UNL A   1      38.224  30.672  34.878  1.00  0.00     0.007 C 
ENDBRANCH   7   8
ENDBRANCH   6   7
BRANCH   6  11
ATOM     11  C   UNL A   1      37.257  32.829  30.843  1.00  0.00     0.047 C 
BRANCH  11  12
ATOM     12  C   UNL A   1      37.823  34.217  30.485  1.00  0.00     0.119 C 
ATOM     13  C   UNL A   1      38.911  34.322  29.418  1.00  0.00     0.032 C 
ATOM     14  O   UNL A   1      38.290  34.869  31.685  1.00  0.00    -0.378 OA
ATOM     15  C   UNL A   1      40.240  33.755  29.890  1.00  0.00     0.005 C 
ATOM     16  C   UNL A   1      39.502  34.332  32.222  1.00  0.00     0.160 C 
ATOM     17  C   UNL A   1      40.642  34.383  31.216  1.00  0.00     0.029 C 
ENDBRANCH  11  12
ENDBRANCH   6  11
ENDBRANCH   4   6
ENDBRANCH   3   4
ENDBRANCH   2   3
ENDBRANCH   1   2
BRANCH   1  18
ATOM     18  O   UNL A   1      34.956  32.060  27.532  1.00  0.00    -0.458 OA
BRANCH  18  19
ATOM     19  C   UNL A   1      34.896  30.710  27.589  1.00  0.00     0.338 C 
ATOM     20  O   UNL A   1      34.008  29.984  27.179  1.00  0.00    -0.246 OA
BRANCH  19  21
ATOM     21  C   UNL A   1      36.155  30.207  28.153  1.00  0.00     0.060 A 
ATOM     22  C   UNL A   1      37.324  30.333  27.401  1.00  0.00     0.016 A 
ATOM     23  C   UNL A   1      36.166  29.558  29.385  1.00  0.00     0.016 A 
ATOM     24  C   UNL A   1      38.519  29.796  27.867  1.00  0.00     0.010 A 
ATOM     25  C   UNL A   1      37.373  29.044  29.867  1.00  0.00     0.010 A 
ATOM     26  C   UNL A   1      38.551  29.152  29.106  1.00  0.00    -0.014 A 
BRANCH  26  27
ATOM     27  C   UNL A   1      39.816  28.580  29.618  1.00  0.00     0.031 A 
ATOM     28  C   UNL A   1      40.556  29.280  30.718  1.00  0.00     0.074 A 
ATOM     29  C   UNL A   1      40.321  27.470  29.047  1.00  0.00     0.049 A 
ATOM     30  N   UNL A   1      41.754  29.048  31.183  1.00  0.00    -0.248 NA
ATOM     31  C   UNL A   1      39.859  30.398  31.378  1.00  0.00     0.031 C 
ATOM     32  C   UNL A   1      39.677  26.703  27.979  1.00  0.00     0.029 A 
ATOM     33  N   UNL A   1      41.512  26.821  29.255  1.00  0.00    -0.354 N 
ATOM     34  C   UNL A   1      41.982  30.024  32.143  1.00  0.00     0.074 A 
ATOM     35  C   UNL A   1      40.789  30.841  32.212  1.00  0.00     0.031 C 
ATOM     36  C   UNL A   1      40.497  25.712  27.597  1.00  0.00     0.029 A 
ATOM     37  C   UNL A   1      41.740  25.806  28.356  1.00  0.00     0.049 A 
ATOM     38  H   UNL A   1      42.140  27.059  29.975  1.00  0.00     0.167 HD
ATOM     39  C   UNL A   1      43.087  30.215  32.899  1.00  0.00     0.034 A 
ATOM     40  C   UNL A   1      42.847  25.070  28.133  1.00  0.00     0.034 A 
ATOM     41  C   UNL A   1      44.246  29.364  32.858  1.00  0.00     0.049 A 
ATOM     42  C   UNL A   1      44.065  25.314  28.980  1.00  0.00     0.074 A 
ATOM     43  C   UNL A   1      45.382  29.422  33.644  1.00  0.00     0.029 A 
ATOM     44  N   UNL A   1      44.419  28.309  31.977  1.00  0.00    -0.354 N 
ATOM     45  N   UNL A   1      44.225  26.163  29.967  1.00  0.00    -0.248 NA
ATOM     46  C   UNL A   1      45.250  24.492  28.696  1.00  0.00     0.031 C 
ATOM     47  C   UNL A   1      46.253  28.412  33.223  1.00  0.00     0.029 A 
ATOM     48  C   UNL A   1      45.653  27.718  32.184  1.00  0.00     0.049 A 
ATOM     49  H   UNL A   1      43.760  28.021  31.304  1.00  0.00     0.167 HD
ATOM     50  C   UNL A   1      45.520  25.965  30.433  1.00  0.00     0.074 A 
ATOM     51  C   UNL A   1      46.091  24.897  29.638  1.00  0.00     0.031 C 
ATOM     52  C   UNL A   1      46.184  26.622  31.415  1.00  0.00     0.034 A 
BRANCH  39  53
ATOM     53  C   UNL A   1      43.097  31.378  33.852  1.00  0.00     0.023 A 
ATOM     54  C   UNL A   1      43.551  32.637  33.414  1.00  0.00     0.012 A 
ATOM     55  C   UNL A   1      42.591  31.239  35.159  1.00  0.00     0.148 A 
ATOM     56  C   UNL A   1      43.518  33.739  34.269  1.00  0.00     0.002 A 
ATOM     57  C   UNL A   1      42.529  32.348  35.995  1.00  0.00     0.091 A 
ATOM     58  F   UNL A   1      42.189  30.026  35.563  1.00  0.00    -0.205 F 
ATOM     59  C   UNL A   1      42.998  33.596  35.553  1.00  0.00     0.022 A 
BRANCH  57  60
ATOM     60  S   UNL A   1      41.816  32.279  37.642  1.00  0.00     0.127 S 
ATOM     61  O   UNL A   1      42.032  33.646  38.113  1.00  0.00    -0.237 OA
ATOM     62  O   UNL A   1      40.420  31.945  37.361  1.00  0.00    -0.237 OA
ATOM     63  O   UNL A   1      42.554  31.247  38.356  1.00  0.00    -0.744 OA
ENDBRANCH  57  60
ENDBRANCH  39  53
BRANCH  40  64
ATOM     64  C   UNL A   1      42.846  24.035  27.061  1.00  0.00     0.023 A 
ATOM     65  C   UNL A   1      43.512  24.294  25.849  1.00  0.00     0.012 A 
ATOM     66  C   UNL A   1      42.223  22.786  27.249  1.00  0.00     0.148 A 
ATOM     67  C   UNL A   1      43.539  23.335  24.834  1.00  0.00     0.002 A 
ATOM     68  C   UNL A   1      42.300  21.815  26.256  1.00  0.00     0.091 A 
ATOM     69  F   UNL A   1      41.569  22.565  28.398  1.00  0.00    -0.205 F 
ATOM     70  C   UNL A   1      42.945  22.093  25.042  1.00  0.00     0.022 A 
BRANCH  68  71
ATOM     71  S   UNL A   1      41.677  20.149  26.509  1.00  0.00     0.127 S 
ATOM     72  O   UNL A   1      40.234  20.365  26.515  1.00  0.00    -0.237 OA
ATOM     73  O   UNL A   1      42.188  19.444  25.331  1.00  0.00    -0.237 OA
ATOM     74  O   UNL A   1      42.266  19.706  27.766  1.00  0.00    -0.744 OA
ENDBRANCH  68  71
ENDBRANCH  40  64
BRANCH  52  75
ATOM     75  C   UNL A   1      47.600  26.204  31.699  1.00  0.00     0.023 A 
ATOM     76  C   UNL A   1      48.652  26.780  30.961  1.00  0.00     0.012 A 
ATOM     77  C   UNL A   1      47.895  25.317  32.753  1.00  0.00     0.148 A 
ATOM     78  C   UNL A   1      49.977  26.465  31.255  1.00  0.00     0.002 A 
ATOM     79  C   UNL A   1      49.220  25.041  33.069  1.00  0.00     0.091 A 
ATOM     80  F   UNL A   1      46.876  24.767  33.430  1.00  0.00    -0.205 F 
ATOM     81  C   UNL A   1      50.261  25.607  32.315  1.00  0.00     0.022 A 
BRANCH  79  82
ATOM     82  S   UNL A   1      49.682  24.022  34.474  1.00  0.00     0.127 S 
ATOM     83  O   UNL A   1      51.142  24.066  34.406  1.00  0.00    -0.237 OA
ATOM     84  O   UNL A   1      49.101  24.759  35.597  1.00  0.00    -0.237 OA
ATOM     85  O   UNL A   1      49.084  22.716  34.236  1.00  0.00    -0.744 OA
ENDBRANCH  79  82
ENDBRANCH  52  75
ENDBRANCH  26  27
ENDBRANCH  19  21
ENDBRANCH  18  19
ENDBRANCH   1  18
TORSDOF 18
ENDMDL
MODEL 3
REMARK VINA RESULT:     -10.3      5.229     10.125
REMARK SMILES CC(C)C[C@@H](C[C@@H]1CCCCO1)C(=O)OCCOC(=O)c1ccc(-c2c3nc(c(-c4cccc(S(=O)(=O)[O-])c4F)c4ccc([nH]4)c(-c4cccc(S(=O)(=O)[O-])c4F)c4nc(c(-c5cccc(S(=O)(=O)[O-])c5F)c5ccc2[nH]5)C=C4)C=C3)cc1
REMARK SMILES IDX 17 1 16 2 15 3 13 4 14 5 5 6 4 7 2 8 1 9 3 10 6 11 7 12 8 13
REMARK SMILES IDX 12 14 9 15 11 16 10 17 18 18 19 19 20 20 21 21 22 22 83 23
REMARK SMILES IDX 23 24 82 25 24 26 25 27 26 28 76 29 27 30 81 31 75 32 77 33
REMARK SMILES IDX 28 34 80 35 74 36 73 37 29 39 61 40 41 41 60 42 42 43 45 44
REMARK SMILES IDX 59 45 78 46 43 47 44 48 58 50 79 51 46 52 30 53 31 54 39 55
REMARK SMILES IDX 32 56 34 57 40 58 33 59 35 60 36 61 37 62 38 63 62 64 63 65
REMARK SMILES IDX 71 66 64 67 66 68 72 69 65 70 67 71 68 72 69 73 70 74 47 75
REMARK SMILES IDX 48 76 56 77 49 78 51 79 57 80 50 81 52 82 53 83 54 84 55 85
REMARK H PARENT 77 38 45 49
REMARK Flexibility Score: inf
ROOT
ATOM      1  C   UNL A   1      31.876  29.759  26.634  1.00  0.00     0.275 C 
ENDROOT
BRANCH   1   2
ATOM      2  C   UNL A   1      31.774  28.469  27.448  1.00  0.00     0.274 C 
BRANCH   2   3
ATOM      3  O   UNL A   1      32.774  27.516  27.031  1.00  0.00    -0.462 OA
BRANCH   3   4
ATOM      4  C   UNL A   1      32.308  26.372  26.468  1.00  0.00     0.309 C 
ATOM      5  O   UNL A   1      31.339  25.740  26.869  1.00  0.00    -0.252 OA
BRANCH   4   6
ATOM      6  C   UNL A   1      33.154  25.897  25.296  1.00  0.00     0.102 C 
BRANCH   6   7
ATOM      7  C   UNL A   1      33.913  27.012  24.543  1.00  0.00     0.018 C 
BRANCH   7   8
ATOM      8  C   UNL A   1      33.280  27.449  23.200  1.00  0.00    -0.017 C 
ATOM      9  C   UNL A   1      34.039  28.604  22.543  1.00  0.00     0.007 C 
ATOM     10  C   UNL A   1      33.218  26.262  22.233  1.00  0.00     0.007 C 
ENDBRANCH   7   8
ENDBRANCH   6   7
BRANCH   6  11
ATOM     11  C   UNL A   1      33.974  24.663  25.694  1.00  0.00     0.047 C 
BRANCH  11  12
ATOM     12  C   UNL A   1      34.673  23.827  24.604  1.00  0.00     0.119 C 
ATOM     13  C   UNL A   1      33.838  22.875  23.749  1.00  0.00     0.032 C 
ATOM     14  O   UNL A   1      35.760  23.083  25.193  1.00  0.00    -0.378 OA
ATOM     15  C   UNL A   1      33.341  21.674  24.539  1.00  0.00     0.005 C 
ATOM     16  C   UNL A   1      35.355  21.981  26.010  1.00  0.00     0.160 C 
ATOM     17  C   UNL A   1      34.501  20.985  25.239  1.00  0.00     0.029 C 
ENDBRANCH  11  12
ENDBRANCH   6  11
ENDBRANCH   4   6
ENDBRANCH   3   4
ENDBRANCH   2   3
ENDBRANCH   1   2
BRANCH   1  18
ATOM     18  O   UNL A   1      33.248  30.157  26.486  1.00  0.00    -0.458 OA
BRANCH  18  19
ATOM     19  C   UNL A   1      33.634  31.196  27.261  1.00  0.00     0.338 C 
ATOM     20  O   UNL A   1      32.995  32.193  27.546  1.00  0.00    -0.246 OA
BRANCH  19  21
ATOM     21  C   UNL A   1      34.959  30.900  27.820  1.00  0.00     0.060 A 
ATOM     22  C   UNL A   1      35.188  29.636  28.368  1.00  0.00     0.016 A 
ATOM     23  C   UNL A   1      35.944  31.884  27.862  1.00  0.00     0.016 A 
ATOM     24  C   UNL A   1      36.402  29.346  28.980  1.00  0.00     0.010 A 
ATOM     25  C   UNL A   1      37.174  31.583  28.451  1.00  0.00     0.010 A 
ATOM     26  C   UNL A   1      37.405  30.318  29.021  1.00  0.00    -0.014 A 
BRANCH  26  27
ATOM     27  C   UNL A   1      38.705  30.023  29.663  1.00  0.00     0.031 A 
ATOM     28  C   UNL A   1      39.624  29.010  29.048  1.00  0.00     0.074 A 
ATOM     29  C   UNL A   1      39.020  30.621  30.827  1.00  0.00     0.049 A 
ATOM     30  N   UNL A   1      40.713  28.483  29.538  1.00  0.00    -0.248 NA
ATOM     31  C   UNL A   1      39.266  28.520  27.706  1.00  0.00     0.031 C 
ATOM     32  C   UNL A   1      38.204  31.630  31.506  1.00  0.00     0.029 A 
ATOM     33  N   UNL A   1      40.089  30.434  31.667  1.00  0.00    -0.354 N 
ATOM     34  C   UNL A   1      41.138  27.554  28.598  1.00  0.00     0.074 A 
ATOM     35  C   UNL A   1      40.201  27.603  27.495  1.00  0.00     0.031 C 
ATOM     36  C   UNL A   1      38.780  31.944  32.677  1.00  0.00     0.029 A 
ATOM     37  C   UNL A   1      39.975  31.124  32.852  1.00  0.00     0.049 A 
ATOM     38  H   UNL A   1      40.860  29.864  31.444  1.00  0.00     0.167 HD
ATOM     39  C   UNL A   1      42.215  26.738  28.652  1.00  0.00     0.034 A 
ATOM     40  C   UNL A   1      40.720  31.061  33.973  1.00  0.00     0.034 A 
ATOM     41  C   UNL A   1      43.168  26.735  29.728  1.00  0.00     0.049 A 
ATOM     42  C   UNL A   1      41.903  30.135  34.009  1.00  0.00     0.074 A 
ATOM     43  C   UNL A   1      44.339  26.007  29.838  1.00  0.00     0.029 A 
ATOM     44  N   UNL A   1      43.053  27.489  30.886  1.00  0.00    -0.354 N 
ATOM     45  N   UNL A   1      42.362  29.348  33.065  1.00  0.00    -0.248 NA
ATOM     46  C   UNL A   1      42.681  30.095  35.255  1.00  0.00     0.031 C 
ATOM     47  C   UNL A   1      44.923  26.307  31.073  1.00  0.00     0.029 A 
ATOM     48  C   UNL A   1      44.121  27.230  31.727  1.00  0.00     0.049 A 
ATOM     49  H   UNL A   1      42.320  28.117  31.080  1.00  0.00     0.167 HD
ATOM     50  C   UNL A   1      43.491  28.735  33.596  1.00  0.00     0.074 A 
ATOM     51  C   UNL A   1      43.662  29.262  34.935  1.00  0.00     0.031 C 
ATOM     52  C   UNL A   1      44.301  27.803  33.035  1.00  0.00     0.034 A 
BRANCH  39  53
ATOM     53  C   UNL A   1      42.439  25.788  27.508  1.00  0.00     0.023 A 
ATOM     54  C   UNL A   1      43.192  26.203  26.392  1.00  0.00     0.012 A 
ATOM     55  C   UNL A   1      41.963  24.464  27.569  1.00  0.00     0.148 A 
ATOM     56  C   UNL A   1      43.454  25.319  25.346  1.00  0.00     0.002 A 
ATOM     57  C   UNL A   1      42.257  23.579  26.540  1.00  0.00     0.091 A 
ATOM     58  F   UNL A   1      41.226  24.099  28.628  1.00  0.00    -0.205 F 
ATOM     59  C   UNL A   1      42.996  24.006  25.425  1.00  0.00     0.022 A 
BRANCH  57  60
ATOM     60  S   UNL A   1      41.767  21.851  26.581  1.00  0.00     0.127 S 
ATOM     61  O   UNL A   1      42.419  21.332  25.379  1.00  0.00    -0.237 OA
ATOM     62  O   UNL A   1      42.356  21.392  27.839  1.00  0.00    -0.237 OA
ATOM     63  O   UNL A   1      40.312  21.845  26.555  1.00  0.00    -0.744 OA
ENDBRANCH  57  60
ENDBRANCH  39  53
BRANCH  40  64
ATOM     64  C   UNL A   1      40.362  31.903  35.150  1.00  0.00     0.023 A 
ATOM     65  C   UNL A   1      41.004  33.141  35.335  1.00  0.00     0.012 A 
ATOM     66  C   UNL A   1      39.367  31.501  36.063  1.00  0.00     0.148 A 
ATOM     67  C   UNL A   1      40.677  33.956  36.421  1.00  0.00     0.002 A 
ATOM     68  C   UNL A   1      39.007  32.341  37.110  1.00  0.00     0.091 A 
ATOM     69  F   UNL A   1      38.785  30.307  35.887  1.00  0.00    -0.205 F 
ATOM     70  C   UNL A   1      39.671  33.562  37.301  1.00  0.00     0.022 A 
BRANCH  68  71
ATOM     71  S   UNL A   1      37.629  31.961  38.200  1.00  0.00     0.127 S 
ATOM     72  O   UNL A   1      36.612  32.899  37.735  1.00  0.00    -0.237 OA
ATOM     73  O   UNL A   1      37.362  30.557  37.884  1.00  0.00    -0.237 OA
ATOM     74  O   UNL A   1      38.136  32.179  39.548  1.00  0.00    -0.744 OA
ENDBRANCH  68  71
ENDBRANCH  40  64
BRANCH  52  75
ATOM     75  C   UNL A   1      45.454  27.297  33.857  1.00  0.00     0.023 A 
ATOM     76  C   UNL A   1      46.677  27.995  33.834  1.00  0.00     0.012 A 
ATOM     77  C   UNL A   1      45.299  26.193  34.718  1.00  0.00     0.148 A 
ATOM     78  C   UNL A   1      47.737  27.591  34.644  1.00  0.00     0.002 A 
ATOM     79  C   UNL A   1      46.346  25.823  35.554  1.00  0.00     0.091 A 
ATOM     80  F   UNL A   1      44.132  25.534  34.709  1.00  0.00    -0.205 F 
ATOM     81  C   UNL A   1      47.567  26.514  35.511  1.00  0.00     0.022 A 
BRANCH  79  82
ATOM     82  S   UNL A   1      46.187  24.509  36.768  1.00  0.00     0.127 S 
ATOM     83  O   UNL A   1      45.948  23.344  35.917  1.00  0.00    -0.237 OA
ATOM     84  O   UNL A   1      47.497  24.528  37.421  1.00  0.00    -0.237 OA
ATOM     85  O   UNL A   1      45.078  24.890  37.631  1.00  0.00    -0.744 OA
ENDBRANCH  79  82
ENDBRANCH  52  75
ENDBRANCH  26  27
ENDBRANCH  19  21
ENDBRANCH  18  19
ENDBRANCH   1  18
TORSDOF 18
ENDMDL
