MODEL 1
REMARK VINA RESULT:     -11.4      0.000      0.000
REMARK SMILES COc1ccc(Cl)c(NS(=O)(=O)c2ccc(C)c(C(=O)OCCOC(=O)c3ccc(-c4c5nc(c(-c6cccc(S(=O)(=O)[O-])c6F)c6ccc([nH]6)c(-c6cccc(S(=O)(=O)[O-])c6F)c6nc(c(-c7cccc(S(=O)(=O)[O-])c7F)c7ccc4[nH]7)C=C6)C=C5)cc3)c2)c1
REMARK SMILES IDX 22 1 21 2 19 3 20 4 18 5 13 6 14 7 90 8 15 9 16 10 17 11
REMARK SMILES IDX 10 12 11 13 12 14 9 15 8 17 3 18 4 19 91 20 5 21 6 22 7 23
REMARK SMILES IDX 2 24 1 25 23 26 24 27 25 28 26 29 27 30 28 31 89 32 29 33
REMARK SMILES IDX 88 34 30 35 31 36 32 37 82 38 33 39 87 40 81 41 83 42 34 43
REMARK SMILES IDX 86 44 80 45 79 46 35 48 67 49 47 50 66 51 48 52 51 53 65 54
REMARK SMILES IDX 84 55 49 56 50 57 64 59 85 60 52 61 36 62 37 63 45 64 38 65
REMARK SMILES IDX 40 66 46 67 39 68 41 69 42 70 43 71 44 72 68 73 69 74 77 75
REMARK SMILES IDX 70 76 72 77 78 78 71 79 73 80 74 81 75 82 76 83 53 84 54 85
REMARK SMILES IDX 62 86 55 87 57 88 63 89 56 90 58 91 59 92 60 93 61 94
REMARK H PARENT 9 16 83 47 51 58
REMARK Flexibility Score: inf
ROOT
ATOM      1  C   UNL A   1      38.184  24.005  26.112  1.00  0.00     0.275 C 
ENDROOT
BRANCH   1   2
ATOM      2  O   UNL A   1      36.811  23.672  26.369  1.00  0.00    -0.458 OA
BRANCH   2   3
ATOM      3  C   UNL A   1      35.805  24.061  25.306  1.00  0.00     0.338 C 
ATOM      4  O   UNL A   1      36.387  23.536  24.299  1.00  0.00    -0.246 OA
BRANCH   3   5
ATOM      5  C   UNL A   1      33.972  25.148  25.568  1.00  0.00     0.064 A 
ATOM      6  C   UNL A   1      32.703  27.562  26.109  1.00  0.00     0.088 A 
ATOM      7  C   UNL A   1      31.445  27.049  26.234  1.00  0.00     0.022 A 
ATOM      8  C   UNL A   1      33.816  26.694  25.862  1.00  0.00     0.038 A 
ATOM      9  C   UNL A   1      31.314  25.692  25.997  1.00  0.00     0.006 A 
ATOM     10  C   UNL A   1      32.410  24.770  25.634  1.00  0.00    -0.036 A 
ATOM     11  C   UNL A   1      31.676  23.404  25.366  1.00  0.00     0.045 C 
BRANCH   6  12
ATOM     12  S   UNL A   1      32.950  29.331  25.925  1.00  0.00     0.261 S 
ATOM     13  O   UNL A   1      34.233  29.712  26.468  1.00  0.00    -0.201 OA
ATOM     14  O   UNL A   1      31.714  29.998  26.276  1.00  0.00    -0.201 OA
BRANCH  12  15
ATOM     15  N   UNL A   1      33.145  29.626  24.265  1.00  0.00    -0.278 N 
ATOM     16  H   UNL A   1      33.644  30.431  23.995  1.00  0.00     0.180 HD
BRANCH  15  17
ATOM     17  C   UNL A   1      32.626  28.768  23.223  1.00  0.00     0.071 A 
ATOM     18  C   UNL A   1      32.912  26.570  22.238  1.00  0.00     0.121 A 
ATOM     19  C   UNL A   1      31.543  26.372  22.187  1.00  0.00     0.048 A 
ATOM     20  C   UNL A   1      33.426  27.790  22.648  1.00  0.00     0.074 A 
ATOM     21  C   UNL A   1      30.699  27.419  22.567  1.00  0.00     0.026 A 
ATOM     22  C   UNL A   1      31.237  28.591  23.120  1.00  0.00     0.065 A 
ATOM     23  Cl  UNL A   1      30.142  29.784  23.732  1.00  0.00    -0.082 Cl
BRANCH  18  24
ATOM     24  O   UNL A   1      33.814  25.544  22.190  1.00  0.00    -0.497 OA
ATOM     25  C   UNL A   1      33.218  24.267  22.058  1.00  0.00     0.278 C 
ENDBRANCH  18  24
ENDBRANCH  15  17
ENDBRANCH  12  15
ENDBRANCH   6  12
ENDBRANCH   3   5
ENDBRANCH   2   3
ENDBRANCH   1   2
BRANCH   1  26
ATOM     26  C   UNL A   1      38.857  24.307  27.459  1.00  0.00     0.275 C 
BRANCH  26  27
ATOM     27  O   UNL A   1      39.080  25.719  27.742  1.00  0.00    -0.458 OA
BRANCH  27  28
ATOM     28  C   UNL A   1      40.177  26.093  28.468  1.00  0.00     0.338 C 
ATOM     29  O   UNL A   1      40.167  26.881  29.397  1.00  0.00    -0.246 OA
BRANCH  28  30
ATOM     30  C   UNL A   1      41.427  25.528  27.891  1.00  0.00     0.060 A 
ATOM     31  C   UNL A   1      42.105  24.114  28.775  1.00  0.00     0.016 A 
ATOM     32  C   UNL A   1      42.521  26.791  27.236  1.00  0.00     0.016 A 
ATOM     33  C   UNL A   1      43.929  23.991  29.067  1.00  0.00     0.010 A 
ATOM     34  C   UNL A   1      44.332  26.694  27.562  1.00  0.00     0.010 A 
ATOM     35  C   UNL A   1      45.014  25.295  28.486  1.00  0.00    -0.014 A 
BRANCH  35  36
ATOM     36  C   UNL A   1      46.254  25.656  29.140  1.00  0.00     0.031 A 
ATOM     37  C   UNL A   1      47.481  25.386  28.372  1.00  0.00     0.074 A 
ATOM     38  C   UNL A   1      46.227  26.470  30.226  1.00  0.00     0.049 A 
ATOM     39  N   UNL A   1      48.641  25.747  28.767  1.00  0.00    -0.248 NA
ATOM     40  C   UNL A   1      47.515  24.682  27.090  1.00  0.00     0.031 C 
ATOM     41  C   UNL A   1      47.314  27.311  30.723  1.00  0.00     0.029 A 
ATOM     42  N   UNL A   1      45.243  26.668  31.197  1.00  0.00    -0.354 N 
ATOM     43  C   UNL A   1      49.550  25.467  27.780  1.00  0.00     0.074 A 
ATOM     44  C   UNL A   1      48.801  24.807  26.747  1.00  0.00     0.031 C 
ATOM     45  C   UNL A   1      47.061  27.661  31.995  1.00  0.00     0.029 A 
ATOM     46  C   UNL A   1      45.889  26.923  32.416  1.00  0.00     0.049 A 
ATOM     47  H   UNL A   1      44.270  26.635  31.052  1.00  0.00     0.167 HD
ATOM     48  C   UNL A   1      50.821  25.896  27.988  1.00  0.00     0.034 A 
ATOM     49  C   UNL A   1      45.829  26.106  33.515  1.00  0.00     0.034 A 
ATOM     50  C   UNL A   1      50.994  26.202  29.425  1.00  0.00     0.049 A 
ATOM     51  C   UNL A   1      47.196  25.437  33.779  1.00  0.00     0.074 A 
ATOM     52  C   UNL A   1      50.981  27.356  30.190  1.00  0.00     0.029 A 
ATOM     53  N   UNL A   1      50.807  25.156  30.327  1.00  0.00    -0.354 N 
ATOM     54  N   UNL A   1      48.303  25.695  33.129  1.00  0.00    -0.248 NA
ATOM     55  C   UNL A   1      47.374  24.326  34.712  1.00  0.00     0.031 C 
ATOM     56  C   UNL A   1      50.733  26.982  31.550  1.00  0.00     0.029 A 
ATOM     57  C   UNL A   1      50.657  25.601  31.631  1.00  0.00     0.049 A 
ATOM     58  H   UNL A   1      50.784  24.207  30.066  1.00  0.00     0.167 HD
ATOM     59  C   UNL A   1      49.229  24.703  33.360  1.00  0.00     0.074 A 
ATOM     60  C   UNL A   1      48.570  23.850  34.336  1.00  0.00     0.031 C 
ATOM     61  C   UNL A   1      50.433  24.617  32.696  1.00  0.00     0.034 A 
BRANCH  48  62
ATOM     62  C   UNL A   1      51.868  26.152  26.923  1.00  0.00     0.023 A 
ATOM     63  C   UNL A   1      52.359  25.015  26.245  1.00  0.00     0.012 A 
ATOM     64  C   UNL A   1      52.511  27.381  26.619  1.00  0.00     0.148 A 
ATOM     65  C   UNL A   1      53.443  25.075  25.362  1.00  0.00     0.002 A 
ATOM     66  C   UNL A   1      53.578  27.447  25.716  1.00  0.00     0.091 A 
ATOM     67  F   UNL A   1      52.142  28.505  27.232  1.00  0.00    -0.205 F 
ATOM     68  C   UNL A   1      54.056  26.291  25.097  1.00  0.00     0.022 A 
BRANCH  66  69
ATOM     69  S   UNL A   1      54.437  28.987  25.321  1.00  0.00     0.127 S 
ATOM     70  O   UNL A   1      55.402  28.548  24.311  1.00  0.00    -0.237 OA
ATOM     71  O   UNL A   1      53.358  29.826  24.804  1.00  0.00    -0.237 OA
ATOM     72  O   UNL A   1      55.036  29.461  26.563  1.00  0.00    -0.744 OA
ENDBRANCH  66  69
ENDBRANCH  48  62
BRANCH  49  73
ATOM     73  C   UNL A   1      44.494  25.431  33.678  1.00  0.00     0.023 A 
ATOM     74  C   UNL A   1      44.443  24.032  33.446  1.00  0.00     0.012 A 
ATOM     75  C   UNL A   1      43.488  26.002  34.461  1.00  0.00     0.148 A 
ATOM     76  C   UNL A   1      43.609  23.216  34.218  1.00  0.00     0.002 A 
ATOM     77  C   UNL A   1      42.681  25.193  35.241  1.00  0.00     0.091 A 
ATOM     78  F   UNL A   1      43.354  27.328  34.541  1.00  0.00    -0.205 F 
ATOM     79  C   UNL A   1      42.770  23.797  35.165  1.00  0.00     0.022 A 
BRANCH  77  80
ATOM     80  S   UNL A   1      41.821  25.994  36.603  1.00  0.00     0.127 S 
ATOM     81  O   UNL A   1      41.028  27.006  35.911  1.00  0.00    -0.237 OA
ATOM     82  O   UNL A   1      41.025  24.913  37.173  1.00  0.00    -0.237 OA
ATOM     83  O   UNL A   1      42.925  26.500  37.410  1.00  0.00    -0.744 OA
ENDBRANCH  77  80
ENDBRANCH  49  73
BRANCH  61  84
ATOM     84  C   UNL A   1      51.509  23.554  32.976  1.00  0.00     0.023 A 
ATOM     85  C   UNL A   1      51.280  22.180  32.764  1.00  0.00     0.012 A 
ATOM     86  C   UNL A   1      52.768  23.871  33.559  1.00  0.00     0.148 A 
ATOM     87  C   UNL A   1      52.273  21.209  32.950  1.00  0.00     0.002 A 
ATOM     88  C   UNL A   1      53.750  22.907  33.770  1.00  0.00     0.091 A 
ATOM     89  F   UNL A   1      53.016  25.107  33.994  1.00  0.00    -0.205 F 
ATOM     90  C   UNL A   1      53.519  21.576  33.431  1.00  0.00     0.022 A 
BRANCH  88  91
ATOM     91  S   UNL A   1      55.331  23.300  34.534  1.00  0.00     0.127 S 
ATOM     92  O   UNL A   1      56.072  23.853  33.401  1.00  0.00    -0.237 OA
ATOM     93  O   UNL A   1      54.941  24.281  35.547  1.00  0.00    -0.237 OA
ATOM     94  O   UNL A   1      55.852  22.051  35.069  1.00  0.00    -0.744 OA
ENDBRANCH  88  91
ENDBRANCH  61  84
ENDBRANCH  35  36
ENDBRANCH  28  30
ENDBRANCH  27  28
ENDBRANCH  26  27
ENDBRANCH   1  26
TORSDOF 18
ENDMDL
MODEL 2
REMARK VINA RESULT:     -11.3      8.276     13.519
REMARK SMILES COc1ccc(Cl)c(NS(=O)(=O)c2ccc(C)c(C(=O)OCCOC(=O)c3ccc(-c4c5nc(c(-c6cccc(S(=O)(=O)[O-])c6F)c6ccc([nH]6)c(-c6cccc(S(=O)(=O)[O-])c6F)c6nc(c(-c7cccc(S(=O)(=O)[O-])c7F)c7ccc4[nH]7)C=C6)C=C5)cc3)c2)c1
REMARK SMILES IDX 22 1 21 2 19 3 20 4 18 5 13 6 14 7 90 8 15 9 16 10 17 11
REMARK SMILES IDX 10 12 11 13 12 14 9 15 8 17 3 18 4 19 91 20 5 21 6 22 7 23
REMARK SMILES IDX 2 24 1 25 23 26 24 27 25 28 26 29 27 30 28 31 89 32 29 33
REMARK SMILES IDX 88 34 30 35 31 36 32 37 82 38 33 39 87 40 81 41 83 42 34 43
REMARK SMILES IDX 86 44 80 45 79 46 35 48 67 49 47 50 66 51 48 52 51 53 65 54
REMARK SMILES IDX 84 55 49 56 50 57 64 59 85 60 52 61 36 62 37 63 45 64 38 65
REMARK SMILES IDX 40 66 46 67 39 68 41 69 42 70 43 71 44 72 68 73 69 74 77 75
REMARK SMILES IDX 70 76 72 77 78 78 71 79 73 80 74 81 75 82 76 83 53 84 54 85
REMARK SMILES IDX 62 86 55 87 57 88 63 89 56 90 58 91 59 92 60 93 61 94
REMARK H PARENT 9 16 83 47 51 58
REMARK Flexibility Score: inf
ROOT
ATOM      1  C   UNL A   1      34.371  29.966  27.517  1.00  0.00     0.275 C 
ENDROOT
BRANCH   1   2
ATOM      2  O   UNL A   1      33.635  29.832  26.292  1.00  0.00    -0.458 OA
BRANCH   2   3
ATOM      3  C   UNL A   1      32.214  29.322  26.402  1.00  0.00     0.338 C 
ATOM      4  O   UNL A   1      31.755  30.221  27.183  1.00  0.00    -0.246 OA
BRANCH   3   5
ATOM      5  C   UNL A   1      31.358  27.602  25.446  1.00  0.00     0.064 A 
ATOM      6  C   UNL A   1      31.251  24.834  25.197  1.00  0.00     0.088 A 
ATOM      7  C   UNL A   1      30.457  24.811  24.087  1.00  0.00     0.022 A 
ATOM      8  C   UNL A   1      31.678  26.083  25.753  1.00  0.00     0.038 A 
ATOM      9  C   UNL A   1      30.016  26.039  23.628  1.00  0.00     0.006 A 
ATOM     10  C   UNL A   1      30.338  27.351  24.227  1.00  0.00    -0.036 A 
ATOM     11  C   UNL A   1      29.481  28.367  23.386  1.00  0.00     0.045 C 
BRANCH   6  12
ATOM     12  S   UNL A   1      31.507  23.343  26.165  1.00  0.00     0.261 S 
ATOM     13  O   UNL A   1      30.594  22.309  25.734  1.00  0.00    -0.201 OA
ATOM     14  O   UNL A   1      31.668  23.728  27.550  1.00  0.00    -0.201 OA
BRANCH  12  15
ATOM     15  N   UNL A   1      33.018  22.719  25.709  1.00  0.00    -0.278 N 
ATOM     16  H   UNL A   1      33.822  23.233  25.952  1.00  0.00     0.180 HD
BRANCH  15  17
ATOM     17  C   UNL A   1      33.198  21.480  24.985  1.00  0.00     0.071 A 
ATOM     18  C   UNL A   1      32.759  19.099  25.135  1.00  0.00     0.121 A 
ATOM     19  C   UNL A   1      32.340  19.055  23.817  1.00  0.00     0.048 A 
ATOM     20  C   UNL A   1      33.278  20.271  25.664  1.00  0.00     0.074 A 
ATOM     21  C   UNL A   1      32.441  20.212  23.041  1.00  0.00     0.026 A 
ATOM     22  C   UNL A   1      32.827  21.424  23.633  1.00  0.00     0.065 A 
ATOM     23  Cl  UNL A   1      32.770  22.860  22.668  1.00  0.00    -0.082 Cl
BRANCH  18  24
ATOM     24  O   UNL A   1      32.428  18.143  26.054  1.00  0.00    -0.497 OA
ATOM     25  C   UNL A   1      32.740  16.825  25.643  1.00  0.00     0.278 C 
ENDBRANCH  18  24
ENDBRANCH  15  17
ENDBRANCH  12  15
ENDBRANCH   6  12
ENDBRANCH   3   5
ENDBRANCH   2   3
ENDBRANCH   1   2
BRANCH   1  26
ATOM     26  C   UNL A   1      34.782  31.438  27.665  1.00  0.00     0.275 C 
BRANCH  26  27
ATOM     27  O   UNL A   1      34.144  32.157  28.761  1.00  0.00    -0.458 OA
BRANCH  27  28
ATOM     28  C   UNL A   1      34.896  32.544  29.836  1.00  0.00     0.338 C 
ATOM     29  O   UNL A   1      34.476  33.160  30.800  1.00  0.00    -0.246 OA
BRANCH  28  30
ATOM     30  C   UNL A   1      36.339  32.251  29.622  1.00  0.00     0.060 A 
ATOM     31  C   UNL A   1      36.973  30.833  30.532  1.00  0.00     0.016 A 
ATOM     32  C   UNL A   1      37.333  33.737  29.462  1.00  0.00     0.016 A 
ATOM     33  C   UNL A   1      38.626  30.926  31.360  1.00  0.00     0.010 A 
ATOM     34  C   UNL A   1      38.959  33.849  30.321  1.00  0.00     0.010 A 
ATOM     35  C   UNL A   1      39.583  32.440  31.271  1.00  0.00    -0.014 A 
BRANCH  35  36
ATOM     36  C   UNL A   1      40.496  32.873  32.308  1.00  0.00     0.031 A 
ATOM     37  C   UNL A   1      39.873  33.526  33.471  1.00  0.00     0.074 A 
ATOM     38  C   UNL A   1      41.770  32.406  32.318  1.00  0.00     0.049 A 
ATOM     39  N   UNL A   1      40.531  33.864  34.513  1.00  0.00    -0.248 NA
ATOM     40  C   UNL A   1      38.452  33.861  33.569  1.00  0.00     0.031 C 
ATOM     41  C   UNL A   1      42.669  32.324  33.467  1.00  0.00     0.029 A 
ATOM     42  N   UNL A   1      42.595  31.976  31.276  1.00  0.00    -0.354 N 
ATOM     43  C   UNL A   1      39.654  34.324  35.460  1.00  0.00     0.074 A 
ATOM     44  C   UNL A   1      38.363  34.299  34.829  1.00  0.00     0.031 C 
ATOM     45  C   UNL A   1      43.933  32.181  33.035  1.00  0.00     0.029 A 
ATOM     46  C   UNL A   1      43.913  32.335  31.596  1.00  0.00     0.049 A 
ATOM     47  H   UNL A   1      42.304  31.504  30.462  1.00  0.00     0.167 HD
ATOM     48  C   UNL A   1      40.177  34.617  36.677  1.00  0.00     0.034 A 
ATOM     49  C   UNL A   1      44.666  33.240  30.893  1.00  0.00     0.034 A 
ATOM     50  C   UNL A   1      41.644  34.754  36.549  1.00  0.00     0.049 A 
ATOM     51  C   UNL A   1      44.899  34.523  31.721  1.00  0.00     0.074 A 
ATOM     52  C   UNL A   1      42.730  33.934  36.804  1.00  0.00     0.029 A 
ATOM     53  N   UNL A   1      42.119  35.748  35.697  1.00  0.00    -0.354 N 
ATOM     54  N   UNL A   1      44.539  34.696  32.968  1.00  0.00    -0.248 NA
ATOM     55  C   UNL A   1      45.437  35.756  31.147  1.00  0.00     0.031 C 
ATOM     56  C   UNL A   1      43.843  34.429  36.049  1.00  0.00     0.029 A 
ATOM     57  C   UNL A   1      43.459  35.582  35.384  1.00  0.00     0.049 A 
ATOM     58  H   UNL A   1      41.565  36.486  35.355  1.00  0.00     0.167 HD
ATOM     59  C   UNL A   1      44.571  36.034  33.289  1.00  0.00     0.074 A 
ATOM     60  C   UNL A   1      45.109  36.653  32.088  1.00  0.00     0.031 C 
ATOM     61  C   UNL A   1      44.102  36.542  34.480  1.00  0.00     0.034 A 
BRANCH  48  62
ATOM     62  C   UNL A   1      39.420  34.672  37.990  1.00  0.00     0.023 A 
ATOM     63  C   UNL A   1      39.621  35.827  38.777  1.00  0.00     0.012 A 
ATOM     64  C   UNL A   1      38.641  33.644  38.583  1.00  0.00     0.148 A 
ATOM     65  C   UNL A   1      39.127  35.943  40.082  1.00  0.00     0.002 A 
ATOM     66  C   UNL A   1      38.124  33.769  39.878  1.00  0.00     0.091 A 
ATOM     67  F   UNL A   1      38.423  32.502  37.933  1.00  0.00    -0.205 F 
ATOM     68  C   UNL A   1      38.380  34.913  40.636  1.00  0.00     0.022 A 
BRANCH  66  69
ATOM     69  S   UNL A   1      37.149  32.475  40.676  1.00  0.00     0.127 S 
ATOM     70  O   UNL A   1      37.074  32.956  42.056  1.00  0.00    -0.237 OA
ATOM     71  O   UNL A   1      35.885  32.536  39.944  1.00  0.00    -0.237 OA
ATOM     72  O   UNL A   1      37.890  31.230  40.509  1.00  0.00    -0.744 OA
ENDBRANCH  66  69
ENDBRANCH  48  62
BRANCH  49  73
ATOM     73  C   UNL A   1      44.401  33.206  29.412  1.00  0.00     0.023 A 
ATOM     74  C   UNL A   1      43.313  33.979  28.931  1.00  0.00     0.012 A 
ATOM     75  C   UNL A   1      45.406  32.856  28.508  1.00  0.00     0.148 A 
ATOM     76  C   UNL A   1      43.396  34.625  27.693  1.00  0.00     0.002 A 
ATOM     77  C   UNL A   1      45.498  33.512  27.294  1.00  0.00     0.091 A 
ATOM     78  F   UNL A   1      46.339  31.959  28.836  1.00  0.00    -0.205 F 
ATOM     79  C   UNL A   1      44.525  34.439  26.900  1.00  0.00     0.022 A 
BRANCH  77  80
ATOM     80  S   UNL A   1      47.085  33.421  26.452  1.00  0.00     0.127 S 
ATOM     81  O   UNL A   1      47.995  33.964  27.456  1.00  0.00    -0.237 OA
ATOM     82  O   UNL A   1      47.255  31.991  26.219  1.00  0.00    -0.237 OA
ATOM     83  O   UNL A   1      46.862  34.261  25.281  1.00  0.00    -0.744 OA
ENDBRANCH  77  80
ENDBRANCH  49  73
BRANCH  61  84
ATOM     84  C   UNL A   1      44.179  38.024  34.886  1.00  0.00     0.023 A 
ATOM     85  C   UNL A   1      44.690  38.435  36.132  1.00  0.00     0.012 A 
ATOM     86  C   UNL A   1      43.651  39.069  34.078  1.00  0.00     0.148 A 
ATOM     87  C   UNL A   1      44.829  39.784  36.487  1.00  0.00     0.002 A 
ATOM     88  C   UNL A   1      43.763  40.410  34.435  1.00  0.00     0.091 A 
ATOM     89  F   UNL A   1      42.959  38.783  32.974  1.00  0.00    -0.205 F 
ATOM     90  C   UNL A   1      44.386  40.775  35.626  1.00  0.00     0.022 A 
BRANCH  88  91
ATOM     91  S   UNL A   1      43.070  41.732  33.430  1.00  0.00     0.127 S 
ATOM     92  O   UNL A   1      43.612  41.408  32.111  1.00  0.00    -0.237 OA
ATOM     93  O   UNL A   1      41.633  41.499  33.574  1.00  0.00    -0.237 OA
ATOM     94  O   UNL A   1      43.543  42.980  34.008  1.00  0.00    -0.744 OA
ENDBRANCH  88  91
ENDBRANCH  61  84
ENDBRANCH  35  36
ENDBRANCH  28  30
ENDBRANCH  27  28
ENDBRANCH  26  27
ENDBRANCH   1  26
TORSDOF 18
ENDMDL
MODEL 3
REMARK VINA RESULT:     -11.2      9.034     13.936
REMARK SMILES COc1ccc(Cl)c(NS(=O)(=O)c2ccc(C)c(C(=O)OCCOC(=O)c3ccc(-c4c5nc(c(-c6cccc(S(=O)(=O)[O-])c6F)c6ccc([nH]6)c(-c6cccc(S(=O)(=O)[O-])c6F)c6nc(c(-c7cccc(S(=O)(=O)[O-])c7F)c7ccc4[nH]7)C=C6)C=C5)cc3)c2)c1
REMARK SMILES IDX 22 1 21 2 19 3 20 4 18 5 13 6 14 7 90 8 15 9 16 10 17 11
REMARK SMILES IDX 10 12 11 13 12 14 9 15 8 17 3 18 4 19 91 20 5 21 6 22 7 23
REMARK SMILES IDX 2 24 1 25 23 26 24 27 25 28 26 29 27 30 28 31 89 32 29 33
REMARK SMILES IDX 88 34 30 35 31 36 32 37 82 38 33 39 87 40 81 41 83 42 34 43
REMARK SMILES IDX 86 44 80 45 79 46 35 48 67 49 47 50 66 51 48 52 51 53 65 54
REMARK SMILES IDX 84 55 49 56 50 57 64 59 85 60 52 61 36 62 37 63 45 64 38 65
REMARK SMILES IDX 40 66 46 67 39 68 41 69 42 70 43 71 44 72 68 73 69 74 77 75
REMARK SMILES IDX 70 76 72 77 78 78 71 79 73 80 74 81 75 82 76 83 53 84 54 85
REMARK SMILES IDX 62 86 55 87 57 88 63 89 56 90 58 91 59 92 60 93 61 94
REMARK H PARENT 9 16 83 47 51 58
REMARK Flexibility Score: inf
ROOT
ATOM      1  C   UNL A   1      34.149  30.307  27.643  1.00  0.00     0.275 C 
ENDROOT
BRANCH   1   2
ATOM      2  O   UNL A   1      33.610  30.219  26.315  1.00  0.00    -0.458 OA
BRANCH   2   3
ATOM      3  C   UNL A   1      32.392  29.340  26.130  1.00  0.00     0.338 C 
ATOM      4  O   UNL A   1      31.814  29.587  27.240  1.00  0.00    -0.246 OA
BRANCH   3   5
ATOM      5  C   UNL A   1      31.901  28.117  24.435  1.00  0.00     0.064 A 
ATOM      6  C   UNL A   1      32.495  25.913  22.848  1.00  0.00     0.088 A 
ATOM      7  C   UNL A   1      31.595  26.187  21.861  1.00  0.00     0.022 A 
ATOM      8  C   UNL A   1      32.648  26.808  23.956  1.00  0.00     0.038 A 
ATOM      9  C   UNL A   1      30.789  27.293  22.062  1.00  0.00     0.006 A 
ATOM     10  C   UNL A   1      30.830  28.190  23.236  1.00  0.00    -0.036 A 
ATOM     11  C   UNL A   1      29.630  29.179  22.995  1.00  0.00     0.045 C 
BRANCH   6  12
ATOM     12  S   UNL A   1      33.262  24.292  22.956  1.00  0.00     0.261 S 
ATOM     13  O   UNL A   1      34.309  24.304  23.951  1.00  0.00    -0.201 OA
ATOM     14  O   UNL A   1      33.457  23.796  21.610  1.00  0.00    -0.201 OA
BRANCH  12  15
ATOM     15  N   UNL A   1      32.109  23.252  23.640  1.00  0.00    -0.278 N 
ATOM     16  H   UNL A   1      31.201  23.255  23.259  1.00  0.00     0.180 HD
BRANCH  15  17
ATOM     17  C   UNL A   1      32.378  22.361  24.747  1.00  0.00     0.071 A 
ATOM     18  C   UNL A   1      33.862  20.573  25.445  1.00  0.00     0.121 A 
ATOM     19  C   UNL A   1      34.006  21.132  26.702  1.00  0.00     0.048 A 
ATOM     20  C   UNL A   1      32.977  21.127  24.532  1.00  0.00     0.074 A 
ATOM     21  C   UNL A   1      33.254  22.264  27.024  1.00  0.00     0.026 A 
ATOM     22  C   UNL A   1      32.479  22.897  26.040  1.00  0.00     0.065 A 
ATOM     23  Cl  UNL A   1      31.705  24.391  26.445  1.00  0.00    -0.082 Cl
BRANCH  18  24
ATOM     24  O   UNL A   1      34.750  19.676  24.922  1.00  0.00    -0.497 OA
ATOM     25  C   UNL A   1      34.142  18.512  24.394  1.00  0.00     0.278 C 
ENDBRANCH  18  24
ENDBRANCH  15  17
ENDBRANCH  12  15
ENDBRANCH   6  12
ENDBRANCH   3   5
ENDBRANCH   2   3
ENDBRANCH   1   2
BRANCH   1  26
ATOM     26  C   UNL A   1      34.599  31.756  27.877  1.00  0.00     0.275 C 
BRANCH  26  27
ATOM     27  O   UNL A   1      33.964  32.433  29.001  1.00  0.00    -0.458 OA
BRANCH  27  28
ATOM     28  C   UNL A   1      34.721  32.797  30.079  1.00  0.00     0.338 C 
ATOM     29  O   UNL A   1      34.310  33.410  31.050  1.00  0.00    -0.246 OA
BRANCH  28  30
ATOM     30  C   UNL A   1      36.159  32.483  29.863  1.00  0.00     0.060 A 
ATOM     31  C   UNL A   1      36.866  31.303  31.024  1.00  0.00     0.016 A 
ATOM     32  C   UNL A   1      37.111  33.911  29.339  1.00  0.00     0.016 A 
ATOM     33  C   UNL A   1      38.552  31.594  31.731  1.00  0.00     0.010 A 
ATOM     34  C   UNL A   1      38.771  34.227  30.073  1.00  0.00     0.010 A 
ATOM     35  C   UNL A   1      39.469  33.064  31.271  1.00  0.00    -0.014 A 
BRANCH  35  36
ATOM     36  C   UNL A   1      40.418  33.722  32.145  1.00  0.00     0.031 A 
ATOM     37  C   UNL A   1      39.846  34.344  33.351  1.00  0.00     0.074 A 
ATOM     38  C   UNL A   1      41.745  33.481  31.997  1.00  0.00     0.049 A 
ATOM     39  N   UNL A   1      40.565  34.865  34.271  1.00  0.00    -0.248 NA
ATOM     40  C   UNL A   1      38.414  34.438  33.634  1.00  0.00     0.031 C 
ATOM     41  C   UNL A   1      42.787  33.639  33.009  1.00  0.00     0.029 A 
ATOM     42  N   UNL A   1      42.490  33.122  30.871  1.00  0.00    -0.354 N 
ATOM     43  C   UNL A   1      39.751  35.238  35.309  1.00  0.00     0.074 A 
ATOM     44  C   UNL A   1      38.415  34.947  34.870  1.00  0.00     0.031 C 
ATOM     45  C   UNL A   1      43.988  33.683  32.410  1.00  0.00     0.029 A 
ATOM     46  C   UNL A   1      43.752  33.724  30.982  1.00  0.00     0.049 A 
ATOM     47  H   UNL A   1      42.184  32.548  30.132  1.00  0.00     0.167 HD
ATOM     48  C   UNL A   1      40.368  35.706  36.423  1.00  0.00     0.034 A 
ATOM     49  C   UNL A   1      44.232  34.689  30.134  1.00  0.00     0.034 A 
ATOM     50  C   UNL A   1      41.758  36.081  36.080  1.00  0.00     0.049 A 
ATOM     51  C   UNL A   1      44.338  36.051  30.855  1.00  0.00     0.074 A 
ATOM     52  C   UNL A   1      42.997  35.480  36.219  1.00  0.00     0.029 A 
ATOM     53  N   UNL A   1      41.931  37.076  35.120  1.00  0.00    -0.354 N 
ATOM     54  N   UNL A   1      44.121  36.252  32.131  1.00  0.00    -0.248 NA
ATOM     55  C   UNL A   1      44.566  37.311  30.150  1.00  0.00     0.031 C 
ATOM     56  C   UNL A   1      43.894  36.099  35.289  1.00  0.00     0.029 A 
ATOM     57  C   UNL A   1      43.226  37.118  34.629  1.00  0.00     0.049 A 
ATOM     58  H   UNL A   1      41.213  37.680  34.824  1.00  0.00     0.167 HD
ATOM     59  C   UNL A   1      43.954  37.596  32.377  1.00  0.00     0.074 A 
ATOM     60  C   UNL A   1      44.210  38.207  31.082  1.00  0.00     0.031 C 
ATOM     61  C   UNL A   1      43.563  38.103  33.595  1.00  0.00     0.034 A 
BRANCH  48  62
ATOM     62  C   UNL A   1      39.793  35.728  37.825  1.00  0.00     0.023 A 
ATOM     63  C   UNL A   1      39.937  36.938  38.539  1.00  0.00     0.012 A 
ATOM     64  C   UNL A   1      39.249  34.638  38.555  1.00  0.00     0.148 A 
ATOM     65  C   UNL A   1      39.611  37.055  39.895  1.00  0.00     0.002 A 
ATOM     66  C   UNL A   1      38.896  34.761  39.904  1.00  0.00     0.091 A 
ATOM     67  F   UNL A   1      39.104  33.446  37.979  1.00  0.00    -0.205 F 
ATOM     68  C   UNL A   1      39.092  35.966  40.580  1.00  0.00     0.022 A 
BRANCH  66  69
ATOM     69  S   UNL A   1      38.223  33.393  40.872  1.00  0.00     0.127 S 
ATOM     70  O   UNL A   1      38.080  33.998  42.197  1.00  0.00    -0.237 OA
ATOM     71  O   UNL A   1      36.959  33.118  40.192  1.00  0.00    -0.237 OA
ATOM     72  O   UNL A   1      39.200  32.312  40.803  1.00  0.00    -0.744 OA
ENDBRANCH  66  69
ENDBRANCH  48  62
BRANCH  49  73
ATOM     73  C   UNL A   1      43.785  34.500  28.710  1.00  0.00     0.023 A 
ATOM     74  C   UNL A   1      42.614  35.189  28.302  1.00  0.00     0.012 A 
ATOM     75  C   UNL A   1      44.683  34.092  27.721  1.00  0.00     0.148 A 
ATOM     76  C   UNL A   1      42.514  35.711  27.008  1.00  0.00     0.002 A 
ATOM     77  C   UNL A   1      44.595  34.628  26.449  1.00  0.00     0.091 A 
ATOM     78  F   UNL A   1      45.686  33.260  28.010  1.00  0.00    -0.205 F 
ATOM     79  C   UNL A   1      43.542  35.482  26.097  1.00  0.00     0.022 A 
BRANCH  77  80
ATOM     80  S   UNL A   1      46.066  34.500  25.422  1.00  0.00     0.127 S 
ATOM     81  O   UNL A   1      46.774  35.735  25.748  1.00  0.00    -0.237 OA
ATOM     82  O   UNL A   1      46.720  33.298  25.927  1.00  0.00    -0.237 OA
ATOM     83  O   UNL A   1      45.501  34.432  24.080  1.00  0.00    -0.744 OA
ENDBRANCH  77  80
ENDBRANCH  49  73
BRANCH  61  84
ATOM     84  C   UNL A   1      43.425  39.602  33.912  1.00  0.00     0.023 A 
ATOM     85  C   UNL A   1      42.623  40.463  33.139  1.00  0.00     0.012 A 
ATOM     86  C   UNL A   1      44.173  40.241  34.941  1.00  0.00     0.148 A 
ATOM     87  C   UNL A   1      42.436  41.815  33.457  1.00  0.00     0.002 A 
ATOM     88  C   UNL A   1      44.011  41.590  35.247  1.00  0.00     0.091 A 
ATOM     89  F   UNL A   1      45.118  39.570  35.602  1.00  0.00    -0.205 F 
ATOM     90  C   UNL A   1      43.112  42.375  34.528  1.00  0.00     0.022 A 
BRANCH  88  91
ATOM     91  S   UNL A   1      44.976  42.405  36.527  1.00  0.00     0.127 S 
ATOM     92  O   UNL A   1      45.342  43.656  35.864  1.00  0.00    -0.237 OA
ATOM     93  O   UNL A   1      43.993  42.548  37.602  1.00  0.00    -0.237 OA
ATOM     94  O   UNL A   1      46.085  41.515  36.836  1.00  0.00    -0.744 OA
ENDBRANCH  88  91
ENDBRANCH  61  84
ENDBRANCH  35  36
ENDBRANCH  28  30
ENDBRANCH  27  28
ENDBRANCH  26  27
ENDBRANCH   1  26
TORSDOF 18
ENDMDL
