MODEL 1
REMARK VINA RESULT:     -12.1      0.000      0.000
REMARK SMILES O=C(OCCOC(=O)c1nccnc1C(=O)Nc1ccc(-n2cncn2)c(Cl)c1)c1ccc(-c2c3nc(c(-c4cccc(S(=O)(=O)[O-])c4F)c4ccc([nH]4)c(-c4cccc(S(=O)(=O)[O-])c4F)c4nc(c(-c5cccc(S(=O)(=O)[O-])c5F)c5ccc2[nH]5)C=C4)C=C3)cc1
REMARK SMILES IDX 4 1 3 2 2 3 1 4 30 5 31 6 92 7 32 8 91 9 33 10 34 11 35 12
REMARK SMILES IDX 85 13 36 14 90 15 84 16 86 17 37 18 89 19 83 20 82 21 38 23
REMARK SMILES IDX 70 24 50 25 69 26 51 27 54 28 68 29 87 30 52 31 53 32 67 34
REMARK SMILES IDX 88 35 55 36 39 37 40 38 48 39 41 40 43 41 49 42 42 43 44 44
REMARK SMILES IDX 45 45 46 46 47 47 71 48 72 49 80 50 73 51 75 52 81 53 74 54
REMARK SMILES IDX 76 55 77 56 78 57 79 58 56 59 57 60 65 61 58 62 60 63 66 64
REMARK SMILES IDX 59 65 61 66 62 67 63 68 64 69 5 70 6 71 7 72 8 73 9 74 10 75
REMARK SMILES IDX 14 76 11 77 13 78 12 79 15 80 16 81 17 82 18 84 19 85 29 86
REMARK SMILES IDX 20 87 27 88 21 89 28 90 22 91 23 92 26 93 24 94 25 95
REMARK H PARENT 86 22 54 33 17 83
REMARK Flexibility Score: inf
ROOT
ATOM      1  C   UNL A   1      33.458  29.945  26.715  1.00  0.00     0.275 C 
ENDROOT
BRANCH   1   2
ATOM      2  O   UNL A   1      33.932  30.832  27.735  1.00  0.00    -0.458 OA
BRANCH   2   3
ATOM      3  C   UNL A   1      35.143  31.418  27.858  1.00  0.00     0.338 C 
ATOM      4  O   UNL A   1      35.221  32.626  27.626  1.00  0.00    -0.246 OA
BRANCH   3   5
ATOM      5  C   UNL A   1      36.410  30.684  28.174  1.00  0.00     0.060 A 
ATOM      6  C   UNL A   1      36.718  29.364  27.835  1.00  0.00     0.016 A 
ATOM      7  C   UNL A   1      37.369  31.416  28.897  1.00  0.00     0.016 A 
ATOM      8  C   UNL A   1      37.943  28.805  28.178  1.00  0.00     0.010 A 
ATOM      9  C   UNL A   1      38.603  30.868  29.232  1.00  0.00     0.010 A 
ATOM     10  C   UNL A   1      38.873  29.548  28.897  1.00  0.00    -0.014 A 
BRANCH  10  11
ATOM     11  C   UNL A   1      40.081  28.854  29.318  1.00  0.00     0.031 A 
ATOM     12  C   UNL A   1      40.266  28.636  30.777  1.00  0.00     0.074 A 
ATOM     13  C   UNL A   1      40.998  28.430  28.429  1.00  0.00     0.049 A 
ATOM     14  N   UNL A   1      41.181  29.135  31.546  1.00  0.00    -0.248 NA
ATOM     15  C   UNL A   1      39.258  27.836  31.482  1.00  0.00     0.031 C 
ATOM     16  C   UNL A   1      40.844  28.326  26.977  1.00  0.00     0.029 A 
ATOM     17  N   UNL A   1      42.223  27.876  28.661  1.00  0.00    -0.354 N 
ATOM     18  C   UNL A   1      41.002  28.532  32.792  1.00  0.00     0.074 A 
ATOM     19  C   UNL A   1      39.718  27.883  32.734  1.00  0.00     0.031 C 
ATOM     20  C   UNL A   1      41.807  27.516  26.493  1.00  0.00     0.029 A 
ATOM     21  C   UNL A   1      42.711  27.167  27.574  1.00  0.00     0.049 A 
ATOM     22  H   UNL A   1      42.709  27.968  29.512  1.00  0.00     0.167 HD
ATOM     23  C   UNL A   1      42.030  28.419  33.683  1.00  0.00     0.034 A 
ATOM     24  C   UNL A   1      43.730  26.281  27.578  1.00  0.00     0.034 A 
ATOM     25  C   UNL A   1      43.092  29.354  33.386  1.00  0.00     0.049 A 
ATOM     26  C   UNL A   1      44.581  26.568  28.754  1.00  0.00     0.074 A 
ATOM     27  C   UNL A   1      43.201  30.724  33.260  1.00  0.00     0.029 A 
ATOM     28  N   UNL A   1      44.258  28.842  32.874  1.00  0.00    -0.354 N 
ATOM     29  N   UNL A   1      45.319  27.637  28.878  1.00  0.00    -0.248 NA
ATOM     30  C   UNL A   1      44.358  25.818  29.978  1.00  0.00     0.031 C 
ATOM     31  C   UNL A   1      44.227  30.935  32.291  1.00  0.00     0.029 A 
ATOM     32  C   UNL A   1      44.695  29.682  31.892  1.00  0.00     0.049 A 
ATOM     33  H   UNL A   1      44.703  28.012  33.166  1.00  0.00     0.167 HD
ATOM     34  C   UNL A   1      45.283  27.930  30.234  1.00  0.00     0.074 A 
ATOM     35  C   UNL A   1      44.815  26.701  30.868  1.00  0.00     0.031 C 
ATOM     36  C   UNL A   1      45.346  29.222  30.682  1.00  0.00     0.034 A 
BRANCH  23  37
ATOM     37  C   UNL A   1      42.294  27.200  34.567  1.00  0.00     0.023 A 
ATOM     38  C   UNL A   1      42.167  27.385  35.967  1.00  0.00     0.012 A 
ATOM     39  C   UNL A   1      42.963  26.028  34.149  1.00  0.00     0.148 A 
ATOM     40  C   UNL A   1      42.813  26.550  36.888  1.00  0.00     0.002 A 
ATOM     41  C   UNL A   1      43.562  25.171  35.070  1.00  0.00     0.091 A 
ATOM     42  F   UNL A   1      43.119  25.760  32.854  1.00  0.00    -0.205 F 
ATOM     43  C   UNL A   1      43.530  25.452  36.436  1.00  0.00     0.022 A 
BRANCH  41  44
ATOM     44  S   UNL A   1      44.467  23.713  34.531  1.00  0.00     0.127 S 
ATOM     45  O   UNL A   1      44.968  23.201  35.809  1.00  0.00    -0.237 OA
ATOM     46  O   UNL A   1      43.402  22.911  33.921  1.00  0.00    -0.237 OA
ATOM     47  O   UNL A   1      45.463  24.190  33.593  1.00  0.00    -0.744 OA
ENDBRANCH  41  44
ENDBRANCH  23  37
BRANCH  24  48
ATOM     48  C   UNL A   1      43.894  25.084  26.728  1.00  0.00     0.023 A 
ATOM     49  C   UNL A   1      45.045  24.943  25.932  1.00  0.00     0.012 A 
ATOM     50  C   UNL A   1      43.029  23.971  26.852  1.00  0.00     0.148 A 
ATOM     51  C   UNL A   1      45.328  23.733  25.287  1.00  0.00     0.002 A 
ATOM     52  C   UNL A   1      43.298  22.782  26.185  1.00  0.00     0.091 A 
ATOM     53  F   UNL A   1      41.989  24.045  27.696  1.00  0.00    -0.205 F 
ATOM     54  C   UNL A   1      44.454  22.654  25.410  1.00  0.00     0.022 A 
BRANCH  52  55
ATOM     55  S   UNL A   1      42.183  21.375  26.286  1.00  0.00     0.127 S 
ATOM     56  O   UNL A   1      42.271  21.010  27.701  1.00  0.00    -0.237 OA
ATOM     57  O   UNL A   1      40.909  21.962  25.885  1.00  0.00    -0.237 OA
ATOM     58  O   UNL A   1      42.742  20.374  25.385  1.00  0.00    -0.744 OA
ENDBRANCH  52  55
ENDBRANCH  24  48
BRANCH  36  59
ATOM     59  C   UNL A   1      45.812  30.293  29.729  1.00  0.00     0.023 A 
ATOM     60  C   UNL A   1      47.166  30.684  29.660  1.00  0.00     0.012 A 
ATOM     61  C   UNL A   1      44.915  30.795  28.768  1.00  0.00     0.148 A 
ATOM     62  C   UNL A   1      47.605  31.582  28.685  1.00  0.00     0.002 A 
ATOM     63  C   UNL A   1      45.366  31.652  27.769  1.00  0.00     0.091 A 
ATOM     64  F   UNL A   1      43.629  30.410  28.830  1.00  0.00    -0.205 F 
ATOM     65  C   UNL A   1      46.708  32.057  27.732  1.00  0.00     0.022 A 
BRANCH  63  66
ATOM     66  S   UNL A   1      44.283  32.180  26.437  1.00  0.00     0.127 S 
ATOM     67  O   UNL A   1      43.586  33.316  27.035  1.00  0.00    -0.237 OA
ATOM     68  O   UNL A   1      45.226  32.532  25.373  1.00  0.00    -0.237 OA
ATOM     69  O   UNL A   1      43.457  31.018  26.127  1.00  0.00    -0.744 OA
ENDBRANCH  63  66
ENDBRANCH  36  59
ENDBRANCH  10  11
ENDBRANCH   3   5
ENDBRANCH   2   3
ENDBRANCH   1   2
BRANCH   1  70
ATOM     70  C   UNL A   1      33.441  28.481  27.143  1.00  0.00     0.275 C 
BRANCH  70  71
ATOM     71  O   UNL A   1      33.078  27.554  26.097  1.00  0.00    -0.457 OA
BRANCH  71  72
ATOM     72  C   UNL A   1      31.920  26.913  26.396  1.00  0.00     0.359 C 
ATOM     73  O   UNL A   1      30.973  27.449  26.969  1.00  0.00    -0.244 OA
BRANCH  72  74
ATOM     74  C   UNL A   1      31.827  25.482  26.005  1.00  0.00     0.179 A 
ATOM     75  N   UNL A   1      31.410  24.724  27.082  1.00  0.00    -0.245 NA
ATOM     76  C   UNL A   1      31.936  24.922  24.738  1.00  0.00     0.161 A 
ATOM     77  C   UNL A   1      31.188  23.410  26.876  1.00  0.00     0.132 A 
ATOM     78  N   UNL A   1      31.654  23.584  24.559  1.00  0.00    -0.247 NA
ATOM     79  C   UNL A   1      31.316  22.845  25.633  1.00  0.00     0.132 A 
BRANCH  76  80
ATOM     80  C   UNL A   1      32.467  25.479  23.467  1.00  0.00     0.276 C 
ATOM     81  O   UNL A   1      33.280  24.762  22.865  1.00  0.00    -0.267 OA
ATOM     82  N   UNL A   1      32.121  26.618  22.787  1.00  0.00    -0.321 N 
ATOM     83  H   UNL A   1      32.578  26.665  21.915  1.00  0.00     0.170 HD
BRANCH  82  84
ATOM     84  C   UNL A   1      31.305  27.729  22.985  1.00  0.00     0.043 A 
ATOM     85  C   UNL A   1      31.765  29.031  23.006  1.00  0.00     0.028 A 
ATOM     86  C   UNL A   1      29.921  27.486  23.084  1.00  0.00     0.049 A 
ATOM     87  C   UNL A   1      30.867  30.080  22.858  1.00  0.00     0.032 A 
ATOM     88  C   UNL A   1      29.004  28.536  23.009  1.00  0.00     0.068 A 
ATOM     89  C   UNL A   1      29.492  29.824  22.832  1.00  0.00     0.085 A 
ATOM     90  Cl  UNL A   1      27.324  28.198  23.199  1.00  0.00    -0.082 Cl
BRANCH  89  91
ATOM     91  N   UNL A   1      28.651  30.909  22.557  1.00  0.00    -0.220 N 
ATOM     92  C   UNL A   1      28.718  32.126  23.192  1.00  0.00     0.226 A 
ATOM     93  N   UNL A   1      28.182  31.089  21.297  1.00  0.00    -0.155 NA
ATOM     94  N   UNL A   1      28.318  33.088  22.394  1.00  0.00    -0.223 NA
ATOM     95  C   UNL A   1      28.028  32.413  21.245  1.00  0.00     0.246 A 
ENDBRANCH  89  91
ENDBRANCH  82  84
ENDBRANCH  76  80
ENDBRANCH  72  74
ENDBRANCH  71  72
ENDBRANCH  70  71
ENDBRANCH   1  70
TORSDOF 17
ENDMDL
MODEL 2
REMARK VINA RESULT:     -12.1      3.757      9.395
REMARK SMILES O=C(OCCOC(=O)c1nccnc1C(=O)Nc1ccc(-n2cncn2)c(Cl)c1)c1ccc(-c2c3nc(c(-c4cccc(S(=O)(=O)[O-])c4F)c4ccc([nH]4)c(-c4cccc(S(=O)(=O)[O-])c4F)c4nc(c(-c5cccc(S(=O)(=O)[O-])c5F)c5ccc2[nH]5)C=C4)C=C3)cc1
REMARK SMILES IDX 4 1 3 2 2 3 1 4 30 5 31 6 92 7 32 8 91 9 33 10 34 11 35 12
REMARK SMILES IDX 85 13 36 14 90 15 84 16 86 17 37 18 89 19 83 20 82 21 38 23
REMARK SMILES IDX 70 24 50 25 69 26 51 27 54 28 68 29 87 30 52 31 53 32 67 34
REMARK SMILES IDX 88 35 55 36 39 37 40 38 48 39 41 40 43 41 49 42 42 43 44 44
REMARK SMILES IDX 45 45 46 46 47 47 71 48 72 49 80 50 73 51 75 52 81 53 74 54
REMARK SMILES IDX 76 55 77 56 78 57 79 58 56 59 57 60 65 61 58 62 60 63 66 64
REMARK SMILES IDX 59 65 61 66 62 67 63 68 64 69 5 70 6 71 7 72 8 73 9 74 10 75
REMARK SMILES IDX 14 76 11 77 13 78 12 79 15 80 16 81 17 82 18 84 19 85 29 86
REMARK SMILES IDX 20 87 27 88 21 89 28 90 22 91 23 92 26 93 24 94 25 95
REMARK H PARENT 86 22 54 33 17 83
REMARK Flexibility Score: inf
ROOT
ATOM      1  C   UNL A   1      37.311  21.433  24.340  1.00  0.00     0.275 C 
ENDROOT
BRANCH   1   2
ATOM      2  O   UNL A   1      37.737  21.583  25.700  1.00  0.00    -0.458 OA
BRANCH   2   3
ATOM      3  C   UNL A   1      38.975  21.833  26.182  1.00  0.00     0.338 C 
ATOM      4  O   UNL A   1      39.762  20.888  26.254  1.00  0.00    -0.246 OA
BRANCH   3   5
ATOM      5  C   UNL A   1      39.423  23.160  26.712  1.00  0.00     0.060 A 
ATOM      6  C   UNL A   1      38.819  24.399  26.484  1.00  0.00     0.016 A 
ATOM      7  C   UNL A   1      40.582  23.133  27.510  1.00  0.00     0.016 A 
ATOM      8  C   UNL A   1      39.331  25.560  27.051  1.00  0.00     0.010 A 
ATOM      9  C   UNL A   1      41.093  24.288  28.092  1.00  0.00     0.010 A 
ATOM     10  C   UNL A   1      40.480  25.507  27.832  1.00  0.00    -0.014 A 
BRANCH  10  11
ATOM     11  C   UNL A   1      41.019  26.778  28.291  1.00  0.00     0.031 A 
ATOM     12  C   UNL A   1      42.367  27.164  27.797  1.00  0.00     0.074 A 
ATOM     13  C   UNL A   1      40.333  27.574  29.133  1.00  0.00     0.049 A 
ATOM     14  N   UNL A   1      43.455  27.306  28.484  1.00  0.00    -0.248 NA
ATOM     15  C   UNL A   1      42.544  27.324  26.349  1.00  0.00     0.031 C 
ATOM     16  C   UNL A   1      38.916  27.473  29.490  1.00  0.00     0.029 A 
ATOM     17  N   UNL A   1      40.736  28.726  29.742  1.00  0.00    -0.354 N 
ATOM     18  C   UNL A   1      44.409  27.797  27.590  1.00  0.00     0.074 A 
ATOM     19  C   UNL A   1      43.842  27.626  26.278  1.00  0.00     0.031 C 
ATOM     20  C   UNL A   1      38.519  28.644  30.029  1.00  0.00     0.029 A 
ATOM     21  C   UNL A   1      39.677  29.507  30.176  1.00  0.00     0.049 A 
ATOM     22  H   UNL A   1      41.681  28.976  29.861  1.00  0.00     0.167 HD
ATOM     23  C   UNL A   1      45.485  28.519  28.021  1.00  0.00     0.034 A 
ATOM     24  C   UNL A   1      39.728  30.806  30.544  1.00  0.00     0.034 A 
ATOM     25  C   UNL A   1      45.735  28.305  29.429  1.00  0.00     0.049 A 
ATOM     26  C   UNL A   1      41.122  31.118  30.928  1.00  0.00     0.074 A 
ATOM     27  C   UNL A   1      45.999  27.217  30.235  1.00  0.00     0.029 A 
ATOM     28  N   UNL A   1      45.443  29.337  30.286  1.00  0.00    -0.354 N 
ATOM     29  N   UNL A   1      41.712  30.643  31.992  1.00  0.00    -0.248 NA
ATOM     30  C   UNL A   1      42.006  31.705  29.936  1.00  0.00     0.031 C 
ATOM     31  C   UNL A   1      45.430  27.538  31.504  1.00  0.00     0.029 A 
ATOM     32  C   UNL A   1      44.865  28.810  31.404  1.00  0.00     0.049 A 
ATOM     33  H   UNL A   1      45.621  30.292  30.122  1.00  0.00     0.167 HD
ATOM     34  C   UNL A   1      43.036  30.475  31.612  1.00  0.00     0.074 A 
ATOM     35  C   UNL A   1      43.182  31.284  30.406  1.00  0.00     0.031 C 
ATOM     36  C   UNL A   1      43.800  29.467  32.134  1.00  0.00     0.034 A 
BRANCH  23  37
ATOM     37  C   UNL A   1      46.063  29.740  27.307  1.00  0.00     0.023 A 
ATOM     38  C   UNL A   1      47.463  29.943  27.416  1.00  0.00     0.012 A 
ATOM     39  C   UNL A   1      45.307  30.840  26.845  1.00  0.00     0.148 A 
ATOM     40  C   UNL A   1      48.046  31.204  27.243  1.00  0.00     0.002 A 
ATOM     41  C   UNL A   1      45.899  32.082  26.624  1.00  0.00     0.091 A 
ATOM     42  F   UNL A   1      43.987  30.743  26.696  1.00  0.00    -0.205 F 
ATOM     43  C   UNL A   1      47.258  32.281  26.867  1.00  0.00     0.022 A 
BRANCH  41  44
ATOM     44  S   UNL A   1      44.921  33.498  26.096  1.00  0.00     0.127 S 
ATOM     45  O   UNL A   1      45.954  34.530  25.986  1.00  0.00    -0.237 OA
ATOM     46  O   UNL A   1      44.383  33.025  24.816  1.00  0.00    -0.237 OA
ATOM     47  O   UNL A   1      43.921  33.693  27.126  1.00  0.00    -0.744 OA
ENDBRANCH  41  44
ENDBRANCH  23  37
BRANCH  24  48
ATOM     48  C   UNL A   1      38.676  31.833  30.396  1.00  0.00     0.023 A 
ATOM     49  C   UNL A   1      38.148  32.116  29.124  1.00  0.00     0.012 A 
ATOM     50  C   UNL A   1      38.032  32.391  31.526  1.00  0.00     0.148 A 
ATOM     51  C   UNL A   1      37.011  32.920  28.982  1.00  0.00     0.002 A 
ATOM     52  C   UNL A   1      36.922  33.214  31.377  1.00  0.00     0.091 A 
ATOM     53  F   UNL A   1      38.447  32.042  32.752  1.00  0.00    -0.205 F 
ATOM     54  C   UNL A   1      36.400  33.473  30.106  1.00  0.00     0.022 A 
BRANCH  52  55
ATOM     55  S   UNL A   1      36.121  33.976  32.795  1.00  0.00     0.127 S 
ATOM     56  O   UNL A   1      37.153  34.897  33.277  1.00  0.00    -0.237 OA
ATOM     57  O   UNL A   1      34.963  34.623  32.184  1.00  0.00    -0.237 OA
ATOM     58  O   UNL A   1      35.835  32.881  33.713  1.00  0.00    -0.744 OA
ENDBRANCH  52  55
ENDBRANCH  24  48
BRANCH  36  59
ATOM     59  C   UNL A   1      43.315  28.765  33.378  1.00  0.00     0.023 A 
ATOM     60  C   UNL A   1      42.337  27.751  33.321  1.00  0.00     0.012 A 
ATOM     61  C   UNL A   1      43.972  29.002  34.599  1.00  0.00     0.148 A 
ATOM     62  C   UNL A   1      41.993  27.021  34.460  1.00  0.00     0.002 A 
ATOM     63  C   UNL A   1      43.660  28.241  35.721  1.00  0.00     0.091 A 
ATOM     64  F   UNL A   1      44.912  29.960  34.646  1.00  0.00    -0.205 F 
ATOM     65  C   UNL A   1      42.662  27.257  35.658  1.00  0.00     0.022 A 
BRANCH  63  66
ATOM     66  S   UNL A   1      44.589  28.408  37.249  1.00  0.00     0.127 S 
ATOM     67  O   UNL A   1      45.970  28.283  36.787  1.00  0.00    -0.237 OA
ATOM     68  O   UNL A   1      44.218  29.748  37.709  1.00  0.00    -0.237 OA
ATOM     69  O   UNL A   1      44.108  27.336  38.114  1.00  0.00    -0.744 OA
ENDBRANCH  63  66
ENDBRANCH  36  59
ENDBRANCH  10  11
ENDBRANCH   3   5
ENDBRANCH   2   3
ENDBRANCH   1   2
BRANCH   1  70
ATOM     70  C   UNL A   1      36.454  22.592  23.841  1.00  0.00     0.275 C 
BRANCH  70  71
ATOM     71  O   UNL A   1      35.118  22.629  24.387  1.00  0.00    -0.457 OA
BRANCH  71  72
ATOM     72  C   UNL A   1      34.728  23.906  24.629  1.00  0.00     0.359 C 
ATOM     73  O   UNL A   1      35.228  24.619  25.498  1.00  0.00    -0.244 OA
BRANCH  72  74
ATOM     74  C   UNL A   1      33.626  24.440  23.787  1.00  0.00     0.179 A 
ATOM     75  N   UNL A   1      34.144  25.176  22.739  1.00  0.00    -0.245 NA
ATOM     76  C   UNL A   1      32.269  24.146  23.849  1.00  0.00     0.161 A 
ATOM     77  C   UNL A   1      33.280  25.662  21.825  1.00  0.00     0.132 A 
ATOM     78  N   UNL A   1      31.424  24.621  22.868  1.00  0.00    -0.247 NA
ATOM     79  C   UNL A   1      31.937  25.395  21.893  1.00  0.00     0.132 A 
BRANCH  76  80
ATOM     80  C   UNL A   1      31.459  23.491  24.909  1.00  0.00     0.276 C 
ATOM     81  O   UNL A   1      30.579  24.196  25.425  1.00  0.00    -0.267 OA
ATOM     82  N   UNL A   1      31.451  22.189  25.340  1.00  0.00    -0.321 N 
ATOM     83  H   UNL A   1      30.727  22.033  25.988  1.00  0.00     0.170 HD
BRANCH  82  84
ATOM     84  C   UNL A   1      32.184  21.026  25.117  1.00  0.00     0.043 A 
ATOM     85  C   UNL A   1      32.970  20.413  26.074  1.00  0.00     0.028 A 
ATOM     86  C   UNL A   1      32.029  20.414  23.858  1.00  0.00     0.049 A 
ATOM     87  C   UNL A   1      33.376  19.098  25.890  1.00  0.00     0.032 A 
ATOM     88  C   UNL A   1      32.495  19.117  23.631  1.00  0.00     0.068 A 
ATOM     89  C   UNL A   1      33.112  18.448  24.680  1.00  0.00     0.085 A 
ATOM     90  Cl  UNL A   1      32.341  18.434  22.056  1.00  0.00    -0.082 Cl
BRANCH  89  91
ATOM     91  N   UNL A   1      33.439  17.088  24.606  1.00  0.00    -0.220 N 
ATOM     92  C   UNL A   1      34.719  16.590  24.680  1.00  0.00     0.226 A 
ATOM     93  N   UNL A   1      32.574  16.165  25.095  1.00  0.00    -0.155 NA
ATOM     94  N   UNL A   1      34.719  15.386  25.201  1.00  0.00    -0.223 NA
ATOM     95  C   UNL A   1      33.396  15.181  25.461  1.00  0.00     0.246 A 
ENDBRANCH  89  91
ENDBRANCH  82  84
ENDBRANCH  76  80
ENDBRANCH  72  74
ENDBRANCH  71  72
ENDBRANCH  70  71
ENDBRANCH   1  70
TORSDOF 17
ENDMDL
MODEL 3
REMARK VINA RESULT:     -12.1      5.214      7.468
REMARK SMILES O=C(OCCOC(=O)c1nccnc1C(=O)Nc1ccc(-n2cncn2)c(Cl)c1)c1ccc(-c2c3nc(c(-c4cccc(S(=O)(=O)[O-])c4F)c4ccc([nH]4)c(-c4cccc(S(=O)(=O)[O-])c4F)c4nc(c(-c5cccc(S(=O)(=O)[O-])c5F)c5ccc2[nH]5)C=C4)C=C3)cc1
REMARK SMILES IDX 4 1 3 2 2 3 1 4 30 5 31 6 92 7 32 8 91 9 33 10 34 11 35 12
REMARK SMILES IDX 85 13 36 14 90 15 84 16 86 17 37 18 89 19 83 20 82 21 38 23
REMARK SMILES IDX 70 24 50 25 69 26 51 27 54 28 68 29 87 30 52 31 53 32 67 34
REMARK SMILES IDX 88 35 55 36 39 37 40 38 48 39 41 40 43 41 49 42 42 43 44 44
REMARK SMILES IDX 45 45 46 46 47 47 71 48 72 49 80 50 73 51 75 52 81 53 74 54
REMARK SMILES IDX 76 55 77 56 78 57 79 58 56 59 57 60 65 61 58 62 60 63 66 64
REMARK SMILES IDX 59 65 61 66 62 67 63 68 64 69 5 70 6 71 7 72 8 73 9 74 10 75
REMARK SMILES IDX 14 76 11 77 13 78 12 79 15 80 16 81 17 82 18 84 19 85 29 86
REMARK SMILES IDX 20 87 27 88 21 89 28 90 22 91 23 92 26 93 24 94 25 95
REMARK H PARENT 86 22 54 33 17 83
REMARK Flexibility Score: inf
ROOT
ATOM      1  C   UNL A   1      35.370  33.355  27.657  1.00  0.00     0.275 C 
ENDROOT
BRANCH   1   2
ATOM      2  O   UNL A   1      35.675  32.000  28.006  1.00  0.00    -0.458 OA
BRANCH   2   3
ATOM      3  C   UNL A   1      35.944  31.474  29.222  1.00  0.00     0.338 C 
ATOM      4  O   UNL A   1      35.108  31.635  30.113  1.00  0.00    -0.246 OA
BRANCH   3   5
ATOM      5  C   UNL A   1      37.224  30.785  29.580  1.00  0.00     0.060 A 
ATOM      6  C   UNL A   1      38.508  31.333  29.543  1.00  0.00     0.016 A 
ATOM      7  C   UNL A   1      37.097  29.443  29.983  1.00  0.00     0.016 A 
ATOM      8  C   UNL A   1      39.617  30.585  29.918  1.00  0.00     0.010 A 
ATOM      9  C   UNL A   1      38.200  28.691  30.374  1.00  0.00     0.010 A 
ATOM     10  C   UNL A   1      39.465  29.259  30.308  1.00  0.00    -0.014 A 
BRANCH  10  11
ATOM     11  C   UNL A   1      40.685  28.510  30.572  1.00  0.00     0.031 A 
ATOM     12  C   UNL A   1      41.183  28.493  31.973  1.00  0.00     0.074 A 
ATOM     13  C   UNL A   1      41.342  27.862  29.592  1.00  0.00     0.049 A 
ATOM     14  N   UNL A   1      42.283  29.000  32.431  1.00  0.00    -0.248 NA
ATOM     15  C   UNL A   1      40.309  27.920  33.003  1.00  0.00     0.031 C 
ATOM     16  C   UNL A   1      40.851  27.560  28.246  1.00  0.00     0.029 A 
ATOM     17  N   UNL A   1      42.544  27.220  29.646  1.00  0.00    -0.354 N 
ATOM     18  C   UNL A   1      42.352  28.612  33.771  1.00  0.00     0.074 A 
ATOM     19  C   UNL A   1      41.046  28.104  34.100  1.00  0.00     0.031 C 
ATOM     20  C   UNL A   1      41.617  26.587  27.711  1.00  0.00     0.029 A 
ATOM     21  C   UNL A   1      42.718  26.309  28.616  1.00  0.00     0.049 A 
ATOM     22  H   UNL A   1      43.218  27.386  30.345  1.00  0.00     0.167 HD
ATOM     23  C   UNL A   1      43.546  28.525  34.426  1.00  0.00     0.034 A 
ATOM     24  C   UNL A   1      43.645  25.329  28.551  1.00  0.00     0.034 A 
ATOM     25  C   UNL A   1      44.575  29.285  33.754  1.00  0.00     0.049 A 
ATOM     26  C   UNL A   1      44.761  25.695  29.451  1.00  0.00     0.074 A 
ATOM     27  C   UNL A   1      44.750  30.601  33.377  1.00  0.00     0.029 A 
ATOM     28  N   UNL A   1      45.554  28.580  33.098  1.00  0.00    -0.354 N 
ATOM     29  N   UNL A   1      45.582  26.685  29.231  1.00  0.00    -0.248 NA
ATOM     30  C   UNL A   1      44.772  25.165  30.803  1.00  0.00     0.031 C 
ATOM     31  C   UNL A   1      45.539  30.553  32.189  1.00  0.00     0.029 A 
ATOM     32  C   UNL A   1      45.813  29.213  31.917  1.00  0.00     0.049 A 
ATOM     33  H   UNL A   1      45.993  27.760  33.424  1.00  0.00     0.167 HD
ATOM     34  C   UNL A   1      45.879  27.180  30.493  1.00  0.00     0.074 A 
ATOM     35  C   UNL A   1      45.482  26.117  31.411  1.00  0.00     0.031 C 
ATOM     36  C   UNL A   1      46.135  28.509  30.692  1.00  0.00     0.034 A 
BRANCH  23  37
ATOM     37  C   UNL A   1      43.918  27.430  35.426  1.00  0.00     0.023 A 
ATOM     38  C   UNL A   1      44.550  27.846  36.626  1.00  0.00     0.012 A 
ATOM     39  C   UNL A   1      43.994  26.052  35.125  1.00  0.00     0.148 A 
ATOM     40  C   UNL A   1      45.350  26.980  37.382  1.00  0.00     0.002 A 
ATOM     41  C   UNL A   1      44.750  25.182  35.909  1.00  0.00     0.091 A 
ATOM     42  F   UNL A   1      43.419  25.563  34.028  1.00  0.00    -0.205 F 
ATOM     43  C   UNL A   1      45.467  25.649  37.010  1.00  0.00     0.022 A 
BRANCH  41  44
ATOM     44  S   UNL A   1      44.896  23.439  35.487  1.00  0.00     0.127 S 
ATOM     45  O   UNL A   1      45.776  23.503  34.317  1.00  0.00    -0.237 OA
ATOM     46  O   UNL A   1      45.518  22.891  36.697  1.00  0.00    -0.237 OA
ATOM     47  O   UNL A   1      43.544  22.975  35.252  1.00  0.00    -0.744 OA
ENDBRANCH  41  44
ENDBRANCH  23  37
BRANCH  24  48
ATOM     48  C   UNL A   1      43.525  24.008  27.901  1.00  0.00     0.023 A 
ATOM     49  C   UNL A   1      42.468  23.148  28.251  1.00  0.00     0.012 A 
ATOM     50  C   UNL A   1      44.319  23.666  26.781  1.00  0.00     0.148 A 
ATOM     51  C   UNL A   1      42.206  21.993  27.506  1.00  0.00     0.002 A 
ATOM     52  C   UNL A   1      44.074  22.502  26.062  1.00  0.00     0.091 A 
ATOM     53  F   UNL A   1      45.257  24.527  26.360  1.00  0.00    -0.205 F 
ATOM     54  C   UNL A   1      43.009  21.667  26.415  1.00  0.00     0.022 A 
BRANCH  52  55
ATOM     55  S   UNL A   1      45.104  22.023  24.669  1.00  0.00     0.127 S 
ATOM     56  O   UNL A   1      44.426  20.821  24.180  1.00  0.00    -0.237 OA
ATOM     57  O   UNL A   1      44.995  23.185  23.792  1.00  0.00    -0.237 OA
ATOM     58  O   UNL A   1      46.423  21.765  25.234  1.00  0.00    -0.744 OA
ENDBRANCH  52  55
ENDBRANCH  24  48
BRANCH  36  59
ATOM     59  C   UNL A   1      46.445  29.371  29.493  1.00  0.00     0.023 A 
ATOM     60  C   UNL A   1      47.729  29.391  28.910  1.00  0.00     0.012 A 
ATOM     61  C   UNL A   1      45.394  30.037  28.836  1.00  0.00     0.148 A 
ATOM     62  C   UNL A   1      47.968  30.090  27.725  1.00  0.00     0.002 A 
ATOM     63  C   UNL A   1      45.626  30.693  27.631  1.00  0.00     0.091 A 
ATOM     64  F   UNL A   1      44.170  30.004  29.389  1.00  0.00    -0.205 F 
ATOM     65  C   UNL A   1      46.915  30.732  27.079  1.00  0.00     0.022 A 
BRANCH  63  66
ATOM     66  S   UNL A   1      44.277  31.413  26.689  1.00  0.00     0.127 S 
ATOM     67  O   UNL A   1      44.961  31.906  25.495  1.00  0.00    -0.237 OA
ATOM     68  O   UNL A   1      43.395  30.268  26.458  1.00  0.00    -0.237 OA
ATOM     69  O   UNL A   1      43.700  32.433  27.558  1.00  0.00    -0.744 OA
ENDBRANCH  63  66
ENDBRANCH  36  59
ENDBRANCH  10  11
ENDBRANCH   3   5
ENDBRANCH   2   3
ENDBRANCH   1   2
BRANCH   1  70
ATOM     70  C   UNL A   1      35.529  34.332  28.816  1.00  0.00     0.275 C 
BRANCH  70  71
ATOM     71  O   UNL A   1      34.498  35.339  28.899  1.00  0.00    -0.457 OA
BRANCH  71  72
ATOM     72  C   UNL A   1      33.603  35.039  29.874  1.00  0.00     0.359 C 
ATOM     73  O   UNL A   1      32.637  34.297  29.707  1.00  0.00    -0.244 OA
BRANCH  72  74
ATOM     74  C   UNL A   1      33.825  35.668  31.202  1.00  0.00     0.179 A 
ATOM     75  N   UNL A   1      33.668  37.038  31.110  1.00  0.00    -0.245 NA
ATOM     76  C   UNL A   1      33.983  35.049  32.437  1.00  0.00     0.161 A 
ATOM     77  C   UNL A   1      33.749  37.756  32.248  1.00  0.00     0.132 A 
ATOM     78  N   UNL A   1      34.013  35.815  33.583  1.00  0.00    -0.247 NA
ATOM     79  C   UNL A   1      33.928  37.155  33.468  1.00  0.00     0.132 A 
BRANCH  76  80
ATOM     80  C   UNL A   1      34.287  33.638  32.790  1.00  0.00     0.276 C 
ATOM     81  O   UNL A   1      33.311  32.945  33.117  1.00  0.00    -0.267 OA
ATOM     82  N   UNL A   1      35.463  32.938  32.710  1.00  0.00    -0.321 N 
ATOM     83  H   UNL A   1      35.325  31.986  32.918  1.00  0.00     0.170 HD
BRANCH  82  84
ATOM     84  C   UNL A   1      36.799  33.200  32.417  1.00  0.00     0.043 A 
ATOM     85  C   UNL A   1      37.227  34.276  31.663  1.00  0.00     0.028 A 
ATOM     86  C   UNL A   1      37.753  32.349  33.006  1.00  0.00     0.049 A 
ATOM     87  C   UNL A   1      38.561  34.661  31.709  1.00  0.00     0.032 A 
ATOM     88  C   UNL A   1      39.109  32.683  33.001  1.00  0.00     0.068 A 
ATOM     89  C   UNL A   1      39.489  33.877  32.402  1.00  0.00     0.085 A 
ATOM     90  Cl  UNL A   1      40.248  31.580  33.678  1.00  0.00    -0.082 Cl
BRANCH  89  91
ATOM     91  N   UNL A   1      40.790  34.385  32.513  1.00  0.00    -0.220 N 
ATOM     92  C   UNL A   1      41.343  34.859  33.678  1.00  0.00     0.226 A 
ATOM     93  N   UNL A   1      41.774  33.883  31.725  1.00  0.00    -0.155 NA
ATOM     94  N   UNL A   1      42.643  34.680  33.681  1.00  0.00    -0.223 NA
ATOM     95  C   UNL A   1      42.855  34.060  32.485  1.00  0.00     0.246 A 
ENDBRANCH  89  91
ENDBRANCH  82  84
ENDBRANCH  76  80
ENDBRANCH  72  74
ENDBRANCH  71  72
ENDBRANCH  70  71
ENDBRANCH   1  70
TORSDOF 17
ENDMDL
