MODEL 1
REMARK VINA RESULT:     -13.7      0.000      0.000
REMARK SMILES O=C(OCCOC(=O)[C@H]1CCCN(c2cc(-c3ccccn3)nc(-c3ccccc3F)n2)C1)c1ccc(-c2c3nc(c(-c4cccc(S(=O)(=O)[O-])c4F)c4ccc([nH]4)c(-c4cccc(S(=O)(=O)[O-])c4F)c4nc(c(-c5cccc(S(=O)(=O)[O-])c5F)c5ccc2[nH]5)C=C4)C=C3)cc1
REMARK SMILES IDX 4 1 3 2 2 3 1 4 34 5 35 6 96 7 36 8 95 9 37 10 38 11 39 12
REMARK SMILES IDX 89 13 40 14 94 15 88 16 90 17 41 18 93 19 87 20 86 21 42 23
REMARK SMILES IDX 74 24 54 25 73 26 55 27 58 28 72 29 91 30 56 31 57 32 71 34
REMARK SMILES IDX 92 35 59 36 43 37 44 38 52 39 45 40 47 41 53 42 46 43 48 44
REMARK SMILES IDX 49 45 50 46 51 47 75 48 76 49 84 50 77 51 79 52 85 53 78 54
REMARK SMILES IDX 80 55 81 56 82 57 83 58 60 59 61 60 69 61 62 62 64 63 70 64
REMARK SMILES IDX 63 65 65 66 66 67 67 68 68 69 5 70 6 71 7 72 8 73 9 74 10 75
REMARK SMILES IDX 33 76 11 77 13 78 12 79 14 80 15 81 32 82 16 83 24 84 23 85
REMARK SMILES IDX 17 86 18 87 22 88 19 89 21 90 20 91 25 92 26 93 30 94 27 95
REMARK SMILES IDX 29 96 31 97 28 98
REMARK H PARENT 90 22 58 33
REMARK Flexibility Score: inf
ROOT
ATOM      1  C   UNL A   1      43.465  21.699  25.275  1.00  0.00     0.275 C 
ENDROOT
BRANCH   1   2
ATOM      2  O   UNL A   1      43.210  22.979  24.668  1.00  0.00    -0.458 OA
BRANCH   2   3
ATOM      3  C   UNL A   1      43.642  24.217  25.013  1.00  0.00     0.338 C 
ATOM      4  O   UNL A   1      44.678  24.635  24.495  1.00  0.00    -0.246 OA
BRANCH   3   5
ATOM      5  C   UNL A   1      42.988  25.077  26.053  1.00  0.00     0.060 A 
ATOM      6  C   UNL A   1      41.862  24.745  26.818  1.00  0.00     0.016 A 
ATOM      7  C   UNL A   1      43.568  26.339  26.260  1.00  0.00     0.016 A 
ATOM      8  C   UNL A   1      41.404  25.583  27.852  1.00  0.00     0.010 A 
ATOM      9  C   UNL A   1      43.102  27.185  27.271  1.00  0.00     0.010 A 
ATOM     10  C   UNL A   1      42.038  26.797  28.107  1.00  0.00    -0.014 A 
BRANCH  10  11
ATOM     11  C   UNL A   1      41.567  27.744  29.151  1.00  0.00     0.031 A 
ATOM     12  C   UNL A   1      42.182  27.612  30.511  1.00  0.00     0.074 A 
ATOM     13  C   UNL A   1      40.542  28.604  28.953  1.00  0.00     0.049 A 
ATOM     14  N   UNL A   1      41.890  28.255  31.606  1.00  0.00    -0.248 NA
ATOM     15  C   UNL A   1      43.293  26.651  30.648  1.00  0.00     0.031 C 
ATOM     16  C   UNL A   1      39.874  28.880  27.681  1.00  0.00     0.029 A 
ATOM     17  N   UNL A   1      39.793  29.319  29.862  1.00  0.00    -0.354 N 
ATOM     18  C   UNL A   1      42.821  27.829  32.538  1.00  0.00     0.074 A 
ATOM     19  C   UNL A   1      43.605  26.782  31.927  1.00  0.00     0.031 C 
ATOM     20  C   UNL A   1      38.708  29.511  27.917  1.00  0.00     0.029 A 
ATOM     21  C   UNL A   1      38.599  29.780  29.345  1.00  0.00     0.049 A 
ATOM     22  H   UNL A   1      40.082  29.484  30.788  1.00  0.00     0.167 HD
ATOM     23  C   UNL A   1      43.063  28.337  33.765  1.00  0.00     0.034 A 
ATOM     24  C   UNL A   1      37.542  30.355  29.958  1.00  0.00     0.034 A 
ATOM     25  C   UNL A   1      42.262  29.361  34.364  1.00  0.00     0.049 A 
ATOM     26  C   UNL A   1      37.719  30.787  31.392  1.00  0.00     0.074 A 
ATOM     27  C   UNL A   1      42.451  30.011  35.567  1.00  0.00     0.029 A 
ATOM     28  N   UNL A   1      41.091  29.857  33.812  1.00  0.00    -0.354 N 
ATOM     29  N   UNL A   1      38.732  30.559  32.193  1.00  0.00    -0.248 NA
ATOM     30  C   UNL A   1      36.682  31.655  31.968  1.00  0.00     0.031 C 
ATOM     31  C   UNL A   1      41.368  30.873  35.761  1.00  0.00     0.029 A 
ATOM     32  C   UNL A   1      40.527  30.787  34.660  1.00  0.00     0.049 A 
ATOM     33  H   UNL A   1      40.717  29.584  32.942  1.00  0.00     0.167 HD
ATOM     34  C   UNL A   1      38.505  31.334  33.325  1.00  0.00     0.074 A 
ATOM     35  C   UNL A   1      37.239  32.008  33.121  1.00  0.00     0.031 C 
ATOM     36  C   UNL A   1      39.294  31.493  34.415  1.00  0.00     0.034 A 
BRANCH  23  37
ATOM     37  C   UNL A   1      44.291  27.843  34.471  1.00  0.00     0.023 A 
ATOM     38  C   UNL A   1      45.518  28.507  34.251  1.00  0.00     0.012 A 
ATOM     39  C   UNL A   1      44.241  26.745  35.343  1.00  0.00     0.148 A 
ATOM     40  C   UNL A   1      46.688  28.057  34.859  1.00  0.00     0.002 A 
ATOM     41  C   UNL A   1      45.403  26.330  35.981  1.00  0.00     0.091 A 
ATOM     42  F   UNL A   1      43.068  26.119  35.516  1.00  0.00    -0.205 F 
ATOM     43  C   UNL A   1      46.628  26.974  35.730  1.00  0.00     0.022 A 
BRANCH  41  44
ATOM     44  S   UNL A   1      45.430  24.986  37.169  1.00  0.00     0.127 S 
ATOM     45  O   UNL A   1      46.820  25.023  37.624  1.00  0.00    -0.237 OA
ATOM     46  O   UNL A   1      44.451  25.437  38.157  1.00  0.00    -0.237 OA
ATOM     47  O   UNL A   1      45.053  23.788  36.432  1.00  0.00    -0.744 OA
ENDBRANCH  41  44
ENDBRANCH  23  37
BRANCH  24  48
ATOM     48  C   UNL A   1      36.302  30.695  29.200  1.00  0.00     0.023 A 
ATOM     49  C   UNL A   1      35.572  29.666  28.573  1.00  0.00     0.012 A 
ATOM     50  C   UNL A   1      35.837  32.023  29.091  1.00  0.00     0.148 A 
ATOM     51  C   UNL A   1      34.430  29.952  27.822  1.00  0.00     0.002 A 
ATOM     52  C   UNL A   1      34.681  32.300  28.364  1.00  0.00     0.091 A 
ATOM     53  F   UNL A   1      36.536  32.992  29.701  1.00  0.00    -0.205 F 
ATOM     54  C   UNL A   1      33.984  31.267  27.718  1.00  0.00     0.022 A 
BRANCH  52  55
ATOM     55  S   UNL A   1      33.973  33.951  28.234  1.00  0.00     0.127 S 
ATOM     56  O   UNL A   1      34.893  34.601  27.304  1.00  0.00    -0.237 OA
ATOM     57  O   UNL A   1      32.647  33.665  27.686  1.00  0.00    -0.237 OA
ATOM     58  O   UNL A   1      33.961  34.486  29.590  1.00  0.00    -0.744 OA
ENDBRANCH  52  55
ENDBRANCH  24  48
BRANCH  36  59
ATOM     59  C   UNL A   1      38.867  32.475  35.469  1.00  0.00     0.023 A 
ATOM     60  C   UNL A   1      38.004  32.067  36.504  1.00  0.00     0.012 A 
ATOM     61  C   UNL A   1      39.457  33.755  35.517  1.00  0.00     0.148 A 
ATOM     62  C   UNL A   1      37.733  32.922  37.571  1.00  0.00     0.002 A 
ATOM     63  C   UNL A   1      39.231  34.576  36.612  1.00  0.00     0.091 A 
ATOM     64  F   UNL A   1      40.257  34.126  34.507  1.00  0.00    -0.205 F 
ATOM     65  C   UNL A   1      38.361  34.165  37.635  1.00  0.00     0.022 A 
BRANCH  63  66
ATOM     66  S   UNL A   1      40.099  36.131  36.845  1.00  0.00     0.127 S 
ATOM     67  O   UNL A   1      41.483  35.681  36.987  1.00  0.00    -0.237 OA
ATOM     68  O   UNL A   1      39.810  36.835  35.595  1.00  0.00    -0.237 OA
ATOM     69  O   UNL A   1      39.520  36.744  38.033  1.00  0.00    -0.744 OA
ENDBRANCH  63  66
ENDBRANCH  36  59
ENDBRANCH  10  11
ENDBRANCH   3   5
ENDBRANCH   2   3
ENDBRANCH   1   2
BRANCH   1  70
ATOM     70  C   UNL A   1      42.435  21.266  26.317  1.00  0.00     0.274 C 
BRANCH  70  71
ATOM     71  O   UNL A   1      41.118  21.705  25.970  1.00  0.00    -0.462 OA
BRANCH  71  72
ATOM     72  C   UNL A   1      40.088  20.811  26.064  1.00  0.00     0.310 C 
ATOM     73  O   UNL A   1      40.236  19.601  26.202  1.00  0.00    -0.252 OA
BRANCH  72  74
ATOM     74  C   UNL A   1      38.748  21.533  26.059  1.00  0.00     0.118 C 
ATOM     75  C   UNL A   1      38.944  23.020  26.363  1.00  0.00     0.019 C 
ATOM     76  C   UNL A   1      38.015  21.373  24.720  1.00  0.00     0.133 C 
ATOM     77  C   UNL A   1      37.596  23.718  26.351  1.00  0.00     0.022 C 
ATOM     78  N   UNL A   1      36.911  22.328  24.552  1.00  0.00    -0.356 N 
ATOM     79  C   UNL A   1      37.137  23.729  24.913  1.00  0.00     0.118 C 
BRANCH  78  80
ATOM     80  C   UNL A   1      35.575  21.960  24.665  1.00  0.00     0.133 A 
ATOM     81  C   UNL A   1      35.307  20.606  24.674  1.00  0.00     0.077 A 
ATOM     82  N   UNL A   1      34.591  22.867  24.710  1.00  0.00    -0.211 NA
ATOM     83  C   UNL A   1      34.002  20.183  24.753  1.00  0.00     0.095 A 
ATOM     84  C   UNL A   1      33.333  22.370  24.736  1.00  0.00     0.165 A 
ATOM     85  N   UNL A   1      32.986  21.067  24.766  1.00  0.00    -0.226 NA
BRANCH  83  86
ATOM     86  C   UNL A   1      33.723  18.743  24.903  1.00  0.00     0.089 A 
ATOM     87  C   UNL A   1      34.489  17.806  24.195  1.00  0.00     0.030 A 
ATOM     88  N   UNL A   1      32.669  18.367  25.670  1.00  0.00    -0.255 NA
ATOM     89  C   UNL A   1      34.149  16.461  24.234  1.00  0.00     0.004 A 
ATOM     90  C   UNL A   1      32.352  17.051  25.675  1.00  0.00     0.112 A 
ATOM     91  C   UNL A   1      33.052  16.073  24.983  1.00  0.00     0.020 A 
ENDBRANCH  83  86
BRANCH  84  92
ATOM     92  C   UNL A   1      32.236  23.329  24.770  1.00  0.00     0.055 A 
ATOM     93  C   UNL A   1      31.512  23.679  23.616  1.00  0.00     0.015 A 
ATOM     94  C   UNL A   1      31.853  23.910  25.983  1.00  0.00     0.134 A 
ATOM     95  C   UNL A   1      30.435  24.573  23.688  1.00  0.00     0.001 A 
ATOM     96  C   UNL A   1      30.787  24.804  26.061  1.00  0.00     0.040 A 
ATOM     97  F   UNL A   1      32.518  23.623  27.112  1.00  0.00    -0.206 F 
ATOM     98  C   UNL A   1      30.073  25.135  24.911  1.00  0.00     0.003 A 
ENDBRANCH  84  92
ENDBRANCH  78  80
ENDBRANCH  72  74
ENDBRANCH  71  72
ENDBRANCH  70  71
ENDBRANCH   1  70
TORSDOF 17
ENDMDL
MODEL 2
REMARK VINA RESULT:     -13.4      5.036      8.318
REMARK SMILES O=C(OCCOC(=O)[C@H]1CCCN(c2cc(-c3ccccn3)nc(-c3ccccc3F)n2)C1)c1ccc(-c2c3nc(c(-c4cccc(S(=O)(=O)[O-])c4F)c4ccc([nH]4)c(-c4cccc(S(=O)(=O)[O-])c4F)c4nc(c(-c5cccc(S(=O)(=O)[O-])c5F)c5ccc2[nH]5)C=C4)C=C3)cc1
REMARK SMILES IDX 4 1 3 2 2 3 1 4 34 5 35 6 96 7 36 8 95 9 37 10 38 11 39 12
REMARK SMILES IDX 89 13 40 14 94 15 88 16 90 17 41 18 93 19 87 20 86 21 42 23
REMARK SMILES IDX 74 24 54 25 73 26 55 27 58 28 72 29 91 30 56 31 57 32 71 34
REMARK SMILES IDX 92 35 59 36 43 37 44 38 52 39 45 40 47 41 53 42 46 43 48 44
REMARK SMILES IDX 49 45 50 46 51 47 75 48 76 49 84 50 77 51 79 52 85 53 78 54
REMARK SMILES IDX 80 55 81 56 82 57 83 58 60 59 61 60 69 61 62 62 64 63 70 64
REMARK SMILES IDX 63 65 65 66 66 67 67 68 68 69 5 70 6 71 7 72 8 73 9 74 10 75
REMARK SMILES IDX 33 76 11 77 13 78 12 79 14 80 15 81 32 82 16 83 24 84 23 85
REMARK SMILES IDX 17 86 18 87 22 88 19 89 21 90 20 91 25 92 26 93 30 94 27 95
REMARK SMILES IDX 29 96 31 97 28 98
REMARK H PARENT 90 22 58 33
REMARK Flexibility Score: inf
ROOT
ATOM      1  C   UNL A   1      36.709  21.218  24.571  1.00  0.00     0.275 C 
ENDROOT
BRANCH   1   2
ATOM      2  O   UNL A   1      37.388  21.325  25.835  1.00  0.00    -0.458 OA
BRANCH   2   3
ATOM      3  C   UNL A   1      38.710  21.437  26.116  1.00  0.00     0.338 C 
ATOM      4  O   UNL A   1      39.403  20.422  26.061  1.00  0.00    -0.246 OA
BRANCH   3   5
ATOM      5  C   UNL A   1      39.367  22.704  26.577  1.00  0.00     0.060 A 
ATOM      6  C   UNL A   1      40.387  22.811  27.532  1.00  0.00     0.016 A 
ATOM      7  C   UNL A   1      38.894  23.889  25.991  1.00  0.00     0.016 A 
ATOM      8  C   UNL A   1      41.014  24.042  27.801  1.00  0.00     0.010 A 
ATOM      9  C   UNL A   1      39.499  25.119  26.272  1.00  0.00     0.010 A 
ATOM     10  C   UNL A   1      40.596  25.202  27.151  1.00  0.00    -0.014 A 
BRANCH  10  11
ATOM     11  C   UNL A   1      41.186  26.536  27.433  1.00  0.00     0.031 A 
ATOM     12  C   UNL A   1      42.663  26.679  27.226  1.00  0.00     0.074 A 
ATOM     13  C   UNL A   1      40.478  27.552  27.978  1.00  0.00     0.049 A 
ATOM     14  N   UNL A   1      43.428  27.705  27.475  1.00  0.00    -0.248 NA
ATOM     15  C   UNL A   1      43.366  25.528  26.630  1.00  0.00     0.031 C 
ATOM     16  C   UNL A   1      39.032  27.582  28.197  1.00  0.00     0.029 A 
ATOM     17  N   UNL A   1      40.909  28.719  28.570  1.00  0.00    -0.354 N 
ATOM     18  C   UNL A   1      44.681  27.347  27.006  1.00  0.00     0.074 A 
ATOM     19  C   UNL A   1      44.610  25.972  26.575  1.00  0.00     0.031 C 
ATOM     20  C   UNL A   1      38.729  28.579  29.050  1.00  0.00     0.029 A 
ATOM     21  C   UNL A   1      39.945  29.324  29.352  1.00  0.00     0.049 A 
ATOM     22  H   UNL A   1      41.814  29.084  28.447  1.00  0.00     0.167 HD
ATOM     23  C   UNL A   1      45.768  28.132  26.857  1.00  0.00     0.034 A 
ATOM     24  C   UNL A   1      40.038  30.363  30.210  1.00  0.00     0.034 A 
ATOM     25  C   UNL A   1      45.826  29.490  27.309  1.00  0.00     0.049 A 
ATOM     26  C   UNL A   1      41.313  31.168  30.193  1.00  0.00     0.074 A 
ATOM     27  C   UNL A   1      46.843  30.410  27.148  1.00  0.00     0.029 A 
ATOM     28  N   UNL A   1      44.830  30.108  28.050  1.00  0.00    -0.354 N 
ATOM     29  N   UNL A   1      42.426  30.920  29.546  1.00  0.00    -0.248 NA
ATOM     30  C   UNL A   1      41.311  32.450  30.913  1.00  0.00     0.031 C 
ATOM     31  C   UNL A   1      46.476  31.574  27.829  1.00  0.00     0.029 A 
ATOM     32  C   UNL A   1      45.215  31.391  28.379  1.00  0.00     0.049 A 
ATOM     33  H   UNL A   1      43.974  29.691  28.303  1.00  0.00     0.167 HD
ATOM     34  C   UNL A   1      43.215  32.055  29.694  1.00  0.00     0.074 A 
ATOM     35  C   UNL A   1      42.467  32.976  30.526  1.00  0.00     0.031 C 
ATOM     36  C   UNL A   1      44.433  32.316  29.160  1.00  0.00     0.034 A 
BRANCH  23  37
ATOM     37  C   UNL A   1      46.923  27.550  26.099  1.00  0.00     0.023 A 
ATOM     38  C   UNL A   1      47.818  26.689  26.772  1.00  0.00     0.012 A 
ATOM     39  C   UNL A   1      47.126  27.839  24.740  1.00  0.00     0.148 A 
ATOM     40  C   UNL A   1      48.924  26.158  26.112  1.00  0.00     0.002 A 
ATOM     41  C   UNL A   1      48.206  27.269  24.078  1.00  0.00     0.091 A 
ATOM     42  F   UNL A   1      46.275  28.677  24.131  1.00  0.00    -0.205 F 
ATOM     43  C   UNL A   1      49.112  26.442  24.764  1.00  0.00     0.022 A 
BRANCH  41  44
ATOM     44  S   UNL A   1      48.510  27.517  22.327  1.00  0.00     0.127 S 
ATOM     45  O   UNL A   1      49.730  28.323  22.351  1.00  0.00    -0.237 OA
ATOM     46  O   UNL A   1      48.693  26.144  21.856  1.00  0.00    -0.237 OA
ATOM     47  O   UNL A   1      47.332  28.195  21.804  1.00  0.00    -0.744 OA
ENDBRANCH  41  44
ENDBRANCH  23  37
BRANCH  24  48
ATOM     48  C   UNL A   1      38.866  30.794  31.028  1.00  0.00     0.023 A 
ATOM     49  C   UNL A   1      38.666  30.226  32.302  1.00  0.00     0.012 A 
ATOM     50  C   UNL A   1      37.947  31.758  30.560  1.00  0.00     0.148 A 
ATOM     51  C   UNL A   1      37.559  30.576  33.077  1.00  0.00     0.002 A 
ATOM     52  C   UNL A   1      36.859  32.125  31.350  1.00  0.00     0.091 A 
ATOM     53  F   UNL A   1      38.155  32.297  29.350  1.00  0.00    -0.205 F 
ATOM     54  C   UNL A   1      36.657  31.525  32.603  1.00  0.00     0.022 A 
BRANCH  52  55
ATOM     55  S   UNL A   1      35.680  33.398  30.869  1.00  0.00     0.127 S 
ATOM     56  O   UNL A   1      34.402  32.729  31.101  1.00  0.00    -0.237 OA
ATOM     57  O   UNL A   1      35.993  34.468  31.816  1.00  0.00    -0.237 OA
ATOM     58  O   UNL A   1      35.983  33.715  29.479  1.00  0.00    -0.744 OA
ENDBRANCH  52  55
ENDBRANCH  24  48
BRANCH  36  59
ATOM     59  C   UNL A   1      45.038  33.672  29.391  1.00  0.00     0.023 A 
ATOM     60  C   UNL A   1      45.843  33.900  30.523  1.00  0.00     0.012 A 
ATOM     61  C   UNL A   1      44.938  34.665  28.395  1.00  0.00     0.148 A 
ATOM     62  C   UNL A   1      46.538  35.101  30.661  1.00  0.00     0.002 A 
ATOM     63  C   UNL A   1      45.680  35.832  28.509  1.00  0.00     0.091 A 
ATOM     64  F   UNL A   1      44.147  34.431  27.338  1.00  0.00    -0.205 F 
ATOM     65  C   UNL A   1      46.473  36.055  29.647  1.00  0.00     0.022 A 
BRANCH  63  66
ATOM     66  S   UNL A   1      45.763  37.053  27.194  1.00  0.00     0.127 S 
ATOM     67  O   UNL A   1      46.302  36.262  26.089  1.00  0.00    -0.237 OA
ATOM     68  O   UNL A   1      44.360  37.438  27.044  1.00  0.00    -0.237 OA
ATOM     69  O   UNL A   1      46.635  38.114  27.682  1.00  0.00    -0.744 OA
ENDBRANCH  63  66
ENDBRANCH  36  59
ENDBRANCH  10  11
ENDBRANCH   3   5
ENDBRANCH   2   3
ENDBRANCH   1   2
BRANCH   1  70
ATOM     70  C   UNL A   1      35.184  21.261  24.655  1.00  0.00     0.274 C 
BRANCH  70  71
ATOM     71  O   UNL A   1      34.727  22.437  25.333  1.00  0.00    -0.462 OA
BRANCH  71  72
ATOM     72  C   UNL A   1      33.380  22.634  25.456  1.00  0.00     0.310 C 
ATOM     73  O   UNL A   1      32.641  21.937  26.142  1.00  0.00    -0.252 OA
BRANCH  72  74
ATOM     74  C   UNL A   1      32.949  23.881  24.696  1.00  0.00     0.118 C 
ATOM     75  C   UNL A   1      32.580  23.525  23.254  1.00  0.00     0.019 C 
ATOM     76  C   UNL A   1      31.766  24.587  25.373  1.00  0.00     0.133 C 
ATOM     77  C   UNL A   1      32.154  24.783  22.518  1.00  0.00     0.022 C 
ATOM     78  N   UNL A   1      31.107  25.568  24.500  1.00  0.00    -0.356 N 
ATOM     79  C   UNL A   1      30.827  25.192  23.112  1.00  0.00     0.118 C 
BRANCH  78  80
ATOM     80  C   UNL A   1      31.265  26.940  24.657  1.00  0.00     0.133 A 
ATOM     81  C   UNL A   1      30.475  27.745  23.861  1.00  0.00     0.077 A 
ATOM     82  N   UNL A   1      32.169  27.459  25.497  1.00  0.00    -0.211 NA
ATOM     83  C   UNL A   1      30.609  29.111  23.952  1.00  0.00     0.095 A 
ATOM     84  C   UNL A   1      32.274  28.807  25.490  1.00  0.00     0.165 A 
ATOM     85  N   UNL A   1      31.532  29.666  24.760  1.00  0.00    -0.226 NA
BRANCH  83  86
ATOM     86  C   UNL A   1      29.672  29.972  23.208  1.00  0.00     0.089 A 
ATOM     87  C   UNL A   1      29.062  31.059  23.850  1.00  0.00     0.030 A 
ATOM     88  N   UNL A   1      29.361  29.635  21.930  1.00  0.00    -0.255 NA
ATOM     89  C   UNL A   1      28.085  31.794  23.194  1.00  0.00     0.004 A 
ATOM     90  C   UNL A   1      28.393  30.360  21.322  1.00  0.00     0.112 A 
ATOM     91  C   UNL A   1      27.735  31.433  21.904  1.00  0.00     0.020 A 
ENDBRANCH  83  86
BRANCH  84  92
ATOM     92  C   UNL A   1      33.260  29.406  26.381  1.00  0.00     0.055 A 
ATOM     93  C   UNL A   1      34.499  28.795  26.644  1.00  0.00     0.015 A 
ATOM     94  C   UNL A   1      33.000  30.642  26.982  1.00  0.00     0.134 A 
ATOM     95  C   UNL A   1      35.443  29.416  27.473  1.00  0.00     0.001 A 
ATOM     96  C   UNL A   1      33.931  31.262  27.811  1.00  0.00     0.040 A 
ATOM     97  F   UNL A   1      31.827  31.261  26.776  1.00  0.00    -0.206 F 
ATOM     98  C   UNL A   1      35.159  30.650  28.057  1.00  0.00     0.003 A 
ENDBRANCH  84  92
ENDBRANCH  78  80
ENDBRANCH  72  74
ENDBRANCH  71  72
ENDBRANCH  70  71
ENDBRANCH   1  70
TORSDOF 17
ENDMDL
MODEL 3
REMARK VINA RESULT:     -13.2      2.221      8.650
REMARK SMILES O=C(OCCOC(=O)[C@H]1CCCN(c2cc(-c3ccccn3)nc(-c3ccccc3F)n2)C1)c1ccc(-c2c3nc(c(-c4cccc(S(=O)(=O)[O-])c4F)c4ccc([nH]4)c(-c4cccc(S(=O)(=O)[O-])c4F)c4nc(c(-c5cccc(S(=O)(=O)[O-])c5F)c5ccc2[nH]5)C=C4)C=C3)cc1
REMARK SMILES IDX 4 1 3 2 2 3 1 4 34 5 35 6 96 7 36 8 95 9 37 10 38 11 39 12
REMARK SMILES IDX 89 13 40 14 94 15 88 16 90 17 41 18 93 19 87 20 86 21 42 23
REMARK SMILES IDX 74 24 54 25 73 26 55 27 58 28 72 29 91 30 56 31 57 32 71 34
REMARK SMILES IDX 92 35 59 36 43 37 44 38 52 39 45 40 47 41 53 42 46 43 48 44
REMARK SMILES IDX 49 45 50 46 51 47 75 48 76 49 84 50 77 51 79 52 85 53 78 54
REMARK SMILES IDX 80 55 81 56 82 57 83 58 60 59 61 60 69 61 62 62 64 63 70 64
REMARK SMILES IDX 63 65 65 66 66 67 67 68 68 69 5 70 6 71 7 72 8 73 9 74 10 75
REMARK SMILES IDX 33 76 11 77 13 78 12 79 14 80 15 81 32 82 16 83 24 84 23 85
REMARK SMILES IDX 17 86 18 87 22 88 19 89 21 90 20 91 25 92 26 93 30 94 27 95
REMARK SMILES IDX 29 96 31 97 28 98
REMARK H PARENT 90 22 58 33
REMARK Flexibility Score: inf
ROOT
ATOM      1  C   UNL A   1      33.191  29.541  25.741  1.00  0.00     0.275 C 
ENDROOT
BRANCH   1   2
ATOM      2  O   UNL A   1      32.930  30.853  26.272  1.00  0.00    -0.458 OA
BRANCH   2   3
ATOM      3  C   UNL A   1      33.579  31.559  27.231  1.00  0.00     0.338 C 
ATOM      4  O   UNL A   1      33.123  32.656  27.553  1.00  0.00    -0.246 OA
BRANCH   3   5
ATOM      5  C   UNL A   1      34.868  31.128  27.865  1.00  0.00     0.060 A 
ATOM      6  C   UNL A   1      36.075  31.840  27.860  1.00  0.00     0.016 A 
ATOM      7  C   UNL A   1      34.848  29.883  28.513  1.00  0.00     0.016 A 
ATOM      8  C   UNL A   1      37.193  31.395  28.590  1.00  0.00     0.010 A 
ATOM      9  C   UNL A   1      35.964  29.425  29.222  1.00  0.00     0.010 A 
ATOM     10  C   UNL A   1      37.138  30.198  29.302  1.00  0.00    -0.014 A 
BRANCH  10  11
ATOM     11  C   UNL A   1      38.302  29.654  30.047  1.00  0.00     0.031 A 
ATOM     12  C   UNL A   1      38.669  30.346  31.325  1.00  0.00     0.074 A 
ATOM     13  C   UNL A   1      39.093  28.672  29.559  1.00  0.00     0.049 A 
ATOM     14  N   UNL A   1      39.682  30.121  32.114  1.00  0.00    -0.248 NA
ATOM     15  C   UNL A   1      37.760  31.409  31.791  1.00  0.00     0.031 C 
ATOM     16  C   UNL A   1      38.843  27.873  28.358  1.00  0.00     0.029 A 
ATOM     17  N   UNL A   1      40.347  28.261  29.953  1.00  0.00    -0.354 N 
ATOM     18  C   UNL A   1      39.494  30.963  33.197  1.00  0.00     0.074 A 
ATOM     19  C   UNL A   1      38.347  31.793  32.912  1.00  0.00     0.031 C 
ATOM     20  C   UNL A   1      39.978  27.245  27.996  1.00  0.00     0.029 A 
ATOM     21  C   UNL A   1      41.003  27.509  28.998  1.00  0.00     0.049 A 
ATOM     22  H   UNL A   1      40.737  28.482  30.830  1.00  0.00     0.167 HD
ATOM     23  C   UNL A   1      40.162  30.972  34.370  1.00  0.00     0.034 A 
ATOM     24  C   UNL A   1      42.283  27.084  28.944  1.00  0.00     0.034 A 
ATOM     25  C   UNL A   1      41.310  30.156  34.628  1.00  0.00     0.049 A 
ATOM     26  C   UNL A   1      43.119  27.233  30.191  1.00  0.00     0.074 A 
ATOM     27  C   UNL A   1      42.025  30.020  35.800  1.00  0.00     0.029 A 
ATOM     28  N   UNL A   1      41.931  29.363  33.675  1.00  0.00    -0.354 N 
ATOM     29  N   UNL A   1      42.817  27.852  31.307  1.00  0.00    -0.248 NA
ATOM     30  C   UNL A   1      44.408  26.526  30.227  1.00  0.00     0.031 C 
ATOM     31  C   UNL A   1      43.107  29.173  35.543  1.00  0.00     0.029 A 
ATOM     32  C   UNL A   1      43.040  28.752  34.222  1.00  0.00     0.049 A 
ATOM     33  H   UNL A   1      41.625  29.252  32.745  1.00  0.00     0.167 HD
ATOM     34  C   UNL A   1      43.824  27.527  32.208  1.00  0.00     0.074 A 
ATOM     35  C   UNL A   1      44.765  26.687  31.496  1.00  0.00     0.031 C 
ATOM     36  C   UNL A   1      43.935  27.871  33.514  1.00  0.00     0.034 A 
BRANCH  23  37
ATOM     37  C   UNL A   1      39.595  31.826  35.464  1.00  0.00     0.023 A 
ATOM     38  C   UNL A   1      38.589  31.289  36.298  1.00  0.00     0.012 A 
ATOM     39  C   UNL A   1      40.046  33.138  35.676  1.00  0.00     0.148 A 
ATOM     40  C   UNL A   1      38.011  32.062  37.302  1.00  0.00     0.002 A 
ATOM     41  C   UNL A   1      39.496  33.888  36.708  1.00  0.00     0.091 A 
ATOM     42  F   UNL A   1      40.984  33.631  34.856  1.00  0.00    -0.205 F 
ATOM     43  C   UNL A   1      38.470  33.358  37.511  1.00  0.00     0.022 A 
BRANCH  41  44
ATOM     44  S   UNL A   1      40.055  35.545  37.107  1.00  0.00     0.127 S 
ATOM     45  O   UNL A   1      39.526  36.314  35.981  1.00  0.00    -0.237 OA
ATOM     46  O   UNL A   1      39.385  35.790  38.384  1.00  0.00    -0.237 OA
ATOM     47  O   UNL A   1      41.508  35.476  37.178  1.00  0.00    -0.744 OA
ENDBRANCH  41  44
ENDBRANCH  23  37
BRANCH  24  48
ATOM     48  C   UNL A   1      42.803  26.352  27.752  1.00  0.00     0.023 A 
ATOM     49  C   UNL A   1      43.343  27.081  26.675  1.00  0.00     0.012 A 
ATOM     50  C   UNL A   1      42.768  24.943  27.672  1.00  0.00     0.148 A 
ATOM     51  C   UNL A   1      43.801  26.431  25.527  1.00  0.00     0.002 A 
ATOM     52  C   UNL A   1      43.252  24.297  26.535  1.00  0.00     0.091 A 
ATOM     53  F   UNL A   1      42.260  24.261  28.708  1.00  0.00    -0.205 F 
ATOM     54  C   UNL A   1      43.757  25.041  25.457  1.00  0.00     0.022 A 
BRANCH  52  55
ATOM     55  S   UNL A   1      43.318  22.505  26.376  1.00  0.00     0.127 S 
ATOM     56  O   UNL A   1      44.757  22.254  26.379  1.00  0.00    -0.237 OA
ATOM     57  O   UNL A   1      42.617  22.071  27.584  1.00  0.00    -0.237 OA
ATOM     58  O   UNL A   1      42.625  22.191  25.132  1.00  0.00    -0.744 OA
ENDBRANCH  52  55
ENDBRANCH  24  48
BRANCH  36  59
ATOM     59  C   UNL A   1      45.079  27.303  34.308  1.00  0.00     0.023 A 
ATOM     60  C   UNL A   1      46.305  27.991  34.368  1.00  0.00     0.012 A 
ATOM     61  C   UNL A   1      44.873  26.171  35.123  1.00  0.00     0.148 A 
ATOM     62  C   UNL A   1      47.312  27.558  35.228  1.00  0.00     0.002 A 
ATOM     63  C   UNL A   1      45.858  25.782  36.020  1.00  0.00     0.091 A 
ATOM     64  F   UNL A   1      43.704  25.520  35.029  1.00  0.00    -0.205 F 
ATOM     65  C   UNL A   1      47.082  26.469  36.066  1.00  0.00     0.022 A 
BRANCH  63  66
ATOM     66  S   UNL A   1      45.598  24.479  37.229  1.00  0.00     0.127 S 
ATOM     67  O   UNL A   1      44.450  24.992  37.977  1.00  0.00    -0.237 OA
ATOM     68  O   UNL A   1      45.308  23.324  36.379  1.00  0.00    -0.237 OA
ATOM     69  O   UNL A   1      46.838  24.377  37.987  1.00  0.00    -0.744 OA
ENDBRANCH  63  66
ENDBRANCH  36  59
ENDBRANCH  10  11
ENDBRANCH   3   5
ENDBRANCH   2   3
ENDBRANCH   1   2
BRANCH   1  70
ATOM     70  C   UNL A   1      32.608  29.283  24.353  1.00  0.00     0.274 C 
BRANCH  70  71
ATOM     71  O   UNL A   1      32.027  27.978  24.261  1.00  0.00    -0.462 OA
BRANCH  71  72
ATOM     72  C   UNL A   1      32.505  27.119  23.311  1.00  0.00     0.310 C 
ATOM     73  O   UNL A   1      32.954  27.471  22.226  1.00  0.00    -0.252 OA
BRANCH  72  74
ATOM     74  C   UNL A   1      32.477  25.685  23.822  1.00  0.00     0.118 C 
ATOM     75  C   UNL A   1      31.033  25.194  23.951  1.00  0.00     0.019 C 
ATOM     76  C   UNL A   1      33.266  24.734  22.911  1.00  0.00     0.133 C 
ATOM     77  C   UNL A   1      31.032  23.764  24.461  1.00  0.00     0.022 C 
ATOM     78  N   UNL A   1      32.972  23.318  23.167  1.00  0.00    -0.356 N 
ATOM     79  C   UNL A   1      31.575  22.913  23.338  1.00  0.00     0.118 C 
BRANCH  78  80
ATOM     80  C   UNL A   1      33.854  22.476  23.834  1.00  0.00     0.133 A 
ATOM     81  C   UNL A   1      33.437  21.174  24.026  1.00  0.00     0.077 A 
ATOM     82  N   UNL A   1      35.026  22.912  24.314  1.00  0.00    -0.211 NA
ATOM     83  C   UNL A   1      34.255  20.303  24.706  1.00  0.00     0.095 A 
ATOM     84  C   UNL A   1      35.748  22.008  25.014  1.00  0.00     0.165 A 
ATOM     85  N   UNL A   1      35.424  20.717  25.231  1.00  0.00    -0.226 NA
BRANCH  83  86
ATOM     86  C   UNL A   1      33.875  18.881  24.789  1.00  0.00     0.089 A 
ATOM     87  C   UNL A   1      34.756  17.894  24.325  1.00  0.00     0.030 A 
ATOM     88  N   UNL A   1      32.634  18.571  25.243  1.00  0.00    -0.255 NA
ATOM     89  C   UNL A   1      34.353  16.568  24.283  1.00  0.00     0.004 A 
ATOM     90  C   UNL A   1      32.263  17.271  25.174  1.00  0.00     0.112 A 
ATOM     91  C   UNL A   1      33.074  16.247  24.709  1.00  0.00     0.020 A 
ENDBRANCH  83  86
BRANCH  84  92
ATOM     92  C   UNL A   1      37.023  22.452  25.564  1.00  0.00     0.055 A 
ATOM     93  C   UNL A   1      37.194  23.737  26.112  1.00  0.00     0.015 A 
ATOM     94  C   UNL A   1      38.117  21.581  25.586  1.00  0.00     0.134 A 
ATOM     95  C   UNL A   1      38.421  24.120  26.671  1.00  0.00     0.001 A 
ATOM     96  C   UNL A   1      39.341  21.958  26.135  1.00  0.00     0.040 A 
ATOM     97  F   UNL A   1      38.012  20.349  25.063  1.00  0.00    -0.206 F 
ATOM     98  C   UNL A   1      39.494  23.230  26.682  1.00  0.00     0.003 A 
ENDBRANCH  84  92
ENDBRANCH  78  80
ENDBRANCH  72  74
ENDBRANCH  71  72
ENDBRANCH  70  71
ENDBRANCH   1  70
TORSDOF 17
ENDMDL
