MODEL 1
REMARK VINA RESULT:     -11.5      0.000      0.000
REMARK SMILES C=CCOc1ccccc1-c1cc(C(=O)OCCOC(=O)c2ccc(-c3c4nc(c(-c5cccc(S(=O)(=O)[O-])c5F)c5ccc([nH]5)c(-c5cccc(S(=O)(=O)[O-])c5F)c5nc(c(-c6cccc(S(=O)(=O)[O-])c6F)c6ccc3[nH]6)C=C5)C=C4)cc2)nc(N)n1
REMARK SMILES IDX 17 1 16 2 14 3 15 4 13 5 11 6 12 7 88 8 86 9 85 10 10 11
REMARK SMILES IDX 5 12 6 13 7 14 9 15 8 16 4 17 3 18 2 19 1 20 87 21 18 24
REMARK SMILES IDX 19 25 20 26 21 27 22 28 23 29 84 30 24 31 83 32 25 33 26 34
REMARK SMILES IDX 27 35 77 36 28 37 82 38 76 39 78 40 29 41 81 42 75 43 74 44
REMARK SMILES IDX 30 46 62 47 42 48 61 49 43 50 46 51 60 52 79 53 44 54 45 55
REMARK SMILES IDX 59 57 80 58 47 59 31 60 32 61 40 62 33 63 35 64 41 65 34 66
REMARK SMILES IDX 36 67 37 68 38 69 39 70 63 71 64 72 72 73 65 74 67 75 73 76
REMARK SMILES IDX 66 77 68 78 69 79 70 80 71 81 48 82 49 83 57 84 50 85 52 86
REMARK SMILES IDX 58 87 51 88 53 89 54 90 55 91 56 92
REMARK H PARENT 87 22 87 23 78 45 46 56
REMARK Flexibility Score: inf
ROOT
ATOM      1  C   UNL A   1      35.128  21.553  25.956  1.00  0.00     0.275 C 
ENDROOT
BRANCH   1   2
ATOM      2  O   UNL A   1      33.868  21.638  25.261  1.00  0.00    -0.457 OA
BRANCH   2   3
ATOM      3  C   UNL A   1      33.627  22.814  24.623  1.00  0.00     0.357 C 
ATOM      4  O   UNL A   1      34.058  23.142  23.525  1.00  0.00    -0.244 OA
BRANCH   3   5
ATOM      5  C   UNL A   1      32.646  23.636  25.378  1.00  0.00     0.154 A 
ATOM      6  C   UNL A   1      31.916  25.727  26.084  1.00  0.00     0.080 A 
ATOM      7  C   UNL A   1      32.916  24.976  25.517  1.00  0.00     0.065 A 
ATOM      8  N   UNL A   1      30.809  25.164  26.612  1.00  0.00    -0.213 NA
ATOM      9  C   UNL A   1      30.672  23.841  26.469  1.00  0.00     0.221 A 
ATOM     10  N   UNL A   1      31.529  23.038  25.840  1.00  0.00    -0.206 NA
BRANCH   6  11
ATOM     11  C   UNL A   1      31.965  27.193  26.044  1.00  0.00     0.042 A 
ATOM     12  C   UNL A   1      31.324  27.916  25.018  1.00  0.00     0.129 A 
ATOM     13  C   UNL A   1      31.448  29.303  24.909  1.00  0.00     0.047 A 
ATOM     14  C   UNL A   1      32.189  30.000  25.859  1.00  0.00     0.004 A 
ATOM     15  C   UNL A   1      32.687  27.919  27.002  1.00  0.00     0.014 A 
ATOM     16  C   UNL A   1      32.800  29.311  26.908  1.00  0.00     0.001 A 
BRANCH  12  17
ATOM     17  O   UNL A   1      30.631  27.246  24.039  1.00  0.00    -0.489 OA
BRANCH  17  18
ATOM     18  C   UNL A   1      31.245  27.400  22.755  1.00  0.00     0.257 C 
BRANCH  18  19
ATOM     19  C   UNL A   1      31.858  26.081  22.385  1.00  0.00     0.006 C 
ATOM     20  C   UNL A   1      32.732  25.908  21.385  1.00  0.00     0.007 C 
ENDBRANCH  18  19
ENDBRANCH  17  18
ENDBRANCH  12  17
ENDBRANCH   6  11
BRANCH   9  21
ATOM     21  N   UNL A   1      29.548  23.271  26.993  1.00  0.00    -0.368 N 
ATOM     22  H   UNL A   1      29.321  23.414  27.940  1.00  0.00     0.159 HD
ATOM     23  H   UNL A   1      28.967  22.716  26.425  1.00  0.00     0.159 HD
ENDBRANCH   9  21
ENDBRANCH   3   5
ENDBRANCH   2   3
ENDBRANCH   1   2
BRANCH   1  24
ATOM     24  C   UNL A   1      36.119  20.688  25.175  1.00  0.00     0.275 C 
BRANCH  24  25
ATOM     25  O   UNL A   1      37.305  21.452  24.900  1.00  0.00    -0.458 OA
BRANCH  25  26
ATOM     26  C   UNL A   1      38.419  21.066  25.567  1.00  0.00     0.338 C 
ATOM     27  O   UNL A   1      38.895  19.943  25.603  1.00  0.00    -0.246 OA
BRANCH  26  28
ATOM     28  C   UNL A   1      39.017  22.231  26.255  1.00  0.00     0.060 A 
ATOM     29  C   UNL A   1      38.517  23.511  26.030  1.00  0.00     0.016 A 
ATOM     30  C   UNL A   1      40.152  22.065  27.047  1.00  0.00     0.016 A 
ATOM     31  C   UNL A   1      39.199  24.632  26.508  1.00  0.00     0.010 A 
ATOM     32  C   UNL A   1      40.784  23.187  27.600  1.00  0.00     0.010 A 
ATOM     33  C   UNL A   1      40.351  24.490  27.293  1.00  0.00    -0.014 A 
BRANCH  33  34
ATOM     34  C   UNL A   1      41.149  25.682  27.717  1.00  0.00     0.031 A 
ATOM     35  C   UNL A   1      40.505  26.753  28.569  1.00  0.00     0.074 A 
ATOM     36  C   UNL A   1      42.439  25.834  27.352  1.00  0.00     0.049 A 
ATOM     37  N   UNL A   1      40.939  27.952  28.866  1.00  0.00    -0.248 NA
ATOM     38  C   UNL A   1      39.188  26.440  29.150  1.00  0.00     0.031 C 
ATOM     39  C   UNL A   1      43.215  24.884  26.555  1.00  0.00     0.029 A 
ATOM     40  N   UNL A   1      43.326  26.857  27.597  1.00  0.00    -0.354 N 
ATOM     41  C   UNL A   1      39.914  28.567  29.575  1.00  0.00     0.074 A 
ATOM     42  C   UNL A   1      38.840  27.602  29.685  1.00  0.00     0.031 C 
ATOM     43  C   UNL A   1      44.463  25.352  26.399  1.00  0.00     0.029 A 
ATOM     44  C   UNL A   1      44.559  26.672  27.013  1.00  0.00     0.049 A 
ATOM     45  H   UNL A   1      43.100  27.648  28.139  1.00  0.00     0.167 HD
ATOM     46  C   UNL A   1      39.868  29.816  30.098  1.00  0.00     0.034 A 
ATOM     47  C   UNL A   1      45.635  27.482  26.944  1.00  0.00     0.034 A 
ATOM     48  C   UNL A   1      40.971  30.740  30.090  1.00  0.00     0.049 A 
ATOM     49  C   UNL A   1      45.578  28.844  27.580  1.00  0.00     0.074 A 
ATOM     50  C   UNL A   1      41.029  32.016  30.626  1.00  0.00     0.029 A 
ATOM     51  N   UNL A   1      42.220  30.479  29.551  1.00  0.00    -0.354 N 
ATOM     52  N   UNL A   1      44.604  29.399  28.258  1.00  0.00    -0.248 NA
ATOM     53  C   UNL A   1      46.776  29.689  27.451  1.00  0.00     0.031 C 
ATOM     54  C   UNL A   1      42.316  32.521  30.418  1.00  0.00     0.029 A 
ATOM     55  C   UNL A   1      43.061  31.558  29.759  1.00  0.00     0.049 A 
ATOM     56  H   UNL A   1      42.472  29.647  29.087  1.00  0.00     0.167 HD
ATOM     57  C   UNL A   1      45.078  30.645  28.655  1.00  0.00     0.074 A 
ATOM     58  C   UNL A   1      46.437  30.752  28.168  1.00  0.00     0.031 C 
ATOM     59  C   UNL A   1      44.435  31.623  29.337  1.00  0.00     0.034 A 
BRANCH  46  60
ATOM     60  C   UNL A   1      38.592  30.255  30.768  1.00  0.00     0.023 A 
ATOM     61  C   UNL A   1      38.402  30.008  32.141  1.00  0.00     0.012 A 
ATOM     62  C   UNL A   1      37.616  30.980  30.055  1.00  0.00     0.148 A 
ATOM     63  C   UNL A   1      37.249  30.450  32.789  1.00  0.00     0.002 A 
ATOM     64  C   UNL A   1      36.489  31.454  30.716  1.00  0.00     0.091 A 
ATOM     65  F   UNL A   1      37.804  31.188  28.743  1.00  0.00    -0.205 F 
ATOM     66  C   UNL A   1      36.299  31.182  32.081  1.00  0.00     0.022 A 
BRANCH  64  67
ATOM     67  S   UNL A   1      35.253  32.477  29.907  1.00  0.00     0.127 S 
ATOM     68  O   UNL A   1      34.316  32.730  31.001  1.00  0.00    -0.237 OA
ATOM     69  O   UNL A   1      36.036  33.643  29.494  1.00  0.00    -0.237 OA
ATOM     70  O   UNL A   1      34.733  31.679  28.806  1.00  0.00    -0.744 OA
ENDBRANCH  64  67
ENDBRANCH  46  60
BRANCH  47  71
ATOM     71  C   UNL A   1      46.878  27.013  26.265  1.00  0.00     0.023 A 
ATOM     72  C   UNL A   1      47.047  27.260  24.888  1.00  0.00     0.012 A 
ATOM     73  C   UNL A   1      47.901  26.353  26.972  1.00  0.00     0.148 A 
ATOM     74  C   UNL A   1      48.201  26.839  24.226  1.00  0.00     0.002 A 
ATOM     75  C   UNL A   1      49.075  25.993  26.319  1.00  0.00     0.091 A 
ATOM     76  F   UNL A   1      47.713  26.094  28.274  1.00  0.00    -0.205 F 
ATOM     77  C   UNL A   1      49.220  26.220  24.943  1.00  0.00     0.022 A 
BRANCH  75  78
ATOM     78  S   UNL A   1      50.486  25.331  27.212  1.00  0.00     0.127 S 
ATOM     79  O   UNL A   1      49.911  24.154  27.854  1.00  0.00    -0.237 OA
ATOM     80  O   UNL A   1      51.430  25.043  26.131  1.00  0.00    -0.237 OA
ATOM     81  O   UNL A   1      50.911  26.405  28.101  1.00  0.00    -0.744 OA
ENDBRANCH  75  78
ENDBRANCH  47  71
BRANCH  59  82
ATOM     82  C   UNL A   1      45.201  32.883  29.641  1.00  0.00     0.023 A 
ATOM     83  C   UNL A   1      45.971  32.962  30.818  1.00  0.00     0.012 A 
ATOM     84  C   UNL A   1      45.214  33.957  28.731  1.00  0.00     0.148 A 
ATOM     85  C   UNL A   1      46.722  34.104  31.098  1.00  0.00     0.002 A 
ATOM     86  C   UNL A   1      45.995  35.076  28.997  1.00  0.00     0.091 A 
ATOM     87  F   UNL A   1      44.456  33.872  27.628  1.00  0.00    -0.205 F 
ATOM     88  C   UNL A   1      46.742  35.156  30.183  1.00  0.00     0.022 A 
BRANCH  86  89
ATOM     89  S   UNL A   1      46.140  36.435  27.830  1.00  0.00     0.127 S 
ATOM     90  O   UNL A   1      47.373  37.082  28.277  1.00  0.00    -0.237 OA
ATOM     91  O   UNL A   1      46.248  35.740  26.547  1.00  0.00    -0.237 OA
ATOM     92  O   UNL A   1      44.923  37.220  27.986  1.00  0.00    -0.744 OA
ENDBRANCH  86  89
ENDBRANCH  59  82
ENDBRANCH  33  34
ENDBRANCH  26  28
ENDBRANCH  25  26
ENDBRANCH  24  25
ENDBRANCH   1  24
TORSDOF 19
ENDMDL
MODEL 2
REMARK VINA RESULT:     -11.3      1.181      1.920
REMARK SMILES C=CCOc1ccccc1-c1cc(C(=O)OCCOC(=O)c2ccc(-c3c4nc(c(-c5cccc(S(=O)(=O)[O-])c5F)c5ccc([nH]5)c(-c5cccc(S(=O)(=O)[O-])c5F)c5nc(c(-c6cccc(S(=O)(=O)[O-])c6F)c6ccc3[nH]6)C=C5)C=C4)cc2)nc(N)n1
REMARK SMILES IDX 17 1 16 2 14 3 15 4 13 5 11 6 12 7 88 8 86 9 85 10 10 11
REMARK SMILES IDX 5 12 6 13 7 14 9 15 8 16 4 17 3 18 2 19 1 20 87 21 18 24
REMARK SMILES IDX 19 25 20 26 21 27 22 28 23 29 84 30 24 31 83 32 25 33 26 34
REMARK SMILES IDX 27 35 77 36 28 37 82 38 76 39 78 40 29 41 81 42 75 43 74 44
REMARK SMILES IDX 30 46 62 47 42 48 61 49 43 50 46 51 60 52 79 53 44 54 45 55
REMARK SMILES IDX 59 57 80 58 47 59 31 60 32 61 40 62 33 63 35 64 41 65 34 66
REMARK SMILES IDX 36 67 37 68 38 69 39 70 63 71 64 72 72 73 65 74 67 75 73 76
REMARK SMILES IDX 66 77 68 78 69 79 70 80 71 81 48 82 49 83 57 84 50 85 52 86
REMARK SMILES IDX 58 87 51 88 53 89 54 90 55 91 56 92
REMARK H PARENT 87 22 87 23 78 45 46 56
REMARK Flexibility Score: inf
ROOT
ATOM      1  C   UNL A   1      35.071  21.251  24.538  1.00  0.00     0.275 C 
ENDROOT
BRANCH   1   2
ATOM      2  O   UNL A   1      34.767  22.660  24.540  1.00  0.00    -0.457 OA
BRANCH   2   3
ATOM      3  C   UNL A   1      35.009  23.315  23.373  1.00  0.00     0.357 C 
ATOM      4  O   UNL A   1      35.878  23.039  22.557  1.00  0.00    -0.244 OA
BRANCH   3   5
ATOM      5  C   UNL A   1      33.984  24.364  23.131  1.00  0.00     0.154 A 
ATOM      6  C   UNL A   1      32.757  26.176  23.914  1.00  0.00     0.080 A 
ATOM      7  C   UNL A   1      33.586  25.121  24.206  1.00  0.00     0.065 A 
ATOM      8  N   UNL A   1      32.242  26.363  22.681  1.00  0.00    -0.213 NA
ATOM      9  C   UNL A   1      32.655  25.532  21.718  1.00  0.00     0.221 A 
ATOM     10  N   UNL A   1      33.539  24.548  21.872  1.00  0.00    -0.206 NA
BRANCH   6  11
ATOM     11  C   UNL A   1      32.479  27.210  24.917  1.00  0.00     0.042 A 
ATOM     12  C   UNL A   1      32.050  26.869  26.217  1.00  0.00     0.129 A 
ATOM     13  C   UNL A   1      31.685  27.843  27.148  1.00  0.00     0.047 A 
ATOM     14  C   UNL A   1      31.782  29.189  26.805  1.00  0.00     0.004 A 
ATOM     15  C   UNL A   1      32.591  28.572  24.603  1.00  0.00     0.014 A 
ATOM     16  C   UNL A   1      32.243  29.552  25.539  1.00  0.00     0.001 A 
BRANCH  12  17
ATOM     17  O   UNL A   1      31.896  25.548  26.561  1.00  0.00    -0.489 OA
BRANCH  17  18
ATOM     18  C   UNL A   1      30.572  25.079  26.284  1.00  0.00     0.257 C 
BRANCH  18  19
ATOM     19  C   UNL A   1      30.611  23.579  26.296  1.00  0.00     0.006 C 
ATOM     20  C   UNL A   1      31.695  22.855  26.605  1.00  0.00     0.007 C 
ENDBRANCH  18  19
ENDBRANCH  17  18
ENDBRANCH  12  17
ENDBRANCH   6  11
BRANCH   9  21
ATOM     21  N   UNL A   1      32.143  25.725  20.467  1.00  0.00    -0.368 N 
ATOM     22  H   UNL A   1      32.744  25.744  19.688  1.00  0.00     0.159 HD
ATOM     23  H   UNL A   1      31.174  25.848  20.346  1.00  0.00     0.159 HD
ENDBRANCH   9  21
ENDBRANCH   3   5
ENDBRANCH   2   3
ENDBRANCH   1   2
BRANCH   1  24
ATOM     24  C   UNL A   1      36.213  20.944  25.508  1.00  0.00     0.275 C 
BRANCH  24  25
ATOM     25  O   UNL A   1      37.460  21.348  24.920  1.00  0.00    -0.458 OA
BRANCH  25  26
ATOM     26  C   UNL A   1      38.574  20.988  25.602  1.00  0.00     0.338 C 
ATOM     27  O   UNL A   1      39.064  19.872  25.661  1.00  0.00    -0.246 OA
BRANCH  26  28
ATOM     28  C   UNL A   1      39.152  22.172  26.275  1.00  0.00     0.060 A 
ATOM     29  C   UNL A   1      38.613  23.436  26.053  1.00  0.00     0.016 A 
ATOM     30  C   UNL A   1      40.306  22.041  27.046  1.00  0.00     0.016 A 
ATOM     31  C   UNL A   1      39.273  24.578  26.513  1.00  0.00     0.010 A 
ATOM     32  C   UNL A   1      40.916  23.183  27.583  1.00  0.00     0.010 A 
ATOM     33  C   UNL A   1      40.442  24.472  27.278  1.00  0.00    -0.014 A 
BRANCH  33  34
ATOM     34  C   UNL A   1      41.215  25.687  27.682  1.00  0.00     0.031 A 
ATOM     35  C   UNL A   1      40.557  26.744  28.541  1.00  0.00     0.074 A 
ATOM     36  C   UNL A   1      42.494  25.872  27.294  1.00  0.00     0.049 A 
ATOM     37  N   UNL A   1      40.964  27.956  28.825  1.00  0.00    -0.248 NA
ATOM     38  C   UNL A   1      39.260  26.398  29.146  1.00  0.00     0.031 C 
ATOM     39  C   UNL A   1      43.281  24.939  26.487  1.00  0.00     0.029 A 
ATOM     40  N   UNL A   1      43.357  26.920  27.519  1.00  0.00    -0.354 N 
ATOM     41  C   UNL A   1      39.935  28.547  29.549  1.00  0.00     0.074 A 
ATOM     42  C   UNL A   1      38.890  27.554  29.682  1.00  0.00     0.031 C 
ATOM     43  C   UNL A   1      44.513  25.440  26.307  1.00  0.00     0.029 A 
ATOM     44  C   UNL A   1      44.584  26.765  26.914  1.00  0.00     0.049 A 
ATOM     45  H   UNL A   1      43.119  27.707  28.060  1.00  0.00     0.167 HD
ATOM     46  C   UNL A   1      39.864  29.797  30.067  1.00  0.00     0.034 A 
ATOM     47  C   UNL A   1      45.636  27.604  26.822  1.00  0.00     0.034 A 
ATOM     48  C   UNL A   1      40.941  30.750  30.035  1.00  0.00     0.049 A 
ATOM     49  C   UNL A   1      45.554  28.967  27.452  1.00  0.00     0.074 A 
ATOM     50  C   UNL A   1      40.974  32.030  30.564  1.00  0.00     0.029 A 
ATOM     51  N   UNL A   1      42.187  30.520  29.475  1.00  0.00    -0.354 N 
ATOM     52  N   UNL A   1      44.577  29.499  28.145  1.00  0.00    -0.248 NA
ATOM     53  C   UNL A   1      46.725  29.844  27.299  1.00  0.00     0.031 C 
ATOM     54  C   UNL A   1      42.243  32.569  30.331  1.00  0.00     0.029 A 
ATOM     55  C   UNL A   1      43.001  31.622  29.663  1.00  0.00     0.049 A 
ATOM     56  H   UNL A   1      42.454  29.693  29.011  1.00  0.00     0.167 HD
ATOM     57  C   UNL A   1      45.023  30.759  28.528  1.00  0.00     0.074 A 
ATOM     58  C   UNL A   1      46.370  30.901  28.016  1.00  0.00     0.031 C 
ATOM     59  C   UNL A   1      44.366  31.723  29.217  1.00  0.00     0.034 A 
BRANCH  46  60
ATOM     60  C   UNL A   1      38.589  30.204  30.757  1.00  0.00     0.023 A 
ATOM     61  C   UNL A   1      38.379  29.853  32.105  1.00  0.00     0.012 A 
ATOM     62  C   UNL A   1      37.632  31.000  30.094  1.00  0.00     0.148 A 
ATOM     63  C   UNL A   1      37.227  30.264  32.774  1.00  0.00     0.002 A 
ATOM     64  C   UNL A   1      36.506  31.441  30.780  1.00  0.00     0.091 A 
ATOM     65  F   UNL A   1      37.839  31.308  28.805  1.00  0.00    -0.205 F 
ATOM     66  C   UNL A   1      36.297  31.066  32.117  1.00  0.00     0.022 A 
BRANCH  64  67
ATOM     67  S   UNL A   1      35.297  32.547  30.042  1.00  0.00     0.127 S 
ATOM     68  O   UNL A   1      36.125  33.702  29.699  1.00  0.00    -0.237 OA
ATOM     69  O   UNL A   1      34.827  31.771  28.893  1.00  0.00    -0.237 OA
ATOM     70  O   UNL A   1      34.290  32.777  31.068  1.00  0.00    -0.744 OA
ENDBRANCH  64  67
ENDBRANCH  46  60
BRANCH  47  71
ATOM     71  C   UNL A   1      46.879  27.165  26.123  1.00  0.00     0.023 A 
ATOM     72  C   UNL A   1      47.034  27.445  24.751  1.00  0.00     0.012 A 
ATOM     73  C   UNL A   1      47.916  26.502  26.807  1.00  0.00     0.148 A 
ATOM     74  C   UNL A   1      48.188  27.053  24.071  1.00  0.00     0.002 A 
ATOM     75  C   UNL A   1      49.088  26.172  26.138  1.00  0.00     0.091 A 
ATOM     76  F   UNL A   1      47.741  26.212  28.105  1.00  0.00    -0.205 F 
ATOM     77  C   UNL A   1      49.221  26.431  24.766  1.00  0.00     0.022 A 
BRANCH  75  78
ATOM     78  S   UNL A   1      50.515  25.507  27.005  1.00  0.00     0.127 S 
ATOM     79  O   UNL A   1      51.464  25.309  25.914  1.00  0.00    -0.237 OA
ATOM     80  O   UNL A   1      50.853  26.593  27.926  1.00  0.00    -0.237 OA
ATOM     81  O   UNL A   1      50.031  24.300  27.662  1.00  0.00    -0.744 OA
ENDBRANCH  75  78
ENDBRANCH  47  71
BRANCH  59  82
ATOM     82  C   UNL A   1      45.102  33.004  29.501  1.00  0.00     0.023 A 
ATOM     83  C   UNL A   1      45.863  33.122  30.681  1.00  0.00     0.012 A 
ATOM     84  C   UNL A   1      45.098  34.061  28.571  1.00  0.00     0.148 A 
ATOM     85  C   UNL A   1      46.587  34.286  30.943  1.00  0.00     0.002 A 
ATOM     86  C   UNL A   1      45.852  35.202  28.821  1.00  0.00     0.091 A 
ATOM     87  F   UNL A   1      44.349  33.939  27.466  1.00  0.00    -0.205 F 
ATOM     88  C   UNL A   1      46.591  35.321  30.010  1.00  0.00     0.022 A 
BRANCH  86  89
ATOM     89  S   UNL A   1      45.975  36.542  27.629  1.00  0.00     0.127 S 
ATOM     90  O   UNL A   1      44.607  37.058  27.618  1.00  0.00    -0.237 OA
ATOM     91  O   UNL A   1      46.956  37.432  28.253  1.00  0.00    -0.237 OA
ATOM     92  O   UNL A   1      46.427  35.927  26.390  1.00  0.00    -0.744 OA
ENDBRANCH  86  89
ENDBRANCH  59  82
ENDBRANCH  33  34
ENDBRANCH  26  28
ENDBRANCH  25  26
ENDBRANCH  24  25
ENDBRANCH   1  24
TORSDOF 19
ENDMDL
MODEL 3
REMARK VINA RESULT:     -10.9      0.689      7.831
REMARK SMILES C=CCOc1ccccc1-c1cc(C(=O)OCCOC(=O)c2ccc(-c3c4nc(c(-c5cccc(S(=O)(=O)[O-])c5F)c5ccc([nH]5)c(-c5cccc(S(=O)(=O)[O-])c5F)c5nc(c(-c6cccc(S(=O)(=O)[O-])c6F)c6ccc3[nH]6)C=C5)C=C4)cc2)nc(N)n1
REMARK SMILES IDX 17 1 16 2 14 3 15 4 13 5 11 6 12 7 88 8 86 9 85 10 10 11
REMARK SMILES IDX 5 12 6 13 7 14 9 15 8 16 4 17 3 18 2 19 1 20 87 21 18 24
REMARK SMILES IDX 19 25 20 26 21 27 22 28 23 29 84 30 24 31 83 32 25 33 26 34
REMARK SMILES IDX 27 35 77 36 28 37 82 38 76 39 78 40 29 41 81 42 75 43 74 44
REMARK SMILES IDX 30 46 62 47 42 48 61 49 43 50 46 51 60 52 79 53 44 54 45 55
REMARK SMILES IDX 59 57 80 58 47 59 31 60 32 61 40 62 33 63 35 64 41 65 34 66
REMARK SMILES IDX 36 67 37 68 38 69 39 70 63 71 64 72 72 73 65 74 67 75 73 76
REMARK SMILES IDX 66 77 68 78 69 79 70 80 71 81 48 82 49 83 57 84 50 85 52 86
REMARK SMILES IDX 58 87 51 88 53 89 54 90 55 91 56 92
REMARK H PARENT 87 22 87 23 78 45 46 56
REMARK Flexibility Score: inf
ROOT
ATOM      1  C   UNL A   1      35.469  21.723  25.519  1.00  0.00     0.275 C 
ENDROOT
BRANCH   1   2
ATOM      2  O   UNL A   1      34.704  21.821  24.301  1.00  0.00    -0.457 OA
BRANCH   2   3
ATOM      3  C   UNL A   1      34.437  23.084  23.874  1.00  0.00     0.357 C 
ATOM      4  O   UNL A   1      34.923  23.633  22.894  1.00  0.00    -0.244 OA
BRANCH   3   5
ATOM      5  C   UNL A   1      33.357  23.701  24.686  1.00  0.00     0.154 A 
ATOM      6  C   UNL A   1      32.396  25.602  25.617  1.00  0.00     0.080 A 
ATOM      7  C   UNL A   1      33.482  25.033  25.000  1.00  0.00     0.065 A 
ATOM      8  N   UNL A   1      31.340  24.870  26.028  1.00  0.00    -0.213 NA
ATOM      9  C   UNL A   1      31.345  23.568  25.718  1.00  0.00     0.221 A 
ATOM     10  N   UNL A   1      32.297  22.941  25.028  1.00  0.00    -0.206 NA
BRANCH   6  11
ATOM     11  C   UNL A   1      32.294  27.059  25.761  1.00  0.00     0.042 A 
ATOM     12  C   UNL A   1      31.435  27.814  24.936  1.00  0.00     0.129 A 
ATOM     13  C   UNL A   1      31.404  29.209  24.992  1.00  0.00     0.047 A 
ATOM     14  C   UNL A   1      32.209  29.875  25.911  1.00  0.00     0.004 A 
ATOM     15  C   UNL A   1      33.078  27.751  26.695  1.00  0.00     0.014 A 
ATOM     16  C   UNL A   1      33.037  29.148  26.767  1.00  0.00     0.001 A 
BRANCH  12  17
ATOM     17  O   UNL A   1      30.671  27.184  23.985  1.00  0.00    -0.489 OA
BRANCH  17  18
ATOM     18  C   UNL A   1      31.096  27.514  22.658  1.00  0.00     0.257 C 
BRANCH  18  19
ATOM     19  C   UNL A   1      31.474  26.233  21.973  1.00  0.00     0.006 C 
ATOM     20  C   UNL A   1      32.708  25.945  21.539  1.00  0.00     0.007 C 
ENDBRANCH  18  19
ENDBRANCH  17  18
ENDBRANCH  12  17
ENDBRANCH   6  11
BRANCH   9  21
ATOM     21  N   UNL A   1      30.273  22.827  26.123  1.00  0.00    -0.368 N 
ATOM     22  H   UNL A   1      29.795  23.066  26.950  1.00  0.00     0.159 HD
ATOM     23  H   UNL A   1      29.980  22.053  25.591  1.00  0.00     0.159 HD
ENDBRANCH   9  21
ENDBRANCH   3   5
ENDBRANCH   2   3
ENDBRANCH   1   2
BRANCH   1  24
ATOM     24  C   UNL A   1      36.582  20.685  25.376  1.00  0.00     0.275 C 
BRANCH  24  25
ATOM     25  O   UNL A   1      37.794  21.339  24.964  1.00  0.00    -0.458 OA
BRANCH  25  26
ATOM     26  C   UNL A   1      38.871  21.134  25.760  1.00  0.00     0.338 C 
ATOM     27  O   UNL A   1      39.433  20.071  25.966  1.00  0.00    -0.246 OA
BRANCH  26  28
ATOM     28  C   UNL A   1      39.304  22.418  26.353  1.00  0.00     0.060 A 
ATOM     29  C   UNL A   1      38.572  23.579  26.123  1.00  0.00     0.016 A 
ATOM     30  C   UNL A   1      40.507  22.491  27.054  1.00  0.00     0.016 A 
ATOM     31  C   UNL A   1      39.080  24.824  26.501  1.00  0.00     0.010 A 
ATOM     32  C   UNL A   1      40.971  23.732  27.511  1.00  0.00     0.010 A 
ATOM     33  C   UNL A   1      40.294  24.923  27.193  1.00  0.00    -0.014 A 
BRANCH  33  34
ATOM     34  C   UNL A   1      40.899  26.255  27.505  1.00  0.00     0.031 A 
ATOM     35  C   UNL A   1      42.292  26.581  27.016  1.00  0.00     0.074 A 
ATOM     36  C   UNL A   1      40.231  27.182  28.224  1.00  0.00     0.049 A 
ATOM     37  N   UNL A   1      43.079  27.574  27.348  1.00  0.00    -0.248 NA
ATOM     38  C   UNL A   1      42.888  25.656  26.036  1.00  0.00     0.031 C 
ATOM     39  C   UNL A   1      38.873  27.036  28.747  1.00  0.00     0.029 A 
ATOM     40  N   UNL A   1      40.614  28.433  28.649  1.00  0.00    -0.354 N 
ATOM     41  C   UNL A   1      44.288  27.338  26.703  1.00  0.00     0.074 A 
ATOM     42  C   UNL A   1      44.127  26.118  25.940  1.00  0.00     0.031 C 
ATOM     43  C   UNL A   1      38.527  28.158  29.398  1.00  0.00     0.029 A 
ATOM     44  C   UNL A   1      39.663  29.073  29.410  1.00  0.00     0.049 A 
ATOM     45  H   UNL A   1      41.488  28.832  28.430  1.00  0.00     0.167 HD
ATOM     46  C   UNL A   1      45.427  28.071  26.731  1.00  0.00     0.034 A 
ATOM     47  C   UNL A   1      39.705  30.245  30.077  1.00  0.00     0.034 A 
ATOM     48  C   UNL A   1      45.558  29.340  27.395  1.00  0.00     0.049 A 
ATOM     49  C   UNL A   1      40.964  31.068  30.048  1.00  0.00     0.074 A 
ATOM     50  C   UNL A   1      46.664  30.173  27.450  1.00  0.00     0.029 A 
ATOM     51  N   UNL A   1      44.546  29.980  28.091  1.00  0.00    -0.354 N 
ATOM     52  N   UNL A   1      42.090  30.833  29.419  1.00  0.00    -0.248 NA
ATOM     53  C   UNL A   1      40.956  32.326  30.812  1.00  0.00     0.031 C 
ATOM     54  C   UNL A   1      46.315  31.319  28.171  1.00  0.00     0.029 A 
ATOM     55  C   UNL A   1      44.992  31.203  28.559  1.00  0.00     0.049 A 
ATOM     56  H   UNL A   1      43.641  29.617  28.232  1.00  0.00     0.167 HD
ATOM     57  C   UNL A   1      42.913  31.921  29.692  1.00  0.00     0.074 A 
ATOM     58  C   UNL A   1      42.146  32.830  30.519  1.00  0.00     0.031 C 
ATOM     59  C   UNL A   1      44.197  32.134  29.316  1.00  0.00     0.034 A 
BRANCH  46  60
ATOM     60  C   UNL A   1      46.625  27.545  25.984  1.00  0.00     0.023 A 
ATOM     61  C   UNL A   1      46.753  27.792  24.604  1.00  0.00     0.012 A 
ATOM     62  C   UNL A   1      47.659  26.871  26.664  1.00  0.00     0.148 A 
ATOM     63  C   UNL A   1      47.878  27.355  23.906  1.00  0.00     0.002 A 
ATOM     64  C   UNL A   1      48.797  26.475  25.971  1.00  0.00     0.091 A 
ATOM     65  F   UNL A   1      47.511  26.626  27.975  1.00  0.00    -0.205 F 
ATOM     66  C   UNL A   1      48.904  26.707  24.590  1.00  0.00     0.022 A 
BRANCH  64  67
ATOM     67  S   UNL A   1      50.206  25.710  26.783  1.00  0.00     0.127 S 
ATOM     68  O   UNL A   1      49.627  24.454  27.258  1.00  0.00    -0.237 OA
ATOM     69  O   UNL A   1      51.159  25.564  25.682  1.00  0.00    -0.237 OA
ATOM     70  O   UNL A   1      50.622  26.643  27.821  1.00  0.00    -0.744 OA
ENDBRANCH  64  67
ENDBRANCH  46  60
BRANCH  47  71
ATOM     71  C   UNL A   1      38.499  30.729  30.811  1.00  0.00     0.023 A 
ATOM     72  C   UNL A   1      38.432  30.566  32.208  1.00  0.00     0.012 A 
ATOM     73  C   UNL A   1      37.438  31.371  30.145  1.00  0.00     0.148 A 
ATOM     74  C   UNL A   1      37.321  31.013  32.924  1.00  0.00     0.002 A 
ATOM     75  C   UNL A   1      36.364  31.870  30.872  1.00  0.00     0.091 A 
ATOM     76  F   UNL A   1      37.500  31.489  28.810  1.00  0.00    -0.205 F 
ATOM     77  C   UNL A   1      36.295  31.678  32.259  1.00  0.00     0.022 A 
BRANCH  75  78
ATOM     78  S   UNL A   1      35.084  32.868  30.100  1.00  0.00     0.127 S 
ATOM     79  O   UNL A   1      34.233  33.199  31.239  1.00  0.00    -0.237 OA
ATOM     80  O   UNL A   1      35.850  33.991  29.558  1.00  0.00    -0.237 OA
ATOM     81  O   UNL A   1      34.492  32.007  29.084  1.00  0.00    -0.744 OA
ENDBRANCH  75  78
ENDBRANCH  47  71
BRANCH  59  82
ATOM     82  C   UNL A   1      44.849  33.418  29.753  1.00  0.00     0.023 A 
ATOM     83  C   UNL A   1      45.594  33.448  30.948  1.00  0.00     0.012 A 
ATOM     84  C   UNL A   1      44.783  34.571  28.949  1.00  0.00     0.148 A 
ATOM     85  C   UNL A   1      46.241  34.617  31.350  1.00  0.00     0.002 A 
ATOM     86  C   UNL A   1      45.462  35.722  29.336  1.00  0.00     0.091 A 
ATOM     87  F   UNL A   1      44.049  34.529  27.827  1.00  0.00    -0.205 F 
ATOM     88  C   UNL A   1      46.184  35.749  30.540  1.00  0.00     0.022 A 
BRANCH  86  89
ATOM     89  S   UNL A   1      45.506  37.193  28.306  1.00  0.00     0.127 S 
ATOM     90  O   UNL A   1      44.099  37.592  28.295  1.00  0.00    -0.237 OA
ATOM     91  O   UNL A   1      46.385  38.084  29.065  1.00  0.00    -0.237 OA
ATOM     92  O   UNL A   1      46.050  36.763  27.026  1.00  0.00    -0.744 OA
ENDBRANCH  86  89
ENDBRANCH  59  82
ENDBRANCH  33  34
ENDBRANCH  26  28
ENDBRANCH  25  26
ENDBRANCH  24  25
ENDBRANCH   1  24
TORSDOF 19
ENDMDL
