MODEL 1
REMARK VINA RESULT:     -13.5      0.000      0.000
REMARK SMILES Cc1cccc(CC(=O)N2CCCC[C@@H]2C(=O)OCCOC(=O)c2ccc(-c3c4nc(c(-c5cccc(S(=O)(=O)[O-])c5F)c5ccc([nH]5)c(-c5cccc(S(=O)(=O)[O-])c5F)c5nc(c(-c6cccc(S(=O)(=O)[O-])c6F)c6ccc3[nH]6)C=C5)C=C4)cc2)c1
REMARK SMILES IDX 19 1 18 2 16 3 17 4 15 5 10 6 11 7 12 8 14 9 13 10 8 11 9 12
REMARK SMILES IDX 7 13 6 14 1 15 2 16 3 17 87 18 4 19 5 20 20 21 21 22 22 23
REMARK SMILES IDX 23 24 24 25 25 26 86 27 26 28 85 29 27 30 28 31 29 32 79 33
REMARK SMILES IDX 30 34 84 35 78 36 80 37 31 38 83 39 77 40 76 41 32 43 64 44
REMARK SMILES IDX 44 45 63 46 45 47 48 48 62 49 81 50 46 51 47 52 61 54 82 55
REMARK SMILES IDX 49 56 33 57 34 58 42 59 35 60 37 61 43 62 36 63 38 64 39 65
REMARK SMILES IDX 40 66 41 67 65 68 66 69 74 70 67 71 69 72 75 73 68 74 70 75
REMARK SMILES IDX 71 76 72 77 73 78 50 79 51 80 59 81 52 82 54 83 60 84 53 85
REMARK SMILES IDX 55 86 56 87 57 88 58 89
REMARK H PARENT 80 42 48 53
REMARK Flexibility Score: inf
ROOT
ATOM      1  C   UNL A   1      38.173  22.734  25.927  1.00  0.00     0.274 C 
ENDROOT
BRANCH   1   2
ATOM      2  O   UNL A   1      37.482  23.478  24.867  1.00  0.00    -0.461 OA
BRANCH   2   3
ATOM      3  C   UNL A   1      36.221  23.715  24.203  1.00  0.00     0.328 C 
ATOM      4  O   UNL A   1      36.522  23.222  23.070  1.00  0.00    -0.250 OA
BRANCH   3   5
ATOM      5  C   UNL A   1      34.411  24.661  24.964  1.00  0.00     0.195 C 
ATOM      6  N   UNL A   1      32.872  23.808  25.339  1.00  0.00    -0.329 N 
ATOM      7  C   UNL A   1      32.176  24.491  26.469  1.00  0.00     0.120 C 
ATOM      8  C   UNL A   1      31.876  25.988  26.350  1.00  0.00     0.022 C 
ATOM      9  C   UNL A   1      33.574  26.142  24.529  1.00  0.00     0.037 C 
ATOM     10  C   UNL A   1      33.000  26.821  25.772  1.00  0.00     0.005 C 
BRANCH   6  11
ATOM     11  C   UNL A   1      32.158  22.676  24.653  1.00  0.00     0.227 C 
ATOM     12  O   UNL A   1      31.430  23.038  23.707  1.00  0.00    -0.275 OA
BRANCH  11  13
ATOM     13  C   UNL A   1      32.051  20.882  25.010  1.00  0.00     0.135 C 
BRANCH  13  14
ATOM     14  C   UNL A   1      32.602  19.424  24.339  1.00  0.00    -0.038 A 
ATOM     15  C   UNL A   1      34.985  16.369  25.005  1.00  0.00     0.044 C 
ATOM     16  C   UNL A   1      33.923  17.210  24.316  1.00  0.00    -0.051 A 
ATOM     17  C   UNL A   1      33.525  16.972  23.026  1.00  0.00     0.003 A 
ATOM     18  C   UNL A   1      33.415  18.393  24.912  1.00  0.00     0.007 A 
ATOM     19  C   UNL A   1      32.652  17.886  22.416  1.00  0.00     0.001 A 
ATOM     20  C   UNL A   1      32.196  19.080  23.052  1.00  0.00     0.004 A 
ENDBRANCH  13  14
ENDBRANCH  11  13
ENDBRANCH   6  11
ENDBRANCH   3   5
ENDBRANCH   2   3
ENDBRANCH   1   2
BRANCH   1  21
ATOM     21  C   UNL A   1      38.633  21.408  25.355  1.00  0.00     0.275 C 
BRANCH  21  22
ATOM     22  O   UNL A   1      39.412  20.430  26.154  1.00  0.00    -0.458 OA
BRANCH  22  23
ATOM     23  C   UNL A   1      40.706  19.977  26.163  1.00  0.00     0.338 C 
ATOM     24  O   UNL A   1      41.012  18.917  25.636  1.00  0.00    -0.246 OA
BRANCH  23  25
ATOM     25  C   UNL A   1      41.775  20.841  26.758  1.00  0.00     0.060 A 
ATOM     26  C   UNL A   1      41.534  21.638  28.334  1.00  0.00     0.016 A 
ATOM     27  C   UNL A   1      42.693  21.645  25.522  1.00  0.00     0.016 A 
ATOM     28  C   UNL A   1      42.010  23.370  28.621  1.00  0.00     0.010 A 
ATOM     29  C   UNL A   1      43.024  23.402  25.718  1.00  0.00     0.010 A 
ATOM     30  C   UNL A   1      42.716  24.348  27.302  1.00  0.00    -0.014 A 
BRANCH  30  31
ATOM     31  C   UNL A   1      43.026  25.948  27.541  1.00  0.00     0.031 A 
ATOM     32  C   UNL A   1      41.960  27.099  27.639  1.00  0.00     0.074 A 
ATOM     33  C   UNL A   1      44.241  26.370  28.023  1.00  0.00     0.049 A 
ATOM     34  N   UNL A   1      41.965  28.045  28.536  1.00  0.00    -0.248 NA
ATOM     35  C   UNL A   1      40.754  27.263  26.832  1.00  0.00     0.031 C 
ATOM     36  C   UNL A   1      44.425  27.280  29.189  1.00  0.00     0.029 A 
ATOM     37  N   UNL A   1      45.545  25.932  27.843  1.00  0.00    -0.354 N 
ATOM     38  C   UNL A   1      40.717  28.653  28.634  1.00  0.00     0.074 A 
ATOM     39  C   UNL A   1      39.956  28.055  27.579  1.00  0.00     0.031 C 
ATOM     40  C   UNL A   1      45.723  27.423  29.494  1.00  0.00     0.029 A 
ATOM     41  C   UNL A   1      46.467  26.827  28.419  1.00  0.00     0.049 A 
ATOM     42  H   UNL A   1      45.793  25.104  27.372  1.00  0.00     0.167 HD
ATOM     43  C   UNL A   1      40.513  29.605  29.598  1.00  0.00     0.034 A 
ATOM     44  C   UNL A   1      47.372  27.527  27.665  1.00  0.00     0.034 A 
ATOM     45  C   UNL A   1      41.819  30.222  29.874  1.00  0.00     0.049 A 
ATOM     46  C   UNL A   1      46.996  29.014  27.554  1.00  0.00     0.074 A 
ATOM     47  C   UNL A   1      42.745  30.206  30.895  1.00  0.00     0.029 A 
ATOM     48  N   UNL A   1      42.431  30.849  28.794  1.00  0.00    -0.354 N 
ATOM     49  N   UNL A   1      46.010  29.590  28.193  1.00  0.00    -0.248 NA
ATOM     50  C   UNL A   1      47.706  29.968  26.702  1.00  0.00     0.031 C 
ATOM     51  C   UNL A   1      43.983  30.666  30.340  1.00  0.00     0.029 A 
ATOM     52  C   UNL A   1      43.780  31.038  29.017  1.00  0.00     0.049 A 
ATOM     53  H   UNL A   1      41.962  31.124  27.973  1.00  0.00     0.167 HD
ATOM     54  C   UNL A   1      45.787  30.843  27.691  1.00  0.00     0.074 A 
ATOM     55  C   UNL A   1      46.955  31.072  26.856  1.00  0.00     0.031 C 
ATOM     56  C   UNL A   1      44.633  31.550  27.937  1.00  0.00     0.034 A 
BRANCH  43  57
ATOM     57  C   UNL A   1      39.232  30.139  30.277  1.00  0.00     0.023 A 
ATOM     58  C   UNL A   1      38.313  29.158  30.751  1.00  0.00     0.012 A 
ATOM     59  C   UNL A   1      38.768  31.483  30.347  1.00  0.00     0.148 A 
ATOM     60  C   UNL A   1      37.033  29.460  31.240  1.00  0.00     0.002 A 
ATOM     61  C   UNL A   1      37.481  31.789  30.862  1.00  0.00     0.091 A 
ATOM     62  F   UNL A   1      39.553  32.464  29.882  1.00  0.00    -0.205 F 
ATOM     63  C   UNL A   1      36.615  30.775  31.297  1.00  0.00     0.022 A 
BRANCH  61  64
ATOM     64  S   UNL A   1      36.780  33.456  31.008  1.00  0.00     0.127 S 
ATOM     65  O   UNL A   1      35.573  33.222  31.802  1.00  0.00    -0.237 OA
ATOM     66  O   UNL A   1      37.830  34.181  31.726  1.00  0.00    -0.237 OA
ATOM     67  O   UNL A   1      36.541  33.921  29.649  1.00  0.00    -0.744 OA
ENDBRANCH  61  64
ENDBRANCH  43  57
BRANCH  44  68
ATOM     68  C   UNL A   1      47.889  26.669  26.548  1.00  0.00     0.023 A 
ATOM     69  C   UNL A   1      47.414  26.966  25.242  1.00  0.00     0.012 A 
ATOM     70  C   UNL A   1      49.178  26.153  26.698  1.00  0.00     0.148 A 
ATOM     71  C   UNL A   1      48.296  26.976  24.154  1.00  0.00     0.002 A 
ATOM     72  C   UNL A   1      50.068  26.254  25.638  1.00  0.00     0.091 A 
ATOM     73  F   UNL A   1      49.590  25.763  27.912  1.00  0.00    -0.205 F 
ATOM     74  C   UNL A   1      49.645  26.683  24.368  1.00  0.00     0.022 A 
BRANCH  72  75
ATOM     75  S   UNL A   1      51.808  26.164  26.056  1.00  0.00     0.127 S 
ATOM     76  O   UNL A   1      51.987  24.764  26.448  1.00  0.00    -0.237 OA
ATOM     77  O   UNL A   1      52.462  26.527  24.802  1.00  0.00    -0.237 OA
ATOM     78  O   UNL A   1      51.944  27.119  27.147  1.00  0.00    -0.744 OA
ENDBRANCH  72  75
ENDBRANCH  44  68
BRANCH  56  79
ATOM     79  C   UNL A   1      44.229  32.803  27.156  1.00  0.00     0.023 A 
ATOM     80  C   UNL A   1      43.958  32.757  25.773  1.00  0.00     0.012 A 
ATOM     81  C   UNL A   1      44.029  34.065  27.778  1.00  0.00     0.148 A 
ATOM     82  C   UNL A   1      43.716  33.904  25.012  1.00  0.00     0.002 A 
ATOM     83  C   UNL A   1      43.640  35.182  27.037  1.00  0.00     0.091 A 
ATOM     84  F   UNL A   1      44.232  34.207  29.094  1.00  0.00    -0.205 F 
ATOM     85  C   UNL A   1      43.556  35.121  25.647  1.00  0.00     0.022 A 
BRANCH  83  86
ATOM     86  S   UNL A   1      43.101  36.711  27.815  1.00  0.00     0.127 S 
ATOM     87  O   UNL A   1      44.376  37.333  28.166  1.00  0.00    -0.237 OA
ATOM     88  O   UNL A   1      42.381  37.371  26.724  1.00  0.00    -0.237 OA
ATOM     89  O   UNL A   1      42.259  36.309  28.932  1.00  0.00    -0.744 OA
ENDBRANCH  83  86
ENDBRANCH  56  79
ENDBRANCH  30  31
ENDBRANCH  23  25
ENDBRANCH  22  23
ENDBRANCH  21  22
ENDBRANCH   1  21
TORSDOF 17
ENDMDL
MODEL 2
REMARK VINA RESULT:     -13.4      1.868      3.844
REMARK SMILES Cc1cccc(CC(=O)N2CCCC[C@@H]2C(=O)OCCOC(=O)c2ccc(-c3c4nc(c(-c5cccc(S(=O)(=O)[O-])c5F)c5ccc([nH]5)c(-c5cccc(S(=O)(=O)[O-])c5F)c5nc(c(-c6cccc(S(=O)(=O)[O-])c6F)c6ccc3[nH]6)C=C5)C=C4)cc2)c1
REMARK SMILES IDX 19 1 18 2 16 3 17 4 15 5 10 6 11 7 12 8 14 9 13 10 8 11 9 12
REMARK SMILES IDX 7 13 6 14 1 15 2 16 3 17 87 18 4 19 5 20 20 21 21 22 22 23
REMARK SMILES IDX 23 24 24 25 25 26 86 27 26 28 85 29 27 30 28 31 29 32 79 33
REMARK SMILES IDX 30 34 84 35 78 36 80 37 31 38 83 39 77 40 76 41 32 43 64 44
REMARK SMILES IDX 44 45 63 46 45 47 48 48 62 49 81 50 46 51 47 52 61 54 82 55
REMARK SMILES IDX 49 56 33 57 34 58 42 59 35 60 37 61 43 62 36 63 38 64 39 65
REMARK SMILES IDX 40 66 41 67 65 68 66 69 74 70 67 71 69 72 75 73 68 74 70 75
REMARK SMILES IDX 71 76 72 77 73 78 50 79 51 80 59 81 52 82 54 83 60 84 53 85
REMARK SMILES IDX 55 86 56 87 57 88 58 89
REMARK H PARENT 80 42 48 53
REMARK Flexibility Score: inf
ROOT
ATOM      1  C   UNL A   1      38.058  22.754  25.867  1.00  0.00     0.274 C 
ENDROOT
BRANCH   1   2
ATOM      2  O   UNL A   1      37.310  23.443  24.809  1.00  0.00    -0.461 OA
BRANCH   2   3
ATOM      3  C   UNL A   1      36.182  23.377  23.909  1.00  0.00     0.328 C 
ATOM      4  O   UNL A   1      36.812  23.033  22.860  1.00  0.00    -0.250 OA
BRANCH   3   5
ATOM      5  C   UNL A   1      34.076  23.786  24.294  1.00  0.00     0.195 C 
ATOM      6  N   UNL A   1      33.035  24.883  23.318  1.00  0.00    -0.329 N 
ATOM      7  C   UNL A   1      31.627  24.387  23.328  1.00  0.00     0.120 C 
ATOM      8  C   UNL A   1      30.940  24.150  24.675  1.00  0.00     0.022 C 
ATOM      9  C   UNL A   1      33.183  24.123  25.768  1.00  0.00     0.037 C 
ATOM     10  C   UNL A   1      31.801  23.473  25.721  1.00  0.00     0.005 C 
BRANCH   6  11
ATOM     11  C   UNL A   1      33.313  26.203  22.655  1.00  0.00     0.227 C 
ATOM     12  O   UNL A   1      33.577  26.111  21.439  1.00  0.00    -0.275 OA
BRANCH  11  13
ATOM     13  C   UNL A   1      33.463  27.909  23.307  1.00  0.00     0.135 C 
BRANCH  13  14
ATOM     14  C   UNL A   1      33.223  28.728  24.773  1.00  0.00    -0.038 A 
ATOM     15  C   UNL A   1      31.298  31.744  26.403  1.00  0.00     0.044 C 
ATOM     16  C   UNL A   1      32.156  30.492  26.321  1.00  0.00    -0.051 A 
ATOM     17  C   UNL A   1      32.962  30.090  27.355  1.00  0.00     0.003 A 
ATOM     18  C   UNL A   1      32.301  29.772  25.108  1.00  0.00     0.007 A 
ATOM     19  C   UNL A   1      33.834  29.010  27.143  1.00  0.00     0.001 A 
ATOM     20  C   UNL A   1      33.961  28.340  25.889  1.00  0.00     0.004 A 
ENDBRANCH  13  14
ENDBRANCH  11  13
ENDBRANCH   6  11
ENDBRANCH   3   5
ENDBRANCH   2   3
ENDBRANCH   1   2
BRANCH   1  21
ATOM     21  C   UNL A   1      38.554  21.432  25.317  1.00  0.00     0.275 C 
BRANCH  21  22
ATOM     22  O   UNL A   1      39.325  20.471  26.144  1.00  0.00    -0.458 OA
BRANCH  22  23
ATOM     23  C   UNL A   1      40.611  19.999  26.159  1.00  0.00     0.338 C 
ATOM     24  O   UNL A   1      40.900  18.923  25.654  1.00  0.00    -0.246 OA
BRANCH  23  25
ATOM     25  C   UNL A   1      41.695  20.859  26.731  1.00  0.00     0.060 A 
ATOM     26  C   UNL A   1      41.509  21.617  28.334  1.00  0.00     0.016 A 
ATOM     27  C   UNL A   1      42.556  21.702  25.480  1.00  0.00     0.016 A 
ATOM     28  C   UNL A   1      41.981  23.347  28.643  1.00  0.00     0.010 A 
ATOM     29  C   UNL A   1      42.878  23.457  25.704  1.00  0.00     0.010 A 
ATOM     30  C   UNL A   1      42.625  24.362  27.321  1.00  0.00    -0.014 A 
BRANCH  30  31
ATOM     31  C   UNL A   1      42.929  25.959  27.585  1.00  0.00     0.031 A 
ATOM     32  C   UNL A   1      41.857  27.100  27.733  1.00  0.00     0.074 A 
ATOM     33  C   UNL A   1      44.152  26.381  28.046  1.00  0.00     0.049 A 
ATOM     34  N   UNL A   1      41.877  28.027  28.649  1.00  0.00    -0.248 NA
ATOM     35  C   UNL A   1      40.632  27.272  26.959  1.00  0.00     0.031 C 
ATOM     36  C   UNL A   1      44.358  27.268  29.226  1.00  0.00     0.029 A 
ATOM     37  N   UNL A   1      45.455  25.956  27.826  1.00  0.00    -0.354 N 
ATOM     38  C   UNL A   1      40.629  28.624  28.790  1.00  0.00     0.074 A 
ATOM     39  C   UNL A   1      39.846  28.042  27.741  1.00  0.00     0.031 C 
ATOM     40  C   UNL A   1      45.662  27.414  29.502  1.00  0.00     0.029 A 
ATOM     41  C   UNL A   1      46.384  26.846  28.397  1.00  0.00     0.049 A 
ATOM     42  H   UNL A   1      45.697  25.140  27.332  1.00  0.00     0.167 HD
ATOM     43  C   UNL A   1      40.441  29.555  29.778  1.00  0.00     0.034 A 
ATOM     44  C   UNL A   1      47.265  27.568  27.637  1.00  0.00     0.034 A 
ATOM     45  C   UNL A   1      41.749  30.176  30.035  1.00  0.00     0.049 A 
ATOM     46  C   UNL A   1      46.877  29.054  27.566  1.00  0.00     0.074 A 
ATOM     47  C   UNL A   1      42.700  30.145  31.032  1.00  0.00     0.029 A 
ATOM     48  N   UNL A   1      42.330  30.829  28.953  1.00  0.00    -0.354 N 
ATOM     49  N   UNL A   1      45.902  29.609  28.240  1.00  0.00    -0.248 NA
ATOM     50  C   UNL A   1      47.558  30.031  26.717  1.00  0.00     0.031 C 
ATOM     51  C   UNL A   1      43.920  30.626  30.457  1.00  0.00     0.029 A 
ATOM     52  C   UNL A   1      43.683  31.023  29.147  1.00  0.00     0.049 A 
ATOM     53  H   UNL A   1      41.840  31.117  28.150  1.00  0.00     0.167 HD
ATOM     54  C   UNL A   1      45.658  30.871  27.769  1.00  0.00     0.074 A 
ATOM     55  C   UNL A   1      46.804  31.126  26.912  1.00  0.00     0.031 C 
ATOM     56  C   UNL A   1      44.505  31.564  28.058  1.00  0.00     0.034 A 
BRANCH  43  57
ATOM     57  C   UNL A   1      39.173  30.064  30.499  1.00  0.00     0.023 A 
ATOM     58  C   UNL A   1      38.551  29.154  31.400  1.00  0.00     0.012 A 
ATOM     59  C   UNL A   1      38.448  31.266  30.259  1.00  0.00     0.148 A 
ATOM     60  C   UNL A   1      37.308  29.386  32.011  1.00  0.00     0.002 A 
ATOM     61  C   UNL A   1      37.201  31.509  30.893  1.00  0.00     0.091 A 
ATOM     62  F   UNL A   1      38.942  32.158  29.389  1.00  0.00    -0.205 F 
ATOM     63  C   UNL A   1      36.632  30.564  31.758  1.00  0.00     0.022 A 
BRANCH  61  64
ATOM     64  S   UNL A   1      36.189  32.999  30.674  1.00  0.00     0.127 S 
ATOM     65  O   UNL A   1      36.472  33.371  29.287  1.00  0.00    -0.237 OA
ATOM     66  O   UNL A   1      34.830  32.495  30.887  1.00  0.00    -0.237 OA
ATOM     67  O   UNL A   1      36.645  33.955  31.672  1.00  0.00    -0.744 OA
ENDBRANCH  61  64
ENDBRANCH  43  57
BRANCH  44  68
ATOM     68  C   UNL A   1      47.761  26.738  26.490  1.00  0.00     0.023 A 
ATOM     69  C   UNL A   1      47.310  27.104  25.193  1.00  0.00     0.012 A 
ATOM     70  C   UNL A   1      49.029  26.169  26.629  1.00  0.00     0.148 A 
ATOM     71  C   UNL A   1      48.202  27.125  24.114  1.00  0.00     0.002 A 
ATOM     72  C   UNL A   1      49.932  26.279  25.582  1.00  0.00     0.091 A 
ATOM     73  F   UNL A   1      49.414  25.715  27.829  1.00  0.00    -0.205 F 
ATOM     74  C   UNL A   1      49.537  26.774  24.327  1.00  0.00     0.022 A 
BRANCH  72  75
ATOM     75  S   UNL A   1      51.664  26.108  26.009  1.00  0.00     0.127 S 
ATOM     76  O   UNL A   1      51.803  26.957  27.194  1.00  0.00    -0.237 OA
ATOM     77  O   UNL A   1      51.793  24.678  26.274  1.00  0.00    -0.237 OA
ATOM     78  O   UNL A   1      52.354  26.603  24.826  1.00  0.00    -0.744 OA
ENDBRANCH  72  75
ENDBRANCH  44  68
BRANCH  56  79
ATOM     79  C   UNL A   1      44.074  32.830  27.313  1.00  0.00     0.023 A 
ATOM     80  C   UNL A   1      43.994  32.869  25.906  1.00  0.00     0.012 A 
ATOM     81  C   UNL A   1      43.657  34.011  27.984  1.00  0.00     0.148 A 
ATOM     82  C   UNL A   1      43.731  34.044  25.196  1.00  0.00     0.002 A 
ATOM     83  C   UNL A   1      43.249  35.141  27.271  1.00  0.00     0.091 A 
ATOM     84  F   UNL A   1      43.668  34.066  29.321  1.00  0.00    -0.205 F 
ATOM     85  C   UNL A   1      43.357  35.184  25.882  1.00  0.00     0.022 A 
BRANCH  83  86
ATOM     86  S   UNL A   1      42.449  36.541  28.066  1.00  0.00     0.127 S 
ATOM     87  O   UNL A   1      42.125  37.389  26.920  1.00  0.00    -0.237 OA
ATOM     88  O   UNL A   1      41.292  35.910  28.704  1.00  0.00    -0.237 OA
ATOM     89  O   UNL A   1      43.429  37.077  28.998  1.00  0.00    -0.744 OA
ENDBRANCH  83  86
ENDBRANCH  56  79
ENDBRANCH  30  31
ENDBRANCH  23  25
ENDBRANCH  22  23
ENDBRANCH  21  22
ENDBRANCH   1  21
TORSDOF 17
ENDMDL
MODEL 3
REMARK VINA RESULT:     -13.3      5.123     11.192
REMARK SMILES Cc1cccc(CC(=O)N2CCCC[C@@H]2C(=O)OCCOC(=O)c2ccc(-c3c4nc(c(-c5cccc(S(=O)(=O)[O-])c5F)c5ccc([nH]5)c(-c5cccc(S(=O)(=O)[O-])c5F)c5nc(c(-c6cccc(S(=O)(=O)[O-])c6F)c6ccc3[nH]6)C=C5)C=C4)cc2)c1
REMARK SMILES IDX 19 1 18 2 16 3 17 4 15 5 10 6 11 7 12 8 14 9 13 10 8 11 9 12
REMARK SMILES IDX 7 13 6 14 1 15 2 16 3 17 87 18 4 19 5 20 20 21 21 22 22 23
REMARK SMILES IDX 23 24 24 25 25 26 86 27 26 28 85 29 27 30 28 31 29 32 79 33
REMARK SMILES IDX 30 34 84 35 78 36 80 37 31 38 83 39 77 40 76 41 32 43 64 44
REMARK SMILES IDX 44 45 63 46 45 47 48 48 62 49 81 50 46 51 47 52 61 54 82 55
REMARK SMILES IDX 49 56 33 57 34 58 42 59 35 60 37 61 43 62 36 63 38 64 39 65
REMARK SMILES IDX 40 66 41 67 65 68 66 69 74 70 67 71 69 72 75 73 68 74 70 75
REMARK SMILES IDX 71 76 72 77 73 78 50 79 51 80 59 81 52 82 54 83 60 84 53 85
REMARK SMILES IDX 55 86 56 87 57 88 58 89
REMARK H PARENT 80 42 48 53
REMARK Flexibility Score: inf
ROOT
ATOM      1  C   UNL A   1      33.121  29.491  27.135  1.00  0.00     0.274 C 
ENDROOT
BRANCH   1   2
ATOM      2  O   UNL A   1      32.940  29.278  25.694  1.00  0.00    -0.461 OA
BRANCH   2   3
ATOM      3  C   UNL A   1      33.250  28.433  24.564  1.00  0.00     0.328 C 
ATOM      4  O   UNL A   1      33.077  29.295  23.645  1.00  0.00    -0.250 OA
BRANCH   3   5
ATOM      5  C   UNL A   1      33.805  26.326  24.521  1.00  0.00     0.195 C 
ATOM      6  N   UNL A   1      32.857  25.018  23.729  1.00  0.00    -0.329 N 
ATOM      7  C   UNL A   1      33.779  23.958  23.224  1.00  0.00     0.120 C 
ATOM      8  C   UNL A   1      34.761  23.310  24.202  1.00  0.00     0.022 C 
ATOM      9  C   UNL A   1      34.426  25.238  25.752  1.00  0.00     0.037 C 
ATOM     10  C   UNL A   1      35.447  24.272  25.151  1.00  0.00     0.005 C 
BRANCH   6  11
ATOM     11  C   UNL A   1      31.377  24.773  23.625  1.00  0.00     0.227 C 
ATOM     12  O   UNL A   1      31.079  23.743  22.987  1.00  0.00    -0.275 OA
BRANCH  11  13
ATOM     13  C   UNL A   1      29.919  25.755  24.145  1.00  0.00     0.135 C 
BRANCH  13  14
ATOM     14  C   UNL A   1      29.045  27.104  23.602  1.00  0.00    -0.038 A 
ATOM     15  C   UNL A   1      29.445  30.606  21.858  1.00  0.00     0.044 C 
ATOM     16  C   UNL A   1      28.747  29.389  22.444  1.00  0.00    -0.051 A 
ATOM     17  C   UNL A   1      27.419  29.400  22.782  1.00  0.00     0.003 A 
ATOM     18  C   UNL A   1      29.475  28.236  22.835  1.00  0.00     0.007 A 
ATOM     19  C   UNL A   1      26.890  28.288  23.456  1.00  0.00     0.001 A 
ATOM     20  C   UNL A   1      27.677  27.165  23.853  1.00  0.00     0.004 A 
ENDBRANCH  13  14
ENDBRANCH  11  13
ENDBRANCH   6  11
ENDBRANCH   3   5
ENDBRANCH   2   3
ENDBRANCH   1   2
BRANCH   1  21
ATOM     21  C   UNL A   1      33.796  30.833  27.338  1.00  0.00     0.275 C 
BRANCH  21  22
ATOM     22  O   UNL A   1      33.025  32.094  27.467  1.00  0.00    -0.458 OA
BRANCH  22  23
ATOM     23  C   UNL A   1      33.244  33.326  28.026  1.00  0.00     0.338 C 
ATOM     24  O   UNL A   1      32.397  34.207  27.974  1.00  0.00    -0.246 OA
BRANCH  23  25
ATOM     25  C   UNL A   1      34.511  33.565  28.788  1.00  0.00     0.060 A 
ATOM     26  C   UNL A   1      36.098  33.413  27.991  1.00  0.00     0.016 A 
ATOM     27  C   UNL A   1      34.340  33.100  30.453  1.00  0.00     0.016 A 
ATOM     28  C   UNL A   1      37.498  32.565  28.785  1.00  0.00     0.010 A 
ATOM     29  C   UNL A   1      35.647  32.114  31.198  1.00  0.00     0.010 A 
ATOM     30  C   UNL A   1      37.312  31.820  30.398  1.00  0.00    -0.014 A 
BRANCH  30  31
ATOM     31  C   UNL A   1      38.549  30.948  31.049  1.00  0.00     0.031 A 
ATOM     32  C   UNL A   1      39.008  29.511  30.608  1.00  0.00     0.074 A 
ATOM     33  C   UNL A   1      39.516  31.553  31.814  1.00  0.00     0.049 A 
ATOM     34  N   UNL A   1      40.247  29.148  30.425  1.00  0.00    -0.248 NA
ATOM     35  C   UNL A   1      38.159  28.381  30.244  1.00  0.00     0.031 C 
ATOM     36  C   UNL A   1      40.984  31.418  31.594  1.00  0.00     0.029 A 
ATOM     37  N   UNL A   1      39.498  32.599  32.726  1.00  0.00    -0.354 N 
ATOM     38  C   UNL A   1      40.324  27.987  29.662  1.00  0.00     0.074 A 
ATOM     39  C   UNL A   1      38.958  27.586  29.501  1.00  0.00     0.031 C 
ATOM     40  C   UNL A   1      41.675  32.212  32.425  1.00  0.00     0.029 A 
ATOM     41  C   UNL A   1      40.735  32.720  33.386  1.00  0.00     0.049 A 
ATOM     42  H   UNL A   1      38.720  33.179  32.891  1.00  0.00     0.167 HD
ATOM     43  C   UNL A   1      41.555  27.515  29.288  1.00  0.00     0.034 A 
ATOM     44  C   UNL A   1      40.866  32.512  34.734  1.00  0.00     0.034 A 
ATOM     45  C   UNL A   1      42.514  27.965  30.307  1.00  0.00     0.049 A 
ATOM     46  C   UNL A   1      41.577  31.183  35.041  1.00  0.00     0.074 A 
ATOM     47  C   UNL A   1      43.530  28.894  30.394  1.00  0.00     0.029 A 
ATOM     48  N   UNL A   1      42.274  27.519  31.602  1.00  0.00    -0.354 N 
ATOM     49  N   UNL A   1      42.110  30.391  34.147  1.00  0.00    -0.248 NA
ATOM     50  C   UNL A   1      41.731  30.640  36.391  1.00  0.00     0.031 C 
ATOM     51  C   UNL A   1      43.759  29.127  31.788  1.00  0.00     0.029 A 
ATOM     52  C   UNL A   1      42.947  28.283  32.534  1.00  0.00     0.049 A 
ATOM     53  H   UNL A   1      41.696  26.754  31.826  1.00  0.00     0.167 HD
ATOM     54  C   UNL A   1      42.433  29.187  34.711  1.00  0.00     0.074 A 
ATOM     55  C   UNL A   1      42.296  29.448  36.135  1.00  0.00     0.031 C 
ATOM     56  C   UNL A   1      42.708  28.064  33.965  1.00  0.00     0.034 A 
BRANCH  43  57
ATOM     57  C   UNL A   1      42.007  26.588  28.137  1.00  0.00     0.023 A 
ATOM     58  C   UNL A   1      41.673  27.010  26.818  1.00  0.00     0.012 A 
ATOM     59  C   UNL A   1      42.570  25.283  28.229  1.00  0.00     0.148 A 
ATOM     60  C   UNL A   1      41.857  26.217  25.674  1.00  0.00     0.002 A 
ATOM     61  C   UNL A   1      42.774  24.490  27.069  1.00  0.00     0.091 A 
ATOM     62  F   UNL A   1      42.871  24.791  29.438  1.00  0.00    -0.205 F 
ATOM     63  C   UNL A   1      42.409  24.957  25.798  1.00  0.00     0.022 A 
BRANCH  61  64
ATOM     64  S   UNL A   1      43.485  22.821  27.055  1.00  0.00     0.127 S 
ATOM     65  O   UNL A   1      44.883  23.072  27.414  1.00  0.00    -0.237 OA
ATOM     66  O   UNL A   1      42.719  22.139  28.099  1.00  0.00    -0.237 OA
ATOM     67  O   UNL A   1      43.280  22.299  25.711  1.00  0.00    -0.744 OA
ENDBRANCH  61  64
ENDBRANCH  43  57
BRANCH  44  68
ATOM     68  C   UNL A   1      39.671  33.054  35.461  1.00  0.00     0.023 A 
ATOM     69  C   UNL A   1      38.750  32.102  35.976  1.00  0.00     0.012 A 
ATOM     70  C   UNL A   1      39.843  34.264  36.137  1.00  0.00     0.148 A 
ATOM     71  C   UNL A   1      38.212  32.263  37.259  1.00  0.00     0.002 A 
ATOM     72  C   UNL A   1      39.383  34.374  37.441  1.00  0.00     0.091 A 
ATOM     73  F   UNL A   1      40.620  35.211  35.595  1.00  0.00    -0.205 F 
ATOM     74  C   UNL A   1      38.585  33.372  38.020  1.00  0.00     0.022 A 
BRANCH  72  75
ATOM     75  S   UNL A   1      40.143  35.650  38.442  1.00  0.00     0.127 S 
ATOM     76  O   UNL A   1      41.573  35.347  38.345  1.00  0.00    -0.237 OA
ATOM     77  O   UNL A   1      39.740  36.879  37.764  1.00  0.00    -0.237 OA
ATOM     78  O   UNL A   1      39.569  35.432  39.763  1.00  0.00    -0.744 OA
ENDBRANCH  72  75
ENDBRANCH  44  68
BRANCH  56  79
ATOM     79  C   UNL A   1      42.772  26.654  34.558  1.00  0.00     0.023 A 
ATOM     80  C   UNL A   1      41.641  26.042  35.136  1.00  0.00     0.012 A 
ATOM     81  C   UNL A   1      43.940  25.848  34.497  1.00  0.00     0.148 A 
ATOM     82  C   UNL A   1      41.702  24.814  35.799  1.00  0.00     0.002 A 
ATOM     83  C   UNL A   1      43.956  24.557  35.029  1.00  0.00     0.091 A 
ATOM     84  F   UNL A   1      45.061  26.326  33.942  1.00  0.00    -0.205 F 
ATOM     85  C   UNL A   1      42.864  24.068  35.745  1.00  0.00     0.022 A 
BRANCH  83  86
ATOM     86  S   UNL A   1      45.305  23.408  34.723  1.00  0.00     0.127 S 
ATOM     87  O   UNL A   1      45.006  22.338  35.673  1.00  0.00    -0.237 OA
ATOM     88  O   UNL A   1      45.091  23.054  33.319  1.00  0.00    -0.237 OA
ATOM     89  O   UNL A   1      46.526  24.159  34.973  1.00  0.00    -0.744 OA
ENDBRANCH  83  86
ENDBRANCH  56  79
ENDBRANCH  30  31
ENDBRANCH  23  25
ENDBRANCH  22  23
ENDBRANCH  21  22
ENDBRANCH   1  21
TORSDOF 17
ENDMDL
