MODEL 1
REMARK VINA RESULT:      -9.5      0.000      0.000
REMARK SMILES C[C@H](Cc1ccco1)[NH2+]Cc1cc(C(=O)OCCOC(=O)c2ccc(-c3c4nc(c(-c5cccc(S(=O)(=O)[O-])c5F)c5ccc([nH]5)c(-c5cccc(S(=O)(=O)[O-])c5F)c5nc(c(-c6cccc(S(=O)(=O)[O-])c6F)c6ccc3[nH]6)C=C5)C=C4)cc2)cs1
REMARK SMILES IDX 17 1 16 2 14 3 15 4 13 5 11 6 12 7 86 8 85 9 10 10 9 11 2 14
REMARK SMILES IDX 1 15 3 16 4 17 5 18 8 19 6 20 7 21 18 22 19 23 20 24 21 25
REMARK SMILES IDX 22 26 23 27 84 28 24 29 83 30 25 31 26 32 27 33 77 34 28 35
REMARK SMILES IDX 82 36 76 37 78 38 29 39 81 40 75 41 74 42 30 44 62 45 42 46
REMARK SMILES IDX 61 47 43 48 46 49 60 50 79 51 44 52 45 53 59 55 80 56 47 57
REMARK SMILES IDX 31 58 32 59 40 60 33 61 35 62 41 63 34 64 36 65 37 66 38 67
REMARK SMILES IDX 39 68 63 69 64 70 72 71 65 72 67 73 73 74 66 75 68 76 69 77
REMARK SMILES IDX 70 78 71 79 48 80 49 81 57 82 50 83 52 84 58 85 51 86 53 87
REMARK SMILES IDX 54 88 55 89 56 90
REMARK H PARENT 9 12 9 13 78 43 46 54
REMARK Flexibility Score: inf
ROOT
ATOM      1  C   UNL A   1      34.424  34.595  27.897  1.00  0.00     0.275 C 
ENDROOT
BRANCH   1   2
ATOM      2  O   UNL A   1      33.291  34.494  28.781  1.00  0.00    -0.458 OA
BRANCH   2   3
ATOM      3  C   UNL A   1      32.884  35.669  29.350  1.00  0.00     0.339 C 
ATOM      4  O   UNL A   1      32.149  36.478  28.809  1.00  0.00    -0.246 OA
BRANCH   3   5
ATOM      5  C   UNL A   1      33.398  35.854  30.709  1.00  0.00     0.071 A 
ATOM      6  C   UNL A   1      34.351  35.378  32.807  1.00  0.00     0.060 A 
ATOM      7  C   UNL A   1      34.059  34.892  31.545  1.00  0.00     0.037 A 
ATOM      8  S   UNL A   1      33.886  37.019  32.965  1.00  0.00    -0.142 S 
ATOM      9  C   UNL A   1      33.278  37.063  31.373  1.00  0.00     0.081 A 
BRANCH   6  10
ATOM     10  C   UNL A   1      35.006  34.670  33.960  1.00  0.00     0.308 C 
BRANCH  10  11
ATOM     11  N   UNL A   1      35.315  33.265  33.686  1.00  0.00    -0.339 N 
ATOM     12  H   UNL A   1      35.125  32.729  34.532  1.00  0.00     0.346 HD
ATOM     13  H   UNL A   1      34.732  32.995  32.894  1.00  0.00     0.346 HD
BRANCH  11  14
ATOM     14  C   UNL A   1      36.707  32.998  33.280  1.00  0.00     0.187 C 
ATOM     15  C   UNL A   1      36.859  32.655  31.795  1.00  0.00     0.075 C 
BRANCH  14  16
ATOM     16  C   UNL A   1      37.328  31.911  34.193  1.00  0.00     0.140 C 
BRANCH  16  17
ATOM     17  C   UNL A   1      37.875  32.414  35.482  1.00  0.00     0.109 A 
ATOM     18  C   UNL A   1      39.127  32.424  36.058  1.00  0.00     0.046 A 
ATOM     19  O   UNL A   1      36.972  32.991  36.328  1.00  0.00    -0.469 OA
ATOM     20  C   UNL A   1      38.984  33.065  37.313  1.00  0.00     0.042 A 
ATOM     21  C   UNL A   1      37.656  33.397  37.426  1.00  0.00     0.195 A 
ENDBRANCH  16  17
ENDBRANCH  14  16
ENDBRANCH  11  14
ENDBRANCH  10  11
ENDBRANCH   6  10
ENDBRANCH   3   5
ENDBRANCH   2   3
ENDBRANCH   1   2
BRANCH   1  22
ATOM     22  C   UNL A   1      35.324  33.360  27.975  1.00  0.00     0.275 C 
BRANCH  22  23
ATOM     23  O   UNL A   1      34.660  32.265  28.629  1.00  0.00    -0.458 OA
BRANCH  23  24
ATOM     24  C   UNL A   1      34.935  31.037  28.132  1.00  0.00     0.338 C 
ATOM     25  O   UNL A   1      34.348  30.454  27.237  1.00  0.00    -0.246 OA
BRANCH  24  26
ATOM     26  C   UNL A   1      36.164  30.520  28.753  1.00  0.00     0.060 A 
ATOM     27  C   UNL A   1      37.384  30.991  28.269  1.00  0.00     0.016 A 
ATOM     28  C   UNL A   1      36.127  29.518  29.725  1.00  0.00     0.016 A 
ATOM     29  C   UNL A   1      38.579  30.458  28.744  1.00  0.00     0.010 A 
ATOM     30  C   UNL A   1      37.331  28.993  30.212  1.00  0.00     0.010 A 
ATOM     31  C   UNL A   1      38.567  29.447  29.714  1.00  0.00    -0.014 A 
BRANCH  31  32
ATOM     32  C   UNL A   1      39.850  28.841  30.159  1.00  0.00     0.031 A 
ATOM     33  C   UNL A   1      40.536  29.346  31.399  1.00  0.00     0.074 A 
ATOM     34  C   UNL A   1      40.391  27.820  29.464  1.00  0.00     0.049 A 
ATOM     35  N   UNL A   1      41.683  28.984  31.915  1.00  0.00    -0.248 NA
ATOM     36  C   UNL A   1      39.845  30.400  32.157  1.00  0.00     0.031 C 
ATOM     37  C   UNL A   1      39.820  27.231  28.253  1.00  0.00     0.029 A 
ATOM     38  N   UNL A   1      41.544  27.104  29.673  1.00  0.00    -0.354 N 
ATOM     39  C   UNL A   1      41.877  29.797  33.024  1.00  0.00     0.074 A 
ATOM     40  C   UNL A   1      40.726  30.672  33.110  1.00  0.00     0.031 C 
ATOM     41  C   UNL A   1      40.622  26.241  27.827  1.00  0.00     0.029 A 
ATOM     42  C   UNL A   1      41.786  26.156  28.707  1.00  0.00     0.049 A 
ATOM     43  H   UNL A   1      42.141  27.256  30.441  1.00  0.00     0.167 HD
ATOM     44  C   UNL A   1      42.910  29.807  33.901  1.00  0.00     0.034 A 
ATOM     45  C   UNL A   1      42.835  25.328  28.532  1.00  0.00     0.034 A 
ATOM     46  C   UNL A   1      44.026  28.900  33.849  1.00  0.00     0.049 A 
ATOM     47  C   UNL A   1      43.968  25.358  29.521  1.00  0.00     0.074 A 
ATOM     48  C   UNL A   1      45.095  28.803  34.723  1.00  0.00     0.029 A 
ATOM     49  N   UNL A   1      44.218  27.933  32.875  1.00  0.00    -0.354 N 
ATOM     50  N   UNL A   1      44.093  26.076  30.612  1.00  0.00    -0.248 NA
ATOM     51  C   UNL A   1      45.098  24.452  29.268  1.00  0.00     0.031 C 
ATOM     52  C   UNL A   1      45.941  27.785  34.268  1.00  0.00     0.029 A 
ATOM     53  C   UNL A   1      45.391  27.239  33.120  1.00  0.00     0.049 A 
ATOM     54  H   UNL A   1      43.609  27.765  32.120  1.00  0.00     0.167 HD
ATOM     55  C   UNL A   1      45.302  25.697  31.182  1.00  0.00     0.074 A 
ATOM     56  C   UNL A   1      45.859  24.662  30.334  1.00  0.00     0.031 C 
ATOM     57  C   UNL A   1      45.910  26.177  32.295  1.00  0.00     0.034 A 
BRANCH  44  58
ATOM     58  C   UNL A   1      42.869  30.817  35.017  1.00  0.00     0.023 A 
ATOM     59  C   UNL A   1      42.388  30.436  36.286  1.00  0.00     0.012 A 
ATOM     60  C   UNL A   1      43.358  32.125  34.826  1.00  0.00     0.148 A 
ATOM     61  C   UNL A   1      42.367  31.350  37.340  1.00  0.00     0.002 A 
ATOM     62  C   UNL A   1      43.370  33.018  35.892  1.00  0.00     0.091 A 
ATOM     63  F   UNL A   1      43.789  32.474  33.606  1.00  0.00    -0.205 F 
ATOM     64  C   UNL A   1      42.866  32.635  37.145  1.00  0.00     0.022 A 
BRANCH  62  65
ATOM     65  S   UNL A   1      44.059  34.670  35.757  1.00  0.00     0.127 S 
ATOM     66  O   UNL A   1      45.437  34.384  35.358  1.00  0.00    -0.237 OA
ATOM     67  O   UNL A   1      43.233  35.268  34.707  1.00  0.00    -0.237 OA
ATOM     68  O   UNL A   1      43.899  35.278  37.071  1.00  0.00    -0.744 OA
ENDBRANCH  62  65
ENDBRANCH  44  58
BRANCH  45  69
ATOM     69  C   UNL A   1      42.848  24.379  27.382  1.00  0.00     0.023 A 
ATOM     70  C   UNL A   1      43.521  24.734  26.198  1.00  0.00     0.012 A 
ATOM     71  C   UNL A   1      42.228  23.117  27.469  1.00  0.00     0.148 A 
ATOM     72  C   UNL A   1      43.562  23.856  25.114  1.00  0.00     0.002 A 
ATOM     73  C   UNL A   1      42.323  22.224  26.408  1.00  0.00     0.091 A 
ATOM     74  F   UNL A   1      41.567  22.808  28.594  1.00  0.00    -0.205 F 
ATOM     75  C   UNL A   1      42.976  22.597  25.223  1.00  0.00     0.022 A 
BRANCH  73  76
ATOM     76  S   UNL A   1      41.718  20.536  26.522  1.00  0.00     0.127 S 
ATOM     77  O   UNL A   1      42.232  20.121  27.824  1.00  0.00    -0.237 OA
ATOM     78  O   UNL A   1      40.268  20.728  26.464  1.00  0.00    -0.237 OA
ATOM     79  O   UNL A   1      42.275  19.845  25.367  1.00  0.00    -0.744 OA
ENDBRANCH  73  76
ENDBRANCH  45  69
BRANCH  57  80
ATOM     80  C   UNL A   1      47.242  25.585  32.674  1.00  0.00     0.023 A 
ATOM     81  C   UNL A   1      48.424  26.137  32.140  1.00  0.00     0.012 A 
ATOM     82  C   UNL A   1      47.330  24.536  33.609  1.00  0.00     0.148 A 
ATOM     83  C   UNL A   1      49.671  25.636  32.509  1.00  0.00     0.002 A 
ATOM     84  C   UNL A   1      48.579  24.069  34.005  1.00  0.00     0.091 A 
ATOM     85  F   UNL A   1      46.195  24.010  34.091  1.00  0.00    -0.205 F 
ATOM     86  C   UNL A   1      49.749  24.610  33.449  1.00  0.00     0.022 A 
BRANCH  84  87
ATOM     87  S   UNL A   1      48.776  22.813  35.274  1.00  0.00     0.127 S 
ATOM     88  O   UNL A   1      48.104  23.433  36.415  1.00  0.00    -0.237 OA
ATOM     89  O   UNL A   1      48.067  21.669  34.696  1.00  0.00    -0.237 OA
ATOM     90  O   UNL A   1      50.212  22.617  35.422  1.00  0.00    -0.744 OA
ENDBRANCH  84  87
ENDBRANCH  57  80
ENDBRANCH  31  32
ENDBRANCH  24  26
ENDBRANCH  23  24
ENDBRANCH  22  23
ENDBRANCH   1  22
TORSDOF 19
ENDMDL
MODEL 2
REMARK VINA RESULT:      -9.5      4.792     10.889
REMARK SMILES C[C@H](Cc1ccco1)[NH2+]Cc1cc(C(=O)OCCOC(=O)c2ccc(-c3c4nc(c(-c5cccc(S(=O)(=O)[O-])c5F)c5ccc([nH]5)c(-c5cccc(S(=O)(=O)[O-])c5F)c5nc(c(-c6cccc(S(=O)(=O)[O-])c6F)c6ccc3[nH]6)C=C5)C=C4)cc2)cs1
REMARK SMILES IDX 17 1 16 2 14 3 15 4 13 5 11 6 12 7 86 8 85 9 10 10 9 11 2 14
REMARK SMILES IDX 1 15 3 16 4 17 5 18 8 19 6 20 7 21 18 22 19 23 20 24 21 25
REMARK SMILES IDX 22 26 23 27 84 28 24 29 83 30 25 31 26 32 27 33 77 34 28 35
REMARK SMILES IDX 82 36 76 37 78 38 29 39 81 40 75 41 74 42 30 44 62 45 42 46
REMARK SMILES IDX 61 47 43 48 46 49 60 50 79 51 44 52 45 53 59 55 80 56 47 57
REMARK SMILES IDX 31 58 32 59 40 60 33 61 35 62 41 63 34 64 36 65 37 66 38 67
REMARK SMILES IDX 39 68 63 69 64 70 72 71 65 72 67 73 73 74 66 75 68 76 69 77
REMARK SMILES IDX 70 78 71 79 48 80 49 81 57 82 50 83 52 84 58 85 51 86 53 87
REMARK SMILES IDX 54 88 55 89 56 90
REMARK H PARENT 9 12 9 13 78 43 46 54
REMARK Flexibility Score: inf
ROOT
ATOM      1  C   UNL A   1      31.892  28.999  24.238  1.00  0.00     0.275 C 
ENDROOT
BRANCH   1   2
ATOM      2  O   UNL A   1      30.909  28.775  23.210  1.00  0.00    -0.458 OA
BRANCH   2   3
ATOM      3  C   UNL A   1      30.234  27.588  23.292  1.00  0.00     0.339 C 
ATOM      4  O   UNL A   1      29.033  27.490  23.478  1.00  0.00    -0.246 OA
BRANCH   3   5
ATOM      5  C   UNL A   1      31.100  26.423  23.101  1.00  0.00     0.071 A 
ATOM      6  C   UNL A   1      32.260  24.422  23.537  1.00  0.00     0.060 A 
ATOM      7  C   UNL A   1      31.316  25.321  23.997  1.00  0.00     0.037 A 
ATOM      8  S   UNL A   1      32.843  24.870  21.990  1.00  0.00    -0.142 S 
ATOM      9  C   UNL A   1      31.862  26.263  21.957  1.00  0.00     0.081 A 
BRANCH   6  10
ATOM     10  C   UNL A   1      32.772  23.172  24.197  1.00  0.00     0.308 C 
BRANCH  10  11
ATOM     11  N   UNL A   1      32.243  21.939  23.609  1.00  0.00    -0.339 N 
ATOM     12  H   UNL A   1      31.250  22.079  23.423  1.00  0.00     0.346 HD
ATOM     13  H   UNL A   1      32.794  21.766  22.769  1.00  0.00     0.346 HD
BRANCH  11  14
ATOM     14  C   UNL A   1      32.384  20.736  24.448  1.00  0.00     0.187 C 
ATOM     15  C   UNL A   1      33.511  20.835  25.481  1.00  0.00     0.075 C 
BRANCH  14  16
ATOM     16  C   UNL A   1      32.526  19.478  23.552  1.00  0.00     0.140 C 
BRANCH  16  17
ATOM     17  C   UNL A   1      33.018  18.263  24.255  1.00  0.00     0.109 A 
ATOM     18  C   UNL A   1      34.181  17.523  24.200  1.00  0.00     0.046 A 
ATOM     19  O   UNL A   1      32.157  17.706  25.156  1.00  0.00    -0.469 OA
ATOM     20  C   UNL A   1      34.030  16.473  25.138  1.00  0.00     0.042 A 
ATOM     21  C   UNL A   1      32.785  16.633  25.698  1.00  0.00     0.195 A 
ENDBRANCH  16  17
ENDBRANCH  14  16
ENDBRANCH  11  14
ENDBRANCH  10  11
ENDBRANCH   6  10
ENDBRANCH   3   5
ENDBRANCH   2   3
ENDBRANCH   1   2
BRANCH   1  22
ATOM     22  C   UNL A   1      31.407  30.005  25.285  1.00  0.00     0.275 C 
BRANCH  22  23
ATOM     23  O   UNL A   1      32.208  29.949  26.478  1.00  0.00    -0.458 OA
BRANCH  23  24
ATOM     24  C   UNL A   1      32.704  31.135  26.902  1.00  0.00     0.338 C 
ATOM     25  O   UNL A   1      32.144  32.217  26.888  1.00  0.00    -0.246 OA
BRANCH  24  26
ATOM     26  C   UNL A   1      34.020  30.923  27.523  1.00  0.00     0.060 A 
ATOM     27  C   UNL A   1      34.426  29.608  27.750  1.00  0.00     0.016 A 
ATOM     28  C   UNL A   1      34.801  31.992  27.966  1.00  0.00     0.016 A 
ATOM     29  C   UNL A   1      35.613  29.349  28.432  1.00  0.00     0.010 A 
ATOM     30  C   UNL A   1      36.002  31.729  28.640  1.00  0.00     0.010 A 
ATOM     31  C   UNL A   1      36.409  30.406  28.893  1.00  0.00    -0.014 A 
BRANCH  31  32
ATOM     32  C   UNL A   1      37.636  30.111  29.679  1.00  0.00     0.031 A 
ATOM     33  C   UNL A   1      38.724  29.252  29.093  1.00  0.00     0.074 A 
ATOM     34  C   UNL A   1      37.788  30.632  30.913  1.00  0.00     0.049 A 
ATOM     35  N   UNL A   1      39.838  28.841  29.641  1.00  0.00    -0.248 NA
ATOM     36  C   UNL A   1      38.531  28.791  27.709  1.00  0.00     0.031 C 
ATOM     37  C   UNL A   1      36.815  31.488  31.591  1.00  0.00     0.029 A 
ATOM     38  N   UNL A   1      38.814  30.511  31.818  1.00  0.00    -0.354 N 
ATOM     39  C   UNL A   1      40.455  28.033  28.694  1.00  0.00     0.074 A 
ATOM     40  C   UNL A   1      39.591  28.014  27.531  1.00  0.00     0.031 C 
ATOM     41  C   UNL A   1      37.290  31.820  32.802  1.00  0.00     0.029 A 
ATOM     42  C   UNL A   1      38.580  31.162  33.006  1.00  0.00     0.049 A 
ATOM     43  H   UNL A   1      39.639  30.006  31.633  1.00  0.00     0.167 HD
ATOM     44  C   UNL A   1      41.638  27.378  28.776  1.00  0.00     0.034 A 
ATOM     45  C   UNL A   1      39.305  31.207  34.141  1.00  0.00     0.034 A 
ATOM     46  C   UNL A   1      42.523  27.442  29.909  1.00  0.00     0.049 A 
ATOM     47  C   UNL A   1      40.617  30.472  34.205  1.00  0.00     0.074 A 
ATOM     48  C   UNL A   1      43.765  26.851  30.062  1.00  0.00     0.029 A 
ATOM     49  N   UNL A   1      42.265  28.138  31.079  1.00  0.00    -0.354 N 
ATOM     50  N   UNL A   1      41.223  29.783  33.268  1.00  0.00    -0.248 NA
ATOM     51  C   UNL A   1      41.355  30.535  35.475  1.00  0.00     0.031 C 
ATOM     52  C   UNL A   1      44.252  27.179  31.333  1.00  0.00     0.029 A 
ATOM     53  C   UNL A   1      43.320  27.986  31.963  1.00  0.00     0.049 A 
ATOM     54  H   UNL A   1      41.451  28.663  31.255  1.00  0.00     0.167 HD
ATOM     55  C   UNL A   1      42.418  29.346  33.829  1.00  0.00     0.074 A 
ATOM     56  C   UNL A   1      42.465  29.874  35.177  1.00  0.00     0.031 C 
ATOM     57  C   UNL A   1      43.378  28.558  33.285  1.00  0.00     0.034 A 
BRANCH  44  58
ATOM     58  C   UNL A   1      42.063  26.552  27.591  1.00  0.00     0.023 A 
ATOM     59  C   UNL A   1      42.809  27.149  26.555  1.00  0.00     0.012 A 
ATOM     60  C   UNL A   1      41.772  25.174  27.529  1.00  0.00     0.148 A 
ATOM     61  C   UNL A   1      43.235  26.395  25.461  1.00  0.00     0.002 A 
ATOM     62  C   UNL A   1      42.233  24.421  26.455  1.00  0.00     0.091 A 
ATOM     63  F   UNL A   1      41.041  24.630  28.511  1.00  0.00    -0.205 F 
ATOM     64  C   UNL A   1      42.955  25.032  25.416  1.00  0.00     0.022 A 
BRANCH  62  65
ATOM     65  S   UNL A   1      41.985  22.646  26.345  1.00  0.00     0.127 S 
ATOM     66  O   UNL A   1      42.649  22.332  25.081  1.00  0.00    -0.237 OA
ATOM     67  O   UNL A   1      42.684  22.160  27.536  1.00  0.00    -0.237 OA
ATOM     68  O   UNL A   1      40.543  22.443  26.365  1.00  0.00    -0.744 OA
ENDBRANCH  62  65
ENDBRANCH  44  58
BRANCH  45  69
ATOM     69  C   UNL A   1      38.816  32.002  35.304  1.00  0.00     0.023 A 
ATOM     70  C   UNL A   1      38.856  33.409  35.248  1.00  0.00     0.012 A 
ATOM     71  C   UNL A   1      38.279  31.374  36.445  1.00  0.00     0.148 A 
ATOM     72  C   UNL A   1      38.388  34.175  36.317  1.00  0.00     0.002 A 
ATOM     73  C   UNL A   1      37.761  32.143  37.480  1.00  0.00     0.091 A 
ATOM     74  F   UNL A   1      38.276  30.034  36.492  1.00  0.00    -0.205 F 
ATOM     75  C   UNL A   1      37.828  33.544  37.425  1.00  0.00     0.022 A 
BRANCH  73  76
ATOM     76  S   UNL A   1      36.898  31.412  38.875  1.00  0.00     0.127 S 
ATOM     77  O   UNL A   1      37.872  31.581  39.951  1.00  0.00    -0.237 OA
ATOM     78  O   UNL A   1      35.711  32.261  38.979  1.00  0.00    -0.237 OA
ATOM     79  O   UNL A   1      36.617  30.038  38.481  1.00  0.00    -0.744 OA
ENDBRANCH  73  76
ENDBRANCH  45  69
BRANCH  57  80
ATOM     80  C   UNL A   1      44.573  28.226  34.139  1.00  0.00     0.023 A 
ATOM     81  C   UNL A   1      45.651  29.131  34.207  1.00  0.00     0.012 A 
ATOM     82  C   UNL A   1      44.598  27.059  34.928  1.00  0.00     0.148 A 
ATOM     83  C   UNL A   1      46.749  28.867  35.025  1.00  0.00     0.002 A 
ATOM     84  C   UNL A   1      45.677  26.823  35.774  1.00  0.00     0.091 A 
ATOM     85  F   UNL A   1      43.573  26.201  34.836  1.00  0.00    -0.205 F 
ATOM     86  C   UNL A   1      46.757  27.720  35.816  1.00  0.00     0.022 A 
BRANCH  84  87
ATOM     87  S   UNL A   1      45.730  25.418  36.893  1.00  0.00     0.127 S 
ATOM     88  O   UNL A   1      46.945  25.693  37.658  1.00  0.00    -0.237 OA
ATOM     89  O   UNL A   1      44.485  25.572  37.648  1.00  0.00    -0.237 OA
ATOM     90  O   UNL A   1      45.776  24.235  36.045  1.00  0.00    -0.744 OA
ENDBRANCH  84  87
ENDBRANCH  57  80
ENDBRANCH  31  32
ENDBRANCH  24  26
ENDBRANCH  23  24
ENDBRANCH  22  23
ENDBRANCH   1  22
TORSDOF 19
ENDMDL
MODEL 3
REMARK VINA RESULT:      -9.5      5.675     11.691
REMARK SMILES C[C@H](Cc1ccco1)[NH2+]Cc1cc(C(=O)OCCOC(=O)c2ccc(-c3c4nc(c(-c5cccc(S(=O)(=O)[O-])c5F)c5ccc([nH]5)c(-c5cccc(S(=O)(=O)[O-])c5F)c5nc(c(-c6cccc(S(=O)(=O)[O-])c6F)c6ccc3[nH]6)C=C5)C=C4)cc2)cs1
REMARK SMILES IDX 17 1 16 2 14 3 15 4 13 5 11 6 12 7 86 8 85 9 10 10 9 11 2 14
REMARK SMILES IDX 1 15 3 16 4 17 5 18 8 19 6 20 7 21 18 22 19 23 20 24 21 25
REMARK SMILES IDX 22 26 23 27 84 28 24 29 83 30 25 31 26 32 27 33 77 34 28 35
REMARK SMILES IDX 82 36 76 37 78 38 29 39 81 40 75 41 74 42 30 44 62 45 42 46
REMARK SMILES IDX 61 47 43 48 46 49 60 50 79 51 44 52 45 53 59 55 80 56 47 57
REMARK SMILES IDX 31 58 32 59 40 60 33 61 35 62 41 63 34 64 36 65 37 66 38 67
REMARK SMILES IDX 39 68 63 69 64 70 72 71 65 72 67 73 73 74 66 75 68 76 69 77
REMARK SMILES IDX 70 78 71 79 48 80 49 81 57 82 50 83 52 84 58 85 51 86 53 87
REMARK SMILES IDX 54 88 55 89 56 90
REMARK H PARENT 9 12 9 13 78 43 46 54
REMARK Flexibility Score: inf
ROOT
ATOM      1  C   UNL A   1      35.877  20.645  24.760  1.00  0.00     0.275 C 
ENDROOT
BRANCH   1   2
ATOM      2  O   UNL A   1      35.795  22.073  24.926  1.00  0.00    -0.458 OA
BRANCH   2   3
ATOM      3  C   UNL A   1      35.543  22.783  23.784  1.00  0.00     0.339 C 
ATOM      4  O   UNL A   1      36.341  22.930  22.874  1.00  0.00    -0.246 OA
BRANCH   3   5
ATOM      5  C   UNL A   1      34.187  23.335  23.742  1.00  0.00     0.071 A 
ATOM      6  C   UNL A   1      32.396  24.846  23.957  1.00  0.00     0.060 A 
ATOM      7  C   UNL A   1      33.768  24.680  24.018  1.00  0.00     0.037 A 
ATOM      8  S   UNL A   1      31.613  23.392  23.502  1.00  0.00    -0.142 S 
ATOM      9  C   UNL A   1      33.093  22.551  23.417  1.00  0.00     0.081 A 
BRANCH   6  10
ATOM     10  C   UNL A   1      31.585  26.086  24.210  1.00  0.00     0.308 C 
BRANCH  10  11
ATOM     11  N   UNL A   1      31.203  26.796  22.986  1.00  0.00    -0.339 N 
ATOM     12  H   UNL A   1      32.002  26.785  22.353  1.00  0.00     0.346 HD
ATOM     13  H   UNL A   1      30.386  26.309  22.619  1.00  0.00     0.346 HD
BRANCH  11  14
ATOM     14  C   UNL A   1      30.793  28.198  23.179  1.00  0.00     0.187 C 
ATOM     15  C   UNL A   1      31.155  28.761  24.557  1.00  0.00     0.075 C 
BRANCH  14  16
ATOM     16  C   UNL A   1      29.283  28.358  22.866  1.00  0.00     0.140 C 
BRANCH  16  17
ATOM     17  C   UNL A   1      28.848  29.750  22.575  1.00  0.00     0.109 A 
ATOM     18  C   UNL A   1      28.473  30.824  23.354  1.00  0.00     0.046 A 
ATOM     19  O   UNL A   1      28.772  30.087  21.254  1.00  0.00    -0.469 OA
ATOM     20  C   UNL A   1      28.177  31.882  22.460  1.00  0.00     0.042 A 
ATOM     21  C   UNL A   1      28.381  31.385  21.195  1.00  0.00     0.195 A 
ENDBRANCH  16  17
ENDBRANCH  14  16
ENDBRANCH  11  14
ENDBRANCH  10  11
ENDBRANCH   6  10
ENDBRANCH   3   5
ENDBRANCH   2   3
ENDBRANCH   1   2
BRANCH   1  22
ATOM     22  C   UNL A   1      37.296  20.120  24.992  1.00  0.00     0.275 C 
BRANCH  22  23
ATOM     23  O   UNL A   1      38.225  21.196  25.207  1.00  0.00    -0.458 OA
BRANCH  23  24
ATOM     24  C   UNL A   1      39.190  20.957  26.126  1.00  0.00     0.338 C 
ATOM     25  O   UNL A   1      39.660  19.877  26.439  1.00  0.00    -0.246 OA
BRANCH  24  26
ATOM     26  C   UNL A   1      39.709  22.235  26.636  1.00  0.00     0.060 A 
ATOM     27  C   UNL A   1      39.156  23.410  26.128  1.00  0.00     0.016 A 
ATOM     28  C   UNL A   1      40.786  22.285  27.523  1.00  0.00     0.016 A 
ATOM     29  C   UNL A   1      39.680  24.647  26.493  1.00  0.00     0.010 A 
ATOM     30  C   UNL A   1      41.304  23.532  27.900  1.00  0.00     0.010 A 
ATOM     31  C   UNL A   1      40.766  24.722  27.376  1.00  0.00    -0.014 A 
BRANCH  31  32
ATOM     32  C   UNL A   1      41.359  26.047  27.700  1.00  0.00     0.031 A 
ATOM     33  C   UNL A   1      42.756  26.381  27.255  1.00  0.00     0.074 A 
ATOM     34  C   UNL A   1      40.636  26.962  28.376  1.00  0.00     0.049 A 
ATOM     35  N   UNL A   1      43.463  27.458  27.487  1.00  0.00    -0.248 NA
ATOM     36  C   UNL A   1      43.454  25.370  26.445  1.00  0.00     0.031 C 
ATOM     37  C   UNL A   1      39.267  26.767  28.854  1.00  0.00     0.029 A 
ATOM     38  N   UNL A   1      40.954  28.234  28.784  1.00  0.00    -0.354 N 
ATOM     39  C   UNL A   1      44.702  27.236  26.900  1.00  0.00     0.074 A 
ATOM     40  C   UNL A   1      44.651  25.920  26.295  1.00  0.00     0.031 C 
ATOM     41  C   UNL A   1      38.861  27.880  29.487  1.00  0.00     0.029 A 
ATOM     42  C   UNL A   1      39.955  28.849  29.500  1.00  0.00     0.049 A 
ATOM     43  H   UNL A   1      41.816  28.664  28.582  1.00  0.00     0.167 HD
ATOM     44  C   UNL A   1      45.780  28.056  26.853  1.00  0.00     0.034 A 
ATOM     45  C   UNL A   1      39.927  30.045  30.120  1.00  0.00     0.034 A 
ATOM     46  C   UNL A   1      45.812  29.385  27.404  1.00  0.00     0.049 A 
ATOM     47  C   UNL A   1      41.136  30.937  30.051  1.00  0.00     0.074 A 
ATOM     48  C   UNL A   1      46.843  30.307  27.362  1.00  0.00     0.029 A 
ATOM     49  N   UNL A   1      44.769  29.983  28.093  1.00  0.00    -0.354 N 
ATOM     50  N   UNL A   1      42.269  30.745  29.419  1.00  0.00    -0.248 NA
ATOM     51  C   UNL A   1      41.060  32.220  30.766  1.00  0.00     0.031 C 
ATOM     52  C   UNL A   1      46.427  31.459  28.039  1.00  0.00     0.029 A 
ATOM     53  C   UNL A   1      45.132  31.259  28.489  1.00  0.00     0.049 A 
ATOM     54  H   UNL A   1      43.897  29.562  28.274  1.00  0.00     0.167 HD
ATOM     55  C   UNL A   1      43.031  31.885  29.644  1.00  0.00     0.074 A 
ATOM     56  C   UNL A   1      42.219  32.779  30.445  1.00  0.00     0.031 C 
ATOM     57  C   UNL A   1      44.297  32.159  29.244  1.00  0.00     0.034 A 
BRANCH  44  58
ATOM     58  C   UNL A   1      47.014  27.549  26.155  1.00  0.00     0.023 A 
ATOM     59  C   UNL A   1      47.204  27.824  24.785  1.00  0.00     0.012 A 
ATOM     60  C   UNL A   1      48.009  26.848  26.864  1.00  0.00     0.148 A 
ATOM     61  C   UNL A   1      48.353  27.386  24.127  1.00  0.00     0.002 A 
ATOM     62  C   UNL A   1      49.169  26.449  26.210  1.00  0.00     0.091 A 
ATOM     63  F   UNL A   1      47.799  26.575  28.159  1.00  0.00    -0.205 F 
ATOM     64  C   UNL A   1      49.338  26.708  24.840  1.00  0.00     0.022 A 
BRANCH  62  65
ATOM     65  S   UNL A   1      50.525  25.634  27.061  1.00  0.00     0.127 S 
ATOM     66  O   UNL A   1      50.907  26.647  28.045  1.00  0.00    -0.237 OA
ATOM     67  O   UNL A   1      49.872  24.453  27.626  1.00  0.00    -0.237 OA
ATOM     68  O   UNL A   1      51.521  25.344  26.039  1.00  0.00    -0.744 OA
ENDBRANCH  62  65
ENDBRANCH  44  58
BRANCH  45  69
ATOM     69  C   UNL A   1      38.695  30.480  30.839  1.00  0.00     0.023 A 
ATOM     70  C   UNL A   1      38.573  30.231  32.219  1.00  0.00     0.012 A 
ATOM     71  C   UNL A   1      37.663  31.169  30.171  1.00  0.00     0.148 A 
ATOM     72  C   UNL A   1      37.437  30.643  32.918  1.00  0.00     0.002 A 
ATOM     73  C   UNL A   1      36.562  31.629  30.884  1.00  0.00     0.091 A 
ATOM     74  F   UNL A   1      37.783  31.372  28.851  1.00  0.00    -0.205 F 
ATOM     75  C   UNL A   1      36.440  31.353  32.255  1.00  0.00     0.022 A 
BRANCH  73  76
ATOM     76  S   UNL A   1      35.304  32.669  30.135  1.00  0.00     0.127 S 
ATOM     77  O   UNL A   1      34.769  31.792  29.097  1.00  0.00    -0.237 OA
ATOM     78  O   UNL A   1      34.401  32.915  31.260  1.00  0.00    -0.237 OA
ATOM     79  O   UNL A   1      36.009  33.854  29.665  1.00  0.00    -0.744 OA
ENDBRANCH  73  76
ENDBRANCH  45  69
BRANCH  57  80
ATOM     80  C   UNL A   1      44.886  33.483  29.652  1.00  0.00     0.023 A 
ATOM     81  C   UNL A   1      45.669  33.564  30.821  1.00  0.00     0.012 A 
ATOM     82  C   UNL A   1      44.728  34.627  28.846  1.00  0.00     0.148 A 
ATOM     83  C   UNL A   1      46.262  34.768  31.197  1.00  0.00     0.002 A 
ATOM     84  C   UNL A   1      45.358  35.815  29.204  1.00  0.00     0.091 A 
ATOM     85  F   UNL A   1      43.964  34.537  27.748  1.00  0.00    -0.205 F 
ATOM     86  C   UNL A   1      46.116  35.890  30.384  1.00  0.00     0.022 A 
BRANCH  84  87
ATOM     87  S   UNL A   1      45.296  37.284  28.171  1.00  0.00     0.127 S 
ATOM     88  O   UNL A   1      46.240  38.168  28.853  1.00  0.00    -0.237 OA
ATOM     89  O   UNL A   1      45.761  36.776  26.878  1.00  0.00    -0.237 OA
ATOM     90  O   UNL A   1      43.907  37.720  28.181  1.00  0.00    -0.744 OA
ENDBRANCH  84  87
ENDBRANCH  57  80
ENDBRANCH  31  32
ENDBRANCH  24  26
ENDBRANCH  23  24
ENDBRANCH  22  23
ENDBRANCH   1  22
TORSDOF 19
ENDMDL
