MODEL 1
REMARK VINA RESULT:     -12.5      0.000      0.000
REMARK SMILES Cc1cc2c(c(C)c1Cl)C=C(C(=O)OCCOC(=O)c1ccc(-c3c4nc(c(-c5cccc(S(=O)(=O)[O-])c5F)c5ccc([nH]5)c(-c5cccc(S(=O)(=O)[O-])c5F)c5nc(c(-c6cccc(S(=O)(=O)[O-])c6F)c6ccc3[nH]6)C=C5)C=C4)cc1)[C@@H](C(F)(F)F)O2
REMARK SMILES IDX 16 1 15 2 14 3 12 4 13 5 11 6 1 7 2 8 3 9 8 10 4 11 6 12
REMARK SMILES IDX 9 13 5 14 88 15 7 16 10 17 83 18 84 19 85 20 86 21 87 22
REMARK SMILES IDX 17 23 18 24 19 25 20 26 21 27 82 28 22 29 81 30 23 31 24 32
REMARK SMILES IDX 25 33 75 34 26 35 80 36 74 37 76 38 27 39 79 40 73 41 72 42
REMARK SMILES IDX 28 44 60 45 40 46 59 47 41 48 44 49 58 50 77 51 42 52 43 53
REMARK SMILES IDX 57 55 78 56 45 57 29 58 30 59 38 60 31 61 33 62 39 63 32 64
REMARK SMILES IDX 34 65 35 66 36 67 37 68 61 69 62 70 70 71 63 72 65 73 71 74
REMARK SMILES IDX 64 75 66 76 67 77 68 78 69 79 46 80 47 81 55 82 48 83 50 84
REMARK SMILES IDX 56 85 49 86 51 87 52 88 53 89 54 90
REMARK H PARENT 76 43 44 54
REMARK Flexibility Score: inf
ROOT
ATOM      1  C   UNL A   1      36.464  20.495  24.936  1.00  0.00     0.275 C 
ENDROOT
BRANCH   1   2
ATOM      2  C   UNL A   1      35.131  21.175  25.250  1.00  0.00     0.275 C 
BRANCH   2   3
ATOM      3  O   UNL A   1      35.244  22.613  25.176  1.00  0.00    -0.459 OA
BRANCH   3   4
ATOM      4  C   UNL A   1      34.488  23.303  26.061  1.00  0.00     0.338 C 
ATOM      5  O   UNL A   1      34.409  23.103  27.263  1.00  0.00    -0.246 OA
BRANCH   4   6
ATOM      6  C   UNL A   1      33.725  24.365  25.378  1.00  0.00     0.087 C 
ATOM      7  C   UNL A   1      30.152  29.514  23.688  1.00  0.00     0.046 C 
ATOM      8  C   UNL A   1      31.168  28.555  24.245  1.00  0.00    -0.028 A 
ATOM      9  C   UNL A   1      31.214  27.248  23.741  1.00  0.00     0.052 A 
ATOM     10  C   UNL A   1      32.041  28.917  25.290  1.00  0.00     0.047 A 
ATOM     11  C   UNL A   1      32.098  26.308  24.265  1.00  0.00     0.128 A 
ATOM     12  C   UNL A   1      32.962  27.985  25.821  1.00  0.00    -0.021 A 
ATOM     13  Cl  UNL A   1      31.944  30.531  25.929  1.00  0.00    -0.084 Cl
ATOM     14  C   UNL A   1      32.967  26.661  25.303  1.00  0.00     0.022 A 
ATOM     15  O   UNL A   1      32.047  25.069  23.686  1.00  0.00    -0.475 OA
ATOM     16  C   UNL A   1      33.927  28.372  26.918  1.00  0.00     0.047 C 
ATOM     17  C   UNL A   1      33.829  25.616  25.844  1.00  0.00     0.027 C 
ATOM     18  C   UNL A   1      32.761  23.968  24.307  1.00  0.00     0.316 C 
BRANCH  18  19
ATOM     19  C   UNL A   1      31.742  22.937  24.821  1.00  0.00     0.430 C 
ATOM     20  F   UNL A   1      30.540  23.086  24.212  1.00  0.00    -0.167 F 
ATOM     21  F   UNL A   1      32.143  21.667  24.564  1.00  0.00    -0.167 F 
ATOM     22  F   UNL A   1      31.535  23.034  26.153  1.00  0.00    -0.167 F 
ENDBRANCH  18  19
ENDBRANCH   4   6
ENDBRANCH   3   4
ENDBRANCH   2   3
ENDBRANCH   1   2
BRANCH   1  23
ATOM     23  O   UNL A   1      37.529  21.460  24.934  1.00  0.00    -0.458 OA
BRANCH  23  24
ATOM     24  C   UNL A   1      38.624  21.108  25.645  1.00  0.00     0.338 C 
ATOM     25  O   UNL A   1      39.207  20.038  25.622  1.00  0.00    -0.246 OA
BRANCH  24  26
ATOM     26  C   UNL A   1      39.120  22.258  26.416  1.00  0.00     0.060 A 
ATOM     27  C   UNL A   1      38.585  23.509  26.147  1.00  0.00     0.016 A 
ATOM     28  C   UNL A   1      40.242  22.142  27.232  1.00  0.00     0.016 A 
ATOM     29  C   UNL A   1      39.275  24.653  26.533  1.00  0.00     0.010 A 
ATOM     30  C   UNL A   1      40.840  23.300  27.750  1.00  0.00     0.010 A 
ATOM     31  C   UNL A   1      40.411  24.578  27.350  1.00  0.00    -0.014 A 
BRANCH  31  32
ATOM     32  C   UNL A   1      41.153  25.821  27.737  1.00  0.00     0.031 A 
ATOM     33  C   UNL A   1      40.489  26.882  28.589  1.00  0.00     0.074 A 
ATOM     34  C   UNL A   1      42.437  26.007  27.353  1.00  0.00     0.049 A 
ATOM     35  N   UNL A   1      40.893  28.099  28.858  1.00  0.00    -0.248 NA
ATOM     36  C   UNL A   1      39.195  26.543  29.209  1.00  0.00     0.031 C 
ATOM     37  C   UNL A   1      43.232  25.065  26.561  1.00  0.00     0.029 A 
ATOM     38  N   UNL A   1      43.307  27.048  27.581  1.00  0.00    -0.354 N 
ATOM     39  C   UNL A   1      39.872  28.693  29.592  1.00  0.00     0.074 A 
ATOM     40  C   UNL A   1      38.830  27.701  29.740  1.00  0.00     0.031 C 
ATOM     41  C   UNL A   1      44.478  25.534  26.424  1.00  0.00     0.029 A 
ATOM     42  C   UNL A   1      44.540  26.873  26.993  1.00  0.00     0.049 A 
ATOM     43  H   UNL A   1      43.070  27.842  28.113  1.00  0.00     0.167 HD
ATOM     44  C   UNL A   1      39.811  29.946  30.105  1.00  0.00     0.034 A 
ATOM     45  C   UNL A   1      45.591  27.708  26.859  1.00  0.00     0.034 A 
ATOM     46  C   UNL A   1      40.890  30.897  30.040  1.00  0.00     0.049 A 
ATOM     47  C   UNL A   1      45.491  29.097  27.421  1.00  0.00     0.074 A 
ATOM     48  C   UNL A   1      40.934  32.178  30.562  1.00  0.00     0.029 A 
ATOM     49  N   UNL A   1      42.118  30.668  29.439  1.00  0.00    -0.354 N 
ATOM     50  N   UNL A   1      44.518  29.637  28.112  1.00  0.00    -0.248 NA
ATOM     51  C   UNL A   1      46.632  29.992  27.188  1.00  0.00     0.031 C 
ATOM     52  C   UNL A   1      42.177  32.735  30.253  1.00  0.00     0.029 A 
ATOM     53  C   UNL A   1      42.922  31.788  29.570  1.00  0.00     0.049 A 
ATOM     54  H   UNL A   1      42.379  29.834  28.987  1.00  0.00     0.167 HD
ATOM     55  C   UNL A   1      44.933  30.928  28.409  1.00  0.00     0.074 A 
ATOM     56  C   UNL A   1      46.263  31.078  27.853  1.00  0.00     0.031 C 
ATOM     57  C   UNL A   1      44.263  31.910  29.060  1.00  0.00     0.034 A 
BRANCH  44  58
ATOM     58  C   UNL A   1      38.550  30.380  30.812  1.00  0.00     0.023 A 
ATOM     59  C   UNL A   1      38.435  30.227  32.208  1.00  0.00     0.012 A 
ATOM     60  C   UNL A   1      37.532  31.057  30.107  1.00  0.00     0.148 A 
ATOM     61  C   UNL A   1      37.322  30.724  32.888  1.00  0.00     0.002 A 
ATOM     62  C   UNL A   1      36.451  31.593  30.798  1.00  0.00     0.091 A 
ATOM     63  F   UNL A   1      37.652  31.182  28.778  1.00  0.00    -0.205 F 
ATOM     64  C   UNL A   1      36.339  31.419  32.186  1.00  0.00     0.022 A 
BRANCH  62  65
ATOM     65  S   UNL A   1      35.182  32.588  30.002  1.00  0.00     0.127 S 
ATOM     66  O   UNL A   1      34.287  32.876  31.122  1.00  0.00    -0.237 OA
ATOM     67  O   UNL A   1      35.950  33.739  29.526  1.00  0.00    -0.237 OA
ATOM     68  O   UNL A   1      34.613  31.756  28.953  1.00  0.00    -0.744 OA
ENDBRANCH  62  65
ENDBRANCH  44  58
BRANCH  45  69
ATOM     69  C   UNL A   1      46.820  27.248  26.146  1.00  0.00     0.023 A 
ATOM     70  C   UNL A   1      46.999  27.576  24.788  1.00  0.00     0.012 A 
ATOM     71  C   UNL A   1      47.838  26.540  26.817  1.00  0.00     0.148 A 
ATOM     72  C   UNL A   1      48.159  27.198  24.111  1.00  0.00     0.002 A 
ATOM     73  C   UNL A   1      49.022  26.232  26.158  1.00  0.00     0.091 A 
ATOM     74  F   UNL A   1      47.641  26.210  28.102  1.00  0.00    -0.205 F 
ATOM     75  C   UNL A   1      49.178  26.543  24.799  1.00  0.00     0.022 A 
BRANCH  73  76
ATOM     76  S   UNL A   1      50.445  25.547  27.013  1.00  0.00     0.127 S 
ATOM     77  O   UNL A   1      51.399  25.378  25.920  1.00  0.00    -0.237 OA
ATOM     78  O   UNL A   1      50.775  26.615  27.958  1.00  0.00    -0.237 OA
ATOM     79  O   UNL A   1      49.975  24.319  27.640  1.00  0.00    -0.744 OA
ENDBRANCH  73  76
ENDBRANCH  45  69
BRANCH  57  80
ATOM     80  C   UNL A   1      44.954  33.235  29.237  1.00  0.00     0.023 A 
ATOM     81  C   UNL A   1      45.777  33.448  30.361  1.00  0.00     0.012 A 
ATOM     82  C   UNL A   1      44.873  34.229  28.240  1.00  0.00     0.148 A 
ATOM     83  C   UNL A   1      46.488  34.639  30.503  1.00  0.00     0.002 A 
ATOM     84  C   UNL A   1      45.627  35.389  28.361  1.00  0.00     0.091 A 
ATOM     85  F   UNL A   1      44.073  34.012  27.186  1.00  0.00    -0.205 F 
ATOM     86  C   UNL A   1      46.425  35.601  29.498  1.00  0.00     0.022 A 
BRANCH  84  87
ATOM     87  S   UNL A   1      45.695  36.638  27.072  1.00  0.00     0.127 S 
ATOM     88  O   UNL A   1      46.672  37.578  27.619  1.00  0.00    -0.237 OA
ATOM     89  O   UNL A   1      46.166  35.867  25.921  1.00  0.00    -0.237 OA
ATOM     90  O   UNL A   1      44.341  37.158  26.941  1.00  0.00    -0.744 OA
ENDBRANCH  84  87
ENDBRANCH  57  80
ENDBRANCH  31  32
ENDBRANCH  24  26
ENDBRANCH  23  24
ENDBRANCH   1  23
TORSDOF 15
ENDMDL
MODEL 2
REMARK VINA RESULT:     -12.4      4.840      9.935
REMARK SMILES Cc1cc2c(c(C)c1Cl)C=C(C(=O)OCCOC(=O)c1ccc(-c3c4nc(c(-c5cccc(S(=O)(=O)[O-])c5F)c5ccc([nH]5)c(-c5cccc(S(=O)(=O)[O-])c5F)c5nc(c(-c6cccc(S(=O)(=O)[O-])c6F)c6ccc3[nH]6)C=C5)C=C4)cc1)[C@@H](C(F)(F)F)O2
REMARK SMILES IDX 16 1 15 2 14 3 12 4 13 5 11 6 1 7 2 8 3 9 8 10 4 11 6 12
REMARK SMILES IDX 9 13 5 14 88 15 7 16 10 17 83 18 84 19 85 20 86 21 87 22
REMARK SMILES IDX 17 23 18 24 19 25 20 26 21 27 82 28 22 29 81 30 23 31 24 32
REMARK SMILES IDX 25 33 75 34 26 35 80 36 74 37 76 38 27 39 79 40 73 41 72 42
REMARK SMILES IDX 28 44 60 45 40 46 59 47 41 48 44 49 58 50 77 51 42 52 43 53
REMARK SMILES IDX 57 55 78 56 45 57 29 58 30 59 38 60 31 61 33 62 39 63 32 64
REMARK SMILES IDX 34 65 35 66 36 67 37 68 61 69 62 70 70 71 63 72 65 73 71 74
REMARK SMILES IDX 64 75 66 76 67 77 68 78 69 79 46 80 47 81 55 82 48 83 50 84
REMARK SMILES IDX 56 85 49 86 51 87 52 88 53 89 54 90
REMARK H PARENT 76 43 44 54
REMARK Flexibility Score: inf
ROOT
ATOM      1  C   UNL A   1      31.919  29.955  25.422  1.00  0.00     0.275 C 
ENDROOT
BRANCH   1   2
ATOM      2  C   UNL A   1      31.453  28.526  25.142  1.00  0.00     0.275 C 
BRANCH   2   3
ATOM      3  O   UNL A   1      32.446  27.559  25.551  1.00  0.00    -0.459 OA
BRANCH   3   4
ATOM      4  C   UNL A   1      33.132  26.967  24.547  1.00  0.00     0.338 C 
ATOM      5  O   UNL A   1      33.635  27.523  23.583  1.00  0.00    -0.246 OA
BRANCH   4   6
ATOM      6  C   UNL A   1      33.197  25.507  24.748  1.00  0.00     0.087 C 
ATOM      7  C   UNL A   1      34.590  19.168  24.764  1.00  0.00     0.046 C 
ATOM      8  C   UNL A   1      34.597  20.669  24.853  1.00  0.00    -0.028 A 
ATOM      9  C   UNL A   1      33.373  21.353  24.846  1.00  0.00     0.052 A 
ATOM     10  C   UNL A   1      35.795  21.410  24.892  1.00  0.00     0.047 A 
ATOM     11  C   UNL A   1      33.330  22.746  24.867  1.00  0.00     0.128 A 
ATOM     12  C   UNL A   1      35.773  22.822  24.937  1.00  0.00    -0.021 A 
ATOM     13  Cl  UNL A   1      37.304  20.546  24.860  1.00  0.00    -0.084 Cl
ATOM     14  C   UNL A   1      34.516  23.486  24.905  1.00  0.00     0.022 A 
ATOM     15  O   UNL A   1      32.076  23.293  24.860  1.00  0.00    -0.475 OA
ATOM     16  C   UNL A   1      37.051  23.626  25.014  1.00  0.00     0.047 C 
ATOM     17  C   UNL A   1      34.403  24.939  24.870  1.00  0.00     0.027 C 
ATOM     18  C   UNL A   1      31.929  24.722  24.652  1.00  0.00     0.316 C 
BRANCH  18  19
ATOM     19  C   UNL A   1      31.219  24.963  23.310  1.00  0.00     0.430 C 
ATOM     20  F   UNL A   1      30.367  23.950  23.014  1.00  0.00    -0.167 F 
ATOM     21  F   UNL A   1      30.470  26.093  23.336  1.00  0.00    -0.167 F 
ATOM     22  F   UNL A   1      32.086  25.075  22.279  1.00  0.00    -0.167 F 
ENDBRANCH  18  19
ENDBRANCH   4   6
ENDBRANCH   3   4
ENDBRANCH   2   3
ENDBRANCH   1   2
BRANCH   1  23
ATOM     23  O   UNL A   1      32.319  30.089  26.797  1.00  0.00    -0.458 OA
BRANCH  23  24
ATOM     24  C   UNL A   1      32.926  31.258  27.106  1.00  0.00     0.338 C 
ATOM     25  O   UNL A   1      32.413  32.361  27.176  1.00  0.00    -0.246 OA
BRANCH  24  26
ATOM     26  C   UNL A   1      34.331  31.018  27.469  1.00  0.00     0.060 A 
ATOM     27  C   UNL A   1      34.746  29.708  27.662  1.00  0.00     0.016 A 
ATOM     28  C   UNL A   1      35.167  32.072  27.826  1.00  0.00     0.016 A 
ATOM     29  C   UNL A   1      35.908  29.451  28.381  1.00  0.00     0.010 A 
ATOM     30  C   UNL A   1      36.413  31.798  28.408  1.00  0.00     0.010 A 
ATOM     31  C   UNL A   1      36.774  30.486  28.762  1.00  0.00    -0.014 A 
BRANCH  31  32
ATOM     32  C   UNL A   1      38.010  30.190  29.555  1.00  0.00     0.031 A 
ATOM     33  C   UNL A   1      39.109  29.324  28.976  1.00  0.00     0.074 A 
ATOM     34  C   UNL A   1      38.178  30.710  30.793  1.00  0.00     0.049 A 
ATOM     35  N   UNL A   1      40.149  28.799  29.574  1.00  0.00    -0.248 NA
ATOM     36  C   UNL A   1      39.024  28.988  27.543  1.00  0.00     0.031 C 
ATOM     37  C   UNL A   1      37.231  31.591  31.479  1.00  0.00     0.029 A 
ATOM     38  N   UNL A   1      39.208  30.580  31.695  1.00  0.00    -0.354 N 
ATOM     39  C   UNL A   1      40.783  28.005  28.623  1.00  0.00     0.074 A 
ATOM     40  C   UNL A   1      40.020  28.125  27.400  1.00  0.00     0.031 C 
ATOM     41  C   UNL A   1      37.745  31.972  32.655  1.00  0.00     0.029 A 
ATOM     42  C   UNL A   1      38.993  31.255  32.877  1.00  0.00     0.049 A 
ATOM     43  H   UNL A   1      40.021  30.055  31.515  1.00  0.00     0.167 HD
ATOM     44  C   UNL A   1      41.904  27.255  28.753  1.00  0.00     0.034 A 
ATOM     45  C   UNL A   1      39.675  31.258  34.040  1.00  0.00     0.034 A 
ATOM     46  C   UNL A   1      42.716  27.215  29.941  1.00  0.00     0.049 A 
ATOM     47  C   UNL A   1      40.904  30.403  34.162  1.00  0.00     0.074 A 
ATOM     48  C   UNL A   1      43.889  26.512  30.153  1.00  0.00     0.029 A 
ATOM     49  N   UNL A   1      42.457  27.921  31.105  1.00  0.00    -0.354 N 
ATOM     50  N   UNL A   1      41.485  29.663  33.252  1.00  0.00    -0.248 NA
ATOM     51  C   UNL A   1      41.572  30.384  35.471  1.00  0.00     0.031 C 
ATOM     52  C   UNL A   1      44.324  26.769  31.455  1.00  0.00     0.029 A 
ATOM     53  C   UNL A   1      43.444  27.662  32.042  1.00  0.00     0.049 A 
ATOM     54  H   UNL A   1      41.687  28.518  31.245  1.00  0.00     0.167 HD
ATOM     55  C   UNL A   1      42.595  29.101  33.870  1.00  0.00     0.074 A 
ATOM     56  C   UNL A   1      42.625  29.616  35.224  1.00  0.00     0.031 C 
ATOM     57  C   UNL A   1      43.493  28.219  33.369  1.00  0.00     0.034 A 
BRANCH  44  58
ATOM     58  C   UNL A   1      42.357  26.420  27.579  1.00  0.00     0.023 A 
ATOM     59  C   UNL A   1      43.307  26.932  26.673  1.00  0.00     0.012 A 
ATOM     60  C   UNL A   1      41.936  25.078  27.451  1.00  0.00     0.148 A 
ATOM     61  C   UNL A   1      43.816  26.131  25.649  1.00  0.00     0.002 A 
ATOM     62  C   UNL A   1      42.485  24.273  26.460  1.00  0.00     0.091 A 
ATOM     63  F   UNL A   1      41.022  24.613  28.314  1.00  0.00    -0.205 F 
ATOM     64  C   UNL A   1      43.417  24.799  25.553  1.00  0.00     0.022 A 
BRANCH  62  65
ATOM     65  S   UNL A   1      42.111  22.520  26.311  1.00  0.00     0.127 S 
ATOM     66  O   UNL A   1      40.649  22.529  26.316  1.00  0.00    -0.237 OA
ATOM     67  O   UNL A   1      42.713  22.189  25.019  1.00  0.00    -0.237 OA
ATOM     68  O   UNL A   1      42.730  21.874  27.458  1.00  0.00    -0.744 OA
ENDBRANCH  62  65
ENDBRANCH  44  58
BRANCH  45  69
ATOM     69  C   UNL A   1      39.193  32.089  35.183  1.00  0.00     0.023 A 
ATOM     70  C   UNL A   1      38.294  31.535  36.114  1.00  0.00     0.012 A 
ATOM     71  C   UNL A   1      39.664  33.403  35.387  1.00  0.00     0.148 A 
ATOM     72  C   UNL A   1      37.864  32.276  37.216  1.00  0.00     0.002 A 
ATOM     73  C   UNL A   1      39.292  34.107  36.525  1.00  0.00     0.091 A 
ATOM     74  F   UNL A   1      40.498  33.926  34.477  1.00  0.00    -0.205 F 
ATOM     75  C   UNL A   1      38.376  33.553  37.432  1.00  0.00     0.022 A 
BRANCH  73  76
ATOM     76  S   UNL A   1      40.035  35.682  36.965  1.00  0.00     0.127 S 
ATOM     77  O   UNL A   1      39.655  36.521  35.832  1.00  0.00    -0.237 OA
ATOM     78  O   UNL A   1      39.354  35.997  38.222  1.00  0.00    -0.237 OA
ATOM     79  O   UNL A   1      41.461  35.419  37.109  1.00  0.00    -0.744 OA
ENDBRANCH  73  76
ENDBRANCH  45  69
BRANCH  57  80
ATOM     80  C   UNL A   1      44.607  27.760  34.272  1.00  0.00     0.023 A 
ATOM     81  C   UNL A   1      45.773  28.543  34.394  1.00  0.00     0.012 A 
ATOM     82  C   UNL A   1      44.455  26.612  35.077  1.00  0.00     0.148 A 
ATOM     83  C   UNL A   1      46.781  28.176  35.284  1.00  0.00     0.002 A 
ATOM     84  C   UNL A   1      45.440  26.284  36.000  1.00  0.00     0.091 A 
ATOM     85  F   UNL A   1      43.345  25.874  34.933  1.00  0.00    -0.205 F 
ATOM     86  C   UNL A   1      46.609  27.057  36.096  1.00  0.00     0.022 A 
BRANCH  84  87
ATOM     87  S   UNL A   1      45.262  24.927  37.162  1.00  0.00     0.127 S 
ATOM     88  O   UNL A   1      44.033  25.294  37.864  1.00  0.00    -0.237 OA
ATOM     89  O   UNL A   1      45.134  23.773  36.271  1.00  0.00    -0.237 OA
ATOM     90  O   UNL A   1      46.468  24.933  37.979  1.00  0.00    -0.744 OA
ENDBRANCH  84  87
ENDBRANCH  57  80
ENDBRANCH  31  32
ENDBRANCH  24  26
ENDBRANCH  23  24
ENDBRANCH   1  23
TORSDOF 15
ENDMDL
MODEL 3
REMARK VINA RESULT:     -12.3      1.392      1.587
REMARK SMILES Cc1cc2c(c(C)c1Cl)C=C(C(=O)OCCOC(=O)c1ccc(-c3c4nc(c(-c5cccc(S(=O)(=O)[O-])c5F)c5ccc([nH]5)c(-c5cccc(S(=O)(=O)[O-])c5F)c5nc(c(-c6cccc(S(=O)(=O)[O-])c6F)c6ccc3[nH]6)C=C5)C=C4)cc1)[C@@H](C(F)(F)F)O2
REMARK SMILES IDX 16 1 15 2 14 3 12 4 13 5 11 6 1 7 2 8 3 9 8 10 4 11 6 12
REMARK SMILES IDX 9 13 5 14 88 15 7 16 10 17 83 18 84 19 85 20 86 21 87 22
REMARK SMILES IDX 17 23 18 24 19 25 20 26 21 27 82 28 22 29 81 30 23 31 24 32
REMARK SMILES IDX 25 33 75 34 26 35 80 36 74 37 76 38 27 39 79 40 73 41 72 42
REMARK SMILES IDX 28 44 60 45 40 46 59 47 41 48 44 49 58 50 77 51 42 52 43 53
REMARK SMILES IDX 57 55 78 56 45 57 29 58 30 59 38 60 31 61 33 62 39 63 32 64
REMARK SMILES IDX 34 65 35 66 36 67 37 68 61 69 62 70 70 71 63 72 65 73 71 74
REMARK SMILES IDX 64 75 66 76 67 77 68 78 69 79 46 80 47 81 55 82 48 83 50 84
REMARK SMILES IDX 56 85 49 86 51 87 52 88 53 89 54 90
REMARK H PARENT 76 43 44 54
REMARK Flexibility Score: inf
ROOT
ATOM      1  C   UNL A   1      37.175  20.704  24.964  1.00  0.00     0.275 C 
ENDROOT
BRANCH   1   2
ATOM      2  C   UNL A   1      35.841  21.176  25.543  1.00  0.00     0.275 C 
BRANCH   2   3
ATOM      3  O   UNL A   1      35.725  22.615  25.493  1.00  0.00    -0.459 OA
BRANCH   3   4
ATOM      4  C   UNL A   1      34.597  23.128  26.035  1.00  0.00     0.338 C 
ATOM      5  O   UNL A   1      34.080  22.794  27.090  1.00  0.00    -0.246 OA
BRANCH   4   6
ATOM      6  C   UNL A   1      34.029  24.175  25.166  1.00  0.00     0.087 C 
ATOM      7  C   UNL A   1      30.765  29.102  22.482  1.00  0.00     0.046 C 
ATOM      8  C   UNL A   1      31.600  28.195  23.343  1.00  0.00    -0.028 A 
ATOM      9  C   UNL A   1      32.003  26.955  22.828  1.00  0.00     0.052 A 
ATOM     10  C   UNL A   1      31.946  28.531  24.667  1.00  0.00     0.047 A 
ATOM     11  C   UNL A   1      32.728  26.056  23.608  1.00  0.00     0.128 A 
ATOM     12  C   UNL A   1      32.699  27.643  25.467  1.00  0.00    -0.021 A 
ATOM     13  Cl  UNL A   1      31.403  30.055  25.303  1.00  0.00    -0.084 Cl
ATOM     14  C   UNL A   1      33.074  26.384  24.922  1.00  0.00     0.022 A 
ATOM     15  O   UNL A   1      33.064  24.883  22.989  1.00  0.00    -0.475 OA
ATOM     16  C   UNL A   1      33.106  28.008  26.876  1.00  0.00     0.047 C 
ATOM     17  C   UNL A   1      33.785  25.378  25.702  1.00  0.00     0.027 C 
ATOM     18  C   UNL A   1      33.615  23.798  23.780  1.00  0.00     0.316 C 
BRANCH  18  19
ATOM     19  C   UNL A   1      32.618  22.628  23.791  1.00  0.00     0.430 C 
ATOM     20  F   UNL A   1      31.750  22.710  22.752  1.00  0.00    -0.167 F 
ATOM     21  F   UNL A   1      33.248  21.433  23.665  1.00  0.00    -0.167 F 
ATOM     22  F   UNL A   1      31.886  22.582  24.926  1.00  0.00    -0.167 F 
ENDBRANCH  18  19
ENDBRANCH   4   6
ENDBRANCH   3   4
ENDBRANCH   2   3
ENDBRANCH   1   2
BRANCH   1  23
ATOM     23  O   UNL A   1      38.179  21.719  25.130  1.00  0.00    -0.458 OA
BRANCH  23  24
ATOM     24  C   UNL A   1      39.174  21.408  25.991  1.00  0.00     0.338 C 
ATOM     25  O   UNL A   1      39.750  20.339  26.098  1.00  0.00    -0.246 OA
BRANCH  24  26
ATOM     26  C   UNL A   1      39.575  22.599  26.754  1.00  0.00     0.060 A 
ATOM     27  C   UNL A   1      38.975  23.811  26.445  1.00  0.00     0.016 A 
ATOM     28  C   UNL A   1      40.675  22.565  27.606  1.00  0.00     0.016 A 
ATOM     29  C   UNL A   1      39.582  25.000  26.831  1.00  0.00     0.010 A 
ATOM     30  C   UNL A   1      41.187  23.765  28.121  1.00  0.00     0.010 A 
ATOM     31  C   UNL A   1      40.695  25.008  27.684  1.00  0.00    -0.014 A 
BRANCH  31  32
ATOM     32  C   UNL A   1      41.348  26.300  28.070  1.00  0.00     0.031 A 
ATOM     33  C   UNL A   1      40.588  27.343  28.863  1.00  0.00     0.074 A 
ATOM     34  C   UNL A   1      42.636  26.549  27.739  1.00  0.00     0.049 A 
ATOM     35  N   UNL A   1      40.911  28.586  29.116  1.00  0.00    -0.248 NA
ATOM     36  C   UNL A   1      39.288  26.945  29.433  1.00  0.00     0.031 C 
ATOM     37  C   UNL A   1      43.517  25.635  27.009  1.00  0.00     0.029 A 
ATOM     38  N   UNL A   1      43.436  27.642  27.977  1.00  0.00    -0.354 N 
ATOM     39  C   UNL A   1      39.826  29.139  29.789  1.00  0.00     0.074 A 
ATOM     40  C   UNL A   1      38.834  28.094  29.917  1.00  0.00     0.031 C 
ATOM     41  C   UNL A   1      44.740  26.170  26.915  1.00  0.00     0.029 A 
ATOM     42  C   UNL A   1      44.703  27.524  27.450  1.00  0.00     0.049 A 
ATOM     43  H   UNL A   1      43.131  28.435  28.477  1.00  0.00     0.167 HD
ATOM     44  C   UNL A   1      39.672  30.399  30.264  1.00  0.00     0.034 A 
ATOM     45  C   UNL A   1      45.710  28.413  27.340  1.00  0.00     0.034 A 
ATOM     46  C   UNL A   1      40.699  31.408  30.222  1.00  0.00     0.049 A 
ATOM     47  C   UNL A   1      45.508  29.807  27.860  1.00  0.00     0.074 A 
ATOM     48  C   UNL A   1      40.648  32.701  30.711  1.00  0.00     0.029 A 
ATOM     49  N   UNL A   1      41.963  31.234  29.683  1.00  0.00    -0.354 N 
ATOM     50  N   UNL A   1      44.475  30.308  28.492  1.00  0.00    -0.248 NA
ATOM     51  C   UNL A   1      46.608  30.760  27.654  1.00  0.00     0.031 C 
ATOM     52  C   UNL A   1      41.871  33.320  30.443  1.00  0.00     0.029 A 
ATOM     53  C   UNL A   1      42.698  32.400  29.820  1.00  0.00     0.049 A 
ATOM     54  H   UNL A   1      42.291  30.405  29.266  1.00  0.00     0.167 HD
ATOM     55  C   UNL A   1      44.805  31.628  28.772  1.00  0.00     0.074 A 
ATOM     56  C   UNL A   1      46.148  31.839  28.273  1.00  0.00     0.031 C 
ATOM     57  C   UNL A   1      44.052  32.585  29.366  1.00  0.00     0.034 A 
BRANCH  44  58
ATOM     58  C   UNL A   1      38.358  30.777  30.903  1.00  0.00     0.023 A 
ATOM     59  C   UNL A   1      38.174  30.614  32.290  1.00  0.00     0.012 A 
ATOM     60  C   UNL A   1      37.353  31.417  30.145  1.00  0.00     0.148 A 
ATOM     61  C   UNL A   1      37.006  31.062  32.910  1.00  0.00     0.002 A 
ATOM     62  C   UNL A   1      36.215  31.905  30.778  1.00  0.00     0.091 A 
ATOM     63  F   UNL A   1      37.539  31.551  28.825  1.00  0.00    -0.205 F 
ATOM     64  C   UNL A   1      36.035  31.720  32.157  1.00  0.00     0.022 A 
BRANCH  62  65
ATOM     65  S   UNL A   1      34.952  32.851  29.916  1.00  0.00     0.127 S 
ATOM     66  O   UNL A   1      34.028  33.168  31.004  1.00  0.00    -0.237 OA
ATOM     67  O   UNL A   1      35.715  33.994  29.414  1.00  0.00    -0.237 OA
ATOM     68  O   UNL A   1      34.418  31.971  28.887  1.00  0.00    -0.744 OA
ENDBRANCH  62  65
ENDBRANCH  44  58
BRANCH  45  69
ATOM     69  C   UNL A   1      46.995  28.007  26.695  1.00  0.00     0.023 A 
ATOM     70  C   UNL A   1      48.043  27.507  27.490  1.00  0.00     0.012 A 
ATOM     71  C   UNL A   1      47.162  28.058  25.295  1.00  0.00     0.148 A 
ATOM     72  C   UNL A   1      49.237  27.078  26.906  1.00  0.00     0.002 A 
ATOM     73  C   UNL A   1      48.322  27.560  24.716  1.00  0.00     0.091 A 
ATOM     74  F   UNL A   1      46.166  28.563  24.554  1.00  0.00    -0.205 F 
ATOM     75  C   UNL A   1      49.370  27.087  25.520  1.00  0.00     0.022 A 
BRANCH  73  76
ATOM     76  S   UNL A   1      48.504  27.377  22.938  1.00  0.00     0.127 S 
ATOM     77  O   UNL A   1      49.875  27.833  22.727  1.00  0.00    -0.237 OA
ATOM     78  O   UNL A   1      48.299  25.938  22.759  1.00  0.00    -0.237 OA
ATOM     79  O   UNL A   1      47.462  28.206  22.347  1.00  0.00    -0.744 OA
ENDBRANCH  73  76
ENDBRANCH  45  69
BRANCH  57  80
ATOM     80  C   UNL A   1      44.660  33.952  29.539  1.00  0.00     0.023 A 
ATOM     81  C   UNL A   1      45.345  34.265  30.729  1.00  0.00     0.012 A 
ATOM     82  C   UNL A   1      44.643  34.886  28.482  1.00  0.00     0.148 A 
ATOM     83  C   UNL A   1      45.982  35.496  30.876  1.00  0.00     0.002 A 
ATOM     84  C   UNL A   1      45.327  36.087  28.615  1.00  0.00     0.091 A 
ATOM     85  F   UNL A   1      43.973  34.573  27.364  1.00  0.00    -0.205 F 
ATOM     86  C   UNL A   1      45.986  36.400  29.816  1.00  0.00     0.022 A 
BRANCH  84  87
ATOM     87  S   UNL A   1      45.479  37.268  27.271  1.00  0.00     0.127 S 
ATOM     88  O   UNL A   1      46.328  38.296  27.870  1.00  0.00    -0.237 OA
ATOM     89  O   UNL A   1      46.129  36.469  26.231  1.00  0.00    -0.237 OA
ATOM     90  O   UNL A   1      44.123  37.693  26.950  1.00  0.00    -0.744 OA
ENDBRANCH  84  87
ENDBRANCH  57  80
ENDBRANCH  31  32
ENDBRANCH  24  26
ENDBRANCH  23  24
ENDBRANCH   1  23
TORSDOF 15
ENDMDL
