MODEL 1
REMARK VINA RESULT:     -11.3      0.000      0.000
REMARK SMILES CC(C)(C)OC(=O)N1[C@@H](C(=O)OCCOC(=O)c2ccc(-c3c4nc(c(-c5cccc(S(=O)(=O)[O-])c5F)c5ccc([nH]5)c(-c5cccc(S(=O)(=O)[O-])c5F)c5nc(c(-c6cccc(S(=O)(=O)[O-])c6F)c6ccc3[nH]6)C=C5)C=C4)cc2)C[C@H]2CCCC[C@@H]21
REMARK SMILES IDX 13 1 12 2 10 3 11 4 9 5 8 6 87 7 81 8 82 9 86 10 83 11 85 12
REMARK SMILES IDX 84 13 6 14 7 15 5 16 2 17 1 18 3 19 4 20 14 21 15 22 16 23
REMARK SMILES IDX 17 24 18 25 19 26 80 27 20 28 79 29 21 30 22 31 23 32 73 33
REMARK SMILES IDX 24 34 78 35 72 36 74 37 25 38 77 39 71 40 70 41 26 43 58 44
REMARK SMILES IDX 38 45 57 46 39 47 42 48 56 49 75 50 40 51 41 52 55 54 76 55
REMARK SMILES IDX 43 56 27 57 28 58 36 59 29 60 31 61 37 62 30 63 32 64 33 65
REMARK SMILES IDX 34 66 35 67 59 68 60 69 68 70 61 71 63 72 69 73 62 74 64 75
REMARK SMILES IDX 65 76 66 77 67 78 44 79 45 80 53 81 46 82 48 83 54 84 47 85
REMARK SMILES IDX 49 86 50 87 51 88 52 89
REMARK H PARENT 74 42 42 53
REMARK Flexibility Score: inf
ROOT
ATOM      1  C   UNL A   1      35.528  22.283  25.198  1.00  0.00     0.274 C 
ENDROOT
BRANCH   1   2
ATOM      2  O   UNL A   1      34.495  22.040  24.215  1.00  0.00    -0.461 OA
BRANCH   2   3
ATOM      3  C   UNL A   1      34.397  22.976  23.228  1.00  0.00     0.329 C 
ATOM      4  O   UNL A   1      35.338  23.677  22.868  1.00  0.00    -0.250 OA
BRANCH   3   5
ATOM      5  C   UNL A   1      32.937  23.187  22.752  1.00  0.00     0.199 C 
ATOM      6  N   UNL A   1      32.354  24.491  23.151  1.00  0.00    -0.291 N 
ATOM      7  C   UNL A   1      31.870  24.385  24.517  1.00  0.00     0.092 C 
ATOM      8  C   UNL A   1      32.122  22.158  23.579  1.00  0.00     0.043 C 
ATOM      9  C   UNL A   1      31.210  23.007  24.474  1.00  0.00     0.014 C 
ATOM     10  C   UNL A   1      30.882  25.391  25.107  1.00  0.00     0.025 C 
ATOM     11  C   UNL A   1      30.953  22.520  25.891  1.00  0.00     0.006 C 
ATOM     12  C   UNL A   1      30.452  24.952  26.513  1.00  0.00     0.002 C 
ATOM     13  C   UNL A   1      29.988  23.493  26.582  1.00  0.00     0.000 C 
BRANCH   6  14
ATOM     14  C   UNL A   1      32.232  25.654  22.419  1.00  0.00     0.411 C 
ATOM     15  O   UNL A   1      31.234  25.890  21.752  1.00  0.00    -0.224 OA
BRANCH  14  16
ATOM     16  O   UNL A   1      33.314  26.476  22.463  1.00  0.00    -0.444 OA
BRANCH  16  17
ATOM     17  C   UNL A   1      33.320  27.686  23.304  1.00  0.00     0.106 C 
ATOM     18  C   UNL A   1      34.261  28.682  22.613  1.00  0.00     0.056 C 
ATOM     19  C   UNL A   1      33.917  27.315  24.662  1.00  0.00     0.056 C 
ATOM     20  C   UNL A   1      31.977  28.409  23.534  1.00  0.00     0.056 C 
ENDBRANCH  16  17
ENDBRANCH  14  16
ENDBRANCH   6  14
ENDBRANCH   3   5
ENDBRANCH   2   3
ENDBRANCH   1   2
BRANCH   1  21
ATOM     21  C   UNL A   1      36.509  21.114  25.301  1.00  0.00     0.275 C 
BRANCH  21  22
ATOM     22  O   UNL A   1      37.830  21.506  24.886  1.00  0.00    -0.458 OA
BRANCH  22  23
ATOM     23  C   UNL A   1      38.811  21.141  25.741  1.00  0.00     0.338 C 
ATOM     24  O   UNL A   1      39.318  20.034  25.841  1.00  0.00    -0.246 OA
BRANCH  23  25
ATOM     25  C   UNL A   1      39.307  22.303  26.487  1.00  0.00     0.060 A 
ATOM     26  C   UNL A   1      38.828  23.555  26.120  1.00  0.00     0.016 A 
ATOM     27  C   UNL A   1      40.393  22.199  27.352  1.00  0.00     0.016 A 
ATOM     28  C   UNL A   1      39.502  24.703  26.503  1.00  0.00     0.010 A 
ATOM     29  C   UNL A   1      41.006  23.370  27.827  1.00  0.00     0.010 A 
ATOM     30  C   UNL A   1      40.600  24.634  27.366  1.00  0.00    -0.014 A 
BRANCH  30  31
ATOM     31  C   UNL A   1      41.305  25.894  27.730  1.00  0.00     0.031 A 
ATOM     32  C   UNL A   1      40.624  26.957  28.552  1.00  0.00     0.074 A 
ATOM     33  C   UNL A   1      42.591  26.061  27.360  1.00  0.00     0.049 A 
ATOM     34  N   UNL A   1      41.059  28.143  28.894  1.00  0.00    -0.248 NA
ATOM     35  C   UNL A   1      39.275  26.654  29.058  1.00  0.00     0.031 C 
ATOM     36  C   UNL A   1      43.387  25.090  26.604  1.00  0.00     0.029 A 
ATOM     37  N   UNL A   1      43.459  27.105  27.565  1.00  0.00    -0.354 N 
ATOM     38  C   UNL A   1      40.026  28.744  29.603  1.00  0.00     0.074 A 
ATOM     39  C   UNL A   1      38.942  27.788  29.657  1.00  0.00     0.031 C 
ATOM     40  C   UNL A   1      44.624  25.569  26.429  1.00  0.00     0.029 A 
ATOM     41  C   UNL A   1      44.682  26.922  26.964  1.00  0.00     0.049 A 
ATOM     42  H   UNL A   1      43.229  27.904  28.093  1.00  0.00     0.167 HD
ATOM     43  C   UNL A   1      39.980  29.982  30.151  1.00  0.00     0.034 A 
ATOM     44  C   UNL A   1      45.717  27.767  26.797  1.00  0.00     0.034 A 
ATOM     45  C   UNL A   1      41.067  30.923  30.107  1.00  0.00     0.049 A 
ATOM     46  C   UNL A   1      45.618  29.152  27.361  1.00  0.00     0.074 A 
ATOM     47  C   UNL A   1      41.123  32.198  30.643  1.00  0.00     0.029 A 
ATOM     48  N   UNL A   1      42.283  30.702  29.479  1.00  0.00    -0.354 N 
ATOM     49  N   UNL A   1      44.651  29.688  28.063  1.00  0.00    -0.248 NA
ATOM     50  C   UNL A   1      46.757  30.046  27.119  1.00  0.00     0.031 C 
ATOM     51  C   UNL A   1      42.354  32.764  30.299  1.00  0.00     0.029 A 
ATOM     52  C   UNL A   1      43.086  31.825  29.588  1.00  0.00     0.049 A 
ATOM     53  H   UNL A   1      42.539  29.867  29.023  1.00  0.00     0.167 HD
ATOM     54  C   UNL A   1      45.069  30.977  28.364  1.00  0.00     0.074 A 
ATOM     55  C   UNL A   1      46.392  31.129  27.791  1.00  0.00     0.031 C 
ATOM     56  C   UNL A   1      44.412  31.952  29.040  1.00  0.00     0.034 A 
BRANCH  43  57
ATOM     57  C   UNL A   1      38.699  30.404  30.825  1.00  0.00     0.023 A 
ATOM     58  C   UNL A   1      38.498  30.147  32.195  1.00  0.00     0.012 A 
ATOM     59  C   UNL A   1      37.710  31.102  30.101  1.00  0.00     0.148 A 
ATOM     60  C   UNL A   1      37.320  30.550  32.829  1.00  0.00     0.002 A 
ATOM     61  C   UNL A   1      36.558  31.537  30.748  1.00  0.00     0.091 A 
ATOM     62  F   UNL A   1      37.907  31.315  28.793  1.00  0.00    -0.205 F 
ATOM     63  C   UNL A   1      36.357  31.253  32.108  1.00  0.00     0.022 A 
BRANCH  61  64
ATOM     64  S   UNL A   1      35.295  32.512  29.922  1.00  0.00     0.127 S 
ATOM     65  O   UNL A   1      34.835  31.583  28.890  1.00  0.00    -0.237 OA
ATOM     66  O   UNL A   1      34.334  32.747  31.001  1.00  0.00    -0.237 OA
ATOM     67  O   UNL A   1      35.963  33.708  29.433  1.00  0.00    -0.744 OA
ENDBRANCH  61  64
ENDBRANCH  43  57
BRANCH  44  68
ATOM     68  C   UNL A   1      46.915  27.315  26.034  1.00  0.00     0.023 A 
ATOM     69  C   UNL A   1      47.034  27.628  24.668  1.00  0.00     0.012 A 
ATOM     70  C   UNL A   1      47.967  26.632  26.678  1.00  0.00     0.148 A 
ATOM     71  C   UNL A   1      48.174  27.256  23.952  1.00  0.00     0.002 A 
ATOM     72  C   UNL A   1      49.127  26.326  25.977  1.00  0.00     0.091 A 
ATOM     73  F   UNL A   1      47.825  26.323  27.975  1.00  0.00    -0.205 F 
ATOM     74  C   UNL A   1      49.225  26.622  24.610  1.00  0.00     0.022 A 
BRANCH  72  75
ATOM     75  S   UNL A   1      50.586  25.656  26.783  1.00  0.00     0.127 S 
ATOM     76  O   UNL A   1      51.508  25.512  25.661  1.00  0.00    -0.237 OA
ATOM     77  O   UNL A   1      50.925  26.720  27.729  1.00  0.00    -0.237 OA
ATOM     78  O   UNL A   1      50.155  24.413  27.410  1.00  0.00    -0.744 OA
ENDBRANCH  72  75
ENDBRANCH  44  68
BRANCH  56  79
ATOM     79  C   UNL A   1      45.125  33.265  29.222  1.00  0.00     0.023 A 
ATOM     80  C   UNL A   1      45.926  33.479  30.361  1.00  0.00     0.012 A 
ATOM     81  C   UNL A   1      45.041  34.267  28.236  1.00  0.00     0.148 A 
ATOM     82  C   UNL A   1      46.602  34.685  30.536  1.00  0.00     0.002 A 
ATOM     83  C   UNL A   1      45.758  35.447  28.391  1.00  0.00     0.091 A 
ATOM     84  F   UNL A   1      44.258  34.053  27.169  1.00  0.00    -0.205 F 
ATOM     85  C   UNL A   1      46.527  35.663  29.547  1.00  0.00     0.022 A 
BRANCH  83  86
ATOM     86  S   UNL A   1      45.800  36.721  27.127  1.00  0.00     0.127 S 
ATOM     87  O   UNL A   1      46.724  37.690  27.710  1.00  0.00    -0.237 OA
ATOM     88  O   UNL A   1      46.327  35.993  25.971  1.00  0.00    -0.237 OA
ATOM     89  O   UNL A   1      44.426  37.181  26.973  1.00  0.00    -0.744 OA
ENDBRANCH  83  86
ENDBRANCH  56  79
ENDBRANCH  30  31
ENDBRANCH  23  25
ENDBRANCH  22  23
ENDBRANCH  21  22
ENDBRANCH   1  21
TORSDOF 17
ENDMDL
MODEL 2
REMARK VINA RESULT:     -11.3      4.778      9.848
REMARK SMILES CC(C)(C)OC(=O)N1[C@@H](C(=O)OCCOC(=O)c2ccc(-c3c4nc(c(-c5cccc(S(=O)(=O)[O-])c5F)c5ccc([nH]5)c(-c5cccc(S(=O)(=O)[O-])c5F)c5nc(c(-c6cccc(S(=O)(=O)[O-])c6F)c6ccc3[nH]6)C=C5)C=C4)cc2)C[C@H]2CCCC[C@@H]21
REMARK SMILES IDX 13 1 12 2 10 3 11 4 9 5 8 6 87 7 81 8 82 9 86 10 83 11 85 12
REMARK SMILES IDX 84 13 6 14 7 15 5 16 2 17 1 18 3 19 4 20 14 21 15 22 16 23
REMARK SMILES IDX 17 24 18 25 19 26 80 27 20 28 79 29 21 30 22 31 23 32 73 33
REMARK SMILES IDX 24 34 78 35 72 36 74 37 25 38 77 39 71 40 70 41 26 43 58 44
REMARK SMILES IDX 38 45 57 46 39 47 42 48 56 49 75 50 40 51 41 52 55 54 76 55
REMARK SMILES IDX 43 56 27 57 28 58 36 59 29 60 31 61 37 62 30 63 32 64 33 65
REMARK SMILES IDX 34 66 35 67 59 68 60 69 68 70 61 71 63 72 69 73 62 74 64 75
REMARK SMILES IDX 65 76 66 77 67 78 44 79 45 80 53 81 46 82 48 83 54 84 47 85
REMARK SMILES IDX 49 86 50 87 51 88 52 89
REMARK H PARENT 74 42 42 53
REMARK Flexibility Score: inf
ROOT
ATOM      1  C   UNL A   1      31.488  29.580  24.338  1.00  0.00     0.274 C 
ENDROOT
BRANCH   1   2
ATOM      2  O   UNL A   1      31.135  28.179  24.411  1.00  0.00    -0.461 OA
BRANCH   2   3
ATOM      3  C   UNL A   1      32.051  27.317  23.882  1.00  0.00     0.329 C 
ATOM      4  O   UNL A   1      32.117  27.055  22.686  1.00  0.00    -0.250 OA
BRANCH   3   5
ATOM      5  C   UNL A   1      32.863  26.572  24.972  1.00  0.00     0.199 C 
ATOM      6  N   UNL A   1      33.220  25.179  24.612  1.00  0.00    -0.291 N 
ATOM      7  C   UNL A   1      32.085  24.319  24.900  1.00  0.00     0.092 C 
ATOM      8  C   UNL A   1      31.852  26.397  26.136  1.00  0.00     0.043 C 
ATOM      9  C   UNL A   1      31.643  24.881  26.251  1.00  0.00     0.014 C 
ATOM     10  C   UNL A   1      32.227  22.801  25.018  1.00  0.00     0.025 C 
ATOM     11  C   UNL A   1      30.246  24.381  26.580  1.00  0.00     0.006 C 
ATOM     12  C   UNL A   1      30.897  22.175  25.457  1.00  0.00     0.002 C 
ATOM     13  C   UNL A   1      30.280  22.850  26.687  1.00  0.00     0.000 C 
BRANCH   6  14
ATOM     14  C   UNL A   1      34.403  24.685  24.102  1.00  0.00     0.411 C 
ATOM     15  O   UNL A   1      34.522  24.402  22.917  1.00  0.00    -0.224 OA
BRANCH  14  16
ATOM     16  O   UNL A   1      35.389  24.498  25.018  1.00  0.00    -0.444 OA
BRANCH  16  17
ATOM     17  C   UNL A   1      36.299  23.342  24.937  1.00  0.00     0.106 C 
ATOM     18  C   UNL A   1      35.612  22.202  25.702  1.00  0.00     0.056 C 
ATOM     19  C   UNL A   1      37.593  23.706  25.666  1.00  0.00     0.056 C 
ATOM     20  C   UNL A   1      36.655  22.803  23.535  1.00  0.00     0.056 C 
ENDBRANCH  16  17
ENDBRANCH  14  16
ENDBRANCH   6  14
ENDBRANCH   3   5
ENDBRANCH   2   3
ENDBRANCH   1   2
BRANCH   1  21
ATOM     21  C   UNL A   1      31.327  30.283  25.686  1.00  0.00     0.275 C 
BRANCH  21  22
ATOM     22  O   UNL A   1      32.466  30.051  26.533  1.00  0.00    -0.458 OA
BRANCH  22  23
ATOM     23  C   UNL A   1      33.042  31.176  27.012  1.00  0.00     0.338 C 
ATOM     24  O   UNL A   1      32.495  32.250  27.208  1.00  0.00    -0.246 OA
BRANCH  23  25
ATOM     25  C   UNL A   1      34.434  30.920  27.399  1.00  0.00     0.060 A 
ATOM     26  C   UNL A   1      34.800  29.604  27.654  1.00  0.00     0.016 A 
ATOM     27  C   UNL A   1      35.293  31.961  27.745  1.00  0.00     0.016 A 
ATOM     28  C   UNL A   1      35.954  29.323  28.367  1.00  0.00     0.010 A 
ATOM     29  C   UNL A   1      36.515  31.664  28.370  1.00  0.00     0.010 A 
ATOM     30  C   UNL A   1      36.835  30.345  28.734  1.00  0.00    -0.014 A 
BRANCH  30  31
ATOM     31  C   UNL A   1      38.049  29.994  29.521  1.00  0.00     0.031 A 
ATOM     32  C   UNL A   1      39.111  29.089  28.950  1.00  0.00     0.074 A 
ATOM     33  C   UNL A   1      38.225  30.538  30.742  1.00  0.00     0.049 A 
ATOM     34  N   UNL A   1      40.191  28.619  29.521  1.00  0.00    -0.248 NA
ATOM     35  C   UNL A   1      38.941  28.650  27.556  1.00  0.00     0.031 C 
ATOM     36  C   UNL A   1      37.300  31.469  31.395  1.00  0.00     0.029 A 
ATOM     37  N   UNL A   1      39.237  30.388  31.657  1.00  0.00    -0.354 N 
ATOM     38  C   UNL A   1      40.796  27.793  28.582  1.00  0.00     0.074 A 
ATOM     39  C   UNL A   1      39.972  27.833  27.394  1.00  0.00     0.031 C 
ATOM     40  C   UNL A   1      37.794  31.823  32.586  1.00  0.00     0.029 A 
ATOM     41  C   UNL A   1      39.013  31.067  32.832  1.00  0.00     0.049 A 
ATOM     42  H   UNL A   1      40.045  29.850  31.488  1.00  0.00     0.167 HD
ATOM     43  C   UNL A   1      41.929  27.059  28.700  1.00  0.00     0.034 A 
ATOM     44  C   UNL A   1      39.673  31.039  34.006  1.00  0.00     0.034 A 
ATOM     45  C   UNL A   1      42.753  27.034  29.879  1.00  0.00     0.049 A 
ATOM     46  C   UNL A   1      40.890  30.173  34.131  1.00  0.00     0.074 A 
ATOM     47  C   UNL A   1      43.926  26.333  30.094  1.00  0.00     0.029 A 
ATOM     48  N   UNL A   1      42.483  27.727  31.050  1.00  0.00    -0.354 N 
ATOM     49  N   UNL A   1      41.470  29.431  33.220  1.00  0.00    -0.248 NA
ATOM     50  C   UNL A   1      41.550  30.148  35.442  1.00  0.00     0.031 C 
ATOM     51  C   UNL A   1      44.341  26.566  31.409  1.00  0.00     0.029 A 
ATOM     52  C   UNL A   1      43.452  27.450  32.000  1.00  0.00     0.049 A 
ATOM     53  H   UNL A   1      41.717  28.331  31.185  1.00  0.00     0.167 HD
ATOM     54  C   UNL A   1      42.575  28.863  33.840  1.00  0.00     0.074 A 
ATOM     55  C   UNL A   1      42.598  29.372  35.197  1.00  0.00     0.031 C 
ATOM     56  C   UNL A   1      43.480  27.987  33.336  1.00  0.00     0.034 A 
BRANCH  43  57
ATOM     57  C   UNL A   1      42.333  26.198  27.531  1.00  0.00     0.023 A 
ATOM     58  C   UNL A   1      43.161  26.717  26.517  1.00  0.00     0.012 A 
ATOM     59  C   UNL A   1      41.924  24.850  27.464  1.00  0.00     0.148 A 
ATOM     60  C   UNL A   1      43.552  25.919  25.440  1.00  0.00     0.002 A 
ATOM     61  C   UNL A   1      42.351  24.049  26.411  1.00  0.00     0.091 A 
ATOM     62  F   UNL A   1      41.115  24.379  28.424  1.00  0.00    -0.205 F 
ATOM     63  C   UNL A   1      43.155  24.584  25.393  1.00  0.00     0.022 A 
BRANCH  61  64
ATOM     64  S   UNL A   1      41.953  22.300  26.302  1.00  0.00     0.127 S 
ATOM     65  O   UNL A   1      42.648  21.916  25.074  1.00  0.00    -0.237 OA
ATOM     66  O   UNL A   1      42.549  21.772  27.529  1.00  0.00    -0.237 OA
ATOM     67  O   UNL A   1      40.501  22.220  26.249  1.00  0.00    -0.744 OA
ENDBRANCH  61  64
ENDBRANCH  43  57
BRANCH  44  68
ATOM     68  C   UNL A   1      39.161  31.841  35.154  1.00  0.00     0.023 A 
ATOM     69  C   UNL A   1      38.264  31.260  36.069  1.00  0.00     0.012 A 
ATOM     70  C   UNL A   1      39.613  33.158  35.373  1.00  0.00     0.148 A 
ATOM     71  C   UNL A   1      37.816  31.983  37.176  1.00  0.00     0.002 A 
ATOM     72  C   UNL A   1      39.218  33.846  36.513  1.00  0.00     0.091 A 
ATOM     73  F   UNL A   1      40.449  33.701  34.477  1.00  0.00    -0.205 F 
ATOM     74  C   UNL A   1      38.305  33.267  37.406  1.00  0.00     0.022 A 
BRANCH  72  75
ATOM     75  S   UNL A   1      39.921  35.435  36.967  1.00  0.00     0.127 S 
ATOM     76  O   UNL A   1      39.225  35.724  38.218  1.00  0.00    -0.237 OA
ATOM     77  O   UNL A   1      41.340  35.108  37.111  1.00  0.00    -0.237 OA
ATOM     78  O   UNL A   1      39.623  36.331  35.857  1.00  0.00    -0.744 OA
ENDBRANCH  72  75
ENDBRANCH  44  68
BRANCH  56  79
ATOM     79  C   UNL A   1      44.590  27.542  34.250  1.00  0.00     0.023 A 
ATOM     80  C   UNL A   1      45.739  28.345  34.404  1.00  0.00     0.012 A 
ATOM     81  C   UNL A   1      44.471  26.353  34.995  1.00  0.00     0.148 A 
ATOM     82  C   UNL A   1      46.768  27.951  35.256  1.00  0.00     0.002 A 
ATOM     83  C   UNL A   1      45.477  25.993  35.882  1.00  0.00     0.091 A 
ATOM     84  F   UNL A   1      43.379  25.594  34.820  1.00  0.00    -0.205 F 
ATOM     85  C   UNL A   1      46.633  26.782  36.003  1.00  0.00     0.022 A 
BRANCH  83  86
ATOM     86  S   UNL A   1      45.346  24.559  36.954  1.00  0.00     0.127 S 
ATOM     87  O   UNL A   1      46.737  24.359  37.356  1.00  0.00    -0.237 OA
ATOM     88  O   UNL A   1      44.468  25.046  38.019  1.00  0.00    -0.237 OA
ATOM     89  O   UNL A   1      44.773  23.497  36.139  1.00  0.00    -0.744 OA
ENDBRANCH  83  86
ENDBRANCH  56  79
ENDBRANCH  30  31
ENDBRANCH  23  25
ENDBRANCH  22  23
ENDBRANCH  21  22
ENDBRANCH   1  21
TORSDOF 17
ENDMDL
MODEL 3
REMARK VINA RESULT:     -10.8      5.239      8.368
REMARK SMILES CC(C)(C)OC(=O)N1[C@@H](C(=O)OCCOC(=O)c2ccc(-c3c4nc(c(-c5cccc(S(=O)(=O)[O-])c5F)c5ccc([nH]5)c(-c5cccc(S(=O)(=O)[O-])c5F)c5nc(c(-c6cccc(S(=O)(=O)[O-])c6F)c6ccc3[nH]6)C=C5)C=C4)cc2)C[C@H]2CCCC[C@@H]21
REMARK SMILES IDX 13 1 12 2 10 3 11 4 9 5 8 6 87 7 81 8 82 9 86 10 83 11 85 12
REMARK SMILES IDX 84 13 6 14 7 15 5 16 2 17 1 18 3 19 4 20 14 21 15 22 16 23
REMARK SMILES IDX 17 24 18 25 19 26 80 27 20 28 79 29 21 30 22 31 23 32 73 33
REMARK SMILES IDX 24 34 78 35 72 36 74 37 25 38 77 39 71 40 70 41 26 43 58 44
REMARK SMILES IDX 38 45 57 46 39 47 42 48 56 49 75 50 40 51 41 52 55 54 76 55
REMARK SMILES IDX 43 56 27 57 28 58 36 59 29 60 31 61 37 62 30 63 32 64 33 65
REMARK SMILES IDX 34 66 35 67 59 68 60 69 68 70 61 71 63 72 69 73 62 74 64 75
REMARK SMILES IDX 65 76 66 77 67 78 44 79 45 80 53 81 46 82 48 83 54 84 47 85
REMARK SMILES IDX 49 86 50 87 51 88 52 89
REMARK H PARENT 74 42 42 53
REMARK Flexibility Score: inf
ROOT
ATOM      1  C   UNL A   1      31.481  31.462  26.703  1.00  0.00     0.274 C 
ENDROOT
BRANCH   1   2
ATOM      2  O   UNL A   1      31.658  30.688  25.493  1.00  0.00    -0.461 OA
BRANCH   2   3
ATOM      3  C   UNL A   1      32.657  29.759  25.535  1.00  0.00     0.329 C 
ATOM      4  O   UNL A   1      33.593  29.812  26.327  1.00  0.00    -0.250 OA
BRANCH   3   5
ATOM      5  C   UNL A   1      32.581  28.751  24.360  1.00  0.00     0.199 C 
ATOM      6  N   UNL A   1      31.208  28.283  24.054  1.00  0.00    -0.291 N 
ATOM      7  C   UNL A   1      30.870  27.207  24.970  1.00  0.00     0.092 C 
ATOM      8  C   UNL A   1      33.282  27.482  24.911  1.00  0.00     0.043 C 
ATOM      9  C   UNL A   1      32.179  26.418  24.971  1.00  0.00     0.014 C 
ATOM     10  C   UNL A   1      29.712  26.246  24.699  1.00  0.00     0.025 C 
ATOM     11  C   UNL A   1      32.190  25.449  26.143  1.00  0.00     0.006 C 
ATOM     12  C   UNL A   1      29.677  25.141  25.762  1.00  0.00     0.002 C 
ATOM     13  C   UNL A   1      31.032  24.456  25.975  1.00  0.00     0.000 C 
BRANCH   6  14
ATOM     14  C   UNL A   1      30.333  28.719  23.080  1.00  0.00     0.411 C 
ATOM     15  O   UNL A   1      30.248  28.157  21.997  1.00  0.00    -0.224 OA
BRANCH  14  16
ATOM     16  O   UNL A   1      29.623  29.832  23.404  1.00  0.00    -0.444 OA
BRANCH  16  17
ATOM     17  C   UNL A   1      28.274  30.063  22.859  1.00  0.00     0.106 C 
ATOM     18  C   UNL A   1      27.683  31.232  23.659  1.00  0.00     0.056 C 
ATOM     19  C   UNL A   1      27.434  28.815  23.131  1.00  0.00     0.056 C 
ATOM     20  C   UNL A   1      28.155  30.425  21.364  1.00  0.00     0.056 C 
ENDBRANCH  16  17
ENDBRANCH  14  16
ENDBRANCH   6  14
ENDBRANCH   3   5
ENDBRANCH   2   3
ENDBRANCH   1   2
BRANCH   1  21
ATOM     21  C   UNL A   1      32.632  32.445  26.927  1.00  0.00     0.275 C 
BRANCH  21  22
ATOM     22  O   UNL A   1      32.157  33.679  27.495  1.00  0.00    -0.458 OA
BRANCH  22  23
ATOM     23  C   UNL A   1      33.085  34.357  28.206  1.00  0.00     0.338 C 
ATOM     24  O   UNL A   1      32.980  35.488  28.652  1.00  0.00    -0.246 OA
BRANCH  23  25
ATOM     25  C   UNL A   1      34.241  33.501  28.497  1.00  0.00     0.060 A 
ATOM     26  C   UNL A   1      34.017  32.350  29.242  1.00  0.00     0.016 A 
ATOM     27  C   UNL A   1      35.542  33.936  28.261  1.00  0.00     0.016 A 
ATOM     28  C   UNL A   1      35.072  31.702  29.865  1.00  0.00     0.010 A 
ATOM     29  C   UNL A   1      36.617  33.213  28.803  1.00  0.00     0.010 A 
ATOM     30  C   UNL A   1      36.391  32.117  29.655  1.00  0.00    -0.014 A 
BRANCH  30  31
ATOM     31  C   UNL A   1      37.488  31.404  30.365  1.00  0.00     0.031 A 
ATOM     32  C   UNL A   1      37.775  31.674  31.820  1.00  0.00     0.074 A 
ATOM     33  C   UNL A   1      38.200  30.466  29.709  1.00  0.00     0.049 A 
ATOM     34  N   UNL A   1      38.737  31.203  32.573  1.00  0.00    -0.248 NA
ATOM     35  C   UNL A   1      36.868  32.593  32.525  1.00  0.00     0.031 C 
ATOM     36  C   UNL A   1      37.993  30.070  28.313  1.00  0.00     0.029 A 
ATOM     37  N   UNL A   1      39.241  29.673  30.123  1.00  0.00    -0.354 N 
ATOM     38  C   UNL A   1      38.583  31.806  33.816  1.00  0.00     0.074 A 
ATOM     39  C   UNL A   1      37.427  32.669  33.725  1.00  0.00     0.031 C 
ATOM     40  C   UNL A   1      38.858  29.101  27.994  1.00  0.00     0.029 A 
ATOM     41  C   UNL A   1      39.751  28.879  29.122  1.00  0.00     0.049 A 
ATOM     42  H   UNL A   1      39.588  29.672  31.044  1.00  0.00     0.167 HD
ATOM     43  C   UNL A   1      39.342  31.662  34.929  1.00  0.00     0.034 A 
ATOM     44  C   UNL A   1      40.853  28.105  29.086  1.00  0.00     0.034 A 
ATOM     45  C   UNL A   1      40.483  30.790  35.020  1.00  0.00     0.049 A 
ATOM     46  C   UNL A   1      41.709  28.008  30.312  1.00  0.00     0.074 A 
ATOM     47  C   UNL A   1      41.309  30.564  36.106  1.00  0.00     0.029 A 
ATOM     48  N   UNL A   1      40.970  30.012  33.980  1.00  0.00    -0.354 N 
ATOM     49  N   UNL A   1      41.526  28.553  31.490  1.00  0.00    -0.248 NA
ATOM     50  C   UNL A   1      42.919  27.183  30.209  1.00  0.00     0.031 C 
ATOM     51  C   UNL A   1      42.323  29.686  35.710  1.00  0.00     0.029 A 
ATOM     52  C   UNL A   1      42.102  29.327  34.390  1.00  0.00     0.049 A 
ATOM     53  H   UNL A   1      40.569  29.954  33.083  1.00  0.00     0.167 HD
ATOM     54  C   UNL A   1      42.586  28.123  32.276  1.00  0.00     0.074 A 
ATOM     55  C   UNL A   1      43.392  27.249  31.447  1.00  0.00     0.031 C 
ATOM     56  C   UNL A   1      42.876  28.436  33.563  1.00  0.00     0.034 A 
BRANCH  43  57
ATOM     57  C   UNL A   1      38.979  32.487  36.138  1.00  0.00     0.023 A 
ATOM     58  C   UNL A   1      38.107  31.971  37.116  1.00  0.00     0.012 A 
ATOM     59  C   UNL A   1      39.546  33.765  36.324  1.00  0.00     0.148 A 
ATOM     60  C   UNL A   1      37.780  32.724  38.246  1.00  0.00     0.002 A 
ATOM     61  C   UNL A   1      39.250  34.492  37.471  1.00  0.00     0.091 A 
ATOM     62  F   UNL A   1      40.354  34.250  35.371  1.00  0.00    -0.205 F 
ATOM     63  C   UNL A   1      38.359  33.979  38.427  1.00  0.00     0.022 A 
BRANCH  61  64
ATOM     64  S   UNL A   1      40.001  36.084  37.829  1.00  0.00     0.127 S 
ATOM     65  O   UNL A   1      39.165  36.564  38.928  1.00  0.00    -0.237 OA
ATOM     66  O   UNL A   1      41.359  35.703  38.218  1.00  0.00    -0.237 OA
ATOM     67  O   UNL A   1      39.918  36.855  36.597  1.00  0.00    -0.744 OA
ENDBRANCH  61  64
ENDBRANCH  43  57
BRANCH  44  68
ATOM     68  C   UNL A   1      41.207  27.393  27.825  1.00  0.00     0.023 A 
ATOM     69  C   UNL A   1      41.734  28.114  26.739  1.00  0.00     0.012 A 
ATOM     70  C   UNL A   1      41.080  25.992  27.726  1.00  0.00     0.148 A 
ATOM     71  C   UNL A   1      42.118  27.453  25.570  1.00  0.00     0.002 A 
ATOM     72  C   UNL A   1      41.528  25.334  26.588  1.00  0.00     0.091 A 
ATOM     73  F   UNL A   1      40.554  25.327  28.765  1.00  0.00    -0.205 F 
ATOM     74  C   UNL A   1      42.030  26.065  25.502  1.00  0.00     0.022 A 
BRANCH  72  75
ATOM     75  S   UNL A   1      41.600  23.543  26.481  1.00  0.00     0.127 S 
ATOM     76  O   UNL A   1      40.189  23.195  26.334  1.00  0.00    -0.237 OA
ATOM     77  O   UNL A   1      42.414  23.344  25.281  1.00  0.00    -0.237 OA
ATOM     78  O   UNL A   1      42.235  23.098  27.715  1.00  0.00    -0.744 OA
ENDBRANCH  72  75
ENDBRANCH  44  68
BRANCH  56  79
ATOM     79  C   UNL A   1      44.104  27.808  34.166  1.00  0.00     0.023 A 
ATOM     80  C   UNL A   1      45.346  28.470  34.084  1.00  0.00     0.012 A 
ATOM     81  C   UNL A   1      44.016  26.585  34.859  1.00  0.00     0.148 A 
ATOM     82  C   UNL A   1      46.488  27.906  34.648  1.00  0.00     0.002 A 
ATOM     83  C   UNL A   1      45.147  26.054  35.464  1.00  0.00     0.091 A 
ATOM     84  F   UNL A   1      42.830  25.961  34.910  1.00  0.00    -0.205 F 
ATOM     85  C   UNL A   1      46.386  26.705  35.347  1.00  0.00     0.022 A 
BRANCH  83  86
ATOM     86  S   UNL A   1      45.093  24.565  36.466  1.00  0.00     0.127 S 
ATOM     87  O   UNL A   1      44.131  24.936  37.501  1.00  0.00    -0.237 OA
ATOM     88  O   UNL A   1      44.608  23.567  35.511  1.00  0.00    -0.237 OA
ATOM     89  O   UNL A   1      46.456  24.341  36.930  1.00  0.00    -0.744 OA
ENDBRANCH  83  86
ENDBRANCH  56  79
ENDBRANCH  30  31
ENDBRANCH  23  25
ENDBRANCH  22  23
ENDBRANCH  21  22
ENDBRANCH   1  21
TORSDOF 17
ENDMDL
