MODEL 1
REMARK VINA RESULT:      -9.9      0.000      0.000
REMARK SMILES C[C@H]1[C@H](C(=O)OCCOC(=O)c2ccc(-c3c4nc(c(-c5cccc(S(=O)(=O)[O-])c5F)c5ccc([nH]5)c(-c5cccc(S(=O)(=O)[O-])c5F)c5nc(c(-c6cccc(S(=O)(=O)[O-])c6F)c6ccc3[nH]6)C=C5)C=C4)cc2)CCN1S(=O)(=O)C(F)(F)F
REMARK SMILES IDX 8 1 7 2 6 3 4 4 5 5 3 6 1 7 2 8 77 9 75 10 76 11 78 12 79 13
REMARK SMILES IDX 80 14 81 15 82 16 83 17 84 18 9 19 10 20 11 21 12 22 13 23
REMARK SMILES IDX 74 24 14 25 73 26 15 27 16 28 17 29 67 30 18 31 72 32 66 33
REMARK SMILES IDX 68 34 19 35 71 36 65 37 64 38 20 40 52 41 32 42 51 43 33 44
REMARK SMILES IDX 36 45 50 46 69 47 34 48 35 49 49 51 70 52 37 53 21 54 22 55
REMARK SMILES IDX 30 56 23 57 25 58 31 59 24 60 26 61 27 62 28 63 29 64 53 65
REMARK SMILES IDX 54 66 62 67 55 68 57 69 63 70 56 71 58 72 59 73 60 74 61 75
REMARK SMILES IDX 38 76 39 77 47 78 40 79 42 80 48 81 41 82 43 83 44 84 45 85
REMARK SMILES IDX 46 86
REMARK H PARENT 68 39 36 50
REMARK Flexibility Score: inf
ROOT
ATOM      1  C   UNL A   1      33.794  33.251  27.769  1.00  0.00     0.275 C 
ENDROOT
BRANCH   1   2
ATOM      2  C   UNL A   1      34.147  34.524  28.545  1.00  0.00     0.274 C 
BRANCH   2   3
ATOM      3  O   UNL A   1      33.370  34.627  29.754  1.00  0.00    -0.462 OA
BRANCH   3   4
ATOM      4  C   UNL A   1      34.048  34.583  30.925  1.00  0.00     0.310 C 
ATOM      5  O   UNL A   1      33.919  35.391  31.837  1.00  0.00    -0.252 OA
BRANCH   4   6
ATOM      6  C   UNL A   1      35.036  33.438  31.012  1.00  0.00     0.118 C 
ATOM      7  C   UNL A   1      37.420  33.487  30.126  1.00  0.00     0.027 C 
ATOM      8  C   UNL A   1      36.496  33.828  31.300  1.00  0.00     0.084 C 
ATOM      9  N   UNL A   1      36.928  32.974  32.464  1.00  0.00    -0.190 NA
ATOM     10  C   UNL A   1      34.631  32.480  32.124  1.00  0.00     0.034 C 
ATOM     11  C   UNL A   1      35.943  31.866  32.560  1.00  0.00     0.104 C 
BRANCH   9  12
ATOM     12  S   UNL A   1      37.204  33.812  33.944  1.00  0.00     0.314 S 
ATOM     13  O   UNL A   1      36.452  35.053  33.851  1.00  0.00    -0.203 OA
ATOM     14  O   UNL A   1      36.865  32.869  34.999  1.00  0.00    -0.203 OA
BRANCH  12  15
ATOM     15  C   UNL A   1      39.043  34.155  33.976  1.00  0.00     0.511 C 
ATOM     16  F   UNL A   1      39.587  34.157  32.725  1.00  0.00    -0.155 F 
ATOM     17  F   UNL A   1      39.341  35.361  34.537  1.00  0.00    -0.155 F 
ATOM     18  F   UNL A   1      39.719  33.214  34.697  1.00  0.00    -0.155 F 
ENDBRANCH  12  15
ENDBRANCH   9  12
ENDBRANCH   4   6
ENDBRANCH   3   4
ENDBRANCH   2   3
ENDBRANCH   1   2
BRANCH   1  19
ATOM     19  O   UNL A   1      34.934  32.386  27.621  1.00  0.00    -0.458 OA
BRANCH  19  20
ATOM     20  C   UNL A   1      34.690  31.075  27.852  1.00  0.00     0.338 C 
ATOM     21  O   UNL A   1      33.649  30.471  27.655  1.00  0.00    -0.246 OA
BRANCH  20  22
ATOM     22  C   UNL A   1      35.934  30.407  28.255  1.00  0.00     0.060 A 
ATOM     23  C   UNL A   1      35.959  29.731  29.477  1.00  0.00     0.016 A 
ATOM     24  C   UNL A   1      37.085  30.518  27.477  1.00  0.00     0.016 A 
ATOM     25  C   UNL A   1      37.144  29.175  29.947  1.00  0.00     0.010 A 
ATOM     26  C   UNL A   1      38.271  29.945  27.941  1.00  0.00     0.010 A 
ATOM     27  C   UNL A   1      38.309  29.284  29.182  1.00  0.00    -0.014 A 
BRANCH  27  28
ATOM     28  C   UNL A   1      39.589  28.733  29.681  1.00  0.00     0.031 A 
ATOM     29  C   UNL A   1      40.323  29.451  30.775  1.00  0.00     0.074 A 
ATOM     30  C   UNL A   1      40.109  27.632  29.109  1.00  0.00     0.049 A 
ATOM     31  N   UNL A   1      41.538  29.262  31.213  1.00  0.00    -0.248 NA
ATOM     32  C   UNL A   1      39.593  30.532  31.459  1.00  0.00     0.031 C 
ATOM     33  C   UNL A   1      39.464  26.841  28.059  1.00  0.00     0.029 A 
ATOM     34  N   UNL A   1      41.318  27.013  29.301  1.00  0.00    -0.354 N 
ATOM     35  C   UNL A   1      41.743  30.236  32.182  1.00  0.00     0.074 A 
ATOM     36  C   UNL A   1      40.521  31.003  32.281  1.00  0.00     0.031 C 
ATOM     37  C   UNL A   1      40.300  25.863  27.673  1.00  0.00     0.029 A 
ATOM     38  C   UNL A   1      41.555  25.994  28.408  1.00  0.00     0.049 A 
ATOM     39  H   UNL A   1      41.954  27.273  30.007  1.00  0.00     0.167 HD
ATOM     40  C   UNL A   1      42.853  30.463  32.923  1.00  0.00     0.034 A 
ATOM     41  C   UNL A   1      42.673  25.281  28.176  1.00  0.00     0.034 A 
ATOM     42  C   UNL A   1      44.046  29.666  32.840  1.00  0.00     0.049 A 
ATOM     43  C   UNL A   1      43.899  25.564  29.001  1.00  0.00     0.074 A 
ATOM     44  C   UNL A   1      45.215  29.787  33.570  1.00  0.00     0.029 A 
ATOM     45  N   UNL A   1      44.223  28.596  31.974  1.00  0.00    -0.354 N 
ATOM     46  N   UNL A   1      44.059  26.439  29.964  1.00  0.00    -0.248 NA
ATOM     47  C   UNL A   1      45.093  24.751  28.725  1.00  0.00     0.031 C 
ATOM     48  C   UNL A   1      46.103  28.798  33.136  1.00  0.00     0.029 A 
ATOM     49  C   UNL A   1      45.481  28.050  32.149  1.00  0.00     0.049 A 
ATOM     50  H   UNL A   1      43.551  28.274  31.330  1.00  0.00     0.167 HD
ATOM     51  C   UNL A   1      45.354  26.259  30.434  1.00  0.00     0.074 A 
ATOM     52  C   UNL A   1      45.934  25.183  29.655  1.00  0.00     0.031 C 
ATOM     53  C   UNL A   1      46.010  26.931  31.412  1.00  0.00     0.034 A 
BRANCH  40  54
ATOM     54  C   UNL A   1      42.825  31.606  33.899  1.00  0.00     0.023 A 
ATOM     55  C   UNL A   1      43.160  32.903  33.465  1.00  0.00     0.012 A 
ATOM     56  C   UNL A   1      42.410  31.406  35.230  1.00  0.00     0.148 A 
ATOM     57  C   UNL A   1      43.107  33.982  34.348  1.00  0.00     0.002 A 
ATOM     58  C   UNL A   1      42.323  32.492  36.094  1.00  0.00     0.091 A 
ATOM     59  F   UNL A   1      42.121  30.160  35.631  1.00  0.00    -0.205 F 
ATOM     60  C   UNL A   1      42.679  33.778  35.658  1.00  0.00     0.022 A 
BRANCH  58  61
ATOM     61  S   UNL A   1      41.716  32.337  37.778  1.00  0.00     0.127 S 
ATOM     62  O   UNL A   1      40.341  31.893  37.557  1.00  0.00    -0.237 OA
ATOM     63  O   UNL A   1      42.604  31.317  38.336  1.00  0.00    -0.237 OA
ATOM     64  O   UNL A   1      41.862  33.658  38.377  1.00  0.00    -0.744 OA
ENDBRANCH  58  61
ENDBRANCH  40  54
BRANCH  41  65
ATOM     65  C   UNL A   1      42.672  24.220  27.130  1.00  0.00     0.023 A 
ATOM     66  C   UNL A   1      43.320  24.459  25.904  1.00  0.00     0.012 A 
ATOM     67  C   UNL A   1      42.077  22.963  27.359  1.00  0.00     0.148 A 
ATOM     68  C   UNL A   1      43.358  23.474  24.916  1.00  0.00     0.002 A 
ATOM     69  C   UNL A   1      42.166  21.967  26.393  1.00  0.00     0.091 A 
ATOM     70  F   UNL A   1      41.447  22.759  28.525  1.00  0.00    -0.205 F 
ATOM     71  C   UNL A   1      42.794  22.225  25.165  1.00  0.00     0.022 A 
BRANCH  69  72
ATOM     72  S   UNL A   1      41.585  20.292  26.685  1.00  0.00     0.127 S 
ATOM     73  O   UNL A   1      42.338  19.919  27.879  1.00  0.00    -0.237 OA
ATOM     74  O   UNL A   1      40.153  20.498  26.899  1.00  0.00    -0.237 OA
ATOM     75  O   UNL A   1      41.907  19.552  25.473  1.00  0.00    -0.744 OA
ENDBRANCH  69  72
ENDBRANCH  41  65
BRANCH  53  76
ATOM     76  C   UNL A   1      47.411  26.499  31.744  1.00  0.00     0.023 A 
ATOM     77  C   UNL A   1      47.627  25.548  32.760  1.00  0.00     0.012 A 
ATOM     78  C   UNL A   1      48.497  26.948  30.967  1.00  0.00     0.148 A 
ATOM     79  C   UNL A   1      48.909  25.060  33.006  1.00  0.00     0.002 A 
ATOM     80  C   UNL A   1      49.764  26.424  31.189  1.00  0.00     0.091 A 
ATOM     81  F   UNL A   1      48.267  27.867  30.018  1.00  0.00    -0.205 F 
ATOM     82  C   UNL A   1      49.973  25.485  32.214  1.00  0.00     0.022 A 
BRANCH  80  83
ATOM     83  S   UNL A   1      51.175  26.841  30.158  1.00  0.00     0.127 S 
ATOM     84  O   UNL A   1      52.214  25.975  30.712  1.00  0.00    -0.237 OA
ATOM     85  O   UNL A   1      50.707  26.459  28.826  1.00  0.00    -0.237 OA
ATOM     86  O   UNL A   1      51.395  28.270  30.336  1.00  0.00    -0.744 OA
ENDBRANCH  80  83
ENDBRANCH  53  76
ENDBRANCH  27  28
ENDBRANCH  20  22
ENDBRANCH  19  20
ENDBRANCH   1  19
TORSDOF 16
ENDMDL
MODEL 2
REMARK VINA RESULT:      -9.8      5.757      9.326
REMARK SMILES C[C@H]1[C@H](C(=O)OCCOC(=O)c2ccc(-c3c4nc(c(-c5cccc(S(=O)(=O)[O-])c5F)c5ccc([nH]5)c(-c5cccc(S(=O)(=O)[O-])c5F)c5nc(c(-c6cccc(S(=O)(=O)[O-])c6F)c6ccc3[nH]6)C=C5)C=C4)cc2)CCN1S(=O)(=O)C(F)(F)F
REMARK SMILES IDX 8 1 7 2 6 3 4 4 5 5 3 6 1 7 2 8 77 9 75 10 76 11 78 12 79 13
REMARK SMILES IDX 80 14 81 15 82 16 83 17 84 18 9 19 10 20 11 21 12 22 13 23
REMARK SMILES IDX 74 24 14 25 73 26 15 27 16 28 17 29 67 30 18 31 72 32 66 33
REMARK SMILES IDX 68 34 19 35 71 36 65 37 64 38 20 40 52 41 32 42 51 43 33 44
REMARK SMILES IDX 36 45 50 46 69 47 34 48 35 49 49 51 70 52 37 53 21 54 22 55
REMARK SMILES IDX 30 56 23 57 25 58 31 59 24 60 26 61 27 62 28 63 29 64 53 65
REMARK SMILES IDX 54 66 62 67 55 68 57 69 63 70 56 71 58 72 59 73 60 74 61 75
REMARK SMILES IDX 38 76 39 77 47 78 40 79 42 80 48 81 41 82 43 83 44 84 45 85
REMARK SMILES IDX 46 86
REMARK H PARENT 68 39 36 50
REMARK Flexibility Score: inf
ROOT
ATOM      1  C   UNL A   1      36.804  20.735  24.785  1.00  0.00     0.275 C 
ENDROOT
BRANCH   1   2
ATOM      2  C   UNL A   1      35.281  20.693  24.949  1.00  0.00     0.274 C 
BRANCH   2   3
ATOM      3  O   UNL A   1      34.895  21.027  26.296  1.00  0.00    -0.462 OA
BRANCH   3   4
ATOM      4  C   UNL A   1      34.110  22.119  26.456  1.00  0.00     0.310 C 
ATOM      5  O   UNL A   1      33.452  22.364  27.460  1.00  0.00    -0.252 OA
BRANCH   4   6
ATOM      6  C   UNL A   1      34.081  23.029  25.245  1.00  0.00     0.118 C 
ATOM      7  C   UNL A   1      32.369  22.918  23.367  1.00  0.00     0.027 C 
ATOM      8  C   UNL A   1      32.686  23.465  24.764  1.00  0.00     0.084 C 
ATOM      9  N   UNL A   1      32.742  24.966  24.647  1.00  0.00    -0.190 NA
ATOM     10  C   UNL A   1      34.843  24.314  25.538  1.00  0.00     0.034 C 
ATOM     11  C   UNL A   1      34.182  25.333  24.637  1.00  0.00     0.104 C 
BRANCH   9  12
ATOM     12  S   UNL A   1      31.791  25.840  25.787  1.00  0.00     0.314 S 
ATOM     13  O   UNL A   1      31.303  24.858  26.742  1.00  0.00    -0.203 OA
ATOM     14  O   UNL A   1      32.645  26.915  26.269  1.00  0.00    -0.203 OA
BRANCH  12  15
ATOM     15  C   UNL A   1      30.377  26.558  24.796  1.00  0.00     0.511 C 
ATOM     16  F   UNL A   1      30.387  27.921  24.799  1.00  0.00    -0.155 F 
ATOM     17  F   UNL A   1      30.401  26.167  23.491  1.00  0.00    -0.155 F 
ATOM     18  F   UNL A   1      29.166  26.172  25.294  1.00  0.00    -0.155 F 
ENDBRANCH  12  15
ENDBRANCH   9  12
ENDBRANCH   4   6
ENDBRANCH   3   4
ENDBRANCH   2   3
ENDBRANCH   1   2
BRANCH   1  19
ATOM     19  O   UNL A   1      37.431  21.498  25.831  1.00  0.00    -0.458 OA
BRANCH  19  20
ATOM     20  C   UNL A   1      38.749  21.253  26.007  1.00  0.00     0.338 C 
ATOM     21  O   UNL A   1      39.369  20.263  25.659  1.00  0.00    -0.246 OA
BRANCH  20  22
ATOM     22  C   UNL A   1      39.401  22.444  26.567  1.00  0.00     0.060 A 
ATOM     23  C   UNL A   1      38.972  23.701  26.133  1.00  0.00     0.016 A 
ATOM     24  C   UNL A   1      40.477  22.321  27.444  1.00  0.00     0.016 A 
ATOM     25  C   UNL A   1      39.631  24.851  26.555  1.00  0.00     0.010 A 
ATOM     26  C   UNL A   1      41.127  23.476  27.882  1.00  0.00     0.010 A 
ATOM     27  C   UNL A   1      40.717  24.743  27.430  1.00  0.00    -0.014 A 
BRANCH  27  28
ATOM     28  C   UNL A   1      41.455  25.951  27.862  1.00  0.00     0.031 A 
ATOM     29  C   UNL A   1      40.737  27.012  28.643  1.00  0.00     0.074 A 
ATOM     30  C   UNL A   1      42.740  26.113  27.500  1.00  0.00     0.049 A 
ATOM     31  N   UNL A   1      41.127  28.221  28.940  1.00  0.00    -0.248 NA
ATOM     32  C   UNL A   1      39.397  26.667  29.147  1.00  0.00     0.031 C 
ATOM     33  C   UNL A   1      43.540  25.130  26.766  1.00  0.00     0.029 A 
ATOM     34  N   UNL A   1      43.586  27.180  27.662  1.00  0.00    -0.354 N 
ATOM     35  C   UNL A   1      40.062  28.805  29.614  1.00  0.00     0.074 A 
ATOM     36  C   UNL A   1      39.014  27.811  29.698  1.00  0.00     0.031 C 
ATOM     37  C   UNL A   1      44.749  25.656  26.509  1.00  0.00     0.029 A 
ATOM     38  C   UNL A   1      44.787  27.026  27.012  1.00  0.00     0.049 A 
ATOM     39  H   UNL A   1      43.355  27.978  28.192  1.00  0.00     0.167 HD
ATOM     40  C   UNL A   1      39.972  30.058  30.118  1.00  0.00     0.034 A 
ATOM     41  C   UNL A   1      45.784  27.907  26.802  1.00  0.00     0.034 A 
ATOM     42  C   UNL A   1      41.037  31.021  30.061  1.00  0.00     0.049 A 
ATOM     43  C   UNL A   1      45.653  29.298  27.358  1.00  0.00     0.074 A 
ATOM     44  C   UNL A   1      41.064  32.306  30.573  1.00  0.00     0.029 A 
ATOM     45  N   UNL A   1      42.267  30.803  29.457  1.00  0.00    -0.354 N 
ATOM     46  N   UNL A   1      44.671  29.816  28.056  1.00  0.00    -0.248 NA
ATOM     47  C   UNL A   1      46.772  30.222  27.119  1.00  0.00     0.031 C 
ATOM     48  C   UNL A   1      42.306  32.870  30.266  1.00  0.00     0.029 A 
ATOM     49  C   UNL A   1      43.059  31.930  29.580  1.00  0.00     0.049 A 
ATOM     50  H   UNL A   1      42.535  29.970  29.007  1.00  0.00     0.167 HD
ATOM     51  C   UNL A   1      45.067  31.110  28.370  1.00  0.00     0.074 A 
ATOM     52  C   UNL A   1      46.384  31.296  27.795  1.00  0.00     0.031 C 
ATOM     53  C   UNL A   1      44.396  32.065  29.061  1.00  0.00     0.034 A 
BRANCH  40  54
ATOM     54  C   UNL A   1      38.687  30.453  30.792  1.00  0.00     0.023 A 
ATOM     55  C   UNL A   1      38.506  30.186  32.163  1.00  0.00     0.012 A 
ATOM     56  C   UNL A   1      37.683  31.141  30.081  1.00  0.00     0.148 A 
ATOM     57  C   UNL A   1      37.335  30.576  32.812  1.00  0.00     0.002 A 
ATOM     58  C   UNL A   1      36.535  31.559  30.743  1.00  0.00     0.091 A 
ATOM     59  F   UNL A   1      37.863  31.361  28.771  1.00  0.00    -0.205 F 
ATOM     60  C   UNL A   1      36.355  31.271  32.106  1.00  0.00     0.022 A 
BRANCH  58  61
ATOM     61  S   UNL A   1      35.251  32.520  29.933  1.00  0.00     0.127 S 
ATOM     62  O   UNL A   1      34.798  31.593  28.898  1.00  0.00    -0.237 OA
ATOM     63  O   UNL A   1      34.294  32.737  31.019  1.00  0.00    -0.237 OA
ATOM     64  O   UNL A   1      35.902  33.731  29.452  1.00  0.00    -0.744 OA
ENDBRANCH  58  61
ENDBRANCH  40  54
BRANCH  41  65
ATOM     65  C   UNL A   1      46.998  27.486  26.046  1.00  0.00     0.023 A 
ATOM     66  C   UNL A   1      47.970  26.695  26.688  1.00  0.00     0.012 A 
ATOM     67  C   UNL A   1      47.171  27.821  24.688  1.00  0.00     0.148 A 
ATOM     68  C   UNL A   1      49.104  26.264  25.996  1.00  0.00     0.002 A 
ATOM     69  C   UNL A   1      48.274  27.342  23.991  1.00  0.00     0.091 A 
ATOM     70  F   UNL A   1      46.244  28.591  24.099  1.00  0.00    -0.205 F 
ATOM     71  C   UNL A   1      49.249  26.575  24.647  1.00  0.00     0.022 A 
BRANCH  69  72
ATOM     72  S   UNL A   1      48.469  27.583  22.221  1.00  0.00     0.127 S 
ATOM     73  O   UNL A   1      49.625  28.474  22.167  1.00  0.00    -0.237 OA
ATOM     74  O   UNL A   1      48.719  26.221  21.752  1.00  0.00    -0.237 OA
ATOM     75  O   UNL A   1      47.208  28.150  21.765  1.00  0.00    -0.744 OA
ENDBRANCH  69  72
ENDBRANCH  41  65
BRANCH  53  76
ATOM     76  C   UNL A   1      45.084  33.383  29.288  1.00  0.00     0.023 A 
ATOM     77  C   UNL A   1      45.989  33.523  30.357  1.00  0.00     0.012 A 
ATOM     78  C   UNL A   1      44.920  34.438  28.370  1.00  0.00     0.148 A 
ATOM     79  C   UNL A   1      46.714  34.703  30.516  1.00  0.00     0.002 A 
ATOM     80  C   UNL A   1      45.677  35.594  28.510  1.00  0.00     0.091 A 
ATOM     81  F   UNL A   1      44.039  34.285  27.371  1.00  0.00    -0.205 F 
ATOM     82  C   UNL A   1      46.569  35.731  29.587  1.00  0.00     0.022 A 
BRANCH  80  83
ATOM     83  S   UNL A   1      45.629  36.930  27.309  1.00  0.00     0.127 S 
ATOM     84  O   UNL A   1      46.261  38.020  28.052  1.00  0.00    -0.237 OA
ATOM     85  O   UNL A   1      46.433  36.390  26.214  1.00  0.00    -0.237 OA
ATOM     86  O   UNL A   1      44.222  37.130  26.987  1.00  0.00    -0.744 OA
ENDBRANCH  80  83
ENDBRANCH  53  76
ENDBRANCH  27  28
ENDBRANCH  20  22
ENDBRANCH  19  20
ENDBRANCH   1  19
TORSDOF 16
ENDMDL
MODEL 3
REMARK VINA RESULT:      -9.8      5.528      9.297
REMARK SMILES C[C@H]1[C@H](C(=O)OCCOC(=O)c2ccc(-c3c4nc(c(-c5cccc(S(=O)(=O)[O-])c5F)c5ccc([nH]5)c(-c5cccc(S(=O)(=O)[O-])c5F)c5nc(c(-c6cccc(S(=O)(=O)[O-])c6F)c6ccc3[nH]6)C=C5)C=C4)cc2)CCN1S(=O)(=O)C(F)(F)F
REMARK SMILES IDX 8 1 7 2 6 3 4 4 5 5 3 6 1 7 2 8 77 9 75 10 76 11 78 12 79 13
REMARK SMILES IDX 80 14 81 15 82 16 83 17 84 18 9 19 10 20 11 21 12 22 13 23
REMARK SMILES IDX 74 24 14 25 73 26 15 27 16 28 17 29 67 30 18 31 72 32 66 33
REMARK SMILES IDX 68 34 19 35 71 36 65 37 64 38 20 40 52 41 32 42 51 43 33 44
REMARK SMILES IDX 36 45 50 46 69 47 34 48 35 49 49 51 70 52 37 53 21 54 22 55
REMARK SMILES IDX 30 56 23 57 25 58 31 59 24 60 26 61 27 62 28 63 29 64 53 65
REMARK SMILES IDX 54 66 62 67 55 68 57 69 63 70 56 71 58 72 59 73 60 74 61 75
REMARK SMILES IDX 38 76 39 77 47 78 40 79 42 80 48 81 41 82 43 83 44 84 45 85
REMARK SMILES IDX 46 86
REMARK H PARENT 68 39 36 50
REMARK Flexibility Score: inf
ROOT
ATOM      1  C   UNL A   1      36.228  20.679  25.061  1.00  0.00     0.275 C 
ENDROOT
BRANCH   1   2
ATOM      2  C   UNL A   1      34.789  20.988  25.485  1.00  0.00     0.274 C 
BRANCH   2   3
ATOM      3  O   UNL A   1      34.325  22.215  24.890  1.00  0.00    -0.462 OA
BRANCH   3   4
ATOM      4  C   UNL A   1      33.141  22.171  24.235  1.00  0.00     0.310 C 
ATOM      5  O   UNL A   1      32.814  21.296  23.441  1.00  0.00    -0.252 OA
BRANCH   4   6
ATOM      6  C   UNL A   1      32.231  23.343  24.543  1.00  0.00     0.118 C 
ATOM      7  C   UNL A   1      32.859  25.348  25.978  1.00  0.00     0.027 C 
ATOM      8  C   UNL A   1      32.904  24.726  24.577  1.00  0.00     0.084 C 
ATOM      9  N   UNL A   1      32.079  25.607  23.677  1.00  0.00    -0.190 NA
ATOM     10  C   UNL A   1      31.129  23.439  23.499  1.00  0.00     0.034 C 
ATOM     11  C   UNL A   1      30.780  24.911  23.484  1.00  0.00     0.104 C 
BRANCH   9  12
ATOM     12  S   UNL A   1      32.842  26.109  22.216  1.00  0.00     0.314 S 
ATOM     13  O   UNL A   1      33.961  25.201  22.015  1.00  0.00    -0.203 OA
ATOM     14  O   UNL A   1      31.788  26.148  21.214  1.00  0.00    -0.203 OA
BRANCH  12  15
ATOM     15  C   UNL A   1      33.453  27.844  22.555  1.00  0.00     0.511 C 
ATOM     16  F   UNL A   1      32.428  28.739  22.650  1.00  0.00    -0.155 F 
ATOM     17  F   UNL A   1      34.163  27.933  23.714  1.00  0.00    -0.155 F 
ATOM     18  F   UNL A   1      34.275  28.292  21.561  1.00  0.00    -0.155 F 
ENDBRANCH  12  15
ENDBRANCH   9  12
ENDBRANCH   4   6
ENDBRANCH   3   4
ENDBRANCH   2   3
ENDBRANCH   1   2
BRANCH   1  19
ATOM     19  O   UNL A   1      37.123  21.755  25.394  1.00  0.00    -0.458 OA
BRANCH  19  20
ATOM     20  C   UNL A   1      38.361  21.370  25.783  1.00  0.00     0.338 C 
ATOM     21  O   UNL A   1      38.900  20.296  25.575  1.00  0.00    -0.246 OA
BRANCH  20  22
ATOM     22  C   UNL A   1      39.061  22.508  26.392  1.00  0.00     0.060 A 
ATOM     23  C   UNL A   1      38.658  23.799  26.043  1.00  0.00     0.016 A 
ATOM     24  C   UNL A   1      40.157  22.303  27.229  1.00  0.00     0.016 A 
ATOM     25  C   UNL A   1      39.361  24.904  26.512  1.00  0.00     0.010 A 
ATOM     26  C   UNL A   1      40.852  23.413  27.713  1.00  0.00     0.010 A 
ATOM     27  C   UNL A   1      40.467  24.716  27.347  1.00  0.00    -0.014 A 
BRANCH  27  28
ATOM     28  C   UNL A   1      41.252  25.875  27.827  1.00  0.00     0.031 A 
ATOM     29  C   UNL A   1      40.570  26.942  28.632  1.00  0.00     0.074 A 
ATOM     30  C   UNL A   1      42.547  25.991  27.485  1.00  0.00     0.049 A 
ATOM     31  N   UNL A   1      41.009  28.123  28.972  1.00  0.00    -0.248 NA
ATOM     32  C   UNL A   1      39.210  26.640  29.109  1.00  0.00     0.031 C 
ATOM     33  C   UNL A   1      43.313  24.998  26.730  1.00  0.00     0.029 A 
ATOM     34  N   UNL A   1      43.436  27.014  27.692  1.00  0.00    -0.354 N 
ATOM     35  C   UNL A   1      39.962  28.732  29.652  1.00  0.00     0.074 A 
ATOM     36  C   UNL A   1      38.870  27.782  29.692  1.00  0.00     0.031 C 
ATOM     37  C   UNL A   1      44.547  25.477  26.505  1.00  0.00     0.029 A 
ATOM     38  C   UNL A   1      44.639  26.828  27.051  1.00  0.00     0.049 A 
ATOM     39  H   UNL A   1      43.234  27.804  28.244  1.00  0.00     0.167 HD
ATOM     40  C   UNL A   1      39.920  29.970  30.195  1.00  0.00     0.034 A 
ATOM     41  C   UNL A   1      45.676  27.669  26.881  1.00  0.00     0.034 A 
ATOM     42  C   UNL A   1      41.027  30.887  30.182  1.00  0.00     0.049 A 
ATOM     43  C   UNL A   1      45.599  29.048  27.481  1.00  0.00     0.074 A 
ATOM     44  C   UNL A   1      41.103  32.153  30.734  1.00  0.00     0.029 A 
ATOM     45  N   UNL A   1      42.254  30.634  29.586  1.00  0.00    -0.354 N 
ATOM     46  N   UNL A   1      44.631  29.586  28.183  1.00  0.00    -0.248 NA
ATOM     47  C   UNL A   1      46.760  29.928  27.284  1.00  0.00     0.031 C 
ATOM     48  C   UNL A   1      42.373  32.670  30.461  1.00  0.00     0.029 A 
ATOM     49  C   UNL A   1      43.093  31.720  29.754  1.00  0.00     0.049 A 
ATOM     50  H   UNL A   1      42.491  29.804  29.113  1.00  0.00     0.167 HD
ATOM     51  C   UNL A   1      45.079  30.851  28.543  1.00  0.00     0.074 A 
ATOM     52  C   UNL A   1      46.410  30.996  27.990  1.00  0.00     0.031 C 
ATOM     53  C   UNL A   1      44.442  31.812  29.256  1.00  0.00     0.034 A 
BRANCH  40  54
ATOM     54  C   UNL A   1      38.645  30.401  30.865  1.00  0.00     0.023 A 
ATOM     55  C   UNL A   1      38.450  30.132  32.234  1.00  0.00     0.012 A 
ATOM     56  C   UNL A   1      37.665  31.123  30.154  1.00  0.00     0.148 A 
ATOM     57  C   UNL A   1      37.288  30.553  32.881  1.00  0.00     0.002 A 
ATOM     58  C   UNL A   1      36.528  31.572  30.815  1.00  0.00     0.091 A 
ATOM     59  F   UNL A   1      37.857  31.345  28.847  1.00  0.00    -0.205 F 
ATOM     60  C   UNL A   1      36.333  31.281  32.174  1.00  0.00     0.022 A 
BRANCH  58  61
ATOM     61  S   UNL A   1      35.277  32.576  30.005  1.00  0.00     0.127 S 
ATOM     62  O   UNL A   1      34.815  31.677  28.949  1.00  0.00    -0.237 OA
ATOM     63  O   UNL A   1      34.312  32.798  31.082  1.00  0.00    -0.237 OA
ATOM     64  O   UNL A   1      35.962  33.779  29.552  1.00  0.00    -0.744 OA
ENDBRANCH  58  61
ENDBRANCH  40  54
BRANCH  41  65
ATOM     65  C   UNL A   1      46.880  27.219  26.127  1.00  0.00     0.023 A 
ATOM     66  C   UNL A   1      46.968  27.483  24.747  1.00  0.00     0.012 A 
ATOM     67  C   UNL A   1      47.955  26.578  26.774  1.00  0.00     0.148 A 
ATOM     68  C   UNL A   1      48.096  27.098  24.021  1.00  0.00     0.002 A 
ATOM     69  C   UNL A   1      49.099  26.246  26.056  1.00  0.00     0.091 A 
ATOM     70  F   UNL A   1      47.846  26.317  28.085  1.00  0.00    -0.205 F 
ATOM     71  C   UNL A   1      49.165  26.492  24.676  1.00  0.00     0.022 A 
BRANCH  69  72
ATOM     72  S   UNL A   1      50.571  25.586  26.847  1.00  0.00     0.127 S 
ATOM     73  O   UNL A   1      51.453  25.371  25.704  1.00  0.00    -0.237 OA
ATOM     74  O   UNL A   1      50.963  26.686  27.729  1.00  0.00    -0.237 OA
ATOM     75  O   UNL A   1      50.132  24.387  27.547  1.00  0.00    -0.744 OA
ENDBRANCH  69  72
ENDBRANCH  41  65
BRANCH  53  76
ATOM     76  C   UNL A   1      45.183  33.090  29.533  1.00  0.00     0.023 A 
ATOM     77  C   UNL A   1      46.025  33.180  30.659  1.00  0.00     0.012 A 
ATOM     78  C   UNL A   1      45.135  34.155  28.612  1.00  0.00     0.148 A 
ATOM     79  C   UNL A   1      46.800  34.319  30.870  1.00  0.00     0.002 A 
ATOM     80  C   UNL A   1      45.943  35.268  28.806  1.00  0.00     0.091 A 
ATOM     81  F   UNL A   1      44.312  34.052  27.559  1.00  0.00    -0.205 F 
ATOM     82  C   UNL A   1      46.771  35.355  29.938  1.00  0.00     0.022 A 
BRANCH  80  83
ATOM     83  S   UNL A   1      46.043  36.607  27.612  1.00  0.00     0.127 S 
ATOM     84  O   UNL A   1      44.771  37.295  27.831  1.00  0.00    -0.237 OA
ATOM     85  O   UNL A   1      47.222  37.342  28.070  1.00  0.00    -0.237 OA
ATOM     86  O   UNL A   1      46.192  35.974  26.309  1.00  0.00    -0.744 OA
ENDBRANCH  80  83
ENDBRANCH  53  76
ENDBRANCH  27  28
ENDBRANCH  20  22
ENDBRANCH  19  20
ENDBRANCH   1  19
TORSDOF 16
ENDMDL
