MODEL 1
REMARK VINA RESULT:     -11.9      0.000      0.000
REMARK SMILES CCc1cc(C[NH+]2CCC(C(=O)OCCOC(=O)c3ccc(-c4c5nc(c(-c6cccc(S(=O)(=O)[O-])c6F)c6ccc([nH]6)c(-c6cccc(S(=O)(=O)[O-])c6F)c6nc(c(-c7cccc(S(=O)(=O)[O-])c7F)c7ccc4[nH]7)C=C6)C=C5)cc3)(n3ccc(-c4ccco4)n3)CC2)on1
REMARK SMILES IDX 14 1 13 2 11 3 12 4 10 5 7 6 8 7 93 8 9 10 92 11 6 12 5 13
REMARK SMILES IDX 3 14 4 15 95 16 94 17 2 18 1 19 82 20 83 21 91 22 84 23
REMARK SMILES IDX 85 24 86 25 87 26 90 27 88 28 89 29 15 30 16 31 17 32 18 33
REMARK SMILES IDX 19 34 20 35 81 36 21 37 80 38 22 39 23 40 24 41 74 42 25 43
REMARK SMILES IDX 79 44 73 45 75 46 26 47 78 48 72 49 71 50 27 52 59 53 39 54
REMARK SMILES IDX 58 55 40 56 43 57 57 58 76 59 41 60 42 61 56 63 77 64 44 65
REMARK SMILES IDX 28 66 29 67 37 68 30 69 32 70 38 71 31 72 33 73 34 74 35 75
REMARK SMILES IDX 36 76 60 77 61 78 69 79 62 80 64 81 70 82 63 83 65 84 66 85
REMARK SMILES IDX 67 86 68 87 45 88 46 89 54 90 47 91 49 92 55 93 48 94 50 95
REMARK SMILES IDX 51 96 52 97 53 98
REMARK H PARENT 7 9 75 51 43 62
REMARK Flexibility Score: inf
ROOT
ATOM      1  C   UNL A   1      30.962  29.726  24.012  1.00  0.00     0.274 C 
ENDROOT
BRANCH   1   2
ATOM      2  O   UNL A   1      31.908  28.678  23.704  1.00  0.00    -0.460 OA
BRANCH   2   3
ATOM      3  C   UNL A   1      31.367  27.529  23.188  1.00  0.00     0.334 C 
ATOM      4  O   UNL A   1      30.805  27.525  22.099  1.00  0.00    -0.249 OA
BRANCH   3   5
ATOM      5  C   UNL A   1      31.535  26.313  24.142  1.00  0.00     0.170 C 
ATOM      6  N   UNL A   1      30.962  24.736  26.570  1.00  0.00    -0.328 N 
ATOM      7  C   UNL A   1      32.077  25.683  26.577  1.00  0.00     0.265 C 
ATOM      8  C   UNL A   1      30.339  24.427  25.279  1.00  0.00     0.265 C 
ATOM      9  H   UNL A   1      30.235  25.267  27.050  1.00  0.00     0.348 HD
ATOM     10  C   UNL A   1      32.062  26.781  25.511  1.00  0.00     0.104 C 
ATOM     11  C   UNL A   1      30.163  25.663  24.396  1.00  0.00     0.104 C 
BRANCH   6  12
ATOM     12  C   UNL A   1      31.266  23.503  27.335  1.00  0.00     0.341 C 
BRANCH  12  13
ATOM     13  C   UNL A   1      32.174  22.511  26.679  1.00  0.00     0.191 A 
ATOM     14  C   UNL A   1      33.323  21.057  25.473  1.00  0.00     0.084 A 
ATOM     15  C   UNL A   1      32.120  21.800  25.501  1.00  0.00     0.078 A 
ATOM     16  N   UNL A   1      34.068  21.312  26.555  1.00  0.00    -0.085 NA
ATOM     17  O   UNL A   1      33.346  22.221  27.310  1.00  0.00    -0.355 OA
BRANCH  14  18
ATOM     18  C   UNL A   1      33.797  20.110  24.424  1.00  0.00     0.056 C 
ATOM     19  C   UNL A   1      32.649  19.355  23.769  1.00  0.00     0.011 C 
ENDBRANCH  14  18
ENDBRANCH  12  13
ENDBRANCH   6  12
BRANCH   5  20
ATOM     20  N   UNL A   1      32.397  25.311  23.485  1.00  0.00    -0.254 N 
ATOM     21  C   UNL A   1      32.081  24.177  22.780  1.00  0.00     0.111 A 
ATOM     22  N   UNL A   1      33.722  25.543  23.468  1.00  0.00    -0.168 NA
ATOM     23  C   UNL A   1      33.268  23.627  22.350  1.00  0.00     0.054 A 
ATOM     24  C   UNL A   1      34.225  24.387  23.034  1.00  0.00     0.128 A 
BRANCH  24  25
ATOM     25  C   UNL A   1      35.470  23.818  23.578  1.00  0.00     0.154 A 
ATOM     26  C   UNL A   1      35.814  23.914  24.910  1.00  0.00     0.052 A 
ATOM     27  O   UNL A   1      36.219  22.866  22.956  1.00  0.00    -0.463 OA
ATOM     28  C   UNL A   1      36.730  22.872  25.139  1.00  0.00     0.043 A 
ATOM     29  C   UNL A   1      36.962  22.275  23.923  1.00  0.00     0.196 A 
ENDBRANCH  24  25
ENDBRANCH   5  20
ENDBRANCH   3   5
ENDBRANCH   2   3
ENDBRANCH   1   2
BRANCH   1  30
ATOM     30  C   UNL A   1      31.153  30.332  25.413  1.00  0.00     0.275 C 
BRANCH  30  31
ATOM     31  O   UNL A   1      32.519  30.303  25.876  1.00  0.00    -0.458 OA
BRANCH  31  32
ATOM     32  C   UNL A   1      32.860  31.275  26.759  1.00  0.00     0.338 C 
ATOM     33  O   UNL A   1      32.192  32.253  27.044  1.00  0.00    -0.246 OA
BRANCH  32  34
ATOM     34  C   UNL A   1      34.116  30.923  27.465  1.00  0.00     0.060 A 
ATOM     35  C   UNL A   1      34.933  31.978  27.869  1.00  0.00     0.016 A 
ATOM     36  C   UNL A   1      34.530  29.605  27.688  1.00  0.00     0.016 A 
ATOM     37  C   UNL A   1      36.137  31.729  28.526  1.00  0.00     0.010 A 
ATOM     38  C   UNL A   1      35.758  29.354  28.332  1.00  0.00     0.010 A 
ATOM     39  C   UNL A   1      36.567  30.416  28.768  1.00  0.00    -0.014 A 
BRANCH  39  40
ATOM     40  C   UNL A   1      37.887  30.234  29.438  1.00  0.00     0.031 A 
ATOM     41  C   UNL A   1      38.015  30.529  30.901  1.00  0.00     0.074 A 
ATOM     42  C   UNL A   1      38.927  29.675  28.787  1.00  0.00     0.049 A 
ATOM     43  N   UNL A   1      39.008  30.263  31.708  1.00  0.00    -0.248 NA
ATOM     44  C   UNL A   1      36.902  31.259  31.523  1.00  0.00     0.031 C 
ATOM     45  C   UNL A   1      38.955  29.404  27.359  1.00  0.00     0.029 A 
ATOM     46  N   UNL A   1      40.110  29.135  29.250  1.00  0.00    -0.354 N 
ATOM     47  C   UNL A   1      38.700  30.904  32.899  1.00  0.00     0.074 A 
ATOM     48  C   UNL A   1      37.377  31.474  32.743  1.00  0.00     0.031 C 
ATOM     49  C   UNL A   1      39.985  28.584  27.093  1.00  0.00     0.029 A 
ATOM     50  C   UNL A   1      40.737  28.326  28.316  1.00  0.00     0.049 A 
ATOM     51  H   UNL A   1      40.470  29.307  30.149  1.00  0.00     0.167 HD
ATOM     52  C   UNL A   1      39.490  31.074  33.985  1.00  0.00     0.034 A 
ATOM     53  C   UNL A   1      41.759  27.449  28.457  1.00  0.00     0.034 A 
ATOM     54  C   UNL A   1      40.814  30.525  34.116  1.00  0.00     0.049 A 
ATOM     55  C   UNL A   1      42.532  27.486  29.752  1.00  0.00     0.074 A 
ATOM     56  C   UNL A   1      41.728  30.711  35.138  1.00  0.00     0.029 A 
ATOM     57  N   UNL A   1      41.419  29.691  33.188  1.00  0.00    -0.354 N 
ATOM     58  N   UNL A   1      42.235  28.094  30.874  1.00  0.00    -0.248 NA
ATOM     59  C   UNL A   1      43.826  26.786  29.772  1.00  0.00     0.031 C 
ATOM     60  C   UNL A   1      42.899  30.019  34.810  1.00  0.00     0.029 A 
ATOM     61  C   UNL A   1      42.694  29.357  33.610  1.00  0.00     0.049 A 
ATOM     62  H   UNL A   1      41.002  29.382  32.352  1.00  0.00     0.167 HD
ATOM     63  C   UNL A   1      43.334  27.911  31.704  1.00  0.00     0.074 A 
ATOM     64  C   UNL A   1      44.254  27.043  31.001  1.00  0.00     0.031 C 
ATOM     65  C   UNL A   1      43.592  28.476  32.909  1.00  0.00     0.034 A 
BRANCH  52  66
ATOM     66  C   UNL A   1      38.983  32.002  35.053  1.00  0.00     0.023 A 
ATOM     67  C   UNL A   1      39.102  33.398  34.914  1.00  0.00     0.012 A 
ATOM     68  C   UNL A   1      38.396  31.466  36.218  1.00  0.00     0.148 A 
ATOM     69  C   UNL A   1      38.684  34.245  35.941  1.00  0.00     0.002 A 
ATOM     70  C   UNL A   1      37.939  32.318  37.213  1.00  0.00     0.091 A 
ATOM     71  F   UNL A   1      38.315  30.134  36.337  1.00  0.00    -0.205 F 
ATOM     72  C   UNL A   1      38.098  33.706  37.085  1.00  0.00     0.022 A 
BRANCH  70  73
ATOM     73  S   UNL A   1      37.115  31.722  38.693  1.00  0.00     0.127 S 
ATOM     74  O   UNL A   1      36.932  30.305  38.378  1.00  0.00    -0.237 OA
ATOM     75  O   UNL A   1      38.116  31.992  39.726  1.00  0.00    -0.237 OA
ATOM     76  O   UNL A   1      35.888  32.494  38.815  1.00  0.00    -0.744 OA
ENDBRANCH  70  73
ENDBRANCH  52  66
BRANCH  53  77
ATOM     77  C   UNL A   1      42.143  26.467  27.387  1.00  0.00     0.023 A 
ATOM     78  C   UNL A   1      43.039  26.861  26.364  1.00  0.00     0.012 A 
ATOM     79  C   UNL A   1      41.628  25.161  27.340  1.00  0.00     0.148 A 
ATOM     80  C   UNL A   1      43.386  25.989  25.324  1.00  0.00     0.002 A 
ATOM     81  C   UNL A   1      42.064  24.263  26.369  1.00  0.00     0.091 A 
ATOM     82  F   UNL A   1      40.691  24.807  28.232  1.00  0.00    -0.205 F 
ATOM     83  C   UNL A   1      42.920  24.680  25.341  1.00  0.00     0.022 A 
BRANCH  81  84
ATOM     84  S   UNL A   1      41.665  22.516  26.485  1.00  0.00     0.127 S 
ATOM     85  O   UNL A   1      42.220  22.163  27.788  1.00  0.00    -0.237 OA
ATOM     86  O   UNL A   1      40.204  22.522  26.416  1.00  0.00    -0.237 OA
ATOM     87  O   UNL A   1      42.308  21.912  25.324  1.00  0.00    -0.744 OA
ENDBRANCH  81  84
ENDBRANCH  53  77
BRANCH  65  88
ATOM     88  C   UNL A   1      44.935  28.201  33.532  1.00  0.00     0.023 A 
ATOM     89  C   UNL A   1      46.017  29.068  33.276  1.00  0.00     0.012 A 
ATOM     90  C   UNL A   1      45.101  27.133  34.432  1.00  0.00     0.148 A 
ATOM     91  C   UNL A   1      47.254  28.858  33.884  1.00  0.00     0.002 A 
ATOM     92  C   UNL A   1      46.321  26.959  35.073  1.00  0.00     0.091 A 
ATOM     93  F   UNL A   1      44.064  26.311  34.646  1.00  0.00    -0.205 F 
ATOM     94  C   UNL A   1      47.402  27.812  34.791  1.00  0.00     0.022 A 
BRANCH  92  95
ATOM     95  S   UNL A   1      46.578  25.700  36.326  1.00  0.00     0.127 S 
ATOM     96  O   UNL A   1      46.371  24.471  35.561  1.00  0.00    -0.237 OA
ATOM     97  O   UNL A   1      47.963  25.943  36.728  1.00  0.00    -0.237 OA
ATOM     98  O   UNL A   1      45.591  25.957  37.366  1.00  0.00    -0.744 OA
ENDBRANCH  92  95
ENDBRANCH  65  88
ENDBRANCH  39  40
ENDBRANCH  32  34
ENDBRANCH  31  32
ENDBRANCH  30  31
ENDBRANCH   1  30
TORSDOF 19
ENDMDL
MODEL 2
REMARK VINA RESULT:     -11.7      1.494      3.092
REMARK SMILES CCc1cc(C[NH+]2CCC(C(=O)OCCOC(=O)c3ccc(-c4c5nc(c(-c6cccc(S(=O)(=O)[O-])c6F)c6ccc([nH]6)c(-c6cccc(S(=O)(=O)[O-])c6F)c6nc(c(-c7cccc(S(=O)(=O)[O-])c7F)c7ccc4[nH]7)C=C6)C=C5)cc3)(n3ccc(-c4ccco4)n3)CC2)on1
REMARK SMILES IDX 14 1 13 2 11 3 12 4 10 5 7 6 8 7 93 8 9 10 92 11 6 12 5 13
REMARK SMILES IDX 3 14 4 15 95 16 94 17 2 18 1 19 82 20 83 21 91 22 84 23
REMARK SMILES IDX 85 24 86 25 87 26 90 27 88 28 89 29 15 30 16 31 17 32 18 33
REMARK SMILES IDX 19 34 20 35 81 36 21 37 80 38 22 39 23 40 24 41 74 42 25 43
REMARK SMILES IDX 79 44 73 45 75 46 26 47 78 48 72 49 71 50 27 52 59 53 39 54
REMARK SMILES IDX 58 55 40 56 43 57 57 58 76 59 41 60 42 61 56 63 77 64 44 65
REMARK SMILES IDX 28 66 29 67 37 68 30 69 32 70 38 71 31 72 33 73 34 74 35 75
REMARK SMILES IDX 36 76 60 77 61 78 69 79 62 80 64 81 70 82 63 83 65 84 66 85
REMARK SMILES IDX 67 86 68 87 45 88 46 89 54 90 47 91 49 92 55 93 48 94 50 95
REMARK SMILES IDX 51 96 52 97 53 98
REMARK H PARENT 7 9 75 51 43 62
REMARK Flexibility Score: inf
ROOT
ATOM      1  C   UNL A   1      31.355  30.322  25.635  1.00  0.00     0.274 C 
ENDROOT
BRANCH   1   2
ATOM      2  O   UNL A   1      32.238  29.178  25.673  1.00  0.00    -0.460 OA
BRANCH   2   3
ATOM      3  C   UNL A   1      31.738  28.069  26.305  1.00  0.00     0.334 C 
ATOM      4  O   UNL A   1      31.336  28.125  27.461  1.00  0.00    -0.249 OA
BRANCH   3   5
ATOM      5  C   UNL A   1      31.781  26.803  25.405  1.00  0.00     0.170 C 
ATOM      6  N   UNL A   1      32.192  23.929  24.872  1.00  0.00    -0.328 N 
ATOM      7  C   UNL A   1      33.304  24.860  24.678  1.00  0.00     0.265 C 
ATOM      8  C   UNL A   1      30.856  24.497  25.076  1.00  0.00     0.265 C 
ATOM      9  H   UNL A   1      32.411  23.532  25.786  1.00  0.00     0.348 HD
ATOM     10  C   UNL A   1      33.204  26.216  25.382  1.00  0.00     0.104 C 
ATOM     11  C   UNL A   1      30.866  25.717  25.999  1.00  0.00     0.104 C 
BRANCH   6  12
ATOM     12  C   UNL A   1      32.175  22.853  23.851  1.00  0.00     0.341 C 
BRANCH  12  13
ATOM     13  C   UNL A   1      32.855  21.572  24.214  1.00  0.00     0.191 A 
ATOM     14  C   UNL A   1      33.692  19.550  24.528  1.00  0.00     0.084 A 
ATOM     15  C   UNL A   1      32.706  20.264  23.809  1.00  0.00     0.078 A 
ATOM     16  N   UNL A   1      34.407  20.371  25.306  1.00  0.00    -0.085 NA
ATOM     17  O   UNL A   1      33.880  21.636  25.109  1.00  0.00    -0.355 OA
BRANCH  14  18
ATOM     18  C   UNL A   1      33.989  18.089  24.483  1.00  0.00     0.056 C 
ATOM     19  C   UNL A   1      33.376  17.415  23.262  1.00  0.00     0.011 C 
ENDBRANCH  14  18
ENDBRANCH  12  13
ENDBRANCH   6  12
BRANCH   5  20
ATOM     20  N   UNL A   1      31.261  27.153  24.069  1.00  0.00    -0.254 N 
ATOM     21  C   UNL A   1      31.846  27.084  22.830  1.00  0.00     0.111 A 
ATOM     22  N   UNL A   1      29.971  27.524  23.979  1.00  0.00    -0.168 NA
ATOM     23  C   UNL A   1      30.903  27.495  21.916  1.00  0.00     0.054 A 
ATOM     24  C   UNL A   1      29.877  27.986  22.732  1.00  0.00     0.128 A 
BRANCH  24  25
ATOM     25  C   UNL A   1      29.072  29.173  22.392  1.00  0.00     0.154 A 
ATOM     26  C   UNL A   1      27.845  29.430  22.965  1.00  0.00     0.052 A 
ATOM     27  O   UNL A   1      29.563  30.289  21.786  1.00  0.00    -0.463 OA
ATOM     28  C   UNL A   1      27.638  30.812  22.812  1.00  0.00     0.043 A 
ATOM     29  C   UNL A   1      28.696  31.290  22.073  1.00  0.00     0.196 A 
ENDBRANCH  24  25
ENDBRANCH   5  20
ENDBRANCH   3   5
ENDBRANCH   2   3
ENDBRANCH   1   2
BRANCH   1  30
ATOM     30  C   UNL A   1      31.755  31.438  26.615  1.00  0.00     0.275 C 
BRANCH  30  31
ATOM     31  O   UNL A   1      33.035  31.225  27.244  1.00  0.00    -0.458 OA
BRANCH  31  32
ATOM     32  C   UNL A   1      33.686  32.347  27.644  1.00  0.00     0.338 C 
ATOM     33  O   UNL A   1      33.227  33.476  27.663  1.00  0.00    -0.246 OA
BRANCH  32  34
ATOM     34  C   UNL A   1      35.015  32.008  28.208  1.00  0.00     0.060 A 
ATOM     35  C   UNL A   1      35.164  30.734  28.755  1.00  0.00     0.016 A 
ATOM     36  C   UNL A   1      36.081  32.911  28.261  1.00  0.00     0.016 A 
ATOM     37  C   UNL A   1      36.379  30.344  29.318  1.00  0.00     0.010 A 
ATOM     38  C   UNL A   1      37.302  32.525  28.851  1.00  0.00     0.010 A 
ATOM     39  C   UNL A   1      37.464  31.232  29.374  1.00  0.00    -0.014 A 
BRANCH  39  40
ATOM     40  C   UNL A   1      38.715  30.752  30.031  1.00  0.00     0.031 A 
ATOM     41  C   UNL A   1      38.895  30.953  31.504  1.00  0.00     0.074 A 
ATOM     42  C   UNL A   1      39.619  30.017  29.352  1.00  0.00     0.049 A 
ATOM     43  N   UNL A   1      39.807  30.453  32.295  1.00  0.00    -0.248 NA
ATOM     44  C   UNL A   1      37.955  31.872  32.160  1.00  0.00     0.031 C 
ATOM     45  C   UNL A   1      39.597  29.805  27.914  1.00  0.00     0.029 A 
ATOM     46  N   UNL A   1      40.662  29.224  29.787  1.00  0.00    -0.354 N 
ATOM     47  C   UNL A   1      39.633  31.093  33.513  1.00  0.00     0.074 A 
ATOM     48  C   UNL A   1      38.458  31.931  33.386  1.00  0.00     0.031 C 
ATOM     49  C   UNL A   1      40.435  28.801  27.609  1.00  0.00     0.029 A 
ATOM     50  C   UNL A   1      41.111  28.342  28.818  1.00  0.00     0.049 A 
ATOM     51  H   UNL A   1      41.046  29.279  30.692  1.00  0.00     0.167 HD
ATOM     52  C   UNL A   1      40.436  31.050  34.601  1.00  0.00     0.034 A 
ATOM     53  C   UNL A   1      41.928  27.267  28.918  1.00  0.00     0.034 A 
ATOM     54  C   UNL A   1      41.617  30.232  34.704  1.00  0.00     0.049 A 
ATOM     55  C   UNL A   1      42.686  27.088  30.210  1.00  0.00     0.074 A 
ATOM     56  C   UNL A   1      42.545  30.181  35.730  1.00  0.00     0.029 A 
ATOM     57  N   UNL A   1      42.039  29.331  33.740  1.00  0.00    -0.354 N 
ATOM     58  N   UNL A   1      42.516  27.697  31.357  1.00  0.00    -0.248 NA
ATOM     59  C   UNL A   1      43.806  26.133  30.195  1.00  0.00     0.031 C 
ATOM     60  C   UNL A   1      43.548  29.275  35.368  1.00  0.00     0.029 A 
ATOM     61  C   UNL A   1      43.215  28.721  34.142  1.00  0.00     0.049 A 
ATOM     62  H   UNL A   1      41.571  29.149  32.893  1.00  0.00     0.167 HD
ATOM     63  C   UNL A   1      43.549  27.255  32.175  1.00  0.00     0.074 A 
ATOM     64  C   UNL A   1      44.272  26.244  31.432  1.00  0.00     0.031 C 
ATOM     65  C   UNL A   1      43.913  27.703  33.401  1.00  0.00     0.034 A 
BRANCH  52  66
ATOM     66  C   UNL A   1      40.128  32.018  35.710  1.00  0.00     0.023 A 
ATOM     67  C   UNL A   1      40.888  33.190  35.877  1.00  0.00     0.012 A 
ATOM     68  C   UNL A   1      39.075  31.737  36.604  1.00  0.00     0.148 A 
ATOM     69  C   UNL A   1      40.631  34.048  36.947  1.00  0.00     0.002 A 
ATOM     70  C   UNL A   1      38.795  32.620  37.637  1.00  0.00     0.091 A 
ATOM     71  F   UNL A   1      38.381  30.603  36.438  1.00  0.00    -0.205 F 
ATOM     72  C   UNL A   1      39.584  33.767  37.821  1.00  0.00     0.022 A 
BRANCH  70  73
ATOM     73  S   UNL A   1      37.428  32.376  38.775  1.00  0.00     0.127 S 
ATOM     74  O   UNL A   1      37.859  33.166  39.928  1.00  0.00    -0.237 OA
ATOM     75  O   UNL A   1      36.307  32.947  38.029  1.00  0.00    -0.237 OA
ATOM     76  O   UNL A   1      37.341  30.941  39.006  1.00  0.00    -0.744 OA
ENDBRANCH  70  73
ENDBRANCH  52  66
BRANCH  53  77
ATOM     77  C   UNL A   1      42.104  26.272  27.806  1.00  0.00     0.023 A 
ATOM     78  C   UNL A   1      43.055  26.521  26.787  1.00  0.00     0.012 A 
ATOM     79  C   UNL A   1      41.341  25.095  27.716  1.00  0.00     0.148 A 
ATOM     80  C   UNL A   1      43.217  25.641  25.710  1.00  0.00     0.002 A 
ATOM     81  C   UNL A   1      41.586  24.169  26.705  1.00  0.00     0.091 A 
ATOM     82  F   UNL A   1      40.358  24.898  28.606  1.00  0.00    -0.205 F 
ATOM     83  C   UNL A   1      42.501  24.450  25.683  1.00  0.00     0.022 A 
BRANCH  81  84
ATOM     84  S   UNL A   1      40.850  22.532  26.760  1.00  0.00     0.127 S 
ATOM     85  O   UNL A   1      41.207  22.083  28.101  1.00  0.00    -0.237 OA
ATOM     86  O   UNL A   1      39.429  22.819  26.562  1.00  0.00    -0.237 OA
ATOM     87  O   UNL A   1      41.467  21.812  25.652  1.00  0.00    -0.744 OA
ENDBRANCH  81  84
ENDBRANCH  53  77
BRANCH  65  88
ATOM     88  C   UNL A   1      45.167  27.129  34.006  1.00  0.00     0.023 A 
ATOM     89  C   UNL A   1      46.403  27.775  33.802  1.00  0.00     0.012 A 
ATOM     90  C   UNL A   1      45.106  25.998  34.842  1.00  0.00     0.148 A 
ATOM     91  C   UNL A   1      47.567  27.286  34.396  1.00  0.00     0.002 A 
ATOM     92  C   UNL A   1      46.259  25.547  35.471  1.00  0.00     0.091 A 
ATOM     93  F   UNL A   1      43.923  25.390  35.007  1.00  0.00    -0.205 F 
ATOM     94  C   UNL A   1      47.492  26.181  35.240  1.00  0.00     0.022 A 
BRANCH  92  95
ATOM     95  S   UNL A   1      46.245  24.191  36.647  1.00  0.00     0.127 S 
ATOM     96  O   UNL A   1      45.838  23.069  35.802  1.00  0.00    -0.237 OA
ATOM     97  O   UNL A   1      47.639  24.150  37.088  1.00  0.00    -0.237 OA
ATOM     98  O   UNL A   1      45.292  24.565  37.683  1.00  0.00    -0.744 OA
ENDBRANCH  92  95
ENDBRANCH  65  88
ENDBRANCH  39  40
ENDBRANCH  32  34
ENDBRANCH  31  32
ENDBRANCH  30  31
ENDBRANCH   1  30
TORSDOF 19
ENDMDL
MODEL 3
REMARK VINA RESULT:     -11.7      0.656      7.269
REMARK SMILES CCc1cc(C[NH+]2CCC(C(=O)OCCOC(=O)c3ccc(-c4c5nc(c(-c6cccc(S(=O)(=O)[O-])c6F)c6ccc([nH]6)c(-c6cccc(S(=O)(=O)[O-])c6F)c6nc(c(-c7cccc(S(=O)(=O)[O-])c7F)c7ccc4[nH]7)C=C6)C=C5)cc3)(n3ccc(-c4ccco4)n3)CC2)on1
REMARK SMILES IDX 14 1 13 2 11 3 12 4 10 5 7 6 8 7 93 8 9 10 92 11 6 12 5 13
REMARK SMILES IDX 3 14 4 15 95 16 94 17 2 18 1 19 82 20 83 21 91 22 84 23
REMARK SMILES IDX 85 24 86 25 87 26 90 27 88 28 89 29 15 30 16 31 17 32 18 33
REMARK SMILES IDX 19 34 20 35 81 36 21 37 80 38 22 39 23 40 24 41 74 42 25 43
REMARK SMILES IDX 79 44 73 45 75 46 26 47 78 48 72 49 71 50 27 52 59 53 39 54
REMARK SMILES IDX 58 55 40 56 43 57 57 58 76 59 41 60 42 61 56 63 77 64 44 65
REMARK SMILES IDX 28 66 29 67 37 68 30 69 32 70 38 71 31 72 33 73 34 74 35 75
REMARK SMILES IDX 36 76 60 77 61 78 69 79 62 80 64 81 70 82 63 83 65 84 66 85
REMARK SMILES IDX 67 86 68 87 45 88 46 89 54 90 47 91 49 92 55 93 48 94 50 95
REMARK SMILES IDX 51 96 52 97 53 98
REMARK H PARENT 7 9 75 51 43 62
REMARK Flexibility Score: inf
ROOT
ATOM      1  C   UNL A   1      31.024  29.811  24.339  1.00  0.00     0.274 C 
ENDROOT
BRANCH   1   2
ATOM      2  O   UNL A   1      32.043  28.861  23.956  1.00  0.00    -0.460 OA
BRANCH   2   3
ATOM      3  C   UNL A   1      31.599  27.774  23.249  1.00  0.00     0.334 C 
ATOM      4  O   UNL A   1      31.264  27.873  22.075  1.00  0.00    -0.249 OA
BRANCH   3   5
ATOM      5  C   UNL A   1      31.559  26.481  24.111  1.00  0.00     0.170 C 
ATOM      6  N   UNL A   1      30.526  24.753  26.270  1.00  0.00    -0.328 N 
ATOM      7  C   UNL A   1      31.658  25.639  26.541  1.00  0.00     0.265 C 
ATOM      8  C   UNL A   1      30.120  24.576  24.872  1.00  0.00     0.265 C 
ATOM      9  H   UNL A   1      29.748  25.281  26.666  1.00  0.00     0.348 HD
ATOM     10  C   UNL A   1      31.863  26.816  25.583  1.00  0.00     0.104 C 
ATOM     11  C   UNL A   1      30.141  25.884  24.080  1.00  0.00     0.104 C 
BRANCH   6  12
ATOM     12  C   UNL A   1      30.651  23.451  26.968  1.00  0.00     0.341 C 
BRANCH  12  13
ATOM     13  C   UNL A   1      31.720  22.526  26.480  1.00  0.00     0.191 A 
ATOM     14  C   UNL A   1      33.120  21.111  25.518  1.00  0.00     0.084 A 
ATOM     15  C   UNL A   1      31.824  21.666  25.410  1.00  0.00     0.078 A 
ATOM     16  N   UNL A   1      33.770  21.613  26.574  1.00  0.00    -0.085 NA
ATOM     17  O   UNL A   1      32.891  22.497  27.176  1.00  0.00    -0.355 OA
BRANCH  14  18
ATOM     18  C   UNL A   1      33.773  20.113  24.622  1.00  0.00     0.056 C 
ATOM     19  C   UNL A   1      33.275  18.697  24.879  1.00  0.00     0.011 C 
ENDBRANCH  14  18
ENDBRANCH  12  13
ENDBRANCH   6  12
BRANCH   5  20
ATOM     20  N   UNL A   1      32.482  25.490  23.525  1.00  0.00    -0.254 N 
ATOM     21  C   UNL A   1      32.268  24.497  22.603  1.00  0.00     0.111 A 
ATOM     22  N   UNL A   1      33.786  25.586  23.845  1.00  0.00    -0.168 NA
ATOM     23  C   UNL A   1      33.483  23.889  22.377  1.00  0.00     0.054 A 
ATOM     24  C   UNL A   1      34.297  24.451  23.368  1.00  0.00     0.128 A 
BRANCH  24  25
ATOM     25  C   UNL A   1      35.333  23.692  24.089  1.00  0.00     0.154 A 
ATOM     26  C   UNL A   1      36.083  22.701  23.490  1.00  0.00     0.052 A 
ATOM     27  O   UNL A   1      35.907  24.089  25.258  1.00  0.00    -0.463 OA
ATOM     28  C   UNL A   1      37.245  22.582  24.272  1.00  0.00     0.043 A 
ATOM     29  C   UNL A   1      37.087  23.428  25.346  1.00  0.00     0.196 A 
ENDBRANCH  24  25
ENDBRANCH   5  20
ENDBRANCH   3   5
ENDBRANCH   2   3
ENDBRANCH   1   2
BRANCH   1  30
ATOM     30  C   UNL A   1      31.297  30.492  25.691  1.00  0.00     0.275 C 
BRANCH  30  31
ATOM     31  O   UNL A   1      32.686  30.471  26.079  1.00  0.00    -0.458 OA
BRANCH  31  32
ATOM     32  C   UNL A   1      33.094  31.509  26.853  1.00  0.00     0.338 C 
ATOM     33  O   UNL A   1      32.494  32.555  27.027  1.00  0.00    -0.246 OA
BRANCH  32  34
ATOM     34  C   UNL A   1      34.326  31.153  27.598  1.00  0.00     0.060 A 
ATOM     35  C   UNL A   1      34.480  29.817  27.966  1.00  0.00     0.016 A 
ATOM     36  C   UNL A   1      35.289  32.091  27.985  1.00  0.00     0.016 A 
ATOM     37  C   UNL A   1      35.604  29.405  28.682  1.00  0.00     0.010 A 
ATOM     38  C   UNL A   1      36.413  31.678  28.729  1.00  0.00     0.010 A 
ATOM     39  C   UNL A   1      36.586  30.328  29.072  1.00  0.00    -0.014 A 
BRANCH  39  40
ATOM     40  C   UNL A   1      37.736  29.814  29.872  1.00  0.00     0.031 A 
ATOM     41  C   UNL A   1      38.909  29.209  29.166  1.00  0.00     0.074 A 
ATOM     42  C   UNL A   1      37.800  30.013  31.204  1.00  0.00     0.049 A 
ATOM     43  N   UNL A   1      40.077  28.877  29.651  1.00  0.00    -0.248 NA
ATOM     44  C   UNL A   1      38.728  28.893  27.742  1.00  0.00     0.031 C 
ATOM     45  C   UNL A   1      36.708  30.526  32.015  1.00  0.00     0.029 A 
ATOM     46  N   UNL A   1      38.854  29.916  32.091  1.00  0.00    -0.354 N 
ATOM     47  C   UNL A   1      40.724  28.197  28.629  1.00  0.00     0.074 A 
ATOM     48  C   UNL A   1      39.863  28.266  27.465  1.00  0.00     0.031 C 
ATOM     49  C   UNL A   1      37.190  30.885  33.216  1.00  0.00     0.029 A 
ATOM     50  C   UNL A   1      38.612  30.563  33.291  1.00  0.00     0.049 A 
ATOM     51  H   UNL A   1      39.690  29.437  31.891  1.00  0.00     0.167 HD
ATOM     52  C   UNL A   1      41.886  27.507  28.690  1.00  0.00     0.034 A 
ATOM     53  C   UNL A   1      39.454  30.895  34.298  1.00  0.00     0.034 A 
ATOM     54  C   UNL A   1      42.718  27.425  29.861  1.00  0.00     0.049 A 
ATOM     55  C   UNL A   1      40.835  30.288  34.276  1.00  0.00     0.074 A 
ATOM     56  C   UNL A   1      43.870  26.681  30.052  1.00  0.00     0.029 A 
ATOM     57  N   UNL A   1      42.481  28.102  31.047  1.00  0.00    -0.354 N 
ATOM     58  N   UNL A   1      41.440  29.647  33.306  1.00  0.00    -0.248 NA
ATOM     59  C   UNL A   1      41.618  30.376  35.519  1.00  0.00     0.031 C 
ATOM     60  C   UNL A   1      44.308  26.881  31.366  1.00  0.00     0.029 A 
ATOM     61  C   UNL A   1      43.460  27.792  31.975  1.00  0.00     0.049 A 
ATOM     62  H   UNL A   1      41.727  28.715  31.206  1.00  0.00     0.167 HD
ATOM     63  C   UNL A   1      42.638  29.194  33.844  1.00  0.00     0.074 A 
ATOM     64  C   UNL A   1      42.726  29.728  35.187  1.00  0.00     0.031 C 
ATOM     65  C   UNL A   1      43.546  28.347  33.302  1.00  0.00     0.034 A 
BRANCH  52  66
ATOM     66  C   UNL A   1      42.245  26.677  27.488  1.00  0.00     0.023 A 
ATOM     67  C   UNL A   1      42.857  27.262  26.364  1.00  0.00     0.012 A 
ATOM     68  C   UNL A   1      41.950  25.298  27.483  1.00  0.00     0.148 A 
ATOM     69  C   UNL A   1      43.128  26.493  25.232  1.00  0.00     0.002 A 
ATOM     70  C   UNL A   1      42.267  24.531  26.371  1.00  0.00     0.091 A 
ATOM     71  F   UNL A   1      41.347  24.770  28.557  1.00  0.00    -0.205 F 
ATOM     72  C   UNL A   1      42.840  25.130  25.238  1.00  0.00     0.022 A 
BRANCH  70  73
ATOM     73  S   UNL A   1      41.992  22.758  26.309  1.00  0.00     0.127 S 
ATOM     74  O   UNL A   1      40.531  22.686  26.335  1.00  0.00    -0.237 OA
ATOM     75  O   UNL A   1      42.597  22.402  25.025  1.00  0.00    -0.237 OA
ATOM     76  O   UNL A   1      42.661  22.201  27.475  1.00  0.00    -0.744 OA
ENDBRANCH  70  73
ENDBRANCH  52  66
BRANCH  53  77
ATOM     77  C   UNL A   1      39.065  31.823  35.413  1.00  0.00     0.023 A 
ATOM     78  C   UNL A   1      39.320  33.211  35.291  1.00  0.00     0.012 A 
ATOM     79  C   UNL A   1      38.469  31.369  36.602  1.00  0.00     0.148 A 
ATOM     80  C   UNL A   1      39.013  34.102  36.326  1.00  0.00     0.002 A 
ATOM     81  C   UNL A   1      38.063  32.273  37.580  1.00  0.00     0.091 A 
ATOM     82  F   UNL A   1      38.326  30.049  36.784  1.00  0.00    -0.205 F 
ATOM     83  C   UNL A   1      38.360  33.637  37.461  1.00  0.00     0.022 A 
BRANCH  81  84
ATOM     84  S   UNL A   1      37.024  31.747  38.946  1.00  0.00     0.127 S 
ATOM     85  O   UNL A   1      37.882  32.005  40.098  1.00  0.00    -0.237 OA
ATOM     86  O   UNL A   1      35.869  32.637  38.824  1.00  0.00    -0.237 OA
ATOM     87  O   UNL A   1      36.723  30.348  38.664  1.00  0.00    -0.744 OA
ENDBRANCH  81  84
ENDBRANCH  53  77
BRANCH  65  88
ATOM     88  C   UNL A   1      44.699  27.916  34.169  1.00  0.00     0.023 A 
ATOM     89  C   UNL A   1      45.888  28.673  34.182  1.00  0.00     0.012 A 
ATOM     90  C   UNL A   1      44.574  26.809  35.030  1.00  0.00     0.148 A 
ATOM     91  C   UNL A   1      46.948  28.318  35.016  1.00  0.00     0.002 A 
ATOM     92  C   UNL A   1      45.613  26.491  35.894  1.00  0.00     0.091 A 
ATOM     93  F   UNL A   1      43.441  26.093  34.987  1.00  0.00    -0.205 F 
ATOM     94  C   UNL A   1      46.805  27.235  35.881  1.00  0.00     0.022 A 
BRANCH  92  95
ATOM     95  S   UNL A   1      45.485  25.175  37.108  1.00  0.00     0.127 S 
ATOM     96  O   UNL A   1      45.711  23.987  36.285  1.00  0.00    -0.237 OA
ATOM     97  O   UNL A   1      46.575  25.497  38.029  1.00  0.00    -0.237 OA
ATOM     98  O   UNL A   1      44.152  25.286  37.685  1.00  0.00    -0.744 OA
ENDBRANCH  92  95
ENDBRANCH  65  88
ENDBRANCH  39  40
ENDBRANCH  32  34
ENDBRANCH  31  32
ENDBRANCH  30  31
ENDBRANCH   1  30
TORSDOF 19
ENDMDL
