MODEL 1
REMARK VINA RESULT:     -13.0      0.000      0.000
REMARK SMILES CN1N[C@H](C(=O)N[C@@H](CC2=c3ccccc3=NC2)C(=O)OCCOC(=O)c2ccc(-c3c4nc(c(-c5cccc(S(=O)(=O)[O-])c5F)c5ccc([nH]5)c(-c5cccc(S(=O)(=O)[O-])c5F)c5nc(c(-c6cccc(S(=O)(=O)[O-])c6F)c6ccc3[nH]6)C=C5)C=C4)cc2)c2ccccc2C1=O
REMARK SMILES IDX 23 1 22 2 21 3 19 4 20 5 8 6 7 7 5 8 6 9 4 11 1 12 2 13 3 14
REMARK SMILES IDX 96 15 95 17 97 18 90 19 94 20 91 21 93 22 92 23 9 24 10 25
REMARK SMILES IDX 11 26 18 27 12 28 16 29 17 30 13 31 15 32 14 33 24 34 25 35
REMARK SMILES IDX 26 36 27 37 28 38 89 39 29 40 88 41 30 42 31 43 32 44 82 45
REMARK SMILES IDX 33 46 87 47 81 48 83 49 34 50 86 51 80 52 79 53 35 55 67 56
REMARK SMILES IDX 47 57 66 58 48 59 51 60 65 61 84 62 49 63 50 64 64 66 85 67
REMARK SMILES IDX 52 68 36 69 37 70 45 71 38 72 40 73 46 74 39 75 41 76 42 77
REMARK SMILES IDX 43 78 44 79 68 80 69 81 77 82 70 83 72 84 78 85 71 86 73 87
REMARK SMILES IDX 74 88 75 89 76 90 53 91 54 92 62 93 55 94 57 95 63 96 56 97
REMARK SMILES IDX 58 98 59 99 60 100 61 101
REMARK H PARENT 7 10 3 16 83 54 51 65
REMARK Flexibility Score: inf
ROOT
ATOM      1  C   UNL A   1      32.014  30.517  26.465  1.00  0.00     0.275 C 
ENDROOT
BRANCH   1   2
ATOM      2  C   UNL A   1      31.706  29.264  25.647  1.00  0.00     0.274 C 
BRANCH   2   3
ATOM      3  O   UNL A   1      32.488  28.133  26.081  1.00  0.00    -0.461 OA
BRANCH   3   4
ATOM      4  C   UNL A   1      31.826  27.247  26.872  1.00  0.00     0.329 C 
ATOM      5  O   UNL A   1      31.426  27.503  28.004  1.00  0.00    -0.250 OA
BRANCH   4   6
ATOM      6  C   UNL A   1      31.693  25.850  26.255  1.00  0.00     0.196 C 
BRANCH   6   7
ATOM      7  N   UNL A   1      31.744  24.705  27.177  1.00  0.00    -0.341 N 
ATOM      8  C   UNL A   1      32.325  23.475  27.078  1.00  0.00     0.244 C 
ATOM      9  O   UNL A   1      31.945  22.619  27.888  1.00  0.00    -0.273 OA
ATOM     10  H   UNL A   1      31.269  24.854  28.026  1.00  0.00     0.164 HD
BRANCH   8  11
ATOM     11  C   UNL A   1      33.485  23.157  26.104  1.00  0.00     0.195 C 
ATOM     12  C   UNL A   1      37.065  23.862  25.775  1.00  0.00     0.169 C 
ATOM     13  N   UNL A   1      35.884  23.034  25.945  1.00  0.00    -0.276 N 
ATOM     14  N   UNL A   1      34.784  23.502  26.720  1.00  0.00    -0.215 NA
ATOM     15  C   UNL A   1      35.917  21.730  25.443  1.00  0.00     0.268 C 
ATOM     16  H   UNL A   1      34.848  24.517  26.805  1.00  0.00     0.149 HD
ATOM     17  C   UNL A   1      34.603  21.068  25.256  1.00  0.00     0.046 A 
ATOM     18  O   UNL A   1      36.951  21.165  25.104  1.00  0.00    -0.268 OA
ATOM     19  C   UNL A   1      33.419  21.744  25.574  1.00  0.00    -0.007 A 
ATOM     20  C   UNL A   1      34.560  19.804  24.655  1.00  0.00     0.014 A 
ATOM     21  C   UNL A   1      32.193  21.134  25.255  1.00  0.00     0.007 A 
ATOM     22  C   UNL A   1      33.336  19.200  24.375  1.00  0.00     0.001 A 
ATOM     23  C   UNL A   1      32.154  19.866  24.672  1.00  0.00     0.000 A 
ENDBRANCH   8  11
ENDBRANCH   6   7
BRANCH   6  24
ATOM     24  C   UNL A   1      30.387  25.875  25.407  1.00  0.00     0.070 C 
BRANCH  24  25
ATOM     25  C   UNL A   1      30.466  25.819  23.899  1.00  0.00    -0.037 C 
ATOM     26  C   UNL A   1      31.055  24.973  23.052  1.00  0.00     0.001 A 
ATOM     27  C   UNL A   1      30.048  27.043  23.128  1.00  0.00     0.174 C 
ATOM     28  C   UNL A   1      31.515  23.622  23.025  1.00  0.00     0.010 A 
ATOM     29  C   UNL A   1      31.585  25.962  22.082  1.00  0.00     0.065 A 
ATOM     30  N   UNL A   1      31.031  27.137  22.032  1.00  0.00    -0.280 NA
ATOM     31  C   UNL A   1      32.550  23.296  22.233  1.00  0.00     0.001 A 
ATOM     32  C   UNL A   1      32.826  25.574  21.377  1.00  0.00     0.028 A 
ATOM     33  C   UNL A   1      33.280  24.317  21.504  1.00  0.00     0.002 A 
ENDBRANCH  24  25
ENDBRANCH   6  24
ENDBRANCH   4   6
ENDBRANCH   3   4
ENDBRANCH   2   3
ENDBRANCH   1   2
BRANCH   1  34
ATOM     34  O   UNL A   1      33.393  30.909  26.340  1.00  0.00    -0.458 OA
BRANCH  34  35
ATOM     35  C   UNL A   1      33.832  31.735  27.317  1.00  0.00     0.338 C 
ATOM     36  O   UNL A   1      33.265  32.742  27.725  1.00  0.00    -0.246 OA
BRANCH  35  37
ATOM     37  C   UNL A   1      35.084  31.222  27.885  1.00  0.00     0.060 A 
ATOM     38  C   UNL A   1      36.181  32.070  28.057  1.00  0.00     0.016 A 
ATOM     39  C   UNL A   1      35.125  29.910  28.356  1.00  0.00     0.016 A 
ATOM     40  C   UNL A   1      37.328  31.593  28.705  1.00  0.00     0.010 A 
ATOM     41  C   UNL A   1      36.253  29.451  29.033  1.00  0.00     0.010 A 
ATOM     42  C   UNL A   1      37.370  30.282  29.209  1.00  0.00    -0.014 A 
BRANCH  42  43
ATOM     43  C   UNL A   1      38.565  29.745  29.915  1.00  0.00     0.031 A 
ATOM     44  C   UNL A   1      38.966  30.329  31.246  1.00  0.00     0.074 A 
ATOM     45  C   UNL A   1      39.357  28.827  29.325  1.00  0.00     0.049 A 
ATOM     46  N   UNL A   1      39.995  30.038  31.998  1.00  0.00    -0.248 NA
ATOM     47  C   UNL A   1      38.104  31.391  31.796  1.00  0.00     0.031 C 
ATOM     48  C   UNL A   1      39.138  28.242  28.002  1.00  0.00     0.029 A 
ATOM     49  N   UNL A   1      40.537  28.259  29.739  1.00  0.00    -0.354 N 
ATOM     50  C   UNL A   1      39.914  30.886  33.095  1.00  0.00     0.074 A 
ATOM     51  C   UNL A   1      38.766  31.741  32.889  1.00  0.00     0.031 C 
ATOM     52  C   UNL A   1      40.180  27.455  27.683  1.00  0.00     0.029 A 
ATOM     53  C   UNL A   1      41.121  27.442  28.797  1.00  0.00     0.049 A 
ATOM     54  H   UNL A   1      40.930  28.421  30.627  1.00  0.00     0.167 HD
ATOM     55  C   UNL A   1      40.685  30.911  34.207  1.00  0.00     0.034 A 
ATOM     56  C   UNL A   1      42.272  26.742  28.835  1.00  0.00     0.034 A 
ATOM     57  C   UNL A   1      41.778  30.010  34.445  1.00  0.00     0.049 A 
ATOM     58  C   UNL A   1      43.068  26.723  30.111  1.00  0.00     0.074 A 
ATOM     59  C   UNL A   1      42.538  29.865  35.591  1.00  0.00     0.029 A 
ATOM     60  N   UNL A   1      42.256  29.094  33.524  1.00  0.00    -0.354 N 
ATOM     61  N   UNL A   1      42.855  27.385  31.222  1.00  0.00    -0.248 NA
ATOM     62  C   UNL A   1      44.215  25.804  30.169  1.00  0.00     0.031 C 
ATOM     63  C   UNL A   1      43.467  28.842  35.369  1.00  0.00     0.029 A 
ATOM     64  C   UNL A   1      43.289  28.363  34.080  1.00  0.00     0.049 A 
ATOM     65  H   UNL A   1      41.912  28.980  32.609  1.00  0.00     0.167 HD
ATOM     66  C   UNL A   1      43.814  26.937  32.122  1.00  0.00     0.074 A 
ATOM     67  C   UNL A   1      44.603  25.939  31.432  1.00  0.00     0.031 C 
ATOM     68  C   UNL A   1      44.024  27.327  33.402  1.00  0.00     0.034 A 
BRANCH  55  69
ATOM     69  C   UNL A   1      40.282  31.850  35.309  1.00  0.00     0.023 A 
ATOM     70  C   UNL A   1      41.015  33.043  35.470  1.00  0.00     0.012 A 
ATOM     71  C   UNL A   1      39.174  31.597  36.139  1.00  0.00     0.148 A 
ATOM     72  C   UNL A   1      40.672  33.961  36.460  1.00  0.00     0.002 A 
ATOM     73  C   UNL A   1      38.820  32.531  37.108  1.00  0.00     0.091 A 
ATOM     74  F   UNL A   1      38.489  30.458  35.964  1.00  0.00    -0.205 F 
ATOM     75  C   UNL A   1      39.573  33.707  37.275  1.00  0.00     0.022 A 
BRANCH  73  76
ATOM     76  S   UNL A   1      37.404  32.332  38.194  1.00  0.00     0.127 S 
ATOM     77  O   UNL A   1      36.370  33.079  37.477  1.00  0.00    -0.237 OA
ATOM     78  O   UNL A   1      37.220  30.881  38.189  1.00  0.00    -0.237 OA
ATOM     79  O   UNL A   1      37.791  32.904  39.476  1.00  0.00    -0.744 OA
ENDBRANCH  73  76
ENDBRANCH  55  69
BRANCH  56  80
ATOM     80  C   UNL A   1      42.665  25.888  27.680  1.00  0.00     0.023 A 
ATOM     81  C   UNL A   1      43.525  26.426  26.703  1.00  0.00     0.012 A 
ATOM     82  C   UNL A   1      42.215  24.560  27.549  1.00  0.00     0.148 A 
ATOM     83  C   UNL A   1      43.912  25.666  25.599  1.00  0.00     0.002 A 
ATOM     84  C   UNL A   1      42.624  23.799  26.458  1.00  0.00     0.091 A 
ATOM     85  F   UNL A   1      41.395  24.072  28.489  1.00  0.00    -0.205 F 
ATOM     86  C   UNL A   1      43.464  24.353  25.478  1.00  0.00     0.022 A 
BRANCH  84  87
ATOM     87  S   UNL A   1      42.160  22.077  26.234  1.00  0.00     0.127 S 
ATOM     88  O   UNL A   1      42.952  21.705  25.063  1.00  0.00    -0.237 OA
ATOM     89  O   UNL A   1      42.608  21.479  27.492  1.00  0.00    -0.237 OA
ATOM     90  O   UNL A   1      40.716  22.076  26.042  1.00  0.00    -0.744 OA
ENDBRANCH  84  87
ENDBRANCH  56  80
BRANCH  68  91
ATOM     91  C   UNL A   1      45.140  26.673  34.165  1.00  0.00     0.023 A 
ATOM     92  C   UNL A   1      46.386  27.322  34.248  1.00  0.00     0.012 A 
ATOM     93  C   UNL A   1      44.916  25.492  34.899  1.00  0.00     0.148 A 
ATOM     94  C   UNL A   1      47.399  26.803  35.051  1.00  0.00     0.002 A 
ATOM     95  C   UNL A   1      45.920  24.998  35.725  1.00  0.00     0.091 A 
ATOM     96  F   UNL A   1      43.726  24.884  34.788  1.00  0.00    -0.205 F 
ATOM     97  C   UNL A   1      47.162  25.651  35.800  1.00  0.00     0.022 A 
BRANCH  95  98
ATOM     98  S   UNL A   1      45.677  23.571  36.788  1.00  0.00     0.127 S 
ATOM     99  O   UNL A   1      47.055  23.184  37.087  1.00  0.00    -0.237 OA
ATOM    100  O   UNL A   1      44.946  24.145  37.918  1.00  0.00    -0.237 OA
ATOM    101  O   UNL A   1      44.915  22.610  36.003  1.00  0.00    -0.744 OA
ENDBRANCH  95  98
ENDBRANCH  68  91
ENDBRANCH  42  43
ENDBRANCH  35  37
ENDBRANCH  34  35
ENDBRANCH   1  34
TORSDOF 18
ENDMDL
MODEL 2
REMARK VINA RESULT:     -12.8      4.888     10.036
REMARK SMILES CN1N[C@H](C(=O)N[C@@H](CC2=c3ccccc3=NC2)C(=O)OCCOC(=O)c2ccc(-c3c4nc(c(-c5cccc(S(=O)(=O)[O-])c5F)c5ccc([nH]5)c(-c5cccc(S(=O)(=O)[O-])c5F)c5nc(c(-c6cccc(S(=O)(=O)[O-])c6F)c6ccc3[nH]6)C=C5)C=C4)cc2)c2ccccc2C1=O
REMARK SMILES IDX 23 1 22 2 21 3 19 4 20 5 8 6 7 7 5 8 6 9 4 11 1 12 2 13 3 14
REMARK SMILES IDX 96 15 95 17 97 18 90 19 94 20 91 21 93 22 92 23 9 24 10 25
REMARK SMILES IDX 11 26 18 27 12 28 16 29 17 30 13 31 15 32 14 33 24 34 25 35
REMARK SMILES IDX 26 36 27 37 28 38 89 39 29 40 88 41 30 42 31 43 32 44 82 45
REMARK SMILES IDX 33 46 87 47 81 48 83 49 34 50 86 51 80 52 79 53 35 55 67 56
REMARK SMILES IDX 47 57 66 58 48 59 51 60 65 61 84 62 49 63 50 64 64 66 85 67
REMARK SMILES IDX 52 68 36 69 37 70 45 71 38 72 40 73 46 74 39 75 41 76 42 77
REMARK SMILES IDX 43 78 44 79 68 80 69 81 77 82 70 83 72 84 78 85 71 86 73 87
REMARK SMILES IDX 74 88 75 89 76 90 53 91 54 92 62 93 55 94 57 95 63 96 56 97
REMARK SMILES IDX 58 98 59 99 60 100 61 101
REMARK H PARENT 7 10 3 16 83 54 51 65
REMARK Flexibility Score: inf
ROOT
ATOM      1  C   UNL A   1      37.000  21.020  25.289  1.00  0.00     0.275 C 
ENDROOT
BRANCH   1   2
ATOM      2  C   UNL A   1      35.911  21.906  25.892  1.00  0.00     0.274 C 
BRANCH   2   3
ATOM      3  O   UNL A   1      34.717  21.157  26.196  1.00  0.00    -0.461 OA
BRANCH   3   4
ATOM      4  C   UNL A   1      33.627  21.912  26.495  1.00  0.00     0.329 C 
ATOM      5  O   UNL A   1      33.614  22.792  27.351  1.00  0.00    -0.250 OA
BRANCH   4   6
ATOM      6  C   UNL A   1      32.366  21.508  25.720  1.00  0.00     0.196 C 
BRANCH   6   7
ATOM      7  N   UNL A   1      31.301  22.517  25.605  1.00  0.00    -0.341 N 
ATOM      8  C   UNL A   1      31.302  23.800  25.144  1.00  0.00     0.244 C 
ATOM      9  O   UNL A   1      30.325  24.497  25.449  1.00  0.00    -0.273 OA
ATOM     10  H   UNL A   1      30.422  22.207  25.922  1.00  0.00     0.164 HD
BRANCH   8  11
ATOM     11  C   UNL A   1      32.382  24.360  24.188  1.00  0.00     0.195 C 
ATOM     12  C   UNL A   1      33.098  24.434  20.596  1.00  0.00     0.169 C 
ATOM     13  N   UNL A   1      32.786  24.991  21.899  1.00  0.00    -0.276 N 
ATOM     14  N   UNL A   1      31.913  24.297  22.787  1.00  0.00    -0.215 NA
ATOM     15  C   UNL A   1      33.254  26.274  22.196  1.00  0.00     0.268 C 
ATOM     16  H   UNL A   1      31.862  23.319  22.501  1.00  0.00     0.149 HD
ATOM     17  C   UNL A   1      33.287  26.643  23.632  1.00  0.00     0.046 A 
ATOM     18  O   UNL A   1      33.683  27.047  21.347  1.00  0.00    -0.268 OA
ATOM     19  C   UNL A   1      32.866  25.730  24.606  1.00  0.00    -0.007 A 
ATOM     20  C   UNL A   1      33.847  27.871  24.004  1.00  0.00     0.014 A 
ATOM     21  C   UNL A   1      33.040  26.066  25.960  1.00  0.00     0.007 A 
ATOM     22  C   UNL A   1      33.982  28.202  25.351  1.00  0.00     0.001 A 
ATOM     23  C   UNL A   1      33.582  27.299  26.328  1.00  0.00     0.000 A 
ENDBRANCH   8  11
ENDBRANCH   6   7
BRANCH   6  24
ATOM     24  C   UNL A   1      32.857  20.998  24.333  1.00  0.00     0.070 C 
BRANCH  24  25
ATOM     25  C   UNL A   1      32.451  19.626  23.848  1.00  0.00    -0.037 C 
ATOM     26  C   UNL A   1      32.560  18.407  24.378  1.00  0.00     0.001 A 
ATOM     27  C   UNL A   1      32.078  19.477  22.397  1.00  0.00     0.174 C 
ATOM     28  C   UNL A   1      32.699  17.800  25.663  1.00  0.00     0.010 A 
ATOM     29  C   UNL A   1      32.956  17.667  23.156  1.00  0.00     0.065 A 
ATOM     30  N   UNL A   1      32.670  18.185  22.000  1.00  0.00    -0.280 NA
ATOM     31  C   UNL A   1      33.346  16.628  25.770  1.00  0.00     0.001 A 
ATOM     32  C   UNL A   1      33.808  16.476  23.370  1.00  0.00     0.028 A 
ATOM     33  C   UNL A   1      34.008  16.036  24.622  1.00  0.00     0.002 A 
ENDBRANCH  24  25
ENDBRANCH   6  24
ENDBRANCH   4   6
ENDBRANCH   3   4
ENDBRANCH   2   3
ENDBRANCH   1   2
BRANCH   1  34
ATOM     34  O   UNL A   1      38.245  21.728  25.147  1.00  0.00    -0.458 OA
BRANCH  34  35
ATOM     35  C   UNL A   1      39.127  21.516  26.149  1.00  0.00     0.338 C 
ATOM     36  O   UNL A   1      39.519  20.428  26.554  1.00  0.00    -0.246 OA
BRANCH  35  37
ATOM     37  C   UNL A   1      39.618  22.799  26.666  1.00  0.00     0.060 A 
ATOM     38  C   UNL A   1      40.654  22.833  27.603  1.00  0.00     0.016 A 
ATOM     39  C   UNL A   1      39.117  23.982  26.124  1.00  0.00     0.016 A 
ATOM     40  C   UNL A   1      41.186  24.067  28.000  1.00  0.00     0.010 A 
ATOM     41  C   UNL A   1      39.674  25.205  26.494  1.00  0.00     0.010 A 
ATOM     42  C   UNL A   1      40.708  25.264  27.440  1.00  0.00    -0.014 A 
BRANCH  42  43
ATOM     43  C   UNL A   1      41.259  26.591  27.826  1.00  0.00     0.031 A 
ATOM     44  C   UNL A   1      42.727  26.873  27.629  1.00  0.00     0.074 A 
ATOM     45  C   UNL A   1      40.485  27.499  28.455  1.00  0.00     0.049 A 
ATOM     46  N   UNL A   1      43.411  27.942  27.941  1.00  0.00    -0.248 NA
ATOM     47  C   UNL A   1      43.534  25.805  27.012  1.00  0.00     0.031 C 
ATOM     48  C   UNL A   1      39.072  27.324  28.791  1.00  0.00     0.029 A 
ATOM     49  N   UNL A   1      40.790  28.734  28.974  1.00  0.00    -0.354 N 
ATOM     50  C   UNL A   1      44.724  27.671  27.578  1.00  0.00     0.074 A 
ATOM     51  C   UNL A   1      44.754  26.318  27.068  1.00  0.00     0.031 C 
ATOM     52  C   UNL A   1      38.651  28.373  29.516  1.00  0.00     0.029 A 
ATOM     53  C   UNL A   1      39.751  29.321  29.660  1.00  0.00     0.049 A 
ATOM     54  H   UNL A   1      41.671  29.161  28.865  1.00  0.00     0.167 HD
ATOM     55  C   UNL A   1      45.798  28.494  27.602  1.00  0.00     0.034 A 
ATOM     56  C   UNL A   1      39.683  30.499  30.311  1.00  0.00     0.034 A 
ATOM     57  C   UNL A   1      45.750  29.863  28.035  1.00  0.00     0.049 A 
ATOM     58  C   UNL A   1      40.863  31.429  30.254  1.00  0.00     0.074 A 
ATOM     59  C   UNL A   1      46.748  30.818  27.977  1.00  0.00     0.029 A 
ATOM     60  N   UNL A   1      44.640  30.471  28.595  1.00  0.00    -0.354 N 
ATOM     61  N   UNL A   1      42.042  31.227  29.718  1.00  0.00    -0.248 NA
ATOM     62  C   UNL A   1      40.682  32.775  30.819  1.00  0.00     0.031 C 
ATOM     63  C   UNL A   1      46.232  32.015  28.485  1.00  0.00     0.029 A 
ATOM     64  C   UNL A   1      44.918  31.797  28.869  1.00  0.00     0.049 A 
ATOM     65  H   UNL A   1      43.780  30.026  28.772  1.00  0.00     0.167 HD
ATOM     66  C   UNL A   1      42.729  32.428  29.845  1.00  0.00     0.074 A 
ATOM     67  C   UNL A   1      41.832  33.357  30.500  1.00  0.00     0.031 C 
ATOM     68  C   UNL A   1      43.994  32.728  29.462  1.00  0.00     0.034 A 
BRANCH  55  69
ATOM     69  C   UNL A   1      47.080  27.977  27.012  1.00  0.00     0.023 A 
ATOM     70  C   UNL A   1      48.107  27.581  27.894  1.00  0.00     0.012 A 
ATOM     71  C   UNL A   1      47.261  27.831  25.625  1.00  0.00     0.148 A 
ATOM     72  C   UNL A   1      49.308  27.072  27.405  1.00  0.00     0.002 A 
ATOM     73  C   UNL A   1      48.452  27.298  25.144  1.00  0.00     0.091 A 
ATOM     74  F   UNL A   1      46.268  28.211  24.807  1.00  0.00    -0.205 F 
ATOM     75  C   UNL A   1      49.478  26.928  26.031  1.00  0.00     0.022 A 
BRANCH  73  76
ATOM     76  S   UNL A   1      48.775  27.030  23.397  1.00  0.00     0.127 S 
ATOM     77  O   UNL A   1      48.046  25.787  23.147  1.00  0.00    -0.237 OA
ATOM     78  O   UNL A   1      48.177  28.219  22.793  1.00  0.00    -0.237 OA
ATOM     79  O   UNL A   1      50.222  26.926  23.263  1.00  0.00    -0.744 OA
ENDBRANCH  73  76
ENDBRANCH  55  69
BRANCH  56  80
ATOM     80  C   UNL A   1      38.407  30.928  30.948  1.00  0.00     0.023 A 
ATOM     81  C   UNL A   1      38.193  30.623  32.306  1.00  0.00     0.012 A 
ATOM     82  C   UNL A   1      37.422  31.639  30.236  1.00  0.00     0.148 A 
ATOM     83  C   UNL A   1      37.009  30.996  32.941  1.00  0.00     0.002 A 
ATOM     84  C   UNL A   1      36.253  32.030  30.882  1.00  0.00     0.091 A 
ATOM     85  F   UNL A   1      37.646  31.914  28.944  1.00  0.00    -0.205 F 
ATOM     86  C   UNL A   1      36.041  31.701  32.231  1.00  0.00     0.022 A 
BRANCH  84  87
ATOM     87  S   UNL A   1      34.966  32.997  30.081  1.00  0.00     0.127 S 
ATOM     88  O   UNL A   1      34.416  32.031  29.131  1.00  0.00    -0.237 OA
ATOM     89  O   UNL A   1      34.087  33.317  31.206  1.00  0.00    -0.237 OA
ATOM     90  O   UNL A   1      35.640  34.145  29.491  1.00  0.00    -0.744 OA
ENDBRANCH  84  87
ENDBRANCH  56  80
BRANCH  68  91
ATOM     91  C   UNL A   1      44.498  34.119  29.717  1.00  0.00     0.023 A 
ATOM     92  C   UNL A   1      45.159  34.397  30.928  1.00  0.00     0.012 A 
ATOM     93  C   UNL A   1      44.431  35.106  28.715  1.00  0.00     0.148 A 
ATOM     94  C   UNL A   1      45.747  35.642  31.140  1.00  0.00     0.002 A 
ATOM     95  C   UNL A   1      45.049  36.334  28.920  1.00  0.00     0.091 A 
ATOM     96  F   UNL A   1      43.779  34.821  27.578  1.00  0.00    -0.205 F 
ATOM     97  C   UNL A   1      45.705  36.604  30.133  1.00  0.00     0.022 A 
BRANCH  95  98
ATOM     98  S   UNL A   1      45.119  37.601  27.648  1.00  0.00     0.127 S 
ATOM     99  O   UNL A   1      43.701  37.879  27.427  1.00  0.00    -0.237 OA
ATOM    100  O   UNL A   1      45.854  38.675  28.318  1.00  0.00    -0.237 OA
ATOM    101  O   UNL A   1      45.821  37.002  26.522  1.00  0.00    -0.744 OA
ENDBRANCH  95  98
ENDBRANCH  68  91
ENDBRANCH  42  43
ENDBRANCH  35  37
ENDBRANCH  34  35
ENDBRANCH   1  34
TORSDOF 18
ENDMDL
MODEL 3
REMARK VINA RESULT:     -12.6      1.591      3.083
REMARK SMILES CN1N[C@H](C(=O)N[C@@H](CC2=c3ccccc3=NC2)C(=O)OCCOC(=O)c2ccc(-c3c4nc(c(-c5cccc(S(=O)(=O)[O-])c5F)c5ccc([nH]5)c(-c5cccc(S(=O)(=O)[O-])c5F)c5nc(c(-c6cccc(S(=O)(=O)[O-])c6F)c6ccc3[nH]6)C=C5)C=C4)cc2)c2ccccc2C1=O
REMARK SMILES IDX 23 1 22 2 21 3 19 4 20 5 8 6 7 7 5 8 6 9 4 11 1 12 2 13 3 14
REMARK SMILES IDX 96 15 95 17 97 18 90 19 94 20 91 21 93 22 92 23 9 24 10 25
REMARK SMILES IDX 11 26 18 27 12 28 16 29 17 30 13 31 15 32 14 33 24 34 25 35
REMARK SMILES IDX 26 36 27 37 28 38 89 39 29 40 88 41 30 42 31 43 32 44 82 45
REMARK SMILES IDX 33 46 87 47 81 48 83 49 34 50 86 51 80 52 79 53 35 55 67 56
REMARK SMILES IDX 47 57 66 58 48 59 51 60 65 61 84 62 49 63 50 64 64 66 85 67
REMARK SMILES IDX 52 68 36 69 37 70 45 71 38 72 40 73 46 74 39 75 41 76 42 77
REMARK SMILES IDX 43 78 44 79 68 80 69 81 77 82 70 83 72 84 78 85 71 86 73 87
REMARK SMILES IDX 74 88 75 89 76 90 53 91 54 92 62 93 55 94 57 95 63 96 56 97
REMARK SMILES IDX 58 98 59 99 60 100 61 101
REMARK H PARENT 7 10 3 16 83 54 51 65
REMARK Flexibility Score: inf
ROOT
ATOM      1  C   UNL A   1      31.788  30.366  26.572  1.00  0.00     0.275 C 
ENDROOT
BRANCH   1   2
ATOM      2  C   UNL A   1      31.781  29.003  27.262  1.00  0.00     0.274 C 
BRANCH   2   3
ATOM      3  O   UNL A   1      31.689  27.922  26.312  1.00  0.00    -0.461 OA
BRANCH   3   4
ATOM      4  C   UNL A   1      32.851  27.253  26.090  1.00  0.00     0.329 C 
ATOM      5  O   UNL A   1      33.776  27.689  25.411  1.00  0.00    -0.250 OA
BRANCH   4   6
ATOM      6  C   UNL A   1      32.879  25.846  26.700  1.00  0.00     0.196 C 
BRANCH   6   7
ATOM      7  N   UNL A   1      31.581  25.188  26.919  1.00  0.00    -0.341 N 
ATOM      8  C   UNL A   1      30.547  24.901  26.079  1.00  0.00     0.244 C 
ATOM      9  O   UNL A   1      29.467  24.611  26.611  1.00  0.00    -0.273 OA
ATOM     10  H   UNL A   1      31.432  24.900  27.849  1.00  0.00     0.164 HD
BRANCH   8  11
ATOM     11  C   UNL A   1      30.699  24.811  24.542  1.00  0.00     0.195 C 
ATOM     12  C   UNL A   1      31.204  27.062  21.696  1.00  0.00     0.169 C 
ATOM     13  N   UNL A   1      31.538  25.993  22.619  1.00  0.00    -0.276 N 
ATOM     14  N   UNL A   1      31.187  26.095  23.996  1.00  0.00    -0.215 NA
ATOM     15  C   UNL A   1      32.323  24.937  22.146  1.00  0.00     0.268 C 
ATOM     16  H   UNL A   1      30.452  26.796  24.097  1.00  0.00     0.149 HD
ATOM     17  C   UNL A   1      32.299  23.692  22.952  1.00  0.00     0.046 A 
ATOM     18  O   UNL A   1      32.951  24.983  21.094  1.00  0.00    -0.268 OA
ATOM     19  C   UNL A   1      31.522  23.617  24.114  1.00  0.00    -0.007 A 
ATOM     20  C   UNL A   1      32.975  22.562  22.476  1.00  0.00     0.014 A 
ATOM     21  C   UNL A   1      31.419  22.379  24.774  1.00  0.00     0.007 A 
ATOM     22  C   UNL A   1      32.889  21.351  23.161  1.00  0.00     0.001 A 
ATOM     23  C   UNL A   1      32.109  21.260  24.306  1.00  0.00     0.000 A 
ENDBRANCH   8  11
ENDBRANCH   6   7
BRANCH   6  24
ATOM     24  C   UNL A   1      33.830  25.004  25.800  1.00  0.00     0.070 C 
BRANCH  24  25
ATOM     25  C   UNL A   1      34.570  23.822  26.383  1.00  0.00    -0.037 C 
ATOM     26  C   UNL A   1      35.675  23.173  26.016  1.00  0.00     0.001 A 
ATOM     27  C   UNL A   1      33.863  22.998  27.426  1.00  0.00     0.174 C 
ATOM     28  C   UNL A   1      36.859  23.408  25.253  1.00  0.00     0.010 A 
ATOM     29  C   UNL A   1      35.215  21.787  26.274  1.00  0.00     0.065 A 
ATOM     30  N   UNL A   1      34.229  21.607  27.100  1.00  0.00    -0.280 NA
ATOM     31  C   UNL A   1      37.454  22.378  24.630  1.00  0.00     0.001 A 
ATOM     32  C   UNL A   1      35.815  20.738  25.419  1.00  0.00     0.028 A 
ATOM     33  C   UNL A   1      36.844  21.060  24.620  1.00  0.00     0.002 A 
ENDBRANCH  24  25
ENDBRANCH   6  24
ENDBRANCH   4   6
ENDBRANCH   3   4
ENDBRANCH   2   3
ENDBRANCH   1   2
BRANCH   1  34
ATOM     34  O   UNL A   1      33.127  30.843  26.346  1.00  0.00    -0.458 OA
BRANCH  34  35
ATOM     35  C   UNL A   1      33.562  31.745  27.253  1.00  0.00     0.338 C 
ATOM     36  O   UNL A   1      32.989  32.777  27.584  1.00  0.00    -0.246 OA
BRANCH  35  37
ATOM     37  C   UNL A   1      34.820  31.288  27.854  1.00  0.00     0.060 A 
ATOM     38  C   UNL A   1      35.885  32.177  28.027  1.00  0.00     0.016 A 
ATOM     39  C   UNL A   1      34.897  29.989  28.355  1.00  0.00     0.016 A 
ATOM     40  C   UNL A   1      37.035  31.753  28.705  1.00  0.00     0.010 A 
ATOM     41  C   UNL A   1      36.028  29.583  29.061  1.00  0.00     0.010 A 
ATOM     42  C   UNL A   1      37.113  30.456  29.238  1.00  0.00    -0.014 A 
BRANCH  42  43
ATOM     43  C   UNL A   1      38.311  29.975  29.978  1.00  0.00     0.031 A 
ATOM     44  C   UNL A   1      38.656  30.586  31.312  1.00  0.00     0.074 A 
ATOM     45  C   UNL A   1      39.155  29.086  29.414  1.00  0.00     0.049 A 
ATOM     46  N   UNL A   1      39.677  30.344  32.091  1.00  0.00    -0.248 NA
ATOM     47  C   UNL A   1      37.737  31.614  31.832  1.00  0.00     0.031 C 
ATOM     48  C   UNL A   1      38.993  28.482  28.092  1.00  0.00     0.029 A 
ATOM     49  N   UNL A   1      40.347  28.572  29.861  1.00  0.00    -0.354 N 
ATOM     50  C   UNL A   1      39.535  31.197  33.178  1.00  0.00     0.074 A 
ATOM     51  C   UNL A   1      38.357  32.001  32.937  1.00  0.00     0.031 C 
ATOM     52  C   UNL A   1      40.074  27.738  27.804  1.00  0.00     0.029 A 
ATOM     53  C   UNL A   1      40.988  27.773  28.941  1.00  0.00     0.049 A 
ATOM     54  H   UNL A   1      40.712  28.758  30.757  1.00  0.00     0.167 HD
ATOM     55  C   UNL A   1      40.278  31.263  34.307  1.00  0.00     0.034 A 
ATOM     56  C   UNL A   1      42.166  27.123  29.012  1.00  0.00     0.034 A 
ATOM     57  C   UNL A   1      41.401  30.411  34.580  1.00  0.00     0.049 A 
ATOM     58  C   UNL A   1      42.932  27.147  30.306  1.00  0.00     0.074 A 
ATOM     59  C   UNL A   1      42.139  30.307  35.744  1.00  0.00     0.029 A 
ATOM     60  N   UNL A   1      41.940  29.509  33.678  1.00  0.00    -0.354 N 
ATOM     61  N   UNL A   1      42.665  27.808  31.406  1.00  0.00    -0.248 NA
ATOM     62  C   UNL A   1      44.115  26.278  30.400  1.00  0.00     0.031 C 
ATOM     63  C   UNL A   1      43.115  29.323  35.553  1.00  0.00     0.029 A 
ATOM     64  C   UNL A   1      42.989  28.826  34.265  1.00  0.00     0.049 A 
ATOM     65  H   UNL A   1      41.623  29.373  32.756  1.00  0.00     0.167 HD
ATOM     66  C   UNL A   1      43.619  27.408  32.332  1.00  0.00     0.074 A 
ATOM     67  C   UNL A   1      44.466  26.439  31.670  1.00  0.00     0.031 C 
ATOM     68  C   UNL A   1      43.782  27.817  33.614  1.00  0.00     0.034 A 
BRANCH  55  69
ATOM     69  C   UNL A   1      39.809  32.193  35.392  1.00  0.00     0.023 A 
ATOM     70  C   UNL A   1      38.987  31.669  36.410  1.00  0.00     0.012 A 
ATOM     71  C   UNL A   1      40.205  33.542  35.443  1.00  0.00     0.148 A 
ATOM     72  C   UNL A   1      38.541  32.479  37.452  1.00  0.00     0.002 A 
ATOM     73  C   UNL A   1      39.779  34.339  36.500  1.00  0.00     0.091 A 
ATOM     74  F   UNL A   1      40.991  34.016  34.465  1.00  0.00    -0.205 F 
ATOM     75  C   UNL A   1      38.940  33.811  37.499  1.00  0.00     0.022 A 
BRANCH  73  76
ATOM     76  S   UNL A   1      40.255  36.060  36.689  1.00  0.00     0.127 S 
ATOM     77  O   UNL A   1      41.715  35.964  36.717  1.00  0.00    -0.237 OA
ATOM     78  O   UNL A   1      39.708  36.661  35.474  1.00  0.00    -0.237 OA
ATOM     79  O   UNL A   1      39.650  36.515  37.934  1.00  0.00    -0.744 OA
ENDBRANCH  73  76
ENDBRANCH  55  69
BRANCH  56  80
ATOM     80  C   UNL A   1      42.622  26.277  27.874  1.00  0.00     0.023 A 
ATOM     81  C   UNL A   1      43.553  26.813  26.963  1.00  0.00     0.012 A 
ATOM     82  C   UNL A   1      42.162  24.958  27.696  1.00  0.00     0.148 A 
ATOM     83  C   UNL A   1      44.001  26.060  25.878  1.00  0.00     0.002 A 
ATOM     84  C   UNL A   1      42.631  24.204  26.624  1.00  0.00     0.091 A 
ATOM     85  F   UNL A   1      41.274  24.471  28.573  1.00  0.00    -0.205 F 
ATOM     86  C   UNL A   1      43.542  24.757  25.710  1.00  0.00     0.022 A 
BRANCH  84  87
ATOM     87  S   UNL A   1      42.156  22.493  26.347  1.00  0.00     0.127 S 
ATOM     88  O   UNL A   1      42.679  21.841  27.547  1.00  0.00    -0.237 OA
ATOM     89  O   UNL A   1      40.697  22.591  26.289  1.00  0.00    -0.237 OA
ATOM     90  O   UNL A   1      42.788  22.102  25.094  1.00  0.00    -0.744 OA
ENDBRANCH  84  87
ENDBRANCH  56  80
BRANCH  68  91
ATOM     91  C   UNL A   1      44.906  27.217  34.409  1.00  0.00     0.023 A 
ATOM     92  C   UNL A   1      46.165  27.845  34.398  1.00  0.00     0.012 A 
ATOM     93  C   UNL A   1      44.681  26.116  35.258  1.00  0.00     0.148 A 
ATOM     94  C   UNL A   1      47.190  27.385  35.222  1.00  0.00     0.002 A 
ATOM     95  C   UNL A   1      45.697  25.683  36.103  1.00  0.00     0.091 A 
ATOM     96  F   UNL A   1      43.478  25.524  35.235  1.00  0.00    -0.205 F 
ATOM     97  C   UNL A   1      46.952  26.315  36.084  1.00  0.00     0.022 A 
BRANCH  95  98
ATOM     98  S   UNL A   1      45.457  24.369  37.304  1.00  0.00     0.127 S 
ATOM     99  O   UNL A   1      44.392  24.921  38.140  1.00  0.00    -0.237 OA
ATOM    100  O   UNL A   1      45.049  23.246  36.459  1.00  0.00    -0.237 OA
ATOM    101  O   UNL A   1      46.741  24.190  37.966  1.00  0.00    -0.744 OA
ENDBRANCH  95  98
ENDBRANCH  68  91
ENDBRANCH  42  43
ENDBRANCH  35  37
ENDBRANCH  34  35
ENDBRANCH   1  34
TORSDOF 18
ENDMDL
