MODEL 1
REMARK VINA RESULT:     -10.2      0.000      0.000
REMARK SMILES Nc1ccc(SCc2ccc(C(=O)OCCOC(=O)c3ccc(-c4c5nc(c(-c6cccc(S(=O)(=O)[O-])c6F)c6ccc([nH]6)c(-c6cccc(S(=O)(=O)[O-])c6F)c6nc(c(-c7cccc(S(=O)(=O)[O-])c7F)c7ccc4[nH]7)C=C6)C=C5)cc3)o2)cc1
REMARK SMILES IDX 15 1 14 2 12 3 13 4 11 5 8 6 9 7 83 8 10 9 7 10 6 11 5 12
REMARK SMILES IDX 2 13 3 14 85 15 4 16 84 17 1 18 16 21 17 22 18 23 19 24
REMARK SMILES IDX 20 25 21 26 82 27 22 28 81 29 23 30 24 31 25 32 75 33 26 34
REMARK SMILES IDX 80 35 74 36 76 37 27 38 79 39 73 40 72 41 28 43 60 44 40 45
REMARK SMILES IDX 59 46 41 47 44 48 58 49 77 50 42 51 43 52 57 54 78 55 45 56
REMARK SMILES IDX 29 57 30 58 38 59 31 60 33 61 39 62 32 63 34 64 35 65 36 66
REMARK SMILES IDX 37 67 61 68 62 69 70 70 63 71 65 72 71 73 64 74 66 75 67 76
REMARK SMILES IDX 68 77 69 78 46 79 47 80 55 81 48 82 50 83 56 84 49 85 51 86
REMARK SMILES IDX 52 87 53 88 54 89
REMARK H PARENT 1 19 1 20 76 42 44 53
REMARK Flexibility Score: inf
ROOT
ATOM      1  C   UNL A   1      33.313  34.313  28.218  1.00  0.00     0.275 C 
ENDROOT
BRANCH   1   2
ATOM      2  O   UNL A   1      32.534  34.919  29.267  1.00  0.00    -0.456 OA
BRANCH   2   3
ATOM      3  C   UNL A   1      32.924  36.176  29.645  1.00  0.00     0.374 C 
ATOM      4  O   UNL A   1      32.905  37.150  28.908  1.00  0.00    -0.242 OA
BRANCH   3   5
ATOM      5  C   UNL A   1      33.299  36.177  31.042  1.00  0.00     0.211 A 
ATOM      6  C   UNL A   1      34.166  35.249  32.859  1.00  0.00     0.115 A 
ATOM      7  C   UNL A   1      33.887  36.564  33.178  1.00  0.00     0.047 A 
ATOM      8  O   UNL A   1      33.763  35.006  31.580  1.00  0.00    -0.453 OA
ATOM      9  C   UNL A   1      33.338  37.158  32.013  1.00  0.00     0.058 A 
BRANCH   6  10
ATOM     10  C   UNL A   1      34.758  34.129  33.650  1.00  0.00     0.150 C 
BRANCH  10  11
ATOM     11  S   UNL A   1      35.387  32.713  32.699  1.00  0.00    -0.118 SA
BRANCH  11  12
ATOM     12  C   UNL A   1      36.807  33.343  31.808  1.00  0.00     0.008 A 
ATOM     13  C   UNL A   1      39.051  34.145  30.271  1.00  0.00     0.031 A 
ATOM     14  C   UNL A   1      38.040  33.370  29.704  1.00  0.00     0.026 A 
ATOM     15  C   UNL A   1      38.891  34.579  31.584  1.00  0.00     0.026 A 
ATOM     16  C   UNL A   1      36.940  32.959  30.468  1.00  0.00     0.017 A 
ATOM     17  C   UNL A   1      37.789  34.177  32.349  1.00  0.00     0.017 A 
BRANCH  13  18
ATOM     18  N   UNL A   1      40.112  34.600  29.502  1.00  0.00    -0.399 N 
ATOM     19  H   UNL A   1      40.003  34.713  28.530  1.00  0.00     0.156 HD
ATOM     20  H   UNL A   1      40.974  34.811  29.928  1.00  0.00     0.156 HD
ENDBRANCH  13  18
ENDBRANCH  11  12
ENDBRANCH  10  11
ENDBRANCH   6  10
ENDBRANCH   3   5
ENDBRANCH   2   3
ENDBRANCH   1   2
BRANCH   1  21
ATOM     21  C   UNL A   1      34.028  33.050  28.710  1.00  0.00     0.275 C 
BRANCH  21  22
ATOM     22  O   UNL A   1      34.712  32.366  27.644  1.00  0.00    -0.458 OA
BRANCH  22  23
ATOM     23  C   UNL A   1      34.557  31.021  27.625  1.00  0.00     0.338 C 
ATOM     24  O   UNL A   1      33.578  30.405  27.237  1.00  0.00    -0.246 OA
BRANCH  23  25
ATOM     25  C   UNL A   1      35.816  30.371  28.024  1.00  0.00     0.060 A 
ATOM     26  C   UNL A   1      35.842  29.703  29.249  1.00  0.00     0.016 A 
ATOM     27  C   UNL A   1      36.975  30.469  27.250  1.00  0.00     0.016 A 
ATOM     28  C   UNL A   1      37.026  29.137  29.710  1.00  0.00     0.010 A 
ATOM     29  C   UNL A   1      38.167  29.894  27.717  1.00  0.00     0.010 A 
ATOM     30  C   UNL A   1      38.201  29.235  28.956  1.00  0.00    -0.014 A 
BRANCH  30  31
ATOM     31  C   UNL A   1      39.458  28.678  29.513  1.00  0.00     0.031 A 
ATOM     32  C   UNL A   1      40.045  29.259  30.768  1.00  0.00     0.074 A 
ATOM     33  C   UNL A   1      40.047  27.624  28.918  1.00  0.00     0.049 A 
ATOM     34  N   UNL A   1      41.144  28.928  31.395  1.00  0.00    -0.248 NA
ATOM     35  C   UNL A   1      39.294  30.353  31.405  1.00  0.00     0.031 C 
ATOM     36  C   UNL A   1      39.558  26.955  27.713  1.00  0.00     0.029 A 
ATOM     37  N   UNL A   1      41.190  26.935  29.243  1.00  0.00    -0.354 N 
ATOM     38  C   UNL A   1      41.240  29.795  32.476  1.00  0.00     0.074 A 
ATOM     39  C   UNL A   1      40.086  30.668  32.421  1.00  0.00     0.031 C 
ATOM     40  C   UNL A   1      40.399  25.957  27.395  1.00  0.00     0.029 A 
ATOM     41  C   UNL A   1      41.500  25.934  28.354  1.00  0.00     0.049 A 
ATOM     42  H   UNL A   1      41.735  27.139  30.038  1.00  0.00     0.167 HD
ATOM     43  C   UNL A   1      42.194  29.850  33.434  1.00  0.00     0.034 A 
ATOM     44  C   UNL A   1      42.560  25.101  28.310  1.00  0.00     0.034 A 
ATOM     45  C   UNL A   1      43.315  28.953  33.517  1.00  0.00     0.049 A 
ATOM     46  C   UNL A   1      43.610  25.189  29.386  1.00  0.00     0.074 A 
ATOM     47  C   UNL A   1      44.320  28.916  34.468  1.00  0.00     0.029 A 
ATOM     48  N   UNL A   1      43.577  27.929  32.619  1.00  0.00    -0.354 N 
ATOM     49  N   UNL A   1      43.643  25.963  30.443  1.00  0.00    -0.248 NA
ATOM     50  C   UNL A   1      44.755  24.274  29.275  1.00  0.00     0.031 C 
ATOM     51  C   UNL A   1      45.195  27.874  34.140  1.00  0.00     0.029 A 
ATOM     52  C   UNL A   1      44.729  27.258  32.990  1.00  0.00     0.049 A 
ATOM     53  H   UNL A   1      43.024  27.712  31.833  1.00  0.00     0.167 HD
ATOM     54  C   UNL A   1      44.798  25.614  31.135  1.00  0.00     0.074 A 
ATOM     55  C   UNL A   1      45.423  24.541  30.391  1.00  0.00     0.031 C 
ATOM     56  C   UNL A   1      45.308  26.151  32.272  1.00  0.00     0.034 A 
BRANCH  43  57
ATOM     57  C   UNL A   1      42.051  30.903  34.500  1.00  0.00     0.023 A 
ATOM     58  C   UNL A   1      41.432  30.573  35.721  1.00  0.00     0.012 A 
ATOM     59  C   UNL A   1      42.573  32.198  34.314  1.00  0.00     0.148 A 
ATOM     60  C   UNL A   1      41.315  31.524  36.735  1.00  0.00     0.002 A 
ATOM     61  C   UNL A   1      42.483  33.130  35.341  1.00  0.00     0.091 A 
ATOM     62  F   UNL A   1      43.133  32.500  33.133  1.00  0.00    -0.205 F 
ATOM     63  C   UNL A   1      41.848  32.796  36.550  1.00  0.00     0.022 A 
BRANCH  61  64
ATOM     64  S   UNL A   1      43.198  34.772  35.213  1.00  0.00     0.127 S 
ATOM     65  O   UNL A   1      42.164  35.489  34.469  1.00  0.00    -0.237 OA
ATOM     66  O   UNL A   1      43.325  35.170  36.616  1.00  0.00    -0.237 OA
ATOM     67  O   UNL A   1      44.468  34.598  34.520  1.00  0.00    -0.744 OA
ENDBRANCH  61  64
ENDBRANCH  43  57
BRANCH  44  68
ATOM     68  C   UNL A   1      42.655  24.082  27.226  1.00  0.00     0.023 A 
ATOM     69  C   UNL A   1      43.408  24.370  26.072  1.00  0.00     0.012 A 
ATOM     70  C   UNL A   1      42.038  22.822  27.346  1.00  0.00     0.148 A 
ATOM     71  C   UNL A   1      43.530  23.428  25.049  1.00  0.00     0.002 A 
ATOM     72  C   UNL A   1      42.212  21.868  26.350  1.00  0.00     0.091 A 
ATOM     73  F   UNL A   1      41.301  22.575  28.438  1.00  0.00    -0.205 F 
ATOM     74  C   UNL A   1      42.945  22.174  25.194  1.00  0.00     0.022 A 
BRANCH  72  75
ATOM     75  S   UNL A   1      41.611  20.184  26.530  1.00  0.00     0.127 S 
ATOM     76  O   UNL A   1      42.103  19.556  25.308  1.00  0.00    -0.237 OA
ATOM     77  O   UNL A   1      42.278  19.750  27.759  1.00  0.00    -0.237 OA
ATOM     78  O   UNL A   1      40.163  20.303  26.651  1.00  0.00    -0.744 OA
ENDBRANCH  72  75
ENDBRANCH  44  68
BRANCH  56  79
ATOM     79  C   UNL A   1      46.600  25.583  32.795  1.00  0.00     0.023 A 
ATOM     80  C   UNL A   1      47.820  26.165  32.398  1.00  0.00     0.012 A 
ATOM     81  C   UNL A   1      46.606  24.536  33.736  1.00  0.00     0.148 A 
ATOM     82  C   UNL A   1      49.029  25.699  32.914  1.00  0.00     0.002 A 
ATOM     83  C   UNL A   1      47.813  24.102  34.276  1.00  0.00     0.091 A 
ATOM     84  F   UNL A   1      45.437  23.979  34.084  1.00  0.00    -0.205 F 
ATOM     85  C   UNL A   1      49.024  24.677  33.860  1.00  0.00     0.022 A 
BRANCH  83  86
ATOM     86  S   UNL A   1      47.887  22.850  35.562  1.00  0.00     0.127 S 
ATOM     87  O   UNL A   1      47.659  21.623  34.801  1.00  0.00    -0.237 OA
ATOM     88  O   UNL A   1      49.250  23.004  36.074  1.00  0.00    -0.237 OA
ATOM     89  O   UNL A   1      46.846  23.203  36.518  1.00  0.00    -0.744 OA
ENDBRANCH  83  86
ENDBRANCH  56  79
ENDBRANCH  30  31
ENDBRANCH  23  25
ENDBRANCH  22  23
ENDBRANCH  21  22
ENDBRANCH   1  21
TORSDOF 18
ENDMDL
MODEL 2
REMARK VINA RESULT:     -10.1      2.132      2.573
REMARK SMILES Nc1ccc(SCc2ccc(C(=O)OCCOC(=O)c3ccc(-c4c5nc(c(-c6cccc(S(=O)(=O)[O-])c6F)c6ccc([nH]6)c(-c6cccc(S(=O)(=O)[O-])c6F)c6nc(c(-c7cccc(S(=O)(=O)[O-])c7F)c7ccc4[nH]7)C=C6)C=C5)cc3)o2)cc1
REMARK SMILES IDX 15 1 14 2 12 3 13 4 11 5 8 6 9 7 83 8 10 9 7 10 6 11 5 12
REMARK SMILES IDX 2 13 3 14 85 15 4 16 84 17 1 18 16 21 17 22 18 23 19 24
REMARK SMILES IDX 20 25 21 26 82 27 22 28 81 29 23 30 24 31 25 32 75 33 26 34
REMARK SMILES IDX 80 35 74 36 76 37 27 38 79 39 73 40 72 41 28 43 60 44 40 45
REMARK SMILES IDX 59 46 41 47 44 48 58 49 77 50 42 51 43 52 57 54 78 55 45 56
REMARK SMILES IDX 29 57 30 58 38 59 31 60 33 61 39 62 32 63 34 64 35 65 36 66
REMARK SMILES IDX 37 67 61 68 62 69 70 70 63 71 65 72 71 73 64 74 66 75 67 76
REMARK SMILES IDX 68 77 69 78 46 79 47 80 55 81 48 82 50 83 56 84 49 85 51 86
REMARK SMILES IDX 52 87 53 88 54 89
REMARK H PARENT 1 19 1 20 76 42 44 53
REMARK Flexibility Score: inf
ROOT
ATOM      1  C   UNL A   1      34.318  33.959  28.661  1.00  0.00     0.275 C 
ENDROOT
BRANCH   1   2
ATOM      2  O   UNL A   1      33.181  34.228  29.503  1.00  0.00    -0.456 OA
BRANCH   2   3
ATOM      3  C   UNL A   1      32.931  35.550  29.758  1.00  0.00     0.374 C 
ATOM      4  O   UNL A   1      32.374  36.306  28.978  1.00  0.00    -0.242 OA
BRANCH   3   5
ATOM      5  C   UNL A   1      33.372  35.885  31.095  1.00  0.00     0.211 A 
ATOM      6  C   UNL A   1      34.399  35.445  33.009  1.00  0.00     0.115 A 
ATOM      7  C   UNL A   1      34.028  36.774  33.054  1.00  0.00     0.047 A 
ATOM      8  O   UNL A   1      33.957  34.897  31.842  1.00  0.00    -0.453 OA
ATOM      9  C   UNL A   1      33.377  37.057  31.826  1.00  0.00     0.058 A 
BRANCH   6  10
ATOM     10  C   UNL A   1      35.119  34.571  33.983  1.00  0.00     0.150 C 
BRANCH  10  11
ATOM     11  S   UNL A   1      35.741  32.987  33.341  1.00  0.00    -0.118 SA
BRANCH  11  12
ATOM     12  C   UNL A   1      36.957  33.431  32.103  1.00  0.00     0.008 A 
ATOM     13  C   UNL A   1      38.924  34.328  30.268  1.00  0.00     0.031 A 
ATOM     14  C   UNL A   1      39.037  34.614  31.628  1.00  0.00     0.026 A 
ATOM     15  C   UNL A   1      37.865  33.527  29.848  1.00  0.00     0.026 A 
ATOM     16  C   UNL A   1      38.057  34.186  32.533  1.00  0.00     0.017 A 
ATOM     17  C   UNL A   1      36.887  33.090  30.751  1.00  0.00     0.017 A 
BRANCH  13  18
ATOM     18  N   UNL A   1      39.921  34.702  29.379  1.00  0.00    -0.399 N 
ATOM     19  H   UNL A   1      40.079  35.655  29.189  1.00  0.00     0.156 HD
ATOM     20  H   UNL A   1      40.472  34.015  28.940  1.00  0.00     0.156 HD
ENDBRANCH  13  18
ENDBRANCH  11  12
ENDBRANCH  10  11
ENDBRANCH   6  10
ENDBRANCH   3   5
ENDBRANCH   2   3
ENDBRANCH   1   2
BRANCH   1  21
ATOM     21  C   UNL A   1      34.032  32.815  27.682  1.00  0.00     0.275 C 
BRANCH  21  22
ATOM     22  O   UNL A   1      33.935  31.544  28.350  1.00  0.00    -0.458 OA
BRANCH  22  23
ATOM     23  C   UNL A   1      34.445  30.491  27.668  1.00  0.00     0.338 C 
ATOM     24  O   UNL A   1      33.955  29.947  26.692  1.00  0.00    -0.246 OA
BRANCH  23  25
ATOM     25  C   UNL A   1      35.779  30.159  28.195  1.00  0.00     0.060 A 
ATOM     26  C   UNL A   1      36.867  30.282  27.331  1.00  0.00     0.016 A 
ATOM     27  C   UNL A   1      35.959  29.669  29.491  1.00  0.00     0.016 A 
ATOM     28  C   UNL A   1      38.139  29.909  27.754  1.00  0.00     0.010 A 
ATOM     29  C   UNL A   1      37.244  29.297  29.915  1.00  0.00     0.010 A 
ATOM     30  C   UNL A   1      38.339  29.404  29.043  1.00  0.00    -0.014 A 
BRANCH  30  31
ATOM     31  C   UNL A   1      39.697  28.953  29.433  1.00  0.00     0.031 A 
ATOM     32  C   UNL A   1      40.430  29.652  30.543  1.00  0.00     0.074 A 
ATOM     33  C   UNL A   1      40.253  27.888  28.824  1.00  0.00     0.049 A 
ATOM     34  N   UNL A   1      41.629  29.423  31.012  1.00  0.00    -0.248 NA
ATOM     35  C   UNL A   1      39.720  30.752  31.215  1.00  0.00     0.031 C 
ATOM     36  C   UNL A   1      39.628  27.109  27.756  1.00  0.00     0.029 A 
ATOM     37  N   UNL A   1      41.471  27.283  29.013  1.00  0.00    -0.354 N 
ATOM     38  C   UNL A   1      41.834  30.371  32.006  1.00  0.00     0.074 A 
ATOM     39  C   UNL A   1      40.636  31.179  32.075  1.00  0.00     0.031 C 
ATOM     40  C   UNL A   1      40.470  26.133  27.377  1.00  0.00     0.029 A 
ATOM     41  C   UNL A   1      41.703  26.235  28.154  1.00  0.00     0.049 A 
ATOM     42  H   UNL A   1      42.116  27.571  29.699  1.00  0.00     0.167 HD
ATOM     43  C   UNL A   1      42.918  30.544  32.800  1.00  0.00     0.034 A 
ATOM     44  C   UNL A   1      42.792  25.455  28.000  1.00  0.00     0.034 A 
ATOM     45  C   UNL A   1      44.090  29.712  32.767  1.00  0.00     0.049 A 
ATOM     46  C   UNL A   1      43.985  25.674  28.893  1.00  0.00     0.074 A 
ATOM     47  C   UNL A   1      45.227  29.795  33.551  1.00  0.00     0.029 A 
ATOM     48  N   UNL A   1      44.275  28.639  31.908  1.00  0.00    -0.354 N 
ATOM     49  N   UNL A   1      44.131  26.524  29.880  1.00  0.00    -0.248 NA
ATOM     50  C   UNL A   1      45.153  24.811  28.666  1.00  0.00     0.031 C 
ATOM     51  C   UNL A   1      46.104  28.776  33.161  1.00  0.00     0.029 A 
ATOM     52  C   UNL A   1      45.508  28.055  32.139  1.00  0.00     0.049 A 
ATOM     53  H   UNL A   1      43.624  28.338  31.233  1.00  0.00     0.167 HD
ATOM     54  C   UNL A   1      45.395  26.285  30.407  1.00  0.00     0.074 A 
ATOM     55  C   UNL A   1      45.965  25.192  29.646  1.00  0.00     0.031 C 
ATOM     56  C   UNL A   1      46.038  26.928  31.413  1.00  0.00     0.034 A 
BRANCH  43  57
ATOM     57  C   UNL A   1      42.873  31.664  33.805  1.00  0.00     0.023 A 
ATOM     58  C   UNL A   1      43.323  32.945  33.433  1.00  0.00     0.012 A 
ATOM     59  C   UNL A   1      42.340  31.461  35.093  1.00  0.00     0.148 A 
ATOM     60  C   UNL A   1      43.263  34.006  34.336  1.00  0.00     0.002 A 
ATOM     61  C   UNL A   1      42.252  32.531  35.976  1.00  0.00     0.091 A 
ATOM     62  F   UNL A   1      41.943  30.227  35.436  1.00  0.00    -0.205 F 
ATOM     63  C   UNL A   1      42.720  33.802  35.602  1.00  0.00     0.022 A 
BRANCH  61  64
ATOM     64  S   UNL A   1      41.508  32.373  37.603  1.00  0.00     0.127 S 
ATOM     65  O   UNL A   1      41.628  33.736  38.118  1.00  0.00    -0.237 OA
ATOM     66  O   UNL A   1      40.139  31.962  37.283  1.00  0.00    -0.237 OA
ATOM     67  O   UNL A   1      42.292  31.363  38.301  1.00  0.00    -0.744 OA
ENDBRANCH  61  64
ENDBRANCH  43  57
BRANCH  44  68
ATOM     68  C   UNL A   1      42.784  24.366  26.983  1.00  0.00     0.023 A 
ATOM     69  C   UNL A   1      43.476  24.548  25.771  1.00  0.00     0.012 A 
ATOM     70  C   UNL A   1      42.130  23.142  27.223  1.00  0.00     0.148 A 
ATOM     71  C   UNL A   1      43.501  23.537  24.808  1.00  0.00     0.002 A 
ATOM     72  C   UNL A   1      42.208  22.120  26.284  1.00  0.00     0.091 A 
ATOM     73  F   UNL A   1      41.451  22.996  28.370  1.00  0.00    -0.205 F 
ATOM     74  C   UNL A   1      42.880  22.320  25.070  1.00  0.00     0.022 A 
BRANCH  72  75
ATOM     75  S   UNL A   1      41.557  20.477  26.611  1.00  0.00     0.127 S 
ATOM     76  O   UNL A   1      40.118  20.721  26.633  1.00  0.00    -0.237 OA
ATOM     77  O   UNL A   1      42.036  19.721  25.453  1.00  0.00    -0.237 OA
ATOM     78  O   UNL A   1      42.156  20.069  27.875  1.00  0.00    -0.744 OA
ENDBRANCH  72  75
ENDBRANCH  44  68
BRANCH  56  79
ATOM     79  C   UNL A   1      47.426  26.465  31.766  1.00  0.00     0.023 A 
ATOM     80  C   UNL A   1      47.601  25.559  32.830  1.00  0.00     0.012 A 
ATOM     81  C   UNL A   1      48.540  26.856  30.998  1.00  0.00     0.148 A 
ATOM     82  C   UNL A   1      48.868  25.066  33.140  1.00  0.00     0.002 A 
ATOM     83  C   UNL A   1      49.795  26.330  31.288  1.00  0.00     0.091 A 
ATOM     84  F   UNL A   1      48.357  27.736  30.004  1.00  0.00    -0.205 F 
ATOM     85  C   UNL A   1      49.961  25.441  32.363  1.00  0.00     0.022 A 
BRANCH  83  86
ATOM     86  S   UNL A   1      51.238  26.696  30.283  1.00  0.00     0.127 S 
ATOM     87  O   UNL A   1      52.280  25.932  30.966  1.00  0.00    -0.237 OA
ATOM     88  O   UNL A   1      50.854  26.166  28.973  1.00  0.00    -0.237 OA
ATOM     89  O   UNL A   1      51.390  28.144  30.321  1.00  0.00    -0.744 OA
ENDBRANCH  83  86
ENDBRANCH  56  79
ENDBRANCH  30  31
ENDBRANCH  23  25
ENDBRANCH  22  23
ENDBRANCH  21  22
ENDBRANCH   1  21
TORSDOF 18
ENDMDL
MODEL 3
REMARK VINA RESULT:     -10.1      3.685     10.038
REMARK SMILES Nc1ccc(SCc2ccc(C(=O)OCCOC(=O)c3ccc(-c4c5nc(c(-c6cccc(S(=O)(=O)[O-])c6F)c6ccc([nH]6)c(-c6cccc(S(=O)(=O)[O-])c6F)c6nc(c(-c7cccc(S(=O)(=O)[O-])c7F)c7ccc4[nH]7)C=C6)C=C5)cc3)o2)cc1
REMARK SMILES IDX 15 1 14 2 12 3 13 4 11 5 8 6 9 7 83 8 10 9 7 10 6 11 5 12
REMARK SMILES IDX 2 13 3 14 85 15 4 16 84 17 1 18 16 21 17 22 18 23 19 24
REMARK SMILES IDX 20 25 21 26 82 27 22 28 81 29 23 30 24 31 25 32 75 33 26 34
REMARK SMILES IDX 80 35 74 36 76 37 27 38 79 39 73 40 72 41 28 43 60 44 40 45
REMARK SMILES IDX 59 46 41 47 44 48 58 49 77 50 42 51 43 52 57 54 78 55 45 56
REMARK SMILES IDX 29 57 30 58 38 59 31 60 33 61 39 62 32 63 34 64 35 65 36 66
REMARK SMILES IDX 37 67 61 68 62 69 70 70 63 71 65 72 71 73 64 74 66 75 67 76
REMARK SMILES IDX 68 77 69 78 46 79 47 80 55 81 48 82 50 83 56 84 49 85 51 86
REMARK SMILES IDX 52 87 53 88 54 89
REMARK H PARENT 1 19 1 20 76 42 44 53
REMARK Flexibility Score: inf
ROOT
ATOM      1  C   UNL A   1      31.011  29.682  24.489  1.00  0.00     0.275 C 
ENDROOT
BRANCH   1   2
ATOM      2  O   UNL A   1      31.640  28.743  23.597  1.00  0.00    -0.456 OA
BRANCH   2   3
ATOM      3  C   UNL A   1      30.791  27.931  22.895  1.00  0.00     0.374 C 
ATOM      4  O   UNL A   1      30.135  28.294  21.931  1.00  0.00    -0.242 OA
BRANCH   3   5
ATOM      5  C   UNL A   1      30.838  26.587  23.431  1.00  0.00     0.211 A 
ATOM      6  C   UNL A   1      31.483  24.468  23.404  1.00  0.00     0.115 A 
ATOM      7  C   UNL A   1      30.828  24.668  24.602  1.00  0.00     0.047 A 
ATOM      8  O   UNL A   1      31.445  25.619  22.676  1.00  0.00    -0.453 OA
ATOM      9  C   UNL A   1      30.420  26.026  24.622  1.00  0.00     0.058 A 
BRANCH   6  10
ATOM     10  C   UNL A   1      32.144  23.266  22.811  1.00  0.00     0.150 C 
BRANCH  10  11
ATOM     11  S   UNL A   1      32.784  22.034  23.985  1.00  0.00    -0.118 SA
BRANCH  11  12
ATOM     12  C   UNL A   1      34.387  22.658  24.486  1.00  0.00     0.008 A 
ATOM     13  C   UNL A   1      37.019  23.482  25.142  1.00  0.00     0.031 A 
ATOM     14  C   UNL A   1      36.728  22.971  23.878  1.00  0.00     0.026 A 
ATOM     15  C   UNL A   1      35.971  23.649  26.044  1.00  0.00     0.026 A 
ATOM     16  C   UNL A   1      35.431  22.548  23.559  1.00  0.00     0.017 A 
ATOM     17  C   UNL A   1      34.672  23.235  25.726  1.00  0.00     0.017 A 
BRANCH  13  18
ATOM     18  N   UNL A   1      38.289  23.953  25.441  1.00  0.00    -0.399 N 
ATOM     19  H   UNL A   1      39.083  23.442  25.162  1.00  0.00     0.156 HD
ATOM     20  H   UNL A   1      38.397  24.800  25.931  1.00  0.00     0.156 HD
ENDBRANCH  13  18
ENDBRANCH  11  12
ENDBRANCH  10  11
ENDBRANCH   6  10
ENDBRANCH   3   5
ENDBRANCH   2   3
ENDBRANCH   1   2
BRANCH   1  21
ATOM     21  C   UNL A   1      31.666  29.663  25.874  1.00  0.00     0.275 C 
BRANCH  21  22
ATOM     22  O   UNL A   1      32.974  30.265  25.862  1.00  0.00    -0.458 OA
BRANCH  22  23
ATOM     23  C   UNL A   1      33.194  31.192  26.824  1.00  0.00     0.338 C 
ATOM     24  O   UNL A   1      32.423  32.066  27.186  1.00  0.00    -0.246 OA
BRANCH  23  25
ATOM     25  C   UNL A   1      34.477  30.917  27.492  1.00  0.00     0.060 A 
ATOM     26  C   UNL A   1      34.730  29.607  27.899  1.00  0.00     0.016 A 
ATOM     27  C   UNL A   1      35.392  31.934  27.780  1.00  0.00     0.016 A 
ATOM     28  C   UNL A   1      35.892  29.307  28.601  1.00  0.00     0.010 A 
ATOM     29  C   UNL A   1      36.564  31.627  28.486  1.00  0.00     0.010 A 
ATOM     30  C   UNL A   1      36.815  30.312  28.911  1.00  0.00    -0.014 A 
BRANCH  30  31
ATOM     31  C   UNL A   1      38.008  29.965  29.721  1.00  0.00     0.031 A 
ATOM     32  C   UNL A   1      39.058  29.050  29.157  1.00  0.00     0.074 A 
ATOM     33  C   UNL A   1      38.172  30.508  30.942  1.00  0.00     0.049 A 
ATOM     34  N   UNL A   1      40.156  28.611  29.715  1.00  0.00    -0.248 NA
ATOM     35  C   UNL A   1      38.846  28.568  27.782  1.00  0.00     0.031 C 
ATOM     36  C   UNL A   1      37.239  31.432  31.585  1.00  0.00     0.029 A 
ATOM     37  N   UNL A   1      39.180  30.354  31.863  1.00  0.00    -0.354 N 
ATOM     38  C   UNL A   1      40.748  27.773  28.779  1.00  0.00     0.074 A 
ATOM     39  C   UNL A   1      39.887  27.763  27.615  1.00  0.00     0.031 C 
ATOM     40  C   UNL A   1      37.713  31.757  32.799  1.00  0.00     0.029 A 
ATOM     41  C   UNL A   1      38.966  31.044  33.032  1.00  0.00     0.049 A 
ATOM     42  H   UNL A   1      39.980  29.803  31.700  1.00  0.00     0.167 HD
ATOM     43  C   UNL A   1      41.909  27.084  28.875  1.00  0.00     0.034 A 
ATOM     44  C   UNL A   1      39.690  31.084  34.168  1.00  0.00     0.034 A 
ATOM     45  C   UNL A   1      42.789  27.129  30.012  1.00  0.00     0.049 A 
ATOM     46  C   UNL A   1      40.976  30.303  34.250  1.00  0.00     0.074 A 
ATOM     47  C   UNL A   1      44.001  26.485  30.189  1.00  0.00     0.029 A 
ATOM     48  N   UNL A   1      42.557  27.866  31.163  1.00  0.00    -0.354 N 
ATOM     49  N   UNL A   1      41.558  29.577  33.326  1.00  0.00    -0.248 NA
ATOM     50  C   UNL A   1      41.713  30.364  35.519  1.00  0.00     0.031 C 
ATOM     51  C   UNL A   1      44.498  26.826  31.452  1.00  0.00     0.029 A 
ATOM     52  C   UNL A   1      43.599  27.689  32.057  1.00  0.00     0.049 A 
ATOM     53  H   UNL A   1      41.766  28.432  31.321  1.00  0.00     0.167 HD
ATOM     54  C   UNL A   1      42.740  29.115  33.894  1.00  0.00     0.074 A 
ATOM     55  C   UNL A   1      42.804  29.663  35.233  1.00  0.00     0.031 C 
ATOM     56  C   UNL A   1      43.677  28.290  33.364  1.00  0.00     0.034 A 
BRANCH  43  57
ATOM     57  C   UNL A   1      42.317  26.239  27.698  1.00  0.00     0.023 A 
ATOM     58  C   UNL A   1      43.147  26.792  26.703  1.00  0.00     0.012 A 
ATOM     59  C   UNL A   1      41.925  24.890  27.604  1.00  0.00     0.148 A 
ATOM     60  C   UNL A   1      43.563  26.020  25.619  1.00  0.00     0.002 A 
ATOM     61  C   UNL A   1      42.372  24.117  26.538  1.00  0.00     0.091 A 
ATOM     62  F   UNL A   1      41.113  24.391  28.547  1.00  0.00    -0.205 F 
ATOM     63  C   UNL A   1      43.185  24.682  25.541  1.00  0.00     0.022 A 
BRANCH  61  64
ATOM     64  S   UNL A   1      41.986  22.369  26.393  1.00  0.00     0.127 S 
ATOM     65  O   UNL A   1      40.530  22.395  26.275  1.00  0.00    -0.237 OA
ATOM     66  O   UNL A   1      42.690  21.993  25.165  1.00  0.00    -0.237 OA
ATOM     67  O   UNL A   1      42.511  21.746  27.601  1.00  0.00    -0.744 OA
ENDBRANCH  61  64
ENDBRANCH  43  57
BRANCH  44  68
ATOM     68  C   UNL A   1      39.234  31.931  35.307  1.00  0.00     0.023 A 
ATOM     69  C   UNL A   1      38.376  31.379  36.278  1.00  0.00     0.012 A 
ATOM     70  C   UNL A   1      39.671  33.262  35.454  1.00  0.00     0.148 A 
ATOM     71  C   UNL A   1      37.949  32.144  37.364  1.00  0.00     0.002 A 
ATOM     72  C   UNL A   1      39.287  33.998  36.569  1.00  0.00     0.091 A 
ATOM     73  F   UNL A   1      40.464  33.781  34.506  1.00  0.00    -0.205 F 
ATOM     74  C   UNL A   1      38.414  33.447  37.518  1.00  0.00     0.022 A 
BRANCH  72  75
ATOM     75  S   UNL A   1      39.959  35.629  36.910  1.00  0.00     0.127 S 
ATOM     76  O   UNL A   1      39.306  35.967  38.171  1.00  0.00    -0.237 OA
ATOM     77  O   UNL A   1      41.394  35.355  37.011  1.00  0.00    -0.237 OA
ATOM     78  O   UNL A   1      39.592  36.445  35.760  1.00  0.00    -0.744 OA
ENDBRANCH  72  75
ENDBRANCH  44  68
BRANCH  56  79
ATOM     79  C   UNL A   1      44.862  27.934  34.222  1.00  0.00     0.023 A 
ATOM     80  C   UNL A   1      46.001  28.763  34.203  1.00  0.00     0.012 A 
ATOM     81  C   UNL A   1      44.819  26.837  35.104  1.00  0.00     0.148 A 
ATOM     82  C   UNL A   1      47.089  28.492  35.032  1.00  0.00     0.002 A 
ATOM     83  C   UNL A   1      45.891  26.596  35.956  1.00  0.00     0.091 A 
ATOM     84  F   UNL A   1      43.735  26.047  35.092  1.00  0.00    -0.205 F 
ATOM     85  C   UNL A   1      47.029  27.418  35.916  1.00  0.00     0.022 A 
BRANCH  83  86
ATOM     86  S   UNL A   1      45.858  25.285  37.184  1.00  0.00     0.127 S 
ATOM     87  O   UNL A   1      44.673  25.634  37.964  1.00  0.00    -0.237 OA
ATOM     88  O   UNL A   1      45.712  24.083  36.359  1.00  0.00    -0.237 OA
ATOM     89  O   UNL A   1      47.128  25.374  37.891  1.00  0.00    -0.744 OA
ENDBRANCH  83  86
ENDBRANCH  56  79
ENDBRANCH  30  31
ENDBRANCH  23  25
ENDBRANCH  22  23
ENDBRANCH  21  22
ENDBRANCH   1  21
TORSDOF 18
ENDMDL
