MODEL 1
REMARK VINA RESULT:     -11.3      0.000      0.000
REMARK SMILES O=C(OCCOC(=O)c1c[nH]c(=O)c(-c2cccc([N+](=O)[O-])c2)c1)c1ccc(-c2c3nc(c(-c4cccc(S(=O)(=O)[O-])c4F)c4ccc([nH]4)c(-c4cccc(S(=O)(=O)[O-])c4F)c4nc(c(-c5cccc(S(=O)(=O)[O-])c5F)c5ccc2[nH]5)C=C4)C=C3)cc1
REMARK SMILES IDX 4 1 3 2 2 3 1 4 25 5 26 6 87 7 27 8 86 9 28 10 29 11 30 12
REMARK SMILES IDX 80 13 31 14 85 15 79 16 81 17 32 18 84 19 78 20 77 21 33 23
REMARK SMILES IDX 65 24 45 25 64 26 46 27 49 28 63 29 82 30 47 31 48 32 62 34
REMARK SMILES IDX 83 35 50 36 34 37 35 38 43 39 36 40 38 41 44 42 37 43 39 44
REMARK SMILES IDX 40 45 41 46 42 47 66 48 67 49 75 50 68 51 70 52 76 53 69 54
REMARK SMILES IDX 71 55 72 56 73 57 74 58 51 59 52 60 60 61 53 62 55 63 61 64
REMARK SMILES IDX 54 65 56 66 57 67 58 68 59 69 5 70 6 71 7 72 8 73 9 74 10 75
REMARK SMILES IDX 24 76 11 77 14 78 12 79 13 81 15 82 16 83 23 84 17 85 19 86
REMARK SMILES IDX 18 87 20 88 21 89 22 90
REMARK H PARENT 81 22 49 33 11 80
REMARK Flexibility Score: inf
ROOT
ATOM      1  C   UNL A   1      41.443  19.394  26.115  1.00  0.00     0.275 C 
ENDROOT
BRANCH   1   2
ATOM      2  O   UNL A   1      41.166  20.646  26.767  1.00  0.00    -0.458 OA
BRANCH   2   3
ATOM      3  C   UNL A   1      40.118  21.494  26.629  1.00  0.00     0.338 C 
ATOM      4  O   UNL A   1      39.090  21.063  26.109  1.00  0.00    -0.246 OA
BRANCH   3   5
ATOM      5  C   UNL A   1      40.183  22.956  26.944  1.00  0.00     0.060 A 
ATOM      6  C   UNL A   1      39.507  23.976  26.267  1.00  0.00     0.016 A 
ATOM      7  C   UNL A   1      41.057  23.327  27.980  1.00  0.00     0.016 A 
ATOM      8  C   UNL A   1      39.669  25.324  26.631  1.00  0.00     0.010 A 
ATOM      9  C   UNL A   1      41.223  24.667  28.343  1.00  0.00     0.010 A 
ATOM     10  C   UNL A   1      40.541  25.683  27.662  1.00  0.00    -0.014 A 
BRANCH  10  11
ATOM     11  C   UNL A   1      40.934  27.101  27.893  1.00  0.00     0.031 A 
ATOM     12  C   UNL A   1      42.398  27.442  27.714  1.00  0.00     0.074 A 
ATOM     13  C   UNL A   1      40.043  28.034  28.297  1.00  0.00     0.049 A 
ATOM     14  N   UNL A   1      43.032  28.551  27.976  1.00  0.00    -0.248 NA
ATOM     15  C   UNL A   1      43.262  26.387  27.143  1.00  0.00     0.031 C 
ATOM     16  C   UNL A   1      38.603  27.824  28.470  1.00  0.00     0.029 A 
ATOM     17  N   UNL A   1      40.230  29.335  28.710  1.00  0.00    -0.354 N 
ATOM     18  C   UNL A   1      44.357  28.327  27.616  1.00  0.00     0.074 A 
ATOM     19  C   UNL A   1      44.453  26.966  27.149  1.00  0.00     0.031 C 
ATOM     20  C   UNL A   1      38.062  28.914  29.049  1.00  0.00     0.029 A 
ATOM     21  C   UNL A   1      39.116  29.889  29.314  1.00  0.00     0.049 A 
ATOM     22  H   UNL A   1      41.076  29.824  28.587  1.00  0.00     0.167 HD
ATOM     23  C   UNL A   1      45.390  29.201  27.629  1.00  0.00     0.034 A 
ATOM     24  C   UNL A   1      38.998  31.009  30.066  1.00  0.00     0.034 A 
ATOM     25  C   UNL A   1      45.257  30.555  28.087  1.00  0.00     0.049 A 
ATOM     26  C   UNL A   1      40.205  31.884  30.219  1.00  0.00     0.074 A 
ATOM     27  C   UNL A   1      46.159  31.596  27.990  1.00  0.00     0.029 A 
ATOM     28  N   UNL A   1      44.147  31.039  28.762  1.00  0.00    -0.354 N 
ATOM     29  N   UNL A   1      41.420  31.694  29.768  1.00  0.00    -0.248 NA
ATOM     30  C   UNL A   1      40.004  33.152  30.930  1.00  0.00     0.031 C 
ATOM     31  C   UNL A   1      45.599  32.711  28.621  1.00  0.00     0.029 A 
ATOM     32  C   UNL A   1      44.340  32.365  29.090  1.00  0.00     0.049 A 
ATOM     33  H   UNL A   1      43.342  30.515  28.977  1.00  0.00     0.167 HD
ATOM     34  C   UNL A   1      42.122  32.842  30.103  1.00  0.00     0.074 A 
ATOM     35  C   UNL A   1      41.203  33.703  30.822  1.00  0.00     0.031 C 
ATOM     36  C   UNL A   1      43.398  33.181  29.805  1.00  0.00     0.034 A 
BRANCH  23  37
ATOM     37  C   UNL A   1      46.708  28.768  27.038  1.00  0.00     0.023 A 
ATOM     38  C   UNL A   1      47.816  28.599  27.895  1.00  0.00     0.012 A 
ATOM     39  C   UNL A   1      46.834  28.431  25.675  1.00  0.00     0.148 A 
ATOM     40  C   UNL A   1      49.032  28.124  27.406  1.00  0.00     0.002 A 
ATOM     41  C   UNL A   1      48.040  27.923  25.202  1.00  0.00     0.091 A 
ATOM     42  F   UNL A   1      45.775  28.604  24.873  1.00  0.00    -0.205 F 
ATOM     43  C   UNL A   1      49.141  27.778  26.064  1.00  0.00     0.022 A 
BRANCH  41  44
ATOM     44  S   UNL A   1      48.280  27.378  23.507  1.00  0.00     0.127 S 
ATOM     45  O   UNL A   1      47.261  28.155  22.799  1.00  0.00    -0.237 OA
ATOM     46  O   UNL A   1      49.655  27.800  23.244  1.00  0.00    -0.237 OA
ATOM     47  O   UNL A   1      48.066  25.938  23.507  1.00  0.00    -0.744 OA
ENDBRANCH  41  44
ENDBRANCH  23  37
BRANCH  24  48
ATOM     48  C   UNL A   1      37.751  31.332  30.827  1.00  0.00     0.023 A 
ATOM     49  C   UNL A   1      37.620  31.053  32.195  1.00  0.00     0.012 A 
ATOM     50  C   UNL A   1      36.669  31.946  30.165  1.00  0.00     0.148 A 
ATOM     51  C   UNL A   1      36.470  31.448  32.891  1.00  0.00     0.002 A 
ATOM     52  C   UNL A   1      35.604  32.470  30.884  1.00  0.00     0.091 A 
ATOM     53  F   UNL A   1      36.689  31.992  28.825  1.00  0.00    -0.205 F 
ATOM     54  C   UNL A   1      35.487  32.201  32.250  1.00  0.00     0.022 A 
BRANCH  52  55
ATOM     55  S   UNL A   1      34.505  33.717  30.184  1.00  0.00     0.127 S 
ATOM     56  O   UNL A   1      33.780  34.190  31.357  1.00  0.00    -0.237 OA
ATOM     57  O   UNL A   1      35.466  34.667  29.618  1.00  0.00    -0.237 OA
ATOM     58  O   UNL A   1      33.718  33.016  29.181  1.00  0.00    -0.744 OA
ENDBRANCH  52  55
ENDBRANCH  24  48
BRANCH  36  59
ATOM     59  C   UNL A   1      43.824  34.564  30.187  1.00  0.00     0.023 A 
ATOM     60  C   UNL A   1      44.516  34.791  31.389  1.00  0.00     0.012 A 
ATOM     61  C   UNL A   1      43.533  35.640  29.326  1.00  0.00     0.148 A 
ATOM     62  C   UNL A   1      44.891  36.085  31.744  1.00  0.00     0.002 A 
ATOM     63  C   UNL A   1      43.948  36.917  29.665  1.00  0.00     0.091 A 
ATOM     64  F   UNL A   1      42.842  35.392  28.203  1.00  0.00    -0.205 F 
ATOM     65  C   UNL A   1      44.617  37.144  30.878  1.00  0.00     0.022 A 
BRANCH  63  66
ATOM     66  S   UNL A   1      43.698  38.317  28.572  1.00  0.00     0.127 S 
ATOM     67  O   UNL A   1      44.482  39.358  29.235  1.00  0.00    -0.237 OA
ATOM     68  O   UNL A   1      44.265  37.834  27.313  1.00  0.00    -0.237 OA
ATOM     69  O   UNL A   1      42.259  38.548  28.534  1.00  0.00    -0.744 OA
ENDBRANCH  63  66
ENDBRANCH  36  59
ENDBRANCH  10  11
ENDBRANCH   3   5
ENDBRANCH   2   3
ENDBRANCH   1   2
BRANCH   1  70
ATOM     70  C   UNL A   1      42.843  18.820  26.345  1.00  0.00     0.275 C 
BRANCH  70  71
ATOM     71  O   UNL A   1      43.517  18.505  25.128  1.00  0.00    -0.458 OA
BRANCH  71  72
ATOM     72  C   UNL A   1      44.856  18.765  25.135  1.00  0.00     0.339 C 
ATOM     73  O   UNL A   1      45.750  17.948  25.191  1.00  0.00    -0.246 OA
BRANCH  72  74
ATOM     74  C   UNL A   1      45.042  20.217  24.901  1.00  0.00     0.077 A 
ATOM     75  C   UNL A   1      44.719  20.702  23.694  1.00  0.00     0.101 A 
ATOM     76  C   UNL A   1      45.420  21.126  25.957  1.00  0.00     0.031 A 
ATOM     77  N   UNL A   1      44.755  22.054  23.462  1.00  0.00    -0.328 N 
ATOM     78  C   UNL A   1      45.476  22.458  25.760  1.00  0.00     0.048 A 
ATOM     79  C   UNL A   1      45.110  22.994  24.402  1.00  0.00     0.255 A 
ATOM     80  H   UNL A   1      44.509  22.373  22.563  1.00  0.00     0.169 HD
ATOM     81  O   UNL A   1      45.102  24.188  24.127  1.00  0.00    -0.269 OA
BRANCH  78  82
ATOM     82  C   UNL A   1      45.792  23.333  26.895  1.00  0.00    -0.006 A 
ATOM     83  C   UNL A   1      46.928  24.164  26.856  1.00  0.00     0.009 A 
ATOM     84  C   UNL A   1      44.987  23.313  28.042  1.00  0.00     0.094 A 
ATOM     85  C   UNL A   1      47.258  24.958  27.944  1.00  0.00     0.008 A 
ATOM     86  C   UNL A   1      45.330  24.104  29.130  1.00  0.00     0.270 A 
ATOM     87  C   UNL A   1      46.444  24.926  29.070  1.00  0.00     0.085 A 
BRANCH  86  88
ATOM     88  N   UNL A   1      44.537  24.029  30.351  1.00  0.00     0.062 N 
ATOM     89  O   UNL A   1      43.602  23.214  30.357  1.00  0.00    -0.258 OA
ATOM     90  O   UNL A   1      44.817  24.801  31.276  1.00  0.00    -0.258 OA
ENDBRANCH  86  88
ENDBRANCH  78  82
ENDBRANCH  72  74
ENDBRANCH  71  72
ENDBRANCH  70  71
ENDBRANCH   1  70
TORSDOF 16
ENDMDL
MODEL 2
REMARK VINA RESULT:     -11.2      4.549     12.988
REMARK SMILES O=C(OCCOC(=O)c1c[nH]c(=O)c(-c2cccc([N+](=O)[O-])c2)c1)c1ccc(-c2c3nc(c(-c4cccc(S(=O)(=O)[O-])c4F)c4ccc([nH]4)c(-c4cccc(S(=O)(=O)[O-])c4F)c4nc(c(-c5cccc(S(=O)(=O)[O-])c5F)c5ccc2[nH]5)C=C4)C=C3)cc1
REMARK SMILES IDX 4 1 3 2 2 3 1 4 25 5 26 6 87 7 27 8 86 9 28 10 29 11 30 12
REMARK SMILES IDX 80 13 31 14 85 15 79 16 81 17 32 18 84 19 78 20 77 21 33 23
REMARK SMILES IDX 65 24 45 25 64 26 46 27 49 28 63 29 82 30 47 31 48 32 62 34
REMARK SMILES IDX 83 35 50 36 34 37 35 38 43 39 36 40 38 41 44 42 37 43 39 44
REMARK SMILES IDX 40 45 41 46 42 47 66 48 67 49 75 50 68 51 70 52 76 53 69 54
REMARK SMILES IDX 71 55 72 56 73 57 74 58 51 59 52 60 60 61 53 62 55 63 61 64
REMARK SMILES IDX 54 65 56 66 57 67 58 68 59 69 5 70 6 71 7 72 8 73 9 74 10 75
REMARK SMILES IDX 24 76 11 77 14 78 12 79 13 81 15 82 16 83 23 84 17 85 19 86
REMARK SMILES IDX 18 87 20 88 21 89 22 90
REMARK H PARENT 81 22 49 33 11 80
REMARK Flexibility Score: inf
ROOT
ATOM      1  C   UNL A   1      34.210  35.291  28.112  1.00  0.00     0.275 C 
ENDROOT
BRANCH   1   2
ATOM      2  O   UNL A   1      34.213  34.004  28.756  1.00  0.00    -0.458 OA
BRANCH   2   3
ATOM      3  C   UNL A   1      34.327  32.761  28.230  1.00  0.00     0.338 C 
ATOM      4  O   UNL A   1      33.411  32.346  27.521  1.00  0.00    -0.246 OA
BRANCH   3   5
ATOM      5  C   UNL A   1      35.433  31.810  28.572  1.00  0.00     0.060 A 
ATOM      6  C   UNL A   1      35.307  30.428  28.744  1.00  0.00     0.016 A 
ATOM      7  C   UNL A   1      36.694  32.387  28.798  1.00  0.00     0.016 A 
ATOM      8  C   UNL A   1      36.413  29.635  29.098  1.00  0.00     0.010 A 
ATOM      9  C   UNL A   1      37.796  31.601  29.153  1.00  0.00     0.010 A 
ATOM     10  C   UNL A   1      37.663  30.217  29.321  1.00  0.00    -0.014 A 
BRANCH  10  11
ATOM     11  C   UNL A   1      38.777  29.453  29.950  1.00  0.00     0.031 A 
ATOM     12  C   UNL A   1      39.285  29.958  31.283  1.00  0.00     0.074 A 
ATOM     13  C   UNL A   1      39.350  28.392  29.340  1.00  0.00     0.049 A 
ATOM     14  N   UNL A   1      40.318  29.573  31.980  1.00  0.00    -0.248 NA
ATOM     15  C   UNL A   1      38.507  31.039  31.925  1.00  0.00     0.031 C 
ATOM     16  C   UNL A   1      38.921  27.799  28.070  1.00  0.00     0.029 A 
ATOM     17  N   UNL A   1      40.472  27.663  29.671  1.00  0.00    -0.354 N 
ATOM     18  C   UNL A   1      40.321  30.362  33.126  1.00  0.00     0.074 A 
ATOM     19  C   UNL A   1      39.210  31.276  33.023  1.00  0.00     0.031 C 
ATOM     20  C   UNL A   1      39.824  26.877  27.682  1.00  0.00     0.029 A 
ATOM     21  C   UNL A   1      40.909  26.829  28.657  1.00  0.00     0.049 A 
ATOM     22  H   UNL A   1      40.919  27.729  30.545  1.00  0.00     0.167 HD
ATOM     23  C   UNL A   1      41.151  30.291  34.192  1.00  0.00     0.034 A 
ATOM     24  C   UNL A   1      42.089  26.183  28.508  1.00  0.00     0.034 A 
ATOM     25  C   UNL A   1      42.240  29.358  34.269  1.00  0.00     0.049 A 
ATOM     26  C   UNL A   1      43.079  26.258  29.631  1.00  0.00     0.074 A 
ATOM     27  C   UNL A   1      43.043  29.051  35.350  1.00  0.00     0.029 A 
ATOM     28  N   UNL A   1      42.691  28.605  33.197  1.00  0.00    -0.354 N 
ATOM     29  N   UNL A   1      42.999  26.927  30.754  1.00  0.00    -0.248 NA
ATOM     30  C   UNL A   1      44.289  25.440  29.488  1.00  0.00     0.031 C 
ATOM     31  C   UNL A   1      43.994  28.117  34.926  1.00  0.00     0.029 A 
ATOM     32  C   UNL A   1      43.765  27.831  33.588  1.00  0.00     0.049 A 
ATOM     33  H   UNL A   1      42.305  28.620  32.292  1.00  0.00     0.167 HD
ATOM     34  C   UNL A   1      44.131  26.577  31.475  1.00  0.00     0.074 A 
ATOM     35  C   UNL A   1      44.892  25.663  30.645  1.00  0.00     0.031 C 
ATOM     36  C   UNL A   1      44.490  26.937  32.729  1.00  0.00     0.034 A 
BRANCH  23  37
ATOM     37  C   UNL A   1      40.855  31.152  35.394  1.00  0.00     0.023 A 
ATOM     38  C   UNL A   1      41.795  32.134  35.776  1.00  0.00     0.012 A 
ATOM     39  C   UNL A   1      39.626  31.072  36.079  1.00  0.00     0.148 A 
ATOM     40  C   UNL A   1      41.529  33.006  36.831  1.00  0.00     0.002 A 
ATOM     41  C   UNL A   1      39.354  31.970  37.107  1.00  0.00     0.091 A 
ATOM     42  F   UNL A   1      38.748  30.130  35.709  1.00  0.00    -0.205 F 
ATOM     43  C   UNL A   1      40.307  32.930  37.489  1.00  0.00     0.022 A 
BRANCH  41  44
ATOM     44  S   UNL A   1      37.785  32.014  37.983  1.00  0.00     0.127 S 
ATOM     45  O   UNL A   1      37.384  30.607  37.943  1.00  0.00    -0.237 OA
ATOM     46  O   UNL A   1      38.190  32.491  39.305  1.00  0.00    -0.237 OA
ATOM     47  O   UNL A   1      36.926  32.921  37.237  1.00  0.00    -0.744 OA
ENDBRANCH  41  44
ENDBRANCH  23  37
BRANCH  24  48
ATOM     48  C   UNL A   1      42.472  25.503  27.232  1.00  0.00     0.023 A 
ATOM     49  C   UNL A   1      43.227  26.147  26.241  1.00  0.00     0.012 A 
ATOM     50  C   UNL A   1      42.078  24.169  27.007  1.00  0.00     0.148 A 
ATOM     51  C   UNL A   1      43.637  25.450  25.097  1.00  0.00     0.002 A 
ATOM     52  C   UNL A   1      42.612  23.439  25.954  1.00  0.00     0.091 A 
ATOM     53  F   UNL A   1      41.161  23.632  27.825  1.00  0.00    -0.205 F 
ATOM     54  C   UNL A   1      43.376  24.085  24.978  1.00  0.00     0.022 A 
BRANCH  52  55
ATOM     55  S   UNL A   1      42.591  21.637  25.936  1.00  0.00     0.127 S 
ATOM     56  O   UNL A   1      43.591  21.320  24.924  1.00  0.00    -0.237 OA
ATOM     57  O   UNL A   1      42.979  21.328  27.315  1.00  0.00    -0.237 OA
ATOM     58  O   UNL A   1      41.218  21.271  25.621  1.00  0.00    -0.744 OA
ENDBRANCH  52  55
ENDBRANCH  24  48
BRANCH  36  59
ATOM     59  C   UNL A   1      45.708  26.269  33.288  1.00  0.00     0.023 A 
ATOM     60  C   UNL A   1      46.962  26.903  33.220  1.00  0.00     0.012 A 
ATOM     61  C   UNL A   1      45.589  25.004  33.890  1.00  0.00     0.148 A 
ATOM     62  C   UNL A   1      48.092  26.265  33.726  1.00  0.00     0.002 A 
ATOM     63  C   UNL A   1      46.710  24.395  34.430  1.00  0.00     0.091 A 
ATOM     64  F   UNL A   1      44.383  24.414  33.907  1.00  0.00    -0.205 F 
ATOM     65  C   UNL A   1      47.965  25.019  34.340  1.00  0.00     0.022 A 
BRANCH  63  66
ATOM     66  S   UNL A   1      46.614  22.828  35.298  1.00  0.00     0.127 S 
ATOM     67  O   UNL A   1      48.018  22.582  35.625  1.00  0.00    -0.237 OA
ATOM     68  O   UNL A   1      45.769  23.159  36.445  1.00  0.00    -0.237 OA
ATOM     69  O   UNL A   1      46.016  21.885  34.362  1.00  0.00    -0.744 OA
ENDBRANCH  63  66
ENDBRANCH  36  59
ENDBRANCH  10  11
ENDBRANCH   3   5
ENDBRANCH   2   3
ENDBRANCH   1   2
BRANCH   1  70
ATOM     70  C   UNL A   1      33.371  36.374  28.794  1.00  0.00     0.275 C 
BRANCH  70  71
ATOM     71  O   UNL A   1      32.761  35.920  30.001  1.00  0.00    -0.458 OA
BRANCH  71  72
ATOM     72  C   UNL A   1      33.164  36.581  31.125  1.00  0.00     0.339 C 
ATOM     73  O   UNL A   1      32.895  37.723  31.426  1.00  0.00    -0.246 OA
BRANCH  72  74
ATOM     74  C   UNL A   1      33.861  35.608  32.001  1.00  0.00     0.077 A 
ATOM     75  C   UNL A   1      33.120  34.666  32.603  1.00  0.00     0.101 A 
ATOM     76  C   UNL A   1      35.300  35.564  32.112  1.00  0.00     0.031 A 
ATOM     77  N   UNL A   1      33.727  33.670  33.325  1.00  0.00    -0.328 N 
ATOM     78  C   UNL A   1      35.926  34.606  32.823  1.00  0.00     0.048 A 
ATOM     79  C   UNL A   1      35.088  33.550  33.493  1.00  0.00     0.255 A 
ATOM     80  H   UNL A   1      33.150  32.994  33.751  1.00  0.00     0.169 HD
ATOM     81  O   UNL A   1      35.560  32.622  34.139  1.00  0.00    -0.269 OA
BRANCH  78  82
ATOM     82  C   UNL A   1      37.394  34.572  32.832  1.00  0.00    -0.006 A 
ATOM     83  C   UNL A   1      38.098  34.664  34.047  1.00  0.00     0.009 A 
ATOM     84  C   UNL A   1      38.101  34.489  31.625  1.00  0.00     0.094 A 
ATOM     85  C   UNL A   1      39.485  34.679  34.059  1.00  0.00     0.008 A 
ATOM     86  C   UNL A   1      39.489  34.515  31.644  1.00  0.00     0.270 A 
ATOM     87  C   UNL A   1      40.167  34.593  32.851  1.00  0.00     0.085 A 
BRANCH  86  88
ATOM     88  N   UNL A   1      40.226  34.506  30.387  1.00  0.00     0.062 N 
ATOM     89  O   UNL A   1      39.572  34.733  29.358  1.00  0.00    -0.258 OA
ATOM     90  O   UNL A   1      41.432  34.234  30.420  1.00  0.00    -0.258 OA
ENDBRANCH  86  88
ENDBRANCH  78  82
ENDBRANCH  72  74
ENDBRANCH  71  72
ENDBRANCH  70  71
ENDBRANCH   1  70
TORSDOF 16
ENDMDL
MODEL 3
REMARK VINA RESULT:     -11.1      3.834     11.540
REMARK SMILES O=C(OCCOC(=O)c1c[nH]c(=O)c(-c2cccc([N+](=O)[O-])c2)c1)c1ccc(-c2c3nc(c(-c4cccc(S(=O)(=O)[O-])c4F)c4ccc([nH]4)c(-c4cccc(S(=O)(=O)[O-])c4F)c4nc(c(-c5cccc(S(=O)(=O)[O-])c5F)c5ccc2[nH]5)C=C4)C=C3)cc1
REMARK SMILES IDX 4 1 3 2 2 3 1 4 25 5 26 6 87 7 27 8 86 9 28 10 29 11 30 12
REMARK SMILES IDX 80 13 31 14 85 15 79 16 81 17 32 18 84 19 78 20 77 21 33 23
REMARK SMILES IDX 65 24 45 25 64 26 46 27 49 28 63 29 82 30 47 31 48 32 62 34
REMARK SMILES IDX 83 35 50 36 34 37 35 38 43 39 36 40 38 41 44 42 37 43 39 44
REMARK SMILES IDX 40 45 41 46 42 47 66 48 67 49 75 50 68 51 70 52 76 53 69 54
REMARK SMILES IDX 71 55 72 56 73 57 74 58 51 59 52 60 60 61 53 62 55 63 61 64
REMARK SMILES IDX 54 65 56 66 57 67 58 68 59 69 5 70 6 71 7 72 8 73 9 74 10 75
REMARK SMILES IDX 24 76 11 77 14 78 12 79 13 81 15 82 16 83 23 84 17 85 19 86
REMARK SMILES IDX 18 87 20 88 21 89 22 90
REMARK H PARENT 81 22 49 33 11 80
REMARK Flexibility Score: inf
ROOT
ATOM      1  C   UNL A   1      33.905  34.664  30.946  1.00  0.00     0.275 C 
ENDROOT
BRANCH   1   2
ATOM      2  O   UNL A   1      34.525  33.521  31.561  1.00  0.00    -0.458 OA
BRANCH   2   3
ATOM      3  C   UNL A   1      35.730  33.398  32.168  1.00  0.00     0.338 C 
ATOM      4  O   UNL A   1      36.017  34.200  33.055  1.00  0.00    -0.246 OA
BRANCH   3   5
ATOM      5  C   UNL A   1      36.788  32.432  31.730  1.00  0.00     0.060 A 
ATOM      6  C   UNL A   1      37.602  31.665  32.570  1.00  0.00     0.016 A 
ATOM      7  C   UNL A   1      37.012  32.348  30.345  1.00  0.00     0.016 A 
ATOM      8  C   UNL A   1      38.589  30.812  32.046  1.00  0.00     0.010 A 
ATOM      9  C   UNL A   1      37.995  31.503  29.821  1.00  0.00     0.010 A 
ATOM     10  C   UNL A   1      38.805  30.736  30.667  1.00  0.00    -0.014 A 
BRANCH  10  11
ATOM     11  C   UNL A   1      40.004  30.055  30.103  1.00  0.00     0.031 A 
ATOM     12  C   UNL A   1      41.226  30.914  29.861  1.00  0.00     0.074 A 
ATOM     13  C   UNL A   1      39.992  28.745  29.768  1.00  0.00     0.049 A 
ATOM     14  N   UNL A   1      42.346  30.617  29.262  1.00  0.00    -0.248 NA
ATOM     15  C   UNL A   1      41.183  32.296  30.383  1.00  0.00     0.031 C 
ATOM     16  C   UNL A   1      38.880  27.816  29.987  1.00  0.00     0.029 A 
ATOM     17  N   UNL A   1      40.923  27.980  29.099  1.00  0.00    -0.354 N 
ATOM     18  C   UNL A   1      43.129  31.765  29.325  1.00  0.00     0.074 A 
ATOM     19  C   UNL A   1      42.350  32.782  29.988  1.00  0.00     0.031 C 
ATOM     20  C   UNL A   1      39.150  26.648  29.372  1.00  0.00     0.029 A 
ATOM     21  C   UNL A   1      40.439  26.750  28.694  1.00  0.00     0.049 A 
ATOM     22  H   UNL A   1      41.844  28.281  28.927  1.00  0.00     0.167 HD
ATOM     23  C   UNL A   1      44.406  31.936  28.911  1.00  0.00     0.034 A 
ATOM     24  C   UNL A   1      40.948  25.862  27.808  1.00  0.00     0.034 A 
ATOM     25  C   UNL A   1      45.159  30.897  28.267  1.00  0.00     0.049 A 
ATOM     26  C   UNL A   1      42.295  26.152  27.216  1.00  0.00     0.074 A 
ATOM     27  C   UNL A   1      46.505  30.866  27.959  1.00  0.00     0.029 A 
ATOM     28  N   UNL A   1      44.606  29.713  27.805  1.00  0.00    -0.354 N 
ATOM     29  N   UNL A   1      43.058  27.201  27.387  1.00  0.00    -0.248 NA
ATOM     30  C   UNL A   1      42.869  25.105  26.363  1.00  0.00     0.031 C 
ATOM     31  C   UNL A   1      46.766  29.663  27.295  1.00  0.00     0.029 A 
ATOM     32  C   UNL A   1      45.585  28.940  27.212  1.00  0.00     0.049 A 
ATOM     33  H   UNL A   1      43.659  29.460  27.887  1.00  0.00     0.167 HD
ATOM     34  C   UNL A   1      44.228  26.924  26.696  1.00  0.00     0.074 A 
ATOM     35  C   UNL A   1      44.054  25.623  26.079  1.00  0.00     0.031 C 
ATOM     36  C   UNL A   1      45.365  27.654  26.613  1.00  0.00     0.034 A 
BRANCH  23  37
ATOM     37  C   UNL A   1      45.101  33.234  29.233  1.00  0.00     0.023 A 
ATOM     38  C   UNL A   1      45.800  33.347  30.454  1.00  0.00     0.012 A 
ATOM     39  C   UNL A   1      45.157  34.295  28.307  1.00  0.00     0.148 A 
ATOM     40  C   UNL A   1      46.523  34.500  30.760  1.00  0.00     0.002 A 
ATOM     41  C   UNL A   1      45.911  35.426  28.604  1.00  0.00     0.091 A 
ATOM     42  F   UNL A   1      44.482  34.175  27.156  1.00  0.00    -0.205 F 
ATOM     43  C   UNL A   1      46.587  35.533  29.832  1.00  0.00     0.022 A 
BRANCH  41  44
ATOM     44  S   UNL A   1      46.123  36.794  27.458  1.00  0.00     0.127 S 
ATOM     45  O   UNL A   1      46.957  37.708  28.238  1.00  0.00    -0.237 OA
ATOM     46  O   UNL A   1      46.812  36.149  26.340  1.00  0.00    -0.237 OA
ATOM     47  O   UNL A   1      44.786  37.286  27.158  1.00  0.00    -0.744 OA
ENDBRANCH  41  44
ENDBRANCH  23  37
BRANCH  24  48
ATOM     48  C   UNL A   1      40.170  24.679  27.325  1.00  0.00     0.023 A 
ATOM     49  C   UNL A   1      39.000  24.818  26.563  1.00  0.00     0.012 A 
ATOM     50  C   UNL A   1      40.618  23.378  27.628  1.00  0.00     0.148 A 
ATOM     51  C   UNL A   1      38.345  23.686  26.059  1.00  0.00     0.002 A 
ATOM     52  C   UNL A   1      40.059  22.272  27.001  1.00  0.00     0.091 A 
ATOM     53  F   UNL A   1      41.582  23.238  28.548  1.00  0.00    -0.205 F 
ATOM     54  C   UNL A   1      38.902  22.419  26.232  1.00  0.00     0.022 A 
BRANCH  52  55
ATOM     55  S   UNL A   1      40.921  20.691  26.914  1.00  0.00     0.127 S 
ATOM     56  O   UNL A   1      40.071  19.918  26.017  1.00  0.00    -0.237 OA
ATOM     57  O   UNL A   1      42.214  21.095  26.355  1.00  0.00    -0.237 OA
ATOM     58  O   UNL A   1      41.001  20.220  28.288  1.00  0.00    -0.744 OA
ENDBRANCH  52  55
ENDBRANCH  24  48
BRANCH  36  59
ATOM     59  C   UNL A   1      46.516  27.011  25.903  1.00  0.00     0.023 A 
ATOM     60  C   UNL A   1      47.174  25.905  26.470  1.00  0.00     0.012 A 
ATOM     61  C   UNL A   1      46.929  27.515  24.656  1.00  0.00     0.148 A 
ATOM     62  C   UNL A   1      48.255  25.326  25.810  1.00  0.00     0.002 A 
ATOM     63  C   UNL A   1      47.978  26.906  23.986  1.00  0.00     0.091 A 
ATOM     64  F   UNL A   1      46.300  28.592  24.161  1.00  0.00    -0.205 F 
ATOM     65  C   UNL A   1      48.649  25.818  24.565  1.00  0.00     0.022 A 
BRANCH  63  66
ATOM     66  S   UNL A   1      48.493  27.435  22.351  1.00  0.00     0.127 S 
ATOM     67  O   UNL A   1      48.735  26.155  21.686  1.00  0.00    -0.237 OA
ATOM     68  O   UNL A   1      47.317  28.159  21.873  1.00  0.00    -0.237 OA
ATOM     69  O   UNL A   1      49.673  28.268  22.550  1.00  0.00    -0.744 OA
ENDBRANCH  63  66
ENDBRANCH  36  59
ENDBRANCH  10  11
ENDBRANCH   3   5
ENDBRANCH   2   3
ENDBRANCH   1   2
BRANCH   1  70
ATOM     70  C   UNL A   1      33.744  34.595  29.426  1.00  0.00     0.275 C 
BRANCH  70  71
ATOM     71  O   UNL A   1      33.929  33.278  28.911  1.00  0.00    -0.458 OA
BRANCH  71  72
ATOM     72  C   UNL A   1      33.036  32.915  27.945  1.00  0.00     0.339 C 
ATOM     73  O   UNL A   1      32.164  33.609  27.470  1.00  0.00    -0.246 OA
BRANCH  72  74
ATOM     74  C   UNL A   1      33.414  31.567  27.456  1.00  0.00     0.077 A 
ATOM     75  C   UNL A   1      34.621  31.094  27.799  1.00  0.00     0.101 A 
ATOM     76  C   UNL A   1      32.486  30.713  26.753  1.00  0.00     0.031 A 
ATOM     77  N   UNL A   1      34.973  29.808  27.477  1.00  0.00    -0.328 N 
ATOM     78  C   UNL A   1      32.805  29.449  26.413  1.00  0.00     0.048 A 
ATOM     79  C   UNL A   1      34.161  28.924  26.803  1.00  0.00     0.255 A 
ATOM     80  H   UNL A   1      35.868  29.495  27.747  1.00  0.00     0.169 HD
ATOM     81  O   UNL A   1      34.538  27.783  26.566  1.00  0.00    -0.269 OA
BRANCH  78  82
ATOM     82  C   UNL A   1      31.789  28.608  25.769  1.00  0.00    -0.006 A 
ATOM     83  C   UNL A   1      31.535  27.309  26.248  1.00  0.00     0.009 A 
ATOM     84  C   UNL A   1      31.095  29.080  24.647  1.00  0.00     0.094 A 
ATOM     85  C   UNL A   1      30.610  26.492  25.615  1.00  0.00     0.008 A 
ATOM     86  C   UNL A   1      30.177  28.253  24.013  1.00  0.00     0.270 A 
ATOM     87  C   UNL A   1      29.931  26.981  24.506  1.00  0.00     0.085 A 
BRANCH  86  88
ATOM     88  N   UNL A   1      29.510  28.715  22.802  1.00  0.00     0.062 N 
ATOM     89  O   UNL A   1      28.390  29.229  22.947  1.00  0.00    -0.258 OA
ATOM     90  O   UNL A   1      30.075  28.530  21.718  1.00  0.00    -0.258 OA
ENDBRANCH  86  88
ENDBRANCH  78  82
ENDBRANCH  72  74
ENDBRANCH  71  72
ENDBRANCH  70  71
ENDBRANCH   1  70
TORSDOF 16
ENDMDL
