MODEL 1
REMARK VINA RESULT:     -13.4      0.000      0.000
REMARK SMILES CC[C@](C)(NC(=O)CNC(=O)c1cccc(Cl)c1)C(=O)OCCOC(=O)c1ccc(-c2c3nc(c(-c4cccc(S(=O)(=O)[O-])c4F)c4ccc([nH]4)c(-c4cccc(S(=O)(=O)[O-])c4F)c4nc(c(-c5cccc(S(=O)(=O)[O-])c5F)c5ccc2[nH]5)C=C4)C=C3)cc1
REMARK SMILES IDX 22 1 21 2 19 3 20 4 3 5 4 6 2 7 1 8 5 9 6 10 7 12 8 13 9 14
REMARK SMILES IDX 10 15 11 17 12 18 13 19 18 20 14 21 16 22 15 23 17 24 23 25
REMARK SMILES IDX 24 26 25 27 26 28 27 29 28 30 89 31 29 32 88 33 30 34 31 35
REMARK SMILES IDX 32 36 82 37 33 38 87 39 81 40 83 41 34 42 86 43 80 44 79 45
REMARK SMILES IDX 35 47 67 48 47 49 66 50 48 51 51 52 65 53 84 54 49 55 50 56
REMARK SMILES IDX 64 58 85 59 52 60 36 61 37 62 45 63 38 64 40 65 46 66 39 67
REMARK SMILES IDX 41 68 42 69 43 70 44 71 68 72 69 73 77 74 70 75 72 76 78 77
REMARK SMILES IDX 71 78 73 79 74 80 75 81 76 82 53 83 54 84 62 85 55 86 57 87
REMARK SMILES IDX 63 88 56 89 58 90 59 91 60 92 61 93
REMARK H PARENT 5 11 9 16 83 46 51 57
REMARK Flexibility Score: inf
ROOT
ATOM      1  C   UNL A   1      32.255  26.799  25.928  1.00  0.00     0.274 C 
ENDROOT
BRANCH   1   2
ATOM      2  O   UNL A   1      33.057  25.503  26.027  1.00  0.00    -0.460 OA
BRANCH   2   3
ATOM      3  C   UNL A   1      33.787  24.729  25.104  1.00  0.00     0.331 C 
ATOM      4  O   UNL A   1      34.940  24.990  24.782  1.00  0.00    -0.249 OA
BRANCH   3   5
ATOM      5  C   UNL A   1      32.938  23.389  24.484  1.00  0.00     0.135 C 
ATOM      6  C   UNL A   1      31.381  23.255  24.289  1.00  0.00     0.047 C 
BRANCH   5   7
ATOM      7  C   UNL A   1      33.291  22.117  25.318  1.00  0.00     0.037 C 
ATOM      8  C   UNL A   1      32.562  20.839  24.846  1.00  0.00     0.007 C 
ENDBRANCH   5   7
BRANCH   5   9
ATOM      9  N   UNL A   1      33.455  23.327  23.134  1.00  0.00    -0.339 N 
ATOM     10  C   UNL A   1      32.924  24.126  22.164  1.00  0.00     0.240 C 
ATOM     11  H   UNL A   1      34.190  22.708  22.916  1.00  0.00     0.164 HD
ATOM     12  O   UNL A   1      33.371  24.057  21.019  1.00  0.00    -0.273 OA
BRANCH  10  13
ATOM     13  C   UNL A   1      31.777  25.137  22.559  1.00  0.00     0.216 C 
BRANCH  13  14
ATOM     14  N   UNL A   1      31.591  26.786  22.225  1.00  0.00    -0.343 N 
ATOM     15  C   UNL A   1      31.288  28.132  22.469  1.00  0.00     0.251 C 
ATOM     16  H   UNL A   1      31.864  26.822  21.280  1.00  0.00     0.164 HD
ATOM     17  O   UNL A   1      32.253  28.909  22.440  1.00  0.00    -0.269 OA
BRANCH  15  18
ATOM     18  C   UNL A   1      30.032  28.874  22.524  1.00  0.00     0.041 A 
ATOM     19  C   UNL A   1      29.837  30.090  21.853  1.00  0.00     0.014 A 
ATOM     20  C   UNL A   1      28.917  28.207  23.023  1.00  0.00     0.034 A 
ATOM     21  C   UNL A   1      28.648  30.803  22.021  1.00  0.00     0.002 A 
ATOM     22  C   UNL A   1      27.701  28.879  23.111  1.00  0.00     0.041 A 
ATOM     23  C   UNL A   1      27.584  30.203  22.688  1.00  0.00     0.020 A 
ATOM     24  Cl  UNL A   1      26.329  28.065  23.753  1.00  0.00    -0.084 Cl
ENDBRANCH  15  18
ENDBRANCH  13  14
ENDBRANCH  10  13
ENDBRANCH   5   9
ENDBRANCH   3   5
ENDBRANCH   2   3
ENDBRANCH   1   2
BRANCH   1  25
ATOM     25  C   UNL A   1      32.978  28.384  25.878  1.00  0.00     0.275 C 
BRANCH  25  26
ATOM     26  O   UNL A   1      32.275  29.664  26.326  1.00  0.00    -0.458 OA
BRANCH  26  27
ATOM     27  C   UNL A   1      32.862  30.800  26.887  1.00  0.00     0.338 C 
ATOM     28  O   UNL A   1      32.229  31.829  27.072  1.00  0.00    -0.246 OA
BRANCH  27  29
ATOM     29  C   UNL A   1      34.334  30.660  27.464  1.00  0.00     0.060 A 
ATOM     30  C   UNL A   1      34.884  29.488  28.057  1.00  0.00     0.016 A 
ATOM     31  C   UNL A   1      35.138  31.791  27.618  1.00  0.00     0.016 A 
ATOM     32  C   UNL A   1      36.154  29.382  28.629  1.00  0.00     0.010 A 
ATOM     33  C   UNL A   1      36.426  31.708  28.230  1.00  0.00     0.010 A 
ATOM     34  C   UNL A   1      36.953  30.495  28.714  1.00  0.00    -0.014 A 
BRANCH  34  35
ATOM     35  C   UNL A   1      38.266  30.366  29.396  1.00  0.00     0.031 A 
ATOM     36  C   UNL A   1      39.311  29.489  28.781  1.00  0.00     0.074 A 
ATOM     37  C   UNL A   1      38.536  31.049  30.528  1.00  0.00     0.049 A 
ATOM     38  N   UNL A   1      40.371  28.961  29.326  1.00  0.00    -0.248 NA
ATOM     39  C   UNL A   1      39.133  29.156  27.357  1.00  0.00     0.031 C 
ATOM     40  C   UNL A   1      37.671  32.064  31.137  1.00  0.00     0.029 A 
ATOM     41  N   UNL A   1      39.594  30.950  31.403  1.00  0.00    -0.354 N 
ATOM     42  C   UNL A   1      40.916  28.133  28.354  1.00  0.00     0.074 A 
ATOM     43  C   UNL A   1      40.118  28.289  27.160  1.00  0.00     0.031 C 
ATOM     44  C   UNL A   1      38.185  32.426  32.325  1.00  0.00     0.029 A 
ATOM     45  C   UNL A   1      39.360  31.608  32.594  1.00  0.00     0.049 A 
ATOM     46  H   UNL A   1      40.426  30.463  31.202  1.00  0.00     0.167 HD
ATOM     47  C   UNL A   1      41.967  27.292  28.480  1.00  0.00     0.034 A 
ATOM     48  C   UNL A   1      39.956  31.477  33.796  1.00  0.00     0.034 A 
ATOM     49  C   UNL A   1      42.768  27.204  29.671  1.00  0.00     0.049 A 
ATOM     50  C   UNL A   1      41.090  30.495  33.929  1.00  0.00     0.074 A 
ATOM     51  C   UNL A   1      43.885  26.423  29.900  1.00  0.00     0.029 A 
ATOM     52  N   UNL A   1      42.525  27.915  30.836  1.00  0.00    -0.354 N 
ATOM     53  N   UNL A   1      41.627  29.726  33.009  1.00  0.00    -0.248 NA
ATOM     54  C   UNL A   1      41.707  30.362  35.255  1.00  0.00     0.031 C 
ATOM     55  C   UNL A   1      44.291  26.629  31.222  1.00  0.00     0.029 A 
ATOM     56  C   UNL A   1      43.454  27.571  31.800  1.00  0.00     0.049 A 
ATOM     57  H   UNL A   1      41.798  28.568  30.960  1.00  0.00     0.167 HD
ATOM     58  C   UNL A   1      42.656  29.039  33.640  1.00  0.00     0.074 A 
ATOM     59  C   UNL A   1      42.687  29.503  35.012  1.00  0.00     0.031 C 
ATOM     60  C   UNL A   1      43.489  28.093  33.142  1.00  0.00     0.034 A 
BRANCH  47  61
ATOM     61  C   UNL A   1      42.282  26.363  27.342  1.00  0.00     0.023 A 
ATOM     62  C   UNL A   1      43.090  26.786  26.271  1.00  0.00     0.012 A 
ATOM     63  C   UNL A   1      41.830  25.028  27.386  1.00  0.00     0.148 A 
ATOM     64  C   UNL A   1      43.434  25.896  25.251  1.00  0.00     0.002 A 
ATOM     65  C   UNL A   1      42.213  24.137  26.393  1.00  0.00     0.091 A 
ATOM     66  F   UNL A   1      41.038  24.657  28.402  1.00  0.00    -0.205 F 
ATOM     67  C   UNL A   1      43.008  24.570  25.320  1.00  0.00     0.022 A 
BRANCH  65  68
ATOM     68  S   UNL A   1      41.785  22.393  26.432  1.00  0.00     0.127 S 
ATOM     69  O   UNL A   1      40.340  22.437  26.227  1.00  0.00    -0.237 OA
ATOM     70  O   UNL A   1      42.549  21.867  25.304  1.00  0.00    -0.237 OA
ATOM     71  O   UNL A   1      42.207  21.901  27.741  1.00  0.00    -0.744 OA
ENDBRANCH  65  68
ENDBRANCH  47  61
BRANCH  48  72
ATOM     72  C   UNL A   1      39.445  32.225  34.985  1.00  0.00     0.023 A 
ATOM     73  C   UNL A   1      38.473  31.635  35.816  1.00  0.00     0.012 A 
ATOM     74  C   UNL A   1      39.908  33.522  35.292  1.00  0.00     0.148 A 
ATOM     75  C   UNL A   1      37.947  32.334  36.906  1.00  0.00     0.002 A 
ATOM     76  C   UNL A   1      39.427  34.187  36.414  1.00  0.00     0.091 A 
ATOM     77  F   UNL A   1      40.813  34.085  34.478  1.00  0.00    -0.205 F 
ATOM     78  C   UNL A   1      38.431  33.604  37.211  1.00  0.00     0.022 A 
BRANCH  76  79
ATOM     79  S   UNL A   1      40.083  35.770  36.956  1.00  0.00     0.127 S 
ATOM     80  O   UNL A   1      39.717  36.644  35.851  1.00  0.00    -0.237 OA
ATOM     81  O   UNL A   1      39.345  35.997  38.197  1.00  0.00    -0.237 OA
ATOM     82  O   UNL A   1      41.516  35.551  37.147  1.00  0.00    -0.744 OA
ENDBRANCH  76  79
ENDBRANCH  48  72
BRANCH  60  83
ATOM     83  C   UNL A   1      44.532  27.530  34.067  1.00  0.00     0.023 A 
ATOM     84  C   UNL A   1      45.792  28.151  34.164  1.00  0.00     0.012 A 
ATOM     85  C   UNL A   1      44.226  26.439  34.903  1.00  0.00     0.148 A 
ATOM     86  C   UNL A   1      46.744  27.675  35.064  1.00  0.00     0.002 A 
ATOM     87  C   UNL A   1      45.158  26.006  35.836  1.00  0.00     0.091 A 
ATOM     88  F   UNL A   1      43.024  25.857  34.780  1.00  0.00    -0.205 F 
ATOM     89  C   UNL A   1      46.423  26.614  35.909  1.00  0.00     0.022 A 
BRANCH  87  90
ATOM     90  S   UNL A   1      44.799  24.717  37.031  1.00  0.00     0.127 S 
ATOM     91  O   UNL A   1      44.605  23.554  36.167  1.00  0.00    -0.237 OA
ATOM     92  O   UNL A   1      46.024  24.688  37.830  1.00  0.00    -0.237 OA
ATOM     93  O   UNL A   1      43.613  25.155  37.756  1.00  0.00    -0.744 OA
ENDBRANCH  87  90
ENDBRANCH  60  83
ENDBRANCH  34  35
ENDBRANCH  27  29
ENDBRANCH  26  27
ENDBRANCH  25  26
ENDBRANCH   1  25
TORSDOF 19
ENDMDL
MODEL 2
REMARK VINA RESULT:     -13.0      2.009      4.055
REMARK SMILES CC[C@](C)(NC(=O)CNC(=O)c1cccc(Cl)c1)C(=O)OCCOC(=O)c1ccc(-c2c3nc(c(-c4cccc(S(=O)(=O)[O-])c4F)c4ccc([nH]4)c(-c4cccc(S(=O)(=O)[O-])c4F)c4nc(c(-c5cccc(S(=O)(=O)[O-])c5F)c5ccc2[nH]5)C=C4)C=C3)cc1
REMARK SMILES IDX 22 1 21 2 19 3 20 4 3 5 4 6 2 7 1 8 5 9 6 10 7 12 8 13 9 14
REMARK SMILES IDX 10 15 11 17 12 18 13 19 18 20 14 21 16 22 15 23 17 24 23 25
REMARK SMILES IDX 24 26 25 27 26 28 27 29 28 30 89 31 29 32 88 33 30 34 31 35
REMARK SMILES IDX 32 36 82 37 33 38 87 39 81 40 83 41 34 42 86 43 80 44 79 45
REMARK SMILES IDX 35 47 67 48 47 49 66 50 48 51 51 52 65 53 84 54 49 55 50 56
REMARK SMILES IDX 64 58 85 59 52 60 36 61 37 62 45 63 38 64 40 65 46 66 39 67
REMARK SMILES IDX 41 68 42 69 43 70 44 71 68 72 69 73 77 74 70 75 72 76 78 77
REMARK SMILES IDX 71 78 73 79 74 80 75 81 76 82 53 83 54 84 62 85 55 86 57 87
REMARK SMILES IDX 63 88 56 89 58 90 59 91 60 92 61 93
REMARK H PARENT 5 11 9 16 83 46 51 57
REMARK Flexibility Score: inf
ROOT
ATOM      1  C   UNL A   1      31.123  28.653  23.627  1.00  0.00     0.274 C 
ENDROOT
BRANCH   1   2
ATOM      2  O   UNL A   1      30.002  27.624  23.498  1.00  0.00    -0.460 OA
BRANCH   2   3
ATOM      3  C   UNL A   1      29.543  26.568  24.308  1.00  0.00     0.331 C 
ATOM      4  O   UNL A   1      28.355  26.297  24.436  1.00  0.00    -0.249 OA
BRANCH   3   5
ATOM      5  C   UNL A   1      30.777  25.686  25.082  1.00  0.00     0.135 C 
ATOM      6  C   UNL A   1      31.864  26.243  26.077  1.00  0.00     0.047 C 
BRANCH   5   7
ATOM      7  C   UNL A   1      31.638  24.944  24.012  1.00  0.00     0.037 C 
ATOM      8  C   UNL A   1      33.000  25.618  23.728  1.00  0.00     0.007 C 
ENDBRANCH   5   7
BRANCH   5   9
ATOM      9  N   UNL A   1      30.005  24.776  25.899  1.00  0.00    -0.339 N 
ATOM     10  C   UNL A   1      30.631  23.766  26.571  1.00  0.00     0.240 C 
ATOM     11  H   UNL A   1      29.029  24.884  25.970  1.00  0.00     0.164 HD
ATOM     12  O   UNL A   1      29.959  22.996  27.257  1.00  0.00    -0.273 OA
BRANCH  10  13
ATOM     13  C   UNL A   1      32.202  23.648  26.468  1.00  0.00     0.216 C 
BRANCH  13  14
ATOM     14  N   UNL A   1      33.177  22.666  25.492  1.00  0.00    -0.343 N 
ATOM     15  C   UNL A   1      33.518  21.848  24.407  1.00  0.00     0.251 C 
ATOM     16  H   UNL A   1      34.023  22.676  25.996  1.00  0.00     0.164 HD
ATOM     17  O   UNL A   1      34.354  22.323  23.624  1.00  0.00    -0.269 OA
BRANCH  15  18
ATOM     18  C   UNL A   1      33.276  20.439  24.109  1.00  0.00     0.041 A 
ATOM     19  C   UNL A   1      32.395  20.016  23.103  1.00  0.00     0.014 A 
ATOM     20  C   UNL A   1      34.161  19.511  24.648  1.00  0.00     0.034 A 
ATOM     21  C   UNL A   1      32.130  18.656  22.928  1.00  0.00     0.002 A 
ATOM     22  C   UNL A   1      33.962  18.155  24.405  1.00  0.00     0.041 A 
ATOM     23  C   UNL A   1      32.898  17.720  23.614  1.00  0.00     0.020 A 
ATOM     24  Cl  UNL A   1      35.038  17.005  25.094  1.00  0.00    -0.084 Cl
ENDBRANCH  15  18
ENDBRANCH  13  14
ENDBRANCH  10  13
ENDBRANCH   5   9
ENDBRANCH   3   5
ENDBRANCH   2   3
ENDBRANCH   1   2
BRANCH   1  25
ATOM     25  C   UNL A   1      31.355  29.660  25.031  1.00  0.00     0.275 C 
BRANCH  25  26
ATOM     26  O   UNL A   1      32.631  29.683  25.871  1.00  0.00    -0.458 OA
BRANCH  26  27
ATOM     27  C   UNL A   1      33.023  30.660  26.788  1.00  0.00     0.338 C 
ATOM     28  O   UNL A   1      32.234  31.478  27.237  1.00  0.00    -0.246 OA
BRANCH  27  29
ATOM     29  C   UNL A   1      34.489  30.561  27.388  1.00  0.00     0.060 A 
ATOM     30  C   UNL A   1      35.115  29.371  27.858  1.00  0.00     0.016 A 
ATOM     31  C   UNL A   1      35.202  31.722  27.695  1.00  0.00     0.016 A 
ATOM     32  C   UNL A   1      36.376  29.292  28.451  1.00  0.00     0.010 A 
ATOM     33  C   UNL A   1      36.480  31.662  28.331  1.00  0.00     0.010 A 
ATOM     34  C   UNL A   1      37.087  30.442  28.687  1.00  0.00    -0.014 A 
BRANCH  34  35
ATOM     35  C   UNL A   1      38.392  30.330  29.388  1.00  0.00     0.031 A 
ATOM     36  C   UNL A   1      39.459  29.471  28.786  1.00  0.00     0.074 A 
ATOM     37  C   UNL A   1      38.634  31.012  30.527  1.00  0.00     0.049 A 
ATOM     38  N   UNL A   1      40.518  28.957  29.345  1.00  0.00    -0.248 NA
ATOM     39  C   UNL A   1      39.307  29.142  27.358  1.00  0.00     0.031 C 
ATOM     40  C   UNL A   1      37.746  32.012  31.127  1.00  0.00     0.029 A 
ATOM     41  N   UNL A   1      39.681  30.926  31.417  1.00  0.00    -0.354 N 
ATOM     42  C   UNL A   1      41.090  28.141  28.378  1.00  0.00     0.074 A 
ATOM     43  C   UNL A   1      40.307  28.290  27.172  1.00  0.00     0.031 C 
ATOM     44  C   UNL A   1      38.236  32.377  32.324  1.00  0.00     0.029 A 
ATOM     45  C   UNL A   1      39.419  31.575  32.607  1.00  0.00     0.049 A 
ATOM     46  H   UNL A   1      40.523  30.452  31.227  1.00  0.00     0.167 HD
ATOM     47  C   UNL A   1      42.152  27.316  28.516  1.00  0.00     0.034 A 
ATOM     48  C   UNL A   1      39.999  31.449  33.818  1.00  0.00     0.034 A 
ATOM     49  C   UNL A   1      42.936  27.235  29.718  1.00  0.00     0.049 A 
ATOM     50  C   UNL A   1      41.146  30.483  33.963  1.00  0.00     0.074 A 
ATOM     51  C   UNL A   1      44.061  26.470  29.962  1.00  0.00     0.029 A 
ATOM     52  N   UNL A   1      42.665  27.937  30.883  1.00  0.00    -0.354 N 
ATOM     53  N   UNL A   1      41.707  29.726  33.049  1.00  0.00    -0.248 NA
ATOM     54  C   UNL A   1      41.745  30.354  35.298  1.00  0.00     0.031 C 
ATOM     55  C   UNL A   1      44.445  26.676  31.290  1.00  0.00     0.029 A 
ATOM     56  C   UNL A   1      43.585  27.604  31.859  1.00  0.00     0.049 A 
ATOM     57  H   UNL A   1      41.927  28.579  30.998  1.00  0.00     0.167 HD
ATOM     58  C   UNL A   1      42.737  29.052  33.692  1.00  0.00     0.074 A 
ATOM     59  C   UNL A   1      42.742  29.511  35.066  1.00  0.00     0.031 C 
ATOM     60  C   UNL A   1      43.592  28.120  33.203  1.00  0.00     0.034 A 
BRANCH  47  61
ATOM     61  C   UNL A   1      42.497  26.396  27.379  1.00  0.00     0.023 A 
ATOM     62  C   UNL A   1      43.354  26.819  26.347  1.00  0.00     0.012 A 
ATOM     63  C   UNL A   1      42.023  25.068  27.388  1.00  0.00     0.148 A 
ATOM     64  C   UNL A   1      43.724  25.936  25.330  1.00  0.00     0.002 A 
ATOM     65  C   UNL A   1      42.431  24.183  26.400  1.00  0.00     0.091 A 
ATOM     66  F   UNL A   1      41.185  24.697  28.367  1.00  0.00    -0.205 F 
ATOM     67  C   UNL A   1      43.275  24.617  25.365  1.00  0.00     0.022 A 
BRANCH  65  68
ATOM     68  S   UNL A   1      41.975  22.446  26.398  1.00  0.00     0.127 S 
ATOM     69  O   UNL A   1      42.618  21.971  25.176  1.00  0.00    -0.237 OA
ATOM     70  O   UNL A   1      42.585  21.970  27.636  1.00  0.00    -0.237 OA
ATOM     71  O   UNL A   1      40.515  22.410  26.380  1.00  0.00    -0.744 OA
ENDBRANCH  65  68
ENDBRANCH  47  61
BRANCH  48  72
ATOM     72  C   UNL A   1      39.460  32.184  35.001  1.00  0.00     0.023 A 
ATOM     73  C   UNL A   1      38.495  31.571  35.824  1.00  0.00     0.012 A 
ATOM     74  C   UNL A   1      39.888  33.492  35.311  1.00  0.00     0.148 A 
ATOM     75  C   UNL A   1      37.943  32.257  36.909  1.00  0.00     0.002 A 
ATOM     76  C   UNL A   1      39.380  34.146  36.428  1.00  0.00     0.091 A 
ATOM     77  F   UNL A   1      40.785  34.078  34.505  1.00  0.00    -0.205 F 
ATOM     78  C   UNL A   1      38.392  33.538  37.218  1.00  0.00     0.022 A 
BRANCH  76  79
ATOM     79  S   UNL A   1      39.991  35.745  36.975  1.00  0.00     0.127 S 
ATOM     80  O   UNL A   1      41.405  35.471  37.192  1.00  0.00    -0.237 OA
ATOM     81  O   UNL A   1      39.694  36.595  35.825  1.00  0.00    -0.237 OA
ATOM     82  O   UNL A   1      39.214  36.069  38.172  1.00  0.00    -0.744 OA
ENDBRANCH  76  79
ENDBRANCH  48  72
BRANCH  60  83
ATOM     83  C   UNL A   1      44.630  27.569  34.141  1.00  0.00     0.023 A 
ATOM     84  C   UNL A   1      45.853  28.246  34.310  1.00  0.00     0.012 A 
ATOM     85  C   UNL A   1      44.350  26.430  34.919  1.00  0.00     0.148 A 
ATOM     86  C   UNL A   1      46.796  27.779  35.223  1.00  0.00     0.002 A 
ATOM     87  C   UNL A   1      45.270  26.003  35.867  1.00  0.00     0.091 A 
ATOM     88  F   UNL A   1      43.183  25.796  34.729  1.00  0.00    -0.205 F 
ATOM     89  C   UNL A   1      46.499  26.668  36.011  1.00  0.00     0.022 A 
BRANCH  87  90
ATOM     90  S   UNL A   1      44.935  24.647  36.994  1.00  0.00     0.127 S 
ATOM     91  O   UNL A   1      43.847  25.194  37.804  1.00  0.00    -0.237 OA
ATOM     92  O   UNL A   1      44.538  23.577  36.079  1.00  0.00    -0.237 OA
ATOM     93  O   UNL A   1      46.178  24.400  37.713  1.00  0.00    -0.744 OA
ENDBRANCH  87  90
ENDBRANCH  60  83
ENDBRANCH  34  35
ENDBRANCH  27  29
ENDBRANCH  26  27
ENDBRANCH  25  26
ENDBRANCH   1  25
TORSDOF 19
ENDMDL
MODEL 3
REMARK VINA RESULT:     -12.9      5.085     10.007
REMARK SMILES CC[C@](C)(NC(=O)CNC(=O)c1cccc(Cl)c1)C(=O)OCCOC(=O)c1ccc(-c2c3nc(c(-c4cccc(S(=O)(=O)[O-])c4F)c4ccc([nH]4)c(-c4cccc(S(=O)(=O)[O-])c4F)c4nc(c(-c5cccc(S(=O)(=O)[O-])c5F)c5ccc2[nH]5)C=C4)C=C3)cc1
REMARK SMILES IDX 22 1 21 2 19 3 20 4 3 5 4 6 2 7 1 8 5 9 6 10 7 12 8 13 9 14
REMARK SMILES IDX 10 15 11 17 12 18 13 19 18 20 14 21 16 22 15 23 17 24 23 25
REMARK SMILES IDX 24 26 25 27 26 28 27 29 28 30 89 31 29 32 88 33 30 34 31 35
REMARK SMILES IDX 32 36 82 37 33 38 87 39 81 40 83 41 34 42 86 43 80 44 79 45
REMARK SMILES IDX 35 47 67 48 47 49 66 50 48 51 51 52 65 53 84 54 49 55 50 56
REMARK SMILES IDX 64 58 85 59 52 60 36 61 37 62 45 63 38 64 40 65 46 66 39 67
REMARK SMILES IDX 41 68 42 69 43 70 44 71 68 72 69 73 77 74 70 75 72 76 78 77
REMARK SMILES IDX 71 78 73 79 74 80 75 81 76 82 53 83 54 84 62 85 55 86 57 87
REMARK SMILES IDX 63 88 56 89 58 90 59 91 60 92 61 93
REMARK H PARENT 5 11 9 16 83 46 51 57
REMARK Flexibility Score: inf
ROOT
ATOM      1  C   UNL A   1      35.262  23.833  24.389  1.00  0.00     0.274 C 
ENDROOT
BRANCH   1   2
ATOM      2  O   UNL A   1      33.933  24.474  24.782  1.00  0.00    -0.460 OA
BRANCH   2   3
ATOM      3  C   UNL A   1      33.530  25.790  25.083  1.00  0.00     0.331 C 
ATOM      4  O   UNL A   1      33.630  26.276  26.203  1.00  0.00    -0.249 OA
BRANCH   3   5
ATOM      5  C   UNL A   1      32.909  26.656  23.755  1.00  0.00     0.135 C 
ATOM      6  C   UNL A   1      32.682  26.121  22.291  1.00  0.00     0.047 C 
BRANCH   5   7
ATOM      7  C   UNL A   1      33.766  27.941  23.523  1.00  0.00     0.037 C 
ATOM      8  C   UNL A   1      33.910  28.334  22.036  1.00  0.00     0.007 C 
ENDBRANCH   5   7
BRANCH   5   9
ATOM      9  N   UNL A   1      31.572  26.959  24.217  1.00  0.00    -0.339 N 
ATOM     10  C   UNL A   1      30.603  25.998  24.179  1.00  0.00     0.240 C 
ATOM     11  H   UNL A   1      31.360  27.859  24.558  1.00  0.00     0.164 HD
ATOM     12  O   UNL A   1      29.469  26.273  24.569  1.00  0.00    -0.273 OA
BRANCH  10  13
ATOM     13  C   UNL A   1      30.989  24.555  23.666  1.00  0.00     0.216 C 
BRANCH  13  14
ATOM     14  N   UNL A   1      31.253  23.113  24.514  1.00  0.00    -0.343 N 
ATOM     15  C   UNL A   1      31.934  21.964  24.937  1.00  0.00     0.251 C 
ATOM     16  H   UNL A   1      30.412  23.033  25.020  1.00  0.00     0.164 HD
ATOM     17  O   UNL A   1      32.273  21.955  26.129  1.00  0.00    -0.269 OA
BRANCH  15  18
ATOM     18  C   UNL A   1      32.136  20.649  24.335  1.00  0.00     0.041 A 
ATOM     19  C   UNL A   1      32.248  20.457  22.951  1.00  0.00     0.014 A 
ATOM     20  C   UNL A   1      32.511  19.611  25.181  1.00  0.00     0.034 A 
ATOM     21  C   UNL A   1      32.342  19.166  22.426  1.00  0.00     0.002 A 
ATOM     22  C   UNL A   1      32.699  18.335  24.656  1.00  0.00     0.041 A 
ATOM     23  C   UNL A   1      32.534  18.093  23.292  1.00  0.00     0.020 A 
ATOM     24  Cl  UNL A   1      33.136  17.044  25.703  1.00  0.00    -0.084 Cl
ENDBRANCH  15  18
ENDBRANCH  13  14
ENDBRANCH  10  13
ENDBRANCH   5   9
ENDBRANCH   3   5
ENDBRANCH   2   3
ENDBRANCH   1   2
BRANCH   1  25
ATOM     25  C   UNL A   1      35.807  22.289  24.990  1.00  0.00     0.275 C 
BRANCH  25  26
ATOM     26  O   UNL A   1      37.118  21.622  24.579  1.00  0.00    -0.458 OA
BRANCH  26  27
ATOM     27  C   UNL A   1      38.183  21.268  25.409  1.00  0.00     0.338 C 
ATOM     28  O   UNL A   1      38.626  20.129  25.440  1.00  0.00    -0.246 OA
BRANCH  27  29
ATOM     29  C   UNL A   1      38.942  22.435  26.172  1.00  0.00     0.060 A 
ATOM     30  C   UNL A   1      38.817  23.826  25.895  1.00  0.00     0.016 A 
ATOM     31  C   UNL A   1      39.978  22.136  27.059  1.00  0.00     0.016 A 
ATOM     32  C   UNL A   1      39.534  24.849  26.517  1.00  0.00     0.010 A 
ATOM     33  C   UNL A   1      40.745  23.168  27.681  1.00  0.00     0.010 A 
ATOM     34  C   UNL A   1      40.507  24.534  27.433  1.00  0.00    -0.014 A 
BRANCH  34  35
ATOM     35  C   UNL A   1      41.304  25.642  28.020  1.00  0.00     0.031 A 
ATOM     36  C   UNL A   1      40.601  26.673  28.846  1.00  0.00     0.074 A 
ATOM     37  C   UNL A   1      42.641  25.707  27.849  1.00  0.00     0.049 A 
ATOM     38  N   UNL A   1      40.990  27.873  29.174  1.00  0.00    -0.248 NA
ATOM     39  C   UNL A   1      39.274  26.302  29.368  1.00  0.00     0.031 C 
ATOM     40  C   UNL A   1      43.470  24.680  27.213  1.00  0.00     0.029 A 
ATOM     41  N   UNL A   1      43.534  26.712  28.147  1.00  0.00    -0.354 N 
ATOM     42  C   UNL A   1      39.909  28.448  29.829  1.00  0.00     0.074 A 
ATOM     43  C   UNL A   1      38.878  27.440  29.923  1.00  0.00     0.031 C 
ATOM     44  C   UNL A   1      44.726  25.141  27.086  1.00  0.00     0.029 A 
ATOM     45  C   UNL A   1      44.764  26.521  27.551  1.00  0.00     0.049 A 
ATOM     46  H   UNL A   1      43.318  27.483  28.721  1.00  0.00     0.167 HD
ATOM     47  C   UNL A   1      39.792  29.720  30.270  1.00  0.00     0.034 A 
ATOM     48  C   UNL A   1      45.762  27.395  27.307  1.00  0.00     0.034 A 
ATOM     49  C   UNL A   1      40.862  30.680  30.203  1.00  0.00     0.049 A 
ATOM     50  C   UNL A   1      45.589  28.822  27.758  1.00  0.00     0.074 A 
ATOM     51  C   UNL A   1      40.876  31.984  30.658  1.00  0.00     0.029 A 
ATOM     52  N   UNL A   1      42.101  30.436  29.633  1.00  0.00    -0.354 N 
ATOM     53  N   UNL A   1      44.580  29.367  28.399  1.00  0.00    -0.248 NA
ATOM     54  C   UNL A   1      46.685  29.754  27.462  1.00  0.00     0.031 C 
ATOM     55  C   UNL A   1      42.112  32.545  30.322  1.00  0.00     0.029 A 
ATOM     56  C   UNL A   1      42.882  31.575  29.698  1.00  0.00     0.049 A 
ATOM     57  H   UNL A   1      42.385  29.579  29.239  1.00  0.00     0.167 HD
ATOM     58  C   UNL A   1      44.931  30.696  28.601  1.00  0.00     0.074 A 
ATOM     59  C   UNL A   1      46.257  30.866  28.042  1.00  0.00     0.031 C 
ATOM     60  C   UNL A   1      44.219  31.695  29.178  1.00  0.00     0.034 A 
BRANCH  47  61
ATOM     61  C   UNL A   1      38.463  30.174  30.804  1.00  0.00     0.023 A 
ATOM     62  C   UNL A   1      38.136  29.999  32.161  1.00  0.00     0.012 A 
ATOM     63  C   UNL A   1      37.566  30.857  29.955  1.00  0.00     0.148 A 
ATOM     64  C   UNL A   1      36.927  30.485  32.664  1.00  0.00     0.002 A 
ATOM     65  C   UNL A   1      36.388  31.377  30.472  1.00  0.00     0.091 A 
ATOM     66  F   UNL A   1      37.889  30.987  28.661  1.00  0.00    -0.205 F 
ATOM     67  C   UNL A   1      36.062  31.184  31.824  1.00  0.00     0.022 A 
BRANCH  65  68
ATOM     68  S   UNL A   1      35.246  32.361  29.495  1.00  0.00     0.127 S 
ATOM     69  O   UNL A   1      36.126  33.400  28.968  1.00  0.00    -0.237 OA
ATOM     70  O   UNL A   1      34.779  31.393  28.507  1.00  0.00    -0.237 OA
ATOM     71  O   UNL A   1      34.222  32.834  30.423  1.00  0.00    -0.744 OA
ENDBRANCH  65  68
ENDBRANCH  47  61
BRANCH  48  72
ATOM     72  C   UNL A   1      46.969  26.976  26.532  1.00  0.00     0.023 A 
ATOM     73  C   UNL A   1      47.017  27.195  25.142  1.00  0.00     0.012 A 
ATOM     74  C   UNL A   1      48.066  26.352  27.162  1.00  0.00     0.148 A 
ATOM     75  C   UNL A   1      48.115  26.770  24.390  1.00  0.00     0.002 A 
ATOM     76  C   UNL A   1      49.183  25.987  26.418  1.00  0.00     0.091 A 
ATOM     77  F   UNL A   1      47.998  26.122  28.482  1.00  0.00    -0.205 F 
ATOM     78  C   UNL A   1      49.202  26.176  25.029  1.00  0.00     0.022 A 
BRANCH  76  79
ATOM     79  S   UNL A   1      50.677  25.333  27.173  1.00  0.00     0.127 S 
ATOM     80  O   UNL A   1      51.151  26.475  27.943  1.00  0.00    -0.237 OA
ATOM     81  O   UNL A   1      50.157  24.222  27.967  1.00  0.00    -0.237 OA
ATOM     82  O   UNL A   1      51.527  24.920  26.056  1.00  0.00    -0.744 OA
ENDBRANCH  76  79
ENDBRANCH  48  72
BRANCH  60  83
ATOM     83  C   UNL A   1      44.872  33.046  29.275  1.00  0.00     0.023 A 
ATOM     84  C   UNL A   1      45.718  33.340  30.361  1.00  0.00     0.012 A 
ATOM     85  C   UNL A   1      44.712  33.987  28.240  1.00  0.00     0.148 A 
ATOM     86  C   UNL A   1      46.377  34.566  30.429  1.00  0.00     0.002 A 
ATOM     87  C   UNL A   1      45.415  35.184  28.286  1.00  0.00     0.091 A 
ATOM     88  F   UNL A   1      43.889  33.688  27.224  1.00  0.00    -0.205 F 
ATOM     89  C   UNL A   1      46.237  35.480  29.386  1.00  0.00     0.022 A 
BRANCH  87  90
ATOM     90  S   UNL A   1      45.378  36.376  26.945  1.00  0.00     0.127 S 
ATOM     91  O   UNL A   1      46.277  37.416  27.445  1.00  0.00    -0.237 OA
ATOM     92  O   UNL A   1      45.907  35.597  25.826  1.00  0.00    -0.237 OA
ATOM     93  O   UNL A   1      43.986  36.778  26.799  1.00  0.00    -0.744 OA
ENDBRANCH  87  90
ENDBRANCH  60  83
ENDBRANCH  34  35
ENDBRANCH  27  29
ENDBRANCH  26  27
ENDBRANCH  25  26
ENDBRANCH   1  25
TORSDOF 19
ENDMDL
