MODEL 1
REMARK VINA RESULT:     -12.3      0.000      0.000
REMARK SMILES Cc1cc(OC(F)(F)F)cc2c1O[C@@H](C(F)(F)F)C(C(=O)OCCOC(=O)c1ccc(-c3c4nc(c(-c5cccc(S(=O)(=O)[O-])c5F)c5ccc([nH]5)c(-c5cccc(S(=O)(=O)[O-])c5F)c5nc(c(-c6cccc(S(=O)(=O)[O-])c6F)c6ccc3[nH]6)C=C5)C=C4)cc1)=C2
REMARK SMILES IDX 24 1 23 2 22 3 20 4 21 5 19 6 1 7 2 8 3 9 12 10 4 11 11 12
REMARK SMILES IDX 13 13 10 14 91 15 14 16 5 17 6 18 7 19 8 20 9 21 15 22 16 23
REMARK SMILES IDX 17 24 18 25 25 26 26 27 27 28 28 29 29 30 90 31 30 32 89 33
REMARK SMILES IDX 31 34 32 35 33 36 83 37 34 38 88 39 82 40 84 41 35 42 87 43
REMARK SMILES IDX 81 44 80 45 36 47 68 48 48 49 67 50 49 51 52 52 66 53 85 54
REMARK SMILES IDX 50 55 51 56 65 58 86 59 53 60 37 61 38 62 46 63 39 64 41 65
REMARK SMILES IDX 47 66 40 67 42 68 43 69 44 70 45 71 69 72 70 73 78 74 71 75
REMARK SMILES IDX 73 76 79 77 72 78 74 79 75 80 76 81 77 82 54 83 55 84 63 85
REMARK SMILES IDX 56 86 58 87 64 88 57 89 59 90 60 91 61 92 62 93
REMARK H PARENT 84 46 52 57
REMARK Flexibility Score: inf
ROOT
ATOM      1  C   UNL A   1      36.676  20.841  24.740  1.00  0.00     0.275 C 
ENDROOT
BRANCH   1   2
ATOM      2  C   UNL A   1      35.305  21.501  24.593  1.00  0.00     0.275 C 
BRANCH   2   3
ATOM      3  O   UNL A   1      35.442  22.936  24.527  1.00  0.00    -0.459 OA
BRANCH   3   4
ATOM      4  C   UNL A   1      34.711  23.564  23.584  1.00  0.00     0.338 C 
ATOM      5  O   UNL A   1      34.682  23.283  22.395  1.00  0.00    -0.246 OA
BRANCH   4   6
ATOM      6  C   UNL A   1      33.883  24.624  24.186  1.00  0.00     0.087 C 
ATOM      7  C   UNL A   1      32.285  28.410  27.266  1.00  0.00     0.048 C 
ATOM      8  C   UNL A   1      32.170  28.082  25.805  1.00  0.00    -0.005 A 
ATOM      9  C   UNL A   1      31.426  28.929  24.958  1.00  0.00     0.054 A 
ATOM     10  C   UNL A   1      32.758  26.927  25.274  1.00  0.00     0.131 A 
ATOM     11  C   UNL A   1      31.295  28.648  23.596  1.00  0.00     0.130 A 
ATOM     12  C   UNL A   1      32.644  26.655  23.910  1.00  0.00     0.021 A 
ATOM     13  O   UNL A   1      33.499  26.128  26.111  1.00  0.00    -0.475 OA
ATOM     14  C   UNL A   1      31.905  27.504  23.080  1.00  0.00     0.058 A 
ATOM     15  C   UNL A   1      33.377  25.538  23.347  1.00  0.00     0.027 C 
ATOM     16  C   UNL A   1      33.744  24.752  25.678  1.00  0.00     0.316 C 
BRANCH  11  17
ATOM     17  O   UNL A   1      30.620  29.390  22.671  1.00  0.00    -0.406 OA
BRANCH  17  18
ATOM     18  C   UNL A   1      29.214  29.495  22.800  1.00  0.00     0.573 C 
ATOM     19  F   UNL A   1      28.679  28.328  23.222  1.00  0.00    -0.132 F 
ATOM     20  F   UNL A   1      28.875  30.477  23.664  1.00  0.00    -0.132 F 
ATOM     21  F   UNL A   1      28.680  29.791  21.596  1.00  0.00    -0.132 F 
ENDBRANCH  17  18
ENDBRANCH  11  17
BRANCH  16  22
ATOM     22  C   UNL A   1      32.710  23.822  26.338  1.00  0.00     0.430 C 
ATOM     23  F   UNL A   1      31.899  23.278  25.390  1.00  0.00    -0.167 F 
ATOM     24  F   UNL A   1      33.277  22.799  27.009  1.00  0.00    -0.167 F 
ATOM     25  F   UNL A   1      31.887  24.476  27.189  1.00  0.00    -0.167 F 
ENDBRANCH  16  22
ENDBRANCH   4   6
ENDBRANCH   3   4
ENDBRANCH   2   3
ENDBRANCH   1   2
BRANCH   1  26
ATOM     26  O   UNL A   1      37.310  21.277  25.956  1.00  0.00    -0.458 OA
BRANCH  26  27
ATOM     27  C   UNL A   1      38.652  21.112  26.008  1.00  0.00     0.338 C 
ATOM     28  O   UNL A   1      39.295  20.141  25.652  1.00  0.00    -0.246 OA
BRANCH  27  29
ATOM     29  C   UNL A   1      39.272  22.344  26.516  1.00  0.00     0.060 A 
ATOM     30  C   UNL A   1      38.733  23.569  26.135  1.00  0.00     0.016 A 
ATOM     31  C   UNL A   1      40.444  22.294  27.270  1.00  0.00     0.016 A 
ATOM     32  C   UNL A   1      39.416  24.748  26.414  1.00  0.00     0.010 A 
ATOM     33  C   UNL A   1      41.070  23.489  27.647  1.00  0.00     0.010 A 
ATOM     34  C   UNL A   1      40.583  24.727  27.194  1.00  0.00    -0.014 A 
BRANCH  34  35
ATOM     35  C   UNL A   1      41.260  26.009  27.536  1.00  0.00     0.031 A 
ATOM     36  C   UNL A   1      42.646  26.313  27.030  1.00  0.00     0.074 A 
ATOM     37  C   UNL A   1      40.607  26.919  28.289  1.00  0.00     0.049 A 
ATOM     38  N   UNL A   1      43.382  27.373  27.249  1.00  0.00    -0.248 NA
ATOM     39  C   UNL A   1      43.295  25.305  26.176  1.00  0.00     0.031 C 
ATOM     40  C   UNL A   1      39.267  26.738  28.854  1.00  0.00     0.029 A 
ATOM     41  N   UNL A   1      40.970  28.178  28.700  1.00  0.00    -0.354 N 
ATOM     42  C   UNL A   1      44.593  27.137  26.609  1.00  0.00     0.074 A 
ATOM     43  C   UNL A   1      44.497  25.835  25.988  1.00  0.00     0.031 C 
ATOM     44  C   UNL A   1      38.901  27.860  29.491  1.00  0.00     0.029 A 
ATOM     45  C   UNL A   1      39.999  28.818  29.436  1.00  0.00     0.049 A 
ATOM     46  H   UNL A   1      41.841  28.585  28.487  1.00  0.00     0.167 HD
ATOM     47  C   UNL A   1      45.678  27.941  26.529  1.00  0.00     0.034 A 
ATOM     48  C   UNL A   1      39.989  30.035  30.015  1.00  0.00     0.034 A 
ATOM     49  C   UNL A   1      45.749  29.265  27.083  1.00  0.00     0.049 A 
ATOM     50  C   UNL A   1      41.196  30.918  29.888  1.00  0.00     0.074 A 
ATOM     51  C   UNL A   1      46.793  30.169  27.006  1.00  0.00     0.029 A 
ATOM     52  N   UNL A   1      44.737  29.878  27.803  1.00  0.00    -0.354 N 
ATOM     53  N   UNL A   1      42.305  30.694  29.228  1.00  0.00    -0.248 NA
ATOM     54  C   UNL A   1      41.155  32.217  30.575  1.00  0.00     0.031 C 
ATOM     55  C   UNL A   1      46.413  31.331  27.683  1.00  0.00     0.029 A 
ATOM     56  C   UNL A   1      45.131  31.150  28.176  1.00  0.00     0.049 A 
ATOM     57  H   UNL A   1      43.867  29.469  28.017  1.00  0.00     0.167 HD
ATOM     58  C   UNL A   1      43.088  31.827  29.407  1.00  0.00     0.074 A 
ATOM     59  C   UNL A   1      42.323  32.743  30.225  1.00  0.00     0.031 C 
ATOM     60  C   UNL A   1      44.338  32.072  28.946  1.00  0.00     0.034 A 
BRANCH  47  61
ATOM     61  C   UNL A   1      46.879  27.446  25.769  1.00  0.00     0.023 A 
ATOM     62  C   UNL A   1      47.744  26.516  26.378  1.00  0.00     0.012 A 
ATOM     63  C   UNL A   1      47.084  27.811  24.424  1.00  0.00     0.148 A 
ATOM     64  C   UNL A   1      48.803  25.961  25.661  1.00  0.00     0.002 A 
ATOM     65  C   UNL A   1      48.125  27.233  23.708  1.00  0.00     0.091 A 
ATOM     66  F   UNL A   1      46.253  28.705  23.871  1.00  0.00    -0.205 F 
ATOM     67  C   UNL A   1      48.987  26.310  24.325  1.00  0.00     0.022 A 
BRANCH  65  68
ATOM     68  S   UNL A   1      48.417  27.570  21.967  1.00  0.00     0.127 S 
ATOM     69  O   UNL A   1      49.597  28.432  22.028  1.00  0.00    -0.237 OA
ATOM     70  O   UNL A   1      48.666  26.231  21.433  1.00  0.00    -0.237 OA
ATOM     71  O   UNL A   1      47.207  28.212  21.471  1.00  0.00    -0.744 OA
ENDBRANCH  65  68
ENDBRANCH  47  61
BRANCH  48  72
ATOM     72  C   UNL A   1      38.760  30.493  30.720  1.00  0.00     0.023 A 
ATOM     73  C   UNL A   1      38.683  30.362  32.120  1.00  0.00     0.012 A 
ATOM     74  C   UNL A   1      37.720  31.144  30.028  1.00  0.00     0.148 A 
ATOM     75  C   UNL A   1      37.590  30.874  32.819  1.00  0.00     0.002 A 
ATOM     76  C   UNL A   1      36.657  31.691  30.734  1.00  0.00     0.091 A 
ATOM     77  F   UNL A   1      37.816  31.247  28.694  1.00  0.00    -0.205 F 
ATOM     78  C   UNL A   1      36.585  31.550  32.130  1.00  0.00     0.022 A 
BRANCH  76  79
ATOM     79  S   UNL A   1      35.381  32.683  29.950  1.00  0.00     0.127 S 
ATOM     80  O   UNL A   1      36.151  33.819  29.449  1.00  0.00    -0.237 OA
ATOM     81  O   UNL A   1      34.884  31.771  28.919  1.00  0.00    -0.237 OA
ATOM     82  O   UNL A   1      34.418  32.990  30.998  1.00  0.00    -0.744 OA
ENDBRANCH  76  79
ENDBRANCH  48  72
BRANCH  60  83
ATOM     83  C   UNL A   1      44.982  33.384  29.292  1.00  0.00     0.023 A 
ATOM     84  C   UNL A   1      45.851  33.450  30.397  1.00  0.00     0.012 A 
ATOM     85  C   UNL A   1      44.862  34.489  28.427  1.00  0.00     0.148 A 
ATOM     86  C   UNL A   1      46.601  34.599  30.634  1.00  0.00     0.002 A 
ATOM     87  C   UNL A   1      45.637  35.620  28.653  1.00  0.00     0.091 A 
ATOM     88  F   UNL A   1      44.026  34.394  27.384  1.00  0.00    -0.205 F 
ATOM     89  C   UNL A   1      46.505  35.677  29.756  1.00  0.00     0.022 A 
BRANCH  87  90
ATOM     90  S   UNL A   1      45.646  37.029  27.538  1.00  0.00     0.127 S 
ATOM     91  O   UNL A   1      44.217  37.233  27.306  1.00  0.00    -0.237 OA
ATOM     92  O   UNL A   1      46.287  38.060  28.353  1.00  0.00    -0.237 OA
ATOM     93  O   UNL A   1      46.404  36.614  26.365  1.00  0.00    -0.744 OA
ENDBRANCH  87  90
ENDBRANCH  60  83
ENDBRANCH  34  35
ENDBRANCH  27  29
ENDBRANCH  26  27
ENDBRANCH   1  26
TORSDOF 17
ENDMDL
MODEL 2
REMARK VINA RESULT:     -12.2      5.210     10.230
REMARK SMILES Cc1cc(OC(F)(F)F)cc2c1O[C@@H](C(F)(F)F)C(C(=O)OCCOC(=O)c1ccc(-c3c4nc(c(-c5cccc(S(=O)(=O)[O-])c5F)c5ccc([nH]5)c(-c5cccc(S(=O)(=O)[O-])c5F)c5nc(c(-c6cccc(S(=O)(=O)[O-])c6F)c6ccc3[nH]6)C=C5)C=C4)cc1)=C2
REMARK SMILES IDX 24 1 23 2 22 3 20 4 21 5 19 6 1 7 2 8 3 9 12 10 4 11 11 12
REMARK SMILES IDX 13 13 10 14 91 15 14 16 5 17 6 18 7 19 8 20 9 21 15 22 16 23
REMARK SMILES IDX 17 24 18 25 25 26 26 27 27 28 28 29 29 30 90 31 30 32 89 33
REMARK SMILES IDX 31 34 32 35 33 36 83 37 34 38 88 39 82 40 84 41 35 42 87 43
REMARK SMILES IDX 81 44 80 45 36 47 68 48 48 49 67 50 49 51 52 52 66 53 85 54
REMARK SMILES IDX 50 55 51 56 65 58 86 59 53 60 37 61 38 62 46 63 39 64 41 65
REMARK SMILES IDX 47 66 40 67 42 68 43 69 44 70 45 71 69 72 70 73 78 74 71 75
REMARK SMILES IDX 73 76 79 77 72 78 74 79 75 80 76 81 77 82 54 83 55 84 63 85
REMARK SMILES IDX 56 86 58 87 64 88 57 89 59 90 60 91 61 92 62 93
REMARK H PARENT 84 46 52 57
REMARK Flexibility Score: inf
ROOT
ATOM      1  C   UNL A   1      31.842  30.396  26.280  1.00  0.00     0.275 C 
ENDROOT
BRANCH   1   2
ATOM      2  C   UNL A   1      31.498  29.060  25.623  1.00  0.00     0.275 C 
BRANCH   2   3
ATOM      3  O   UNL A   1      32.401  28.030  26.074  1.00  0.00    -0.459 OA
BRANCH   3   4
ATOM      4  C   UNL A   1      31.859  26.817  26.306  1.00  0.00     0.338 C 
ATOM      5  O   UNL A   1      30.833  26.600  26.933  1.00  0.00    -0.246 OA
BRANCH   4   6
ATOM      6  C   UNL A   1      32.642  25.759  25.645  1.00  0.00     0.087 C 
ATOM      7  C   UNL A   1      36.587  23.057  23.774  1.00  0.00     0.048 C 
ATOM      8  C   UNL A   1      35.277  22.741  24.437  1.00  0.00    -0.005 A 
ATOM      9  C   UNL A   1      34.893  21.396  24.615  1.00  0.00     0.054 A 
ATOM     10  C   UNL A   1      34.409  23.762  24.846  1.00  0.00     0.131 A 
ATOM     11  C   UNL A   1      33.678  21.071  25.222  1.00  0.00     0.130 A 
ATOM     12  C   UNL A   1      33.204  23.437  25.469  1.00  0.00     0.021 A 
ATOM     13  O   UNL A   1      34.813  25.065  24.684  1.00  0.00    -0.475 OA
ATOM     14  C   UNL A   1      32.836  22.099  25.643  1.00  0.00     0.058 A 
ATOM     15  C   UNL A   1      32.383  24.499  26.019  1.00  0.00     0.027 C 
ATOM     16  C   UNL A   1      33.773  26.094  24.712  1.00  0.00     0.316 C 
BRANCH  11  17
ATOM     17  O   UNL A   1      33.199  19.816  25.467  1.00  0.00    -0.406 OA
BRANCH  17  18
ATOM     18  C   UNL A   1      32.865  19.003  24.358  1.00  0.00     0.573 C 
ATOM     19  F   UNL A   1      31.982  18.043  24.711  1.00  0.00    -0.132 F 
ATOM     20  F   UNL A   1      32.340  19.740  23.354  1.00  0.00    -0.132 F 
ATOM     21  F   UNL A   1      33.981  18.400  23.897  1.00  0.00    -0.132 F 
ENDBRANCH  17  18
ENDBRANCH  11  17
BRANCH  16  22
ATOM     22  C   UNL A   1      33.372  26.446  23.268  1.00  0.00     0.430 C 
ATOM     23  F   UNL A   1      33.709  27.735  22.991  1.00  0.00    -0.167 F 
ATOM     24  F   UNL A   1      33.983  25.670  22.349  1.00  0.00    -0.167 F 
ATOM     25  F   UNL A   1      32.038  26.367  23.062  1.00  0.00    -0.167 F 
ENDBRANCH  16  22
ENDBRANCH   4   6
ENDBRANCH   3   4
ENDBRANCH   2   3
ENDBRANCH   1   2
BRANCH   1  26
ATOM     26  O   UNL A   1      33.269  30.559  26.358  1.00  0.00    -0.458 OA
BRANCH  26  27
ATOM     27  C   UNL A   1      33.706  31.480  27.248  1.00  0.00     0.338 C 
ATOM     28  O   UNL A   1      33.117  32.470  27.642  1.00  0.00    -0.246 OA
BRANCH  27  29
ATOM     29  C   UNL A   1      35.026  31.076  27.755  1.00  0.00     0.060 A 
ATOM     30  C   UNL A   1      35.240  29.736  28.065  1.00  0.00     0.016 A 
ATOM     31  C   UNL A   1      36.006  32.029  28.029  1.00  0.00     0.016 A 
ATOM     32  C   UNL A   1      36.391  29.355  28.746  1.00  0.00     0.010 A 
ATOM     33  C   UNL A   1      37.213  31.624  28.613  1.00  0.00     0.010 A 
ATOM     34  C   UNL A   1      37.405  30.290  29.010  1.00  0.00    -0.014 A 
BRANCH  34  35
ATOM     35  C   UNL A   1      38.657  29.843  29.681  1.00  0.00     0.031 A 
ATOM     36  C   UNL A   1      39.016  30.333  31.060  1.00  0.00     0.074 A 
ATOM     37  C   UNL A   1      39.467  28.966  29.051  1.00  0.00     0.049 A 
ATOM     38  N   UNL A   1      40.076  30.056  31.777  1.00  0.00    -0.248 NA
ATOM     39  C   UNL A   1      38.076  31.254  31.720  1.00  0.00     0.031 C 
ATOM     40  C   UNL A   1      39.241  28.428  27.707  1.00  0.00     0.029 A 
ATOM     41  N   UNL A   1      40.632  28.362  29.455  1.00  0.00    -0.354 N 
ATOM     42  C   UNL A   1      39.956  30.805  32.941  1.00  0.00     0.074 A 
ATOM     43  C   UNL A   1      38.720  31.549  32.842  1.00  0.00     0.031 C 
ATOM     44  C   UNL A   1      40.203  27.539  27.419  1.00  0.00     0.029 A 
ATOM     45  C   UNL A   1      41.149  27.486  28.527  1.00  0.00     0.049 A 
ATOM     46  H   UNL A   1      41.058  28.538  30.325  1.00  0.00     0.167 HD
ATOM     47  C   UNL A   1      40.790  30.852  34.006  1.00  0.00     0.034 A 
ATOM     48  C   UNL A   1      42.263  26.730  28.553  1.00  0.00     0.034 A 
ATOM     49  C   UNL A   1      41.981  30.059  34.138  1.00  0.00     0.049 A 
ATOM     50  C   UNL A   1      43.158  26.780  29.757  1.00  0.00     0.074 A 
ATOM     51  C   UNL A   1      42.860  30.007  35.206  1.00  0.00     0.029 A 
ATOM     52  N   UNL A   1      42.454  29.173  33.184  1.00  0.00    -0.354 N 
ATOM     53  N   UNL A   1      42.991  27.452  30.869  1.00  0.00    -0.248 NA
ATOM     54  C   UNL A   1      44.385  25.972  29.718  1.00  0.00     0.031 C 
ATOM     55  C   UNL A   1      43.867  29.091  34.896  1.00  0.00     0.029 A 
ATOM     56  C   UNL A   1      43.612  28.569  33.638  1.00  0.00     0.049 A 
ATOM     57  H   UNL A   1      42.029  29.000  32.313  1.00  0.00     0.167 HD
ATOM     58  C   UNL A   1      44.082  27.139  31.668  1.00  0.00     0.074 A 
ATOM     59  C   UNL A   1      44.898  26.205  30.920  1.00  0.00     0.031 C 
ATOM     60  C   UNL A   1      44.385  27.601  32.905  1.00  0.00     0.034 A 
BRANCH  47  61
ATOM     61  C   UNL A   1      40.432  31.755  35.154  1.00  0.00     0.023 A 
ATOM     62  C   UNL A   1      41.058  33.012  35.263  1.00  0.00     0.012 A 
ATOM     63  C   UNL A   1      39.402  31.410  36.051  1.00  0.00     0.148 A 
ATOM     64  C   UNL A   1      40.669  33.912  36.255  1.00  0.00     0.002 A 
ATOM     65  C   UNL A   1      39.000  32.323  37.019  1.00  0.00     0.091 A 
ATOM     66  F   UNL A   1      38.828  30.205  35.931  1.00  0.00    -0.205 F 
ATOM     67  C   UNL A   1      39.635  33.573  37.125  1.00  0.00     0.022 A 
BRANCH  65  68
ATOM     68  S   UNL A   1      37.642  32.010  38.153  1.00  0.00     0.127 S 
ATOM     69  O   UNL A   1      36.662  33.005  37.720  1.00  0.00    -0.237 OA
ATOM     70  O   UNL A   1      37.289  30.627  37.834  1.00  0.00    -0.237 OA
ATOM     71  O   UNL A   1      38.179  32.212  39.492  1.00  0.00    -0.744 OA
ENDBRANCH  65  68
ENDBRANCH  47  61
BRANCH  48  72
ATOM     72  C   UNL A   1      42.550  25.822  27.408  1.00  0.00     0.023 A 
ATOM     73  C   UNL A   1      43.407  26.262  26.381  1.00  0.00     0.012 A 
ATOM     74  C   UNL A   1      42.064  24.500  27.383  1.00  0.00     0.148 A 
ATOM     75  C   UNL A   1      43.776  25.400  25.348  1.00  0.00     0.002 A 
ATOM     76  C   UNL A   1      42.472  23.633  26.377  1.00  0.00     0.091 A 
ATOM     77  F   UNL A   1      41.244  24.110  28.369  1.00  0.00    -0.205 F 
ATOM     78  C   UNL A   1      43.321  24.083  25.353  1.00  0.00     0.022 A 
BRANCH  76  79
ATOM     79  S   UNL A   1      42.038  21.889  26.367  1.00  0.00     0.127 S 
ATOM     80  O   UNL A   1      40.608  21.939  26.072  1.00  0.00    -0.237 OA
ATOM     81  O   UNL A   1      42.875  21.379  25.280  1.00  0.00    -0.237 OA
ATOM     82  O   UNL A   1      42.389  21.386  27.687  1.00  0.00    -0.744 OA
ENDBRANCH  76  79
ENDBRANCH  48  72
BRANCH  60  83
ATOM     83  C   UNL A   1      45.645  27.114  33.561  1.00  0.00     0.023 A 
ATOM     84  C   UNL A   1      46.820  27.879  33.441  1.00  0.00     0.012 A 
ATOM     85  C   UNL A   1      45.616  26.005  34.428  1.00  0.00     0.148 A 
ATOM     86  C   UNL A   1      47.952  27.551  34.183  1.00  0.00     0.002 A 
ATOM     87  C   UNL A   1      46.739  25.703  35.189  1.00  0.00     0.091 A 
ATOM     88  F   UNL A   1      44.482  25.297  34.520  1.00  0.00    -0.205 F 
ATOM     89  C   UNL A   1      47.908  26.473  35.066  1.00  0.00     0.022 A 
BRANCH  87  90
ATOM     90  S   UNL A   1      46.758  24.387  36.412  1.00  0.00     0.127 S 
ATOM     91  O   UNL A   1      48.125  24.476  36.923  1.00  0.00    -0.237 OA
ATOM     92  O   UNL A   1      45.725  24.825  37.349  1.00  0.00    -0.237 OA
ATOM     93  O   UNL A   1      46.452  23.158  35.691  1.00  0.00    -0.744 OA
ENDBRANCH  87  90
ENDBRANCH  60  83
ENDBRANCH  34  35
ENDBRANCH  27  29
ENDBRANCH  26  27
ENDBRANCH   1  26
TORSDOF 17
ENDMDL
MODEL 3
REMARK VINA RESULT:     -12.2      1.647      1.930
REMARK SMILES Cc1cc(OC(F)(F)F)cc2c1O[C@@H](C(F)(F)F)C(C(=O)OCCOC(=O)c1ccc(-c3c4nc(c(-c5cccc(S(=O)(=O)[O-])c5F)c5ccc([nH]5)c(-c5cccc(S(=O)(=O)[O-])c5F)c5nc(c(-c6cccc(S(=O)(=O)[O-])c6F)c6ccc3[nH]6)C=C5)C=C4)cc1)=C2
REMARK SMILES IDX 24 1 23 2 22 3 20 4 21 5 19 6 1 7 2 8 3 9 12 10 4 11 11 12
REMARK SMILES IDX 13 13 10 14 91 15 14 16 5 17 6 18 7 19 8 20 9 21 15 22 16 23
REMARK SMILES IDX 17 24 18 25 25 26 26 27 27 28 28 29 29 30 90 31 30 32 89 33
REMARK SMILES IDX 31 34 32 35 33 36 83 37 34 38 88 39 82 40 84 41 35 42 87 43
REMARK SMILES IDX 81 44 80 45 36 47 68 48 48 49 67 50 49 51 52 52 66 53 85 54
REMARK SMILES IDX 50 55 51 56 65 58 86 59 53 60 37 61 38 62 46 63 39 64 41 65
REMARK SMILES IDX 47 66 40 67 42 68 43 69 44 70 45 71 69 72 70 73 78 74 71 75
REMARK SMILES IDX 73 76 79 77 72 78 74 79 75 80 76 81 77 82 54 83 55 84 63 85
REMARK SMILES IDX 56 86 58 87 64 88 57 89 59 90 60 91 61 92 62 93
REMARK H PARENT 84 46 52 57
REMARK Flexibility Score: inf
ROOT
ATOM      1  C   UNL A   1      37.269  20.209  25.064  1.00  0.00     0.275 C 
ENDROOT
BRANCH   1   2
ATOM      2  C   UNL A   1      35.916  20.917  24.997  1.00  0.00     0.275 C 
BRANCH   2   3
ATOM      3  O   UNL A   1      36.088  22.344  25.117  1.00  0.00    -0.459 OA
BRANCH   3   4
ATOM      4  C   UNL A   1      35.694  23.085  24.061  1.00  0.00     0.338 C 
ATOM      5  O   UNL A   1      36.192  23.064  22.946  1.00  0.00    -0.246 OA
BRANCH   4   6
ATOM      6  C   UNL A   1      34.519  23.905  24.407  1.00  0.00     0.087 C 
ATOM      7  C   UNL A   1      29.884  25.313  26.110  1.00  0.00     0.048 C 
ATOM      8  C   UNL A   1      31.262  25.911  26.103  1.00  0.00    -0.005 A 
ATOM      9  C   UNL A   1      31.463  27.202  26.633  1.00  0.00     0.054 A 
ATOM     10  C   UNL A   1      32.346  25.223  25.542  1.00  0.00     0.131 A 
ATOM     11  C   UNL A   1      32.731  27.787  26.635  1.00  0.00     0.130 A 
ATOM     12  C   UNL A   1      33.616  25.800  25.560  1.00  0.00     0.021 A 
ATOM     13  O   UNL A   1      32.132  23.958  25.052  1.00  0.00    -0.475 OA
ATOM     14  C   UNL A   1      33.803  27.080  26.091  1.00  0.00     0.058 A 
ATOM     15  C   UNL A   1      34.754  25.021  25.110  1.00  0.00     0.027 C 
ATOM     16  C   UNL A   1      33.123  23.429  24.114  1.00  0.00     0.316 C 
BRANCH  11  17
ATOM     17  O   UNL A   1      33.061  29.016  27.129  1.00  0.00    -0.406 OA
BRANCH  17  18
ATOM     18  C   UNL A   1      32.778  30.151  26.333  1.00  0.00     0.573 C 
ATOM     19  F   UNL A   1      31.448  30.382  26.275  1.00  0.00    -0.132 F 
ATOM     20  F   UNL A   1      33.399  31.251  26.815  1.00  0.00    -0.132 F 
ATOM     21  F   UNL A   1      33.223  29.934  25.077  1.00  0.00    -0.132 F 
ENDBRANCH  17  18
ENDBRANCH  11  17
BRANCH  16  22
ATOM     22  C   UNL A   1      32.626  23.651  22.674  1.00  0.00     0.430 C 
ATOM     23  F   UNL A   1      31.266  23.714  22.655  1.00  0.00    -0.167 F 
ATOM     24  F   UNL A   1      33.084  24.798  22.132  1.00  0.00    -0.167 F 
ATOM     25  F   UNL A   1      32.954  22.635  21.845  1.00  0.00    -0.167 F 
ENDBRANCH  16  22
ENDBRANCH   4   6
ENDBRANCH   3   4
ENDBRANCH   2   3
ENDBRANCH   1   2
BRANCH   1  26
ATOM     26  O   UNL A   1      38.329  21.173  25.192  1.00  0.00    -0.458 OA
BRANCH  26  27
ATOM     27  C   UNL A   1      39.240  20.917  26.160  1.00  0.00     0.338 C 
ATOM     28  O   UNL A   1      39.644  19.830  26.530  1.00  0.00    -0.246 OA
BRANCH  27  29
ATOM     29  C   UNL A   1      39.753  22.189  26.690  1.00  0.00     0.060 A 
ATOM     30  C   UNL A   1      39.225  23.379  26.198  1.00  0.00     0.016 A 
ATOM     31  C   UNL A   1      40.824  22.208  27.582  1.00  0.00     0.016 A 
ATOM     32  C   UNL A   1      39.831  24.591  26.512  1.00  0.00     0.010 A 
ATOM     33  C   UNL A   1      41.360  23.437  27.985  1.00  0.00     0.010 A 
ATOM     34  C   UNL A   1      40.893  24.640  27.428  1.00  0.00    -0.014 A 
BRANCH  34  35
ATOM     35  C   UNL A   1      41.481  25.957  27.798  1.00  0.00     0.031 A 
ATOM     36  C   UNL A   1      42.863  26.347  27.340  1.00  0.00     0.074 A 
ATOM     37  C   UNL A   1      40.752  26.822  28.535  1.00  0.00     0.049 A 
ATOM     38  N   UNL A   1      43.528  27.446  27.588  1.00  0.00    -0.248 NA
ATOM     39  C   UNL A   1      43.597  25.385  26.502  1.00  0.00     0.031 C 
ATOM     40  C   UNL A   1      39.408  26.558  29.055  1.00  0.00     0.029 A 
ATOM     41  N   UNL A   1      41.026  28.097  28.964  1.00  0.00    -0.354 N 
ATOM     42  C   UNL A   1      44.770  27.287  26.986  1.00  0.00     0.074 A 
ATOM     43  C   UNL A   1      44.772  25.986  26.356  1.00  0.00     0.031 C 
ATOM     44  C   UNL A   1      38.955  27.652  29.686  1.00  0.00     0.029 A 
ATOM     45  C   UNL A   1      39.996  28.674  29.671  1.00  0.00     0.049 A 
ATOM     46  H   UNL A   1      41.878  28.556  28.782  1.00  0.00     0.167 HD
ATOM     47  C   UNL A   1      45.808  28.154  26.946  1.00  0.00     0.034 A 
ATOM     48  C   UNL A   1      39.895  29.883  30.256  1.00  0.00     0.034 A 
ATOM     49  C   UNL A   1      45.782  29.476  27.509  1.00  0.00     0.049 A 
ATOM     50  C   UNL A   1      41.051  30.837  30.174  1.00  0.00     0.074 A 
ATOM     51  C   UNL A   1      46.773  30.441  27.472  1.00  0.00     0.029 A 
ATOM     52  N   UNL A   1      44.712  30.023  28.199  1.00  0.00    -0.354 N 
ATOM     53  N   UNL A   1      42.192  30.684  29.548  1.00  0.00    -0.248 NA
ATOM     54  C   UNL A   1      40.911  32.126  30.866  1.00  0.00     0.031 C 
ATOM     55  C   UNL A   1      46.303  31.573  28.142  1.00  0.00     0.029 A 
ATOM     56  C   UNL A   1      45.018  31.313  28.592  1.00  0.00     0.049 A 
ATOM     57  H   UNL A   1      43.862  29.562  28.383  1.00  0.00     0.167 HD
ATOM     58  C   UNL A   1      42.900  31.859  29.759  1.00  0.00     0.074 A 
ATOM     59  C   UNL A   1      42.056  32.723  30.557  1.00  0.00     0.031 C 
ATOM     60  C   UNL A   1      44.147  32.181  29.341  1.00  0.00     0.034 A 
BRANCH  47  61
ATOM     61  C   UNL A   1      47.060  27.737  26.224  1.00  0.00     0.023 A 
ATOM     62  C   UNL A   1      48.064  27.047  26.929  1.00  0.00     0.012 A 
ATOM     63  C   UNL A   1      47.188  27.925  24.834  1.00  0.00     0.148 A 
ATOM     64  C   UNL A   1      49.186  26.555  26.262  1.00  0.00     0.002 A 
ATOM     65  C   UNL A   1      48.295  27.408  24.171  1.00  0.00     0.091 A 
ATOM     66  F   UNL A   1      46.223  28.593  24.188  1.00  0.00    -0.205 F 
ATOM     67  C   UNL A   1      49.297  26.726  24.884  1.00  0.00     0.022 A 
BRANCH  65  68
ATOM     68  S   UNL A   1      48.509  27.523  22.391  1.00  0.00     0.127 S 
ATOM     69  O   UNL A   1      49.760  28.274  22.293  1.00  0.00    -0.237 OA
ATOM     70  O   UNL A   1      48.610  26.116  22.003  1.00  0.00    -0.237 OA
ATOM     71  O   UNL A   1      47.331  28.215  21.887  1.00  0.00    -0.744 OA
ENDBRANCH  65  68
ENDBRANCH  47  61
BRANCH  48  72
ATOM     72  C   UNL A   1      38.619  30.262  30.923  1.00  0.00     0.023 A 
ATOM     73  C   UNL A   1      38.433  29.942  32.282  1.00  0.00     0.012 A 
ATOM     74  C   UNL A   1      37.641  31.022  30.252  1.00  0.00     0.148 A 
ATOM     75  C   UNL A   1      37.293  30.373  32.961  1.00  0.00     0.002 A 
ATOM     76  C   UNL A   1      36.531  31.487  30.945  1.00  0.00     0.091 A 
ATOM     77  F   UNL A   1      37.841  31.306  28.957  1.00  0.00    -0.205 F 
ATOM     78  C   UNL A   1      36.350  31.156  32.299  1.00  0.00     0.022 A 
BRANCH  76  79
ATOM     79  S   UNL A   1      35.327  32.601  30.212  1.00  0.00     0.127 S 
ATOM     80  O   UNL A   1      36.174  33.704  29.767  1.00  0.00    -0.237 OA
ATOM     81  O   UNL A   1      34.772  31.777  29.138  1.00  0.00    -0.237 OA
ATOM     82  O   UNL A   1      34.385  32.921  31.275  1.00  0.00    -0.744 OA
ENDBRANCH  76  79
ENDBRANCH  48  72
BRANCH  60  83
ATOM     83  C   UNL A   1      44.701  33.526  29.715  1.00  0.00     0.023 A 
ATOM     84  C   UNL A   1      45.545  33.632  30.836  1.00  0.00     0.012 A 
ATOM     85  C   UNL A   1      44.527  34.633  28.861  1.00  0.00     0.148 A 
ATOM     86  C   UNL A   1      46.216  34.823  31.102  1.00  0.00     0.002 A 
ATOM     87  C   UNL A   1      45.225  35.808  29.115  1.00  0.00     0.091 A 
ATOM     88  F   UNL A   1      43.718  34.500  27.801  1.00  0.00    -0.205 F 
ATOM     89  C   UNL A   1      46.068  35.905  30.235  1.00  0.00     0.022 A 
BRANCH  87  90
ATOM     90  S   UNL A   1      45.165  37.229  28.018  1.00  0.00     0.127 S 
ATOM     91  O   UNL A   1      45.650  36.656  26.763  1.00  0.00    -0.237 OA
ATOM     92  O   UNL A   1      43.742  37.563  28.028  1.00  0.00    -0.237 OA
ATOM     93  O   UNL A   1      46.036  38.236  28.609  1.00  0.00    -0.744 OA
ENDBRANCH  87  90
ENDBRANCH  60  83
ENDBRANCH  34  35
ENDBRANCH  27  29
ENDBRANCH  26  27
ENDBRANCH   1  26
TORSDOF 17
ENDMDL
