MODEL 1
REMARK VINA RESULT:     -11.6      0.000      0.000
REMARK SMILES Cc1cc([N+](=O)[O-])c(C(C)(C)C)cc1C(=O)OCCOC(=O)c1ccc(-c2c3nc(c(-c4cccc(S(=O)(=O)[O-])c4F)c4ccc([nH]4)c(-c4cccc(S(=O)(=O)[O-])c4F)c4nc(c(-c5cccc(S(=O)(=O)[O-])c5F)c5ccc2[nH]5)C=C4)C=C3)cc1
REMARK SMILES IDX 19 1 18 2 17 3 15 4 16 5 14 6 1 7 2 8 3 9 4 10 13 11 8 12
REMARK SMILES IDX 5 13 6 14 7 15 9 16 10 17 11 18 12 19 20 20 21 21 22 22
REMARK SMILES IDX 23 23 24 24 85 25 25 26 84 27 26 28 27 29 28 30 78 31 29 32
REMARK SMILES IDX 83 33 77 34 79 35 30 36 82 37 76 38 75 39 31 41 63 42 43 43
REMARK SMILES IDX 62 44 44 45 47 46 61 47 80 48 45 49 46 50 60 52 81 53 48 54
REMARK SMILES IDX 32 55 33 56 41 57 34 58 36 59 42 60 35 61 37 62 38 63 39 64
REMARK SMILES IDX 40 65 64 66 65 67 73 68 66 69 68 70 74 71 67 72 69 73 70 74
REMARK SMILES IDX 71 75 72 76 49 77 50 78 58 79 51 80 53 81 59 82 52 83 54 84
REMARK SMILES IDX 55 85 56 86 57 87
REMARK H PARENT 79 40 47 51
REMARK Flexibility Score: inf
ROOT
ATOM      1  C   UNL A   1      33.092  30.337  27.281  1.00  0.00     0.275 C 
ENDROOT
BRANCH   1   2
ATOM      2  C   UNL A   1      33.343  28.850  26.965  1.00  0.00     0.275 C 
BRANCH   2   3
ATOM      3  O   UNL A   1      34.311  28.502  25.977  1.00  0.00    -0.458 OA
BRANCH   3   4
ATOM      4  C   UNL A   1      33.870  28.037  24.788  1.00  0.00     0.338 C 
ATOM      5  O   UNL A   1      33.999  28.572  23.711  1.00  0.00    -0.246 OA
BRANCH   4   6
ATOM      6  C   UNL A   1      33.222  26.710  24.999  1.00  0.00     0.063 A 
ATOM      7  C   UNL A   1      30.916  27.620  24.342  1.00  0.00     0.045 C 
ATOM      8  C   UNL A   1      31.836  26.546  24.853  1.00  0.00    -0.030 A 
ATOM      9  C   UNL A   1      31.282  25.332  25.264  1.00  0.00     0.090 A 
ATOM     10  C   UNL A   1      32.092  24.274  25.741  1.00  0.00     0.273 A 
ATOM     11  C   UNL A   1      34.033  25.636  25.442  1.00  0.00     0.027 A 
ATOM     12  C   UNL A   1      33.512  24.353  25.759  1.00  0.00     0.036 A 
BRANCH  10  13
ATOM     13  N   UNL A   1      31.320  23.180  26.343  1.00  0.00     0.063 N 
ATOM     14  O   UNL A   1      30.985  22.240  25.610  1.00  0.00    -0.258 OA
ATOM     15  O   UNL A   1      30.935  23.323  27.512  1.00  0.00    -0.258 OA
ENDBRANCH  10  13
BRANCH  12  16
ATOM     16  C   UNL A   1      34.476  23.165  26.065  1.00  0.00    -0.006 C 
ATOM     17  C   UNL A   1      34.209  22.630  27.489  1.00  0.00     0.016 C 
ATOM     18  C   UNL A   1      34.331  22.028  25.017  1.00  0.00     0.016 C 
ATOM     19  C   UNL A   1      36.007  23.509  26.056  1.00  0.00     0.016 C 
ENDBRANCH  12  16
ENDBRANCH   4   6
ENDBRANCH   3   4
ENDBRANCH   2   3
ENDBRANCH   1   2
BRANCH   1  20
ATOM     20  O   UNL A   1      34.183  31.274  27.466  1.00  0.00    -0.458 OA
BRANCH  20  21
ATOM     21  C   UNL A   1      34.951  31.499  28.560  1.00  0.00     0.338 C 
ATOM     22  O   UNL A   1      34.654  32.320  29.418  1.00  0.00    -0.246 OA
BRANCH  21  23
ATOM     23  C   UNL A   1      36.122  30.641  28.724  1.00  0.00     0.060 A 
ATOM     24  C   UNL A   1      36.320  29.976  29.944  1.00  0.00     0.016 A 
ATOM     25  C   UNL A   1      36.956  30.429  27.634  1.00  0.00     0.016 A 
ATOM     26  C   UNL A   1      37.337  29.032  30.062  1.00  0.00     0.010 A 
ATOM     27  C   UNL A   1      37.882  29.418  27.711  1.00  0.00     0.010 A 
ATOM     28  C   UNL A   1      38.122  28.773  28.941  1.00  0.00    -0.014 A 
BRANCH  28  29
ATOM     29  C   UNL A   1      39.468  28.227  29.026  1.00  0.00     0.031 A 
ATOM     30  C   UNL A   1      39.855  26.854  28.691  1.00  0.00     0.074 A 
ATOM     31  C   UNL A   1      40.377  29.213  29.197  1.00  0.00     0.049 A 
ATOM     32  N   UNL A   1      41.034  26.393  28.925  1.00  0.00    -0.248 NA
ATOM     33  C   UNL A   1      38.955  25.865  28.116  1.00  0.00     0.031 C 
ATOM     34  C   UNL A   1      41.766  29.272  28.802  1.00  0.00     0.029 A 
ATOM     35  N   UNL A   1      40.151  30.425  29.860  1.00  0.00    -0.354 N 
ATOM     36  C   UNL A   1      41.146  25.170  28.302  1.00  0.00     0.074 A 
ATOM     37  C   UNL A   1      39.792  24.834  27.928  1.00  0.00     0.031 C 
ATOM     38  C   UNL A   1      42.329  30.340  29.395  1.00  0.00     0.029 A 
ATOM     39  C   UNL A   1      41.372  30.859  30.366  1.00  0.00     0.049 A 
ATOM     40  H   UNL A   1      39.286  30.887  29.951  1.00  0.00     0.167 HD
ATOM     41  C   UNL A   1      42.400  24.685  28.062  1.00  0.00     0.034 A 
ATOM     42  C   UNL A   1      41.582  31.041  31.705  1.00  0.00     0.034 A 
ATOM     43  C   UNL A   1      43.410  25.547  28.708  1.00  0.00     0.049 A 
ATOM     44  C   UNL A   1      42.665  30.103  32.213  1.00  0.00     0.074 A 
ATOM     45  C   UNL A   1      44.205  26.571  28.224  1.00  0.00     0.029 A 
ATOM     46  N   UNL A   1      43.483  25.616  30.097  1.00  0.00    -0.354 N 
ATOM     47  N   UNL A   1      43.202  29.150  31.503  1.00  0.00    -0.248 NA
ATOM     48  C   UNL A   1      43.154  30.110  33.589  1.00  0.00     0.031 C 
ATOM     49  C   UNL A   1      44.652  27.339  29.335  1.00  0.00     0.029 A 
ATOM     50  C   UNL A   1      44.178  26.753  30.498  1.00  0.00     0.049 A 
ATOM     51  H   UNL A   1      43.096  24.952  30.712  1.00  0.00     0.167 HD
ATOM     52  C   UNL A   1      43.904  28.313  32.323  1.00  0.00     0.074 A 
ATOM     53  C   UNL A   1      43.927  29.012  33.598  1.00  0.00     0.031 C 
ATOM     54  C   UNL A   1      44.318  27.075  31.918  1.00  0.00     0.034 A 
BRANCH  41  55
ATOM     55  C   UNL A   1      42.797  23.617  27.039  1.00  0.00     0.023 A 
ATOM     56  C   UNL A   1      43.460  24.073  25.871  1.00  0.00     0.012 A 
ATOM     57  C   UNL A   1      42.494  22.234  27.061  1.00  0.00     0.148 A 
ATOM     58  C   UNL A   1      43.737  23.241  24.778  1.00  0.00     0.002 A 
ATOM     59  C   UNL A   1      42.776  21.397  25.972  1.00  0.00     0.091 A 
ATOM     60  F   UNL A   1      41.912  21.693  28.129  1.00  0.00    -0.205 F 
ATOM     61  C   UNL A   1      43.385  21.902  24.822  1.00  0.00     0.022 A 
BRANCH  59  62
ATOM     62  S   UNL A   1      42.353  19.641  25.954  1.00  0.00     0.127 S 
ATOM     63  O   UNL A   1      40.907  19.679  25.736  1.00  0.00    -0.237 OA
ATOM     64  O   UNL A   1      43.126  19.143  24.817  1.00  0.00    -0.237 OA
ATOM     65  O   UNL A   1      42.758  19.104  27.248  1.00  0.00    -0.744 OA
ENDBRANCH  59  62
ENDBRANCH  41  55
BRANCH  42  66
ATOM     66  C   UNL A   1      40.328  31.351  32.484  1.00  0.00     0.023 A 
ATOM     67  C   UNL A   1      39.576  30.273  33.020  1.00  0.00     0.012 A 
ATOM     68  C   UNL A   1      40.140  32.630  33.029  1.00  0.00     0.148 A 
ATOM     69  C   UNL A   1      38.775  30.447  34.155  1.00  0.00     0.002 A 
ATOM     70  C   UNL A   1      39.384  32.786  34.184  1.00  0.00     0.091 A 
ATOM     71  F   UNL A   1      40.762  33.676  32.474  1.00  0.00    -0.205 F 
ATOM     72  C   UNL A   1      38.710  31.697  34.759  1.00  0.00     0.022 A 
BRANCH  70  73
ATOM     73  S   UNL A   1      39.506  34.302  35.137  1.00  0.00     0.127 S 
ATOM     74  O   UNL A   1      38.873  33.902  36.392  1.00  0.00    -0.237 OA
ATOM     75  O   UNL A   1      40.930  34.565  35.268  1.00  0.00    -0.237 OA
ATOM     76  O   UNL A   1      38.742  35.239  34.321  1.00  0.00    -0.744 OA
ENDBRANCH  70  73
ENDBRANCH  42  66
BRANCH  54  77
ATOM     77  C   UNL A   1      44.892  26.047  32.861  1.00  0.00     0.023 A 
ATOM     78  C   UNL A   1      44.143  24.945  33.316  1.00  0.00     0.012 A 
ATOM     79  C   UNL A   1      46.262  26.086  33.211  1.00  0.00     0.148 A 
ATOM     80  C   UNL A   1      44.697  23.977  34.157  1.00  0.00     0.002 A 
ATOM     81  C   UNL A   1      46.836  25.058  33.952  1.00  0.00     0.091 A 
ATOM     82  F   UNL A   1      47.016  27.130  32.837  1.00  0.00    -0.205 F 
ATOM     83  C   UNL A   1      46.052  24.023  34.462  1.00  0.00     0.022 A 
BRANCH  81  84
ATOM     84  S   UNL A   1      48.623  24.968  34.123  1.00  0.00     0.127 S 
ATOM     85  O   UNL A   1      48.799  23.735  34.884  1.00  0.00    -0.237 OA
ATOM     86  O   UNL A   1      49.078  24.895  32.733  1.00  0.00    -0.237 OA
ATOM     87  O   UNL A   1      48.983  26.208  34.801  1.00  0.00    -0.744 OA
ENDBRANCH  81  84
ENDBRANCH  54  77
ENDBRANCH  28  29
ENDBRANCH  21  23
ENDBRANCH  20  21
ENDBRANCH   1  20
TORSDOF 16
ENDMDL
MODEL 2
REMARK VINA RESULT:     -11.6      2.299      2.754
REMARK SMILES Cc1cc([N+](=O)[O-])c(C(C)(C)C)cc1C(=O)OCCOC(=O)c1ccc(-c2c3nc(c(-c4cccc(S(=O)(=O)[O-])c4F)c4ccc([nH]4)c(-c4cccc(S(=O)(=O)[O-])c4F)c4nc(c(-c5cccc(S(=O)(=O)[O-])c5F)c5ccc2[nH]5)C=C4)C=C3)cc1
REMARK SMILES IDX 19 1 18 2 17 3 15 4 16 5 14 6 1 7 2 8 3 9 4 10 13 11 8 12
REMARK SMILES IDX 5 13 6 14 7 15 9 16 10 17 11 18 12 19 20 20 21 21 22 22
REMARK SMILES IDX 23 23 24 24 85 25 25 26 84 27 26 28 27 29 28 30 78 31 29 32
REMARK SMILES IDX 83 33 77 34 79 35 30 36 82 37 76 38 75 39 31 41 63 42 43 43
REMARK SMILES IDX 62 44 44 45 47 46 61 47 80 48 45 49 46 50 60 52 81 53 48 54
REMARK SMILES IDX 32 55 33 56 41 57 34 58 36 59 42 60 35 61 37 62 38 63 39 64
REMARK SMILES IDX 40 65 64 66 65 67 73 68 66 69 68 70 74 71 67 72 69 73 70 74
REMARK SMILES IDX 71 75 72 76 49 77 50 78 58 79 51 80 53 81 59 82 52 83 54 84
REMARK SMILES IDX 55 85 56 86 57 87
REMARK H PARENT 79 40 47 51
REMARK Flexibility Score: inf
ROOT
ATOM      1  C   UNL A   1      33.485  30.538  27.485  1.00  0.00     0.275 C 
ENDROOT
BRANCH   1   2
ATOM      2  C   UNL A   1      33.120  29.432  26.477  1.00  0.00     0.275 C 
BRANCH   2   3
ATOM      3  O   UNL A   1      33.420  28.074  26.796  1.00  0.00    -0.458 OA
BRANCH   3   4
ATOM      4  C   UNL A   1      32.441  27.154  26.651  1.00  0.00     0.338 C 
ATOM      5  O   UNL A   1      31.442  27.051  27.325  1.00  0.00    -0.246 OA
BRANCH   4   6
ATOM      6  C   UNL A   1      32.761  26.290  25.478  1.00  0.00     0.063 A 
ATOM      7  C   UNL A   1      31.027  27.473  24.005  1.00  0.00     0.045 C 
ATOM      8  C   UNL A   1      32.050  26.404  24.275  1.00  0.00    -0.030 A 
ATOM      9  C   UNL A   1      32.270  25.429  23.299  1.00  0.00     0.090 A 
ATOM     10  C   UNL A   1      33.228  24.404  23.481  1.00  0.00     0.273 A 
ATOM     11  C   UNL A   1      33.746  25.284  25.642  1.00  0.00     0.027 A 
ATOM     12  C   UNL A   1      34.072  24.349  24.624  1.00  0.00     0.036 A 
BRANCH  10  13
ATOM     13  N   UNL A   1      33.147  23.348  22.464  1.00  0.00     0.063 N 
ATOM     14  O   UNL A   1      33.648  23.578  21.356  1.00  0.00    -0.258 OA
ATOM     15  O   UNL A   1      32.468  22.346  22.728  1.00  0.00    -0.258 OA
ENDBRANCH  10  13
BRANCH  12  16
ATOM     16  C   UNL A   1      35.287  23.386  24.799  1.00  0.00    -0.006 C 
ATOM     17  C   UNL A   1      34.787  21.980  25.196  1.00  0.00     0.016 C 
ATOM     18  C   UNL A   1      36.151  23.317  23.510  1.00  0.00     0.016 C 
ATOM     19  C   UNL A   1      36.306  23.772  25.929  1.00  0.00     0.016 C 
ENDBRANCH  12  16
ENDBRANCH   4   6
ENDBRANCH   3   4
ENDBRANCH   2   3
ENDBRANCH   1   2
BRANCH   1  20
ATOM     20  O   UNL A   1      34.697  31.323  27.354  1.00  0.00    -0.458 OA
BRANCH  20  21
ATOM     21  C   UNL A   1      35.632  31.629  28.287  1.00  0.00     0.338 C 
ATOM     22  O   UNL A   1      35.535  32.601  29.024  1.00  0.00    -0.246 OA
BRANCH  21  23
ATOM     23  C   UNL A   1      36.736  30.683  28.442  1.00  0.00     0.060 A 
ATOM     24  C   UNL A   1      36.895  30.009  29.663  1.00  0.00     0.016 A 
ATOM     25  C   UNL A   1      37.537  30.403  27.344  1.00  0.00     0.016 A 
ATOM     26  C   UNL A   1      37.837  28.990  29.773  1.00  0.00     0.010 A 
ATOM     27  C   UNL A   1      38.383  29.324  27.414  1.00  0.00     0.010 A 
ATOM     28  C   UNL A   1      38.587  28.668  28.645  1.00  0.00    -0.014 A 
BRANCH  28  29
ATOM     29  C   UNL A   1      39.887  28.019  28.718  1.00  0.00     0.031 A 
ATOM     30  C   UNL A   1      40.133  26.580  28.587  1.00  0.00     0.074 A 
ATOM     31  C   UNL A   1      40.883  28.930  28.653  1.00  0.00     0.049 A 
ATOM     32  N   UNL A   1      41.288  26.054  28.805  1.00  0.00    -0.248 NA
ATOM     33  C   UNL A   1      39.109  25.600  28.256  1.00  0.00     0.031 C 
ATOM     34  C   UNL A   1      42.232  28.796  28.149  1.00  0.00     0.029 A 
ATOM     35  N   UNL A   1      40.815  30.249  29.120  1.00  0.00    -0.354 N 
ATOM     36  C   UNL A   1      41.245  24.742  28.388  1.00  0.00     0.074 A 
ATOM     37  C   UNL A   1      39.841  24.479  28.179  1.00  0.00     0.031 C 
ATOM     38  C   UNL A   1      42.929  29.888  28.512  1.00  0.00     0.029 A 
ATOM     39  C   UNL A   1      42.107  30.642  29.453  1.00  0.00     0.049 A 
ATOM     40  H   UNL A   1      40.002  30.798  29.198  1.00  0.00     0.167 HD
ATOM     41  C   UNL A   1      42.430  24.111  28.138  1.00  0.00     0.034 A 
ATOM     42  C   UNL A   1      42.450  31.015  30.723  1.00  0.00     0.034 A 
ATOM     43  C   UNL A   1      43.559  24.967  28.553  1.00  0.00     0.049 A 
ATOM     44  C   UNL A   1      43.497  30.073  31.296  1.00  0.00     0.074 A 
ATOM     45  C   UNL A   1      44.387  25.822  27.846  1.00  0.00     0.029 A 
ATOM     46  N   UNL A   1      43.763  25.250  29.902  1.00  0.00    -0.354 N 
ATOM     47  N   UNL A   1      43.891  28.973  30.716  1.00  0.00    -0.248 NA
ATOM     48  C   UNL A   1      44.107  30.253  32.611  1.00  0.00     0.031 C 
ATOM     49  C   UNL A   1      44.991  26.713  28.777  1.00  0.00     0.029 A 
ATOM     50  C   UNL A   1      44.579  26.366  30.054  1.00  0.00     0.049 A 
ATOM     51  H   UNL A   1      43.381  24.731  30.646  1.00  0.00     0.167 HD
ATOM     52  C   UNL A   1      44.595  28.216  31.609  1.00  0.00     0.074 A 
ATOM     53  C   UNL A   1      44.788  29.104  32.744  1.00  0.00     0.031 C 
ATOM     54  C   UNL A   1      44.871  26.896  31.386  1.00  0.00     0.034 A 
BRANCH  41  55
ATOM     55  C   UNL A   1      42.647  22.862  27.280  1.00  0.00     0.023 A 
ATOM     56  C   UNL A   1      41.977  21.683  27.694  1.00  0.00     0.012 A 
ATOM     57  C   UNL A   1      43.519  22.705  26.175  1.00  0.00     0.148 A 
ATOM     58  C   UNL A   1      42.205  20.431  27.109  1.00  0.00     0.002 A 
ATOM     59  C   UNL A   1      43.744  21.454  25.582  1.00  0.00     0.091 A 
ATOM     60  F   UNL A   1      44.164  23.757  25.675  1.00  0.00    -0.205 F 
ATOM     61  C   UNL A   1      43.099  20.312  26.058  1.00  0.00     0.022 A 
BRANCH  59  62
ATOM     62  S   UNL A   1      44.890  21.218  24.206  1.00  0.00     0.127 S 
ATOM     63  O   UNL A   1      46.185  21.459  24.843  1.00  0.00    -0.237 OA
ATOM     64  O   UNL A   1      44.647  19.826  23.830  1.00  0.00    -0.237 OA
ATOM     65  O   UNL A   1      44.523  22.196  23.188  1.00  0.00    -0.744 OA
ENDBRANCH  59  62
ENDBRANCH  41  55
BRANCH  42  66
ATOM     66  C   UNL A   1      41.300  31.560  31.531  1.00  0.00     0.023 A 
ATOM     67  C   UNL A   1      40.662  32.750  31.091  1.00  0.00     0.012 A 
ATOM     68  C   UNL A   1      40.607  30.722  32.418  1.00  0.00     0.148 A 
ATOM     69  C   UNL A   1      39.326  33.013  31.414  1.00  0.00     0.002 A 
ATOM     70  C   UNL A   1      39.266  30.963  32.692  1.00  0.00     0.091 A 
ATOM     71  F   UNL A   1      41.226  29.650  32.923  1.00  0.00    -0.205 F 
ATOM     72  C   UNL A   1      38.617  32.098  32.184  1.00  0.00     0.022 A 
BRANCH  70  73
ATOM     73  S   UNL A   1      38.259  29.678  33.437  1.00  0.00     0.127 S 
ATOM     74  O   UNL A   1      36.927  30.052  32.969  1.00  0.00    -0.237 OA
ATOM     75  O   UNL A   1      38.741  28.428  32.869  1.00  0.00    -0.237 OA
ATOM     76  O   UNL A   1      38.503  29.883  34.860  1.00  0.00    -0.744 OA
ENDBRANCH  70  73
ENDBRANCH  42  66
BRANCH  54  77
ATOM     77  C   UNL A   1      45.444  25.983  32.440  1.00  0.00     0.023 A 
ATOM     78  C   UNL A   1      46.828  25.750  32.560  1.00  0.00     0.012 A 
ATOM     79  C   UNL A   1      44.608  25.433  33.439  1.00  0.00     0.148 A 
ATOM     80  C   UNL A   1      47.351  24.933  33.565  1.00  0.00     0.002 A 
ATOM     81  C   UNL A   1      45.146  24.718  34.504  1.00  0.00     0.091 A 
ATOM     82  F   UNL A   1      43.279  25.591  33.356  1.00  0.00    -0.205 F 
ATOM     83  C   UNL A   1      46.511  24.430  34.551  1.00  0.00     0.022 A 
BRANCH  81  84
ATOM     84  S   UNL A   1      44.114  24.296  35.912  1.00  0.00     0.127 S 
ATOM     85  O   UNL A   1      45.064  23.643  36.809  1.00  0.00    -0.237 OA
ATOM     86  O   UNL A   1      43.645  25.604  36.373  1.00  0.00    -0.237 OA
ATOM     87  O   UNL A   1      43.065  23.453  35.351  1.00  0.00    -0.744 OA
ENDBRANCH  81  84
ENDBRANCH  54  77
ENDBRANCH  28  29
ENDBRANCH  21  23
ENDBRANCH  20  21
ENDBRANCH   1  20
TORSDOF 16
ENDMDL
MODEL 3
REMARK VINA RESULT:     -11.6      3.701      9.468
REMARK SMILES Cc1cc([N+](=O)[O-])c(C(C)(C)C)cc1C(=O)OCCOC(=O)c1ccc(-c2c3nc(c(-c4cccc(S(=O)(=O)[O-])c4F)c4ccc([nH]4)c(-c4cccc(S(=O)(=O)[O-])c4F)c4nc(c(-c5cccc(S(=O)(=O)[O-])c5F)c5ccc2[nH]5)C=C4)C=C3)cc1
REMARK SMILES IDX 19 1 18 2 17 3 15 4 16 5 14 6 1 7 2 8 3 9 4 10 13 11 8 12
REMARK SMILES IDX 5 13 6 14 7 15 9 16 10 17 11 18 12 19 20 20 21 21 22 22
REMARK SMILES IDX 23 23 24 24 85 25 25 26 84 27 26 28 27 29 28 30 78 31 29 32
REMARK SMILES IDX 83 33 77 34 79 35 30 36 82 37 76 38 75 39 31 41 63 42 43 43
REMARK SMILES IDX 62 44 44 45 47 46 61 47 80 48 45 49 46 50 60 52 81 53 48 54
REMARK SMILES IDX 32 55 33 56 41 57 34 58 36 59 42 60 35 61 37 62 38 63 39 64
REMARK SMILES IDX 40 65 64 66 65 67 73 68 66 69 68 70 74 71 67 72 69 73 70 74
REMARK SMILES IDX 71 75 72 76 49 77 50 78 58 79 51 80 53 81 59 82 52 83 54 84
REMARK SMILES IDX 55 85 56 86 57 87
REMARK H PARENT 79 40 47 51
REMARK Flexibility Score: inf
ROOT
ATOM      1  C   UNL A   1      38.246  21.883  25.440  1.00  0.00     0.275 C 
ENDROOT
BRANCH   1   2
ATOM      2  C   UNL A   1      36.773  22.301  25.605  1.00  0.00     0.275 C 
BRANCH   2   3
ATOM      3  O   UNL A   1      36.385  23.632  25.267  1.00  0.00    -0.458 OA
BRANCH   3   4
ATOM      4  C   UNL A   1      35.496  23.802  24.264  1.00  0.00     0.338 C 
ATOM      5  O   UNL A   1      35.686  23.594  23.089  1.00  0.00    -0.246 OA
BRANCH   4   6
ATOM      6  C   UNL A   1      34.197  24.254  24.842  1.00  0.00     0.063 A 
ATOM      7  C   UNL A   1      33.211  21.889  24.734  1.00  0.00     0.045 C 
ATOM      8  C   UNL A   1      33.120  23.367  24.994  1.00  0.00    -0.030 A 
ATOM      9  C   UNL A   1      31.883  23.908  25.350  1.00  0.00     0.090 A 
ATOM     10  C   UNL A   1      31.731  25.288  25.623  1.00  0.00     0.273 A 
ATOM     11  C   UNL A   1      34.049  25.629  25.153  1.00  0.00     0.027 A 
ATOM     12  C   UNL A   1      32.832  26.187  25.626  1.00  0.00     0.036 A 
BRANCH  10  13
ATOM     13  N   UNL A   1      30.327  25.703  25.742  1.00  0.00     0.063 N 
ATOM     14  O   UNL A   1      29.676  25.257  26.697  1.00  0.00    -0.258 OA
ATOM     15  O   UNL A   1      29.840  26.363  24.814  1.00  0.00    -0.258 OA
ENDBRANCH  10  13
BRANCH  12  16
ATOM     16  C   UNL A   1      32.784  27.666  26.121  1.00  0.00    -0.006 C 
ATOM     17  C   UNL A   1      32.306  28.585  24.975  1.00  0.00     0.016 C 
ATOM     18  C   UNL A   1      31.869  27.822  27.366  1.00  0.00     0.016 C 
ATOM     19  C   UNL A   1      34.157  28.281  26.568  1.00  0.00     0.016 C 
ENDBRANCH  12  16
ENDBRANCH   4   6
ENDBRANCH   3   4
ENDBRANCH   2   3
ENDBRANCH   1   2
BRANCH   1  20
ATOM     20  O   UNL A   1      39.229  22.121  26.479  1.00  0.00    -0.458 OA
BRANCH  20  21
ATOM     21  C   UNL A   1      40.386  22.827  26.427  1.00  0.00     0.338 C 
ATOM     22  O   UNL A   1      41.399  22.395  25.895  1.00  0.00    -0.246 OA
BRANCH  21  23
ATOM     23  C   UNL A   1      40.346  24.187  26.960  1.00  0.00     0.060 A 
ATOM     24  C   UNL A   1      41.018  25.213  26.276  1.00  0.00     0.016 A 
ATOM     25  C   UNL A   1      39.561  24.447  28.076  1.00  0.00     0.016 A 
ATOM     26  C   UNL A   1      40.856  26.535  26.678  1.00  0.00     0.010 A 
ATOM     27  C   UNL A   1      39.308  25.756  28.402  1.00  0.00     0.010 A 
ATOM     28  C   UNL A   1      40.010  26.793  27.754  1.00  0.00    -0.014 A 
BRANCH  28  29
ATOM     29  C   UNL A   1      40.118  27.987  28.578  1.00  0.00     0.031 A 
ATOM     30  C   UNL A   1      39.195  29.125  28.558  1.00  0.00     0.074 A 
ATOM     31  C   UNL A   1      41.025  27.810  29.565  1.00  0.00     0.049 A 
ATOM     32  N   UNL A   1      39.427  30.213  29.207  1.00  0.00    -0.248 NA
ATOM     33  C   UNL A   1      37.967  29.172  27.778  1.00  0.00     0.031 C 
ATOM     34  C   UNL A   1      41.094  28.407  30.880  1.00  0.00     0.029 A 
ATOM     35  N   UNL A   1      42.162  26.995  29.491  1.00  0.00    -0.354 N 
ATOM     36  C   UNL A   1      38.287  30.986  29.166  1.00  0.00     0.074 A 
ATOM     37  C   UNL A   1      37.463  30.354  28.163  1.00  0.00     0.031 C 
ATOM     38  C   UNL A   1      42.296  28.119  31.412  1.00  0.00     0.029 A 
ATOM     39  C   UNL A   1      43.112  27.524  30.360  1.00  0.00     0.049 A 
ATOM     40  H   UNL A   1      42.269  26.195  28.929  1.00  0.00     0.167 HD
ATOM     41  C   UNL A   1      38.147  31.971  30.101  1.00  0.00     0.034 A 
ATOM     42  C   UNL A   1      44.331  27.963  29.924  1.00  0.00     0.034 A 
ATOM     43  C   UNL A   1      39.390  32.107  30.886  1.00  0.00     0.049 A 
ATOM     44  C   UNL A   1      44.495  29.451  30.189  1.00  0.00     0.074 A 
ATOM     45  C   UNL A   1      39.767  31.612  32.123  1.00  0.00     0.029 A 
ATOM     46  N   UNL A   1      40.554  32.571  30.278  1.00  0.00    -0.354 N 
ATOM     47  N   UNL A   1      43.542  30.228  30.625  1.00  0.00    -0.248 NA
ATOM     48  C   UNL A   1      45.719  30.191  29.893  1.00  0.00     0.031 C 
ATOM     49  C   UNL A   1      41.187  31.663  32.198  1.00  0.00     0.029 A 
ATOM     50  C   UNL A   1      41.673  32.239  31.035  1.00  0.00     0.049 A 
ATOM     51  H   UNL A   1      40.582  33.067  29.428  1.00  0.00     0.167 HD
ATOM     52  C   UNL A   1      43.914  31.533  30.470  1.00  0.00     0.074 A 
ATOM     53  C   UNL A   1      45.319  31.455  30.105  1.00  0.00     0.031 C 
ATOM     54  C   UNL A   1      43.017  32.560  30.554  1.00  0.00     0.034 A 
BRANCH  41  55
ATOM     55  C   UNL A   1      36.846  32.648  30.541  1.00  0.00     0.023 A 
ATOM     56  C   UNL A   1      36.423  32.406  31.872  1.00  0.00     0.012 A 
ATOM     57  C   UNL A   1      35.951  33.409  29.751  1.00  0.00     0.148 A 
ATOM     58  C   UNL A   1      35.178  32.821  32.364  1.00  0.00     0.002 A 
ATOM     59  C   UNL A   1      34.707  33.832  30.242  1.00  0.00     0.091 A 
ATOM     60  F   UNL A   1      36.270  33.733  28.500  1.00  0.00    -0.205 F 
ATOM     61  C   UNL A   1      34.312  33.526  31.545  1.00  0.00     0.022 A 
BRANCH  59  62
ATOM     62  S   UNL A   1      33.525  34.759  29.239  1.00  0.00     0.127 S 
ATOM     63  O   UNL A   1      33.112  33.760  28.253  1.00  0.00    -0.237 OA
ATOM     64  O   UNL A   1      32.494  35.113  30.214  1.00  0.00    -0.237 OA
ATOM     65  O   UNL A   1      34.253  35.895  28.683  1.00  0.00    -0.744 OA
ENDBRANCH  59  62
ENDBRANCH  41  55
BRANCH  42  66
ATOM     66  C   UNL A   1      44.805  27.294  28.658  1.00  0.00     0.023 A 
ATOM     67  C   UNL A   1      44.321  27.775  27.412  1.00  0.00     0.012 A 
ATOM     68  C   UNL A   1      45.985  26.535  28.665  1.00  0.00     0.148 A 
ATOM     69  C   UNL A   1      45.071  27.621  26.240  1.00  0.00     0.002 A 
ATOM     70  C   UNL A   1      46.748  26.431  27.509  1.00  0.00     0.091 A 
ATOM     71  F   UNL A   1      46.404  25.989  29.812  1.00  0.00    -0.205 F 
ATOM     72  C   UNL A   1      46.304  26.982  26.297  1.00  0.00     0.022 A 
BRANCH  70  73
ATOM     73  S   UNL A   1      48.449  25.867  27.606  1.00  0.00     0.127 S 
ATOM     74  O   UNL A   1      48.264  24.445  27.884  1.00  0.00    -0.237 OA
ATOM     75  O   UNL A   1      49.020  26.129  26.293  1.00  0.00    -0.237 OA
ATOM     76  O   UNL A   1      48.973  26.660  28.713  1.00  0.00    -0.744 OA
ENDBRANCH  70  73
ENDBRANCH  42  66
BRANCH  54  77
ATOM     77  C   UNL A   1      43.348  33.980  30.169  1.00  0.00     0.023 A 
ATOM     78  C   UNL A   1      43.615  34.975  31.130  1.00  0.00     0.012 A 
ATOM     79  C   UNL A   1      43.539  34.325  28.811  1.00  0.00     0.148 A 
ATOM     80  C   UNL A   1      43.960  36.278  30.761  1.00  0.00     0.002 A 
ATOM     81  C   UNL A   1      43.996  35.590  28.456  1.00  0.00     0.091 A 
ATOM     82  F   UNL A   1      43.265  33.430  27.851  1.00  0.00    -0.205 F 
ATOM     83  C   UNL A   1      44.169  36.583  29.422  1.00  0.00     0.022 A 
BRANCH  81  84
ATOM     84  S   UNL A   1      44.522  35.910  26.768  1.00  0.00     0.127 S 
ATOM     85  O   UNL A   1      43.311  35.621  26.005  1.00  0.00    -0.237 OA
ATOM     86  O   UNL A   1      44.892  37.326  26.807  1.00  0.00    -0.237 OA
ATOM     87  O   UNL A   1      45.649  35.007  26.565  1.00  0.00    -0.744 OA
ENDBRANCH  81  84
ENDBRANCH  54  77
ENDBRANCH  28  29
ENDBRANCH  21  23
ENDBRANCH  20  21
ENDBRANCH   1  20
TORSDOF 16
ENDMDL
