MODEL 1
REMARK VINA RESULT:      -9.9      0.000      0.000
REMARK SMILES CCCNC(=O)CN(C)C(=O)c1csc(/C=C/C(=O)OCCOC(=O)c2ccc(-c3c4nc(c(-c5cccc(S(=O)(=O)[O-])c5F)c5ccc([nH]5)c(-c5cccc(S(=O)(=O)[O-])c5F)c5nc(c(-c6cccc(S(=O)(=O)[O-])c6F)c6ccc3[nH]6)C=C5)C=C4)cc2)c1
REMARK SMILES IDX 18 1 19 2 17 3 16 4 15 5 12 6 13 7 89 8 14 9 10 10 11 11
REMARK SMILES IDX 8 12 9 13 7 14 5 15 4 16 6 18 3 19 2 20 1 21 20 22 21 23
REMARK SMILES IDX 22 24 23 25 24 26 25 27 26 28 27 29 88 30 28 31 87 32 29 33
REMARK SMILES IDX 30 34 31 35 81 36 32 37 86 38 80 39 82 40 33 41 85 42 79 43
REMARK SMILES IDX 78 44 34 46 66 47 46 48 65 49 47 50 50 51 64 52 83 53 48 54
REMARK SMILES IDX 49 55 63 57 84 58 51 59 35 60 36 61 44 62 37 63 39 64 45 65
REMARK SMILES IDX 38 66 40 67 41 68 42 69 43 70 67 71 68 72 76 73 69 74 71 75
REMARK SMILES IDX 77 76 70 77 72 78 73 79 74 80 75 81 52 82 53 83 61 84 54 85
REMARK SMILES IDX 56 86 62 87 55 88 57 89 58 90 59 91 60 92
REMARK H PARENT 4 17 82 45 50 56
REMARK Flexibility Score: inf
ROOT
ATOM      1  C   UNL A   1      37.515  22.747  25.763  1.00  0.00     0.330 C 
ATOM      2  O   UNL A   1      38.164  23.694  25.344  1.00  0.00    -0.247 OA
ENDROOT
BRANCH   1   3
ATOM      3  C   UNL A   1      36.055  22.848  25.949  1.00  0.00     0.095 C 
ATOM      4  C   UNL A   1      35.361  23.995  26.001  1.00  0.00     0.026 C 
BRANCH   4   5
ATOM      5  C   UNL A   1      33.950  24.034  26.224  1.00  0.00     0.028 A 
ATOM      6  C   UNL A   1      31.715  24.829  26.290  1.00  0.00     0.051 A 
ATOM      7  C   UNL A   1      31.592  23.582  26.866  1.00  0.00     0.079 A 
ATOM      8  C   UNL A   1      33.080  25.059  25.896  1.00  0.00     0.033 A 
ATOM      9  S   UNL A   1      33.089  22.776  27.025  1.00  0.00    -0.144 S 
BRANCH   6  10
ATOM     10  C   UNL A   1      30.632  25.771  26.004  1.00  0.00     0.254 C 
ATOM     11  O   UNL A   1      29.524  25.577  26.500  1.00  0.00    -0.269 OA
BRANCH  10  12
ATOM     12  N   UNL A   1      30.849  26.823  25.107  1.00  0.00    -0.332 N 
ATOM     13  C   UNL A   1      31.407  28.120  25.458  1.00  0.00     0.147 C 
BRANCH  12  14
ATOM     14  C   UNL A   1      30.281  26.653  23.768  1.00  0.00     0.219 C 
BRANCH  14  15
ATOM     15  C   UNL A   1      31.262  26.156  22.688  1.00  0.00     0.239 C 
ATOM     16  N   UNL A   1      31.414  24.825  22.414  1.00  0.00    -0.355 N 
ATOM     17  H   UNL A   1      31.949  24.622  21.613  1.00  0.00     0.163 HD
ATOM     18  O   UNL A   1      32.064  26.930  22.154  1.00  0.00    -0.273 OA
BRANCH  16  19
ATOM     19  C   UNL A   1      30.909  23.669  23.123  1.00  0.00     0.115 C 
BRANCH  19  20
ATOM     20  C   UNL A   1      31.947  22.564  23.287  1.00  0.00     0.018 C 
ATOM     21  C   UNL A   1      33.301  22.949  22.705  1.00  0.00     0.006 C 
ENDBRANCH  19  20
ENDBRANCH  16  19
ENDBRANCH  14  15
ENDBRANCH  12  14
ENDBRANCH  10  12
ENDBRANCH   6  10
ENDBRANCH   4   5
ENDBRANCH   1   3
BRANCH   1  22
ATOM     22  O   UNL A   1      37.999  21.516  26.057  1.00  0.00    -0.459 OA
BRANCH  22  23
ATOM     23  C   UNL A   1      37.836  20.525  25.026  1.00  0.00     0.275 C 
BRANCH  23  24
ATOM     24  C   UNL A   1      38.902  19.428  25.130  1.00  0.00     0.275 C 
BRANCH  24  25
ATOM     25  O   UNL A   1      39.584  19.450  26.396  1.00  0.00    -0.458 OA
BRANCH  25  26
ATOM     26  C   UNL A   1      40.919  19.673  26.324  1.00  0.00     0.338 C 
ATOM     27  O   UNL A   1      41.772  18.880  25.959  1.00  0.00    -0.246 OA
BRANCH  26  28
ATOM     28  C   UNL A   1      41.225  21.079  26.652  1.00  0.00     0.060 A 
ATOM     29  C   UNL A   1      41.295  21.994  25.597  1.00  0.00     0.016 A 
ATOM     30  C   UNL A   1      41.518  21.483  27.958  1.00  0.00     0.016 A 
ATOM     31  C   UNL A   1      41.675  23.314  25.841  1.00  0.00     0.010 A 
ATOM     32  C   UNL A   1      41.902  22.807  28.200  1.00  0.00     0.010 A 
ATOM     33  C   UNL A   1      42.002  23.726  27.140  1.00  0.00    -0.014 A 
BRANCH  33  34
ATOM     34  C   UNL A   1      42.500  25.105  27.368  1.00  0.00     0.031 A 
ATOM     35  C   UNL A   1      41.613  26.127  28.022  1.00  0.00     0.074 A 
ATOM     36  C   UNL A   1      43.751  25.436  26.998  1.00  0.00     0.049 A 
ATOM     37  N   UNL A   1      41.876  27.371  28.331  1.00  0.00    -0.248 NA
ATOM     38  C   UNL A   1      40.251  25.695  28.374  1.00  0.00     0.031 C 
ATOM     39  C   UNL A   1      44.701  24.538  26.341  1.00  0.00     0.029 A 
ATOM     40  N   UNL A   1      44.433  26.623  27.111  1.00  0.00    -0.354 N 
ATOM     41  C   UNL A   1      40.710  27.879  28.891  1.00  0.00     0.074 A 
ATOM     42  C   UNL A   1      39.732  26.812  28.868  1.00  0.00     0.031 C 
ATOM     43  C   UNL A   1      45.838  25.209  26.097  1.00  0.00     0.029 A 
ATOM     44  C   UNL A   1      45.693  26.587  26.564  1.00  0.00     0.049 A 
ATOM     45  H   UNL A   1      44.054  27.422  27.544  1.00  0.00     0.167 HD
ATOM     46  C   UNL A   1      40.481  29.115  29.397  1.00  0.00     0.034 A 
ATOM     47  C   UNL A   1      46.623  27.556  26.445  1.00  0.00     0.034 A 
ATOM     48  C   UNL A   1      41.461  30.167  29.443  1.00  0.00     0.049 A 
ATOM     49  C   UNL A   1      46.343  28.919  27.020  1.00  0.00     0.074 A 
ATOM     50  C   UNL A   1      41.337  31.436  29.984  1.00  0.00     0.029 A 
ATOM     51  N   UNL A   1      42.744  30.078  28.926  1.00  0.00    -0.354 N 
ATOM     52  N   UNL A   1      45.283  29.341  27.667  1.00  0.00    -0.248 NA
ATOM     53  C   UNL A   1      47.401  29.931  26.880  1.00  0.00     0.031 C 
ATOM     54  C   UNL A   1      42.540  32.119  29.778  1.00  0.00     0.029 A 
ATOM     55  C   UNL A   1      43.420  31.269  29.127  1.00  0.00     0.049 A 
ATOM     56  H   UNL A   1      43.119  29.283  28.482  1.00  0.00     0.167 HD
ATOM     57  C   UNL A   1      45.559  30.651  28.041  1.00  0.00     0.074 A 
ATOM     58  C   UNL A   1      46.895  30.948  27.565  1.00  0.00     0.031 C 
ATOM     59  C   UNL A   1      44.770  31.535  28.702  1.00  0.00     0.034 A 
BRANCH  46  60
ATOM     60  C   UNL A   1      39.121  29.387  29.985  1.00  0.00     0.023 A 
ATOM     61  C   UNL A   1      38.840  28.967  31.300  1.00  0.00     0.012 A 
ATOM     62  C   UNL A   1      38.149  30.110  29.265  1.00  0.00     0.148 A 
ATOM     63  C   UNL A   1      37.602  29.239  31.882  1.00  0.00     0.002 A 
ATOM     64  C   UNL A   1      36.931  30.409  29.865  1.00  0.00     0.091 A 
ATOM     65  F   UNL A   1      38.427  30.481  28.007  1.00  0.00    -0.205 F 
ATOM     66  C   UNL A   1      36.652  29.966  31.170  1.00  0.00     0.022 A 
BRANCH  64  67
ATOM     67  S   UNL A   1      35.673  31.401  29.055  1.00  0.00     0.127 S 
ATOM     68  O   UNL A   1      36.483  32.424  28.396  1.00  0.00    -0.237 OA
ATOM     69  O   UNL A   1      35.053  30.436  28.145  1.00  0.00    -0.237 OA
ATOM     70  O   UNL A   1      34.798  31.879  30.115  1.00  0.00    -0.744 OA
ENDBRANCH  64  67
ENDBRANCH  46  60
BRANCH  47  71
ATOM     71  C   UNL A   1      47.932  27.252  25.801  1.00  0.00     0.023 A 
ATOM     72  C   UNL A   1      48.978  26.718  26.577  1.00  0.00     0.012 A 
ATOM     73  C   UNL A   1      48.134  27.460  24.424  1.00  0.00     0.148 A 
ATOM     74  C   UNL A   1      50.212  26.420  25.996  1.00  0.00     0.002 A 
ATOM     75  C   UNL A   1      49.348  27.112  23.842  1.00  0.00     0.091 A 
ATOM     76  F   UNL A   1      47.132  27.990  23.706  1.00  0.00    -0.205 F 
ATOM     77  C   UNL A   1      50.393  26.605  24.628  1.00  0.00     0.022 A 
BRANCH  75  78
ATOM     78  S   UNL A   1      49.619  27.200  22.068  1.00  0.00     0.127 S 
ATOM     79  O   UNL A   1      51.017  26.793  21.960  1.00  0.00    -0.237 OA
ATOM     80  O   UNL A   1      48.653  26.224  21.562  1.00  0.00    -0.237 OA
ATOM     81  O   UNL A   1      49.328  28.578  21.697  1.00  0.00    -0.744 OA
ENDBRANCH  75  78
ENDBRANCH  47  71
BRANCH  59  82
ATOM     82  C   UNL A   1      45.335  32.902  28.986  1.00  0.00     0.023 A 
ATOM     83  C   UNL A   1      46.108  33.110  30.145  1.00  0.00     0.012 A 
ATOM     84  C   UNL A   1      45.167  33.958  28.068  1.00  0.00     0.148 A 
ATOM     85  C   UNL A   1      46.683  34.355  30.399  1.00  0.00     0.002 A 
ATOM     86  C   UNL A   1      45.779  35.183  28.307  1.00  0.00     0.091 A 
ATOM     87  F   UNL A   1      44.409  33.748  26.982  1.00  0.00    -0.205 F 
ATOM     88  C   UNL A   1      46.529  35.387  29.476  1.00  0.00     0.022 A 
BRANCH  86  89
ATOM     89  S   UNL A   1      45.708  36.536  27.126  1.00  0.00     0.127 S 
ATOM     90  O   UNL A   1      44.272  36.797  27.056  1.00  0.00    -0.237 OA
ATOM     91  O   UNL A   1      46.486  37.579  27.797  1.00  0.00    -0.237 OA
ATOM     92  O   UNL A   1      46.316  36.028  25.903  1.00  0.00    -0.744 OA
ENDBRANCH  86  89
ENDBRANCH  59  82
ENDBRANCH  33  34
ENDBRANCH  26  28
ENDBRANCH  25  26
ENDBRANCH  24  25
ENDBRANCH  23  24
ENDBRANCH  22  23
ENDBRANCH   1  22
TORSDOF 21
ENDMDL
MODEL 2
REMARK VINA RESULT:      -9.7      5.574      9.212
REMARK SMILES CCCNC(=O)CN(C)C(=O)c1csc(/C=C/C(=O)OCCOC(=O)c2ccc(-c3c4nc(c(-c5cccc(S(=O)(=O)[O-])c5F)c5ccc([nH]5)c(-c5cccc(S(=O)(=O)[O-])c5F)c5nc(c(-c6cccc(S(=O)(=O)[O-])c6F)c6ccc3[nH]6)C=C5)C=C4)cc2)c1
REMARK SMILES IDX 18 1 19 2 17 3 16 4 15 5 12 6 13 7 89 8 14 9 10 10 11 11
REMARK SMILES IDX 8 12 9 13 7 14 5 15 4 16 6 18 3 19 2 20 1 21 20 22 21 23
REMARK SMILES IDX 22 24 23 25 24 26 25 27 26 28 27 29 88 30 28 31 87 32 29 33
REMARK SMILES IDX 30 34 31 35 81 36 32 37 86 38 80 39 82 40 33 41 85 42 79 43
REMARK SMILES IDX 78 44 34 46 66 47 46 48 65 49 47 50 50 51 64 52 83 53 48 54
REMARK SMILES IDX 49 55 63 57 84 58 51 59 35 60 36 61 44 62 37 63 39 64 45 65
REMARK SMILES IDX 38 66 40 67 41 68 42 69 43 70 67 71 68 72 76 73 69 74 71 75
REMARK SMILES IDX 77 76 70 77 72 78 73 79 74 80 75 81 52 82 53 83 61 84 54 85
REMARK SMILES IDX 56 86 62 87 55 88 57 89 58 90 59 91 60 92
REMARK H PARENT 4 17 82 45 50 56
REMARK Flexibility Score: inf
ROOT
ATOM      1  C   UNL A   1      34.162  29.479  26.922  1.00  0.00     0.330 C 
ATOM      2  O   UNL A   1      34.734  29.520  28.002  1.00  0.00    -0.247 OA
ENDROOT
BRANCH   1   3
ATOM      3  C   UNL A   1      34.135  28.241  26.121  1.00  0.00     0.095 C 
ATOM      4  C   UNL A   1      33.632  28.135  24.881  1.00  0.00     0.026 C 
BRANCH   4   5
ATOM      5  C   UNL A   1      33.595  26.898  24.167  1.00  0.00     0.028 A 
ATOM      6  C   UNL A   1      33.779  24.580  23.692  1.00  0.00     0.051 A 
ATOM      7  C   UNL A   1      33.411  25.094  22.467  1.00  0.00     0.079 A 
ATOM      8  C   UNL A   1      33.849  25.634  24.670  1.00  0.00     0.033 A 
ATOM      9  S   UNL A   1      33.269  26.796  22.479  1.00  0.00    -0.144 S 
BRANCH   6  10
ATOM     10  C   UNL A   1      33.978  23.169  24.025  1.00  0.00     0.254 C 
ATOM     11  O   UNL A   1      35.118  22.706  24.014  1.00  0.00    -0.269 OA
BRANCH  10  12
ATOM     12  N   UNL A   1      32.868  22.351  24.262  1.00  0.00    -0.332 N 
ATOM     13  C   UNL A   1      31.542  22.826  24.630  1.00  0.00     0.147 C 
BRANCH  12  14
ATOM     14  C   UNL A   1      33.133  20.913  24.336  1.00  0.00     0.219 C 
BRANCH  14  15
ATOM     15  C   UNL A   1      33.390  20.356  25.751  1.00  0.00     0.239 C 
ATOM     16  N   UNL A   1      33.174  19.041  26.055  1.00  0.00    -0.355 N 
ATOM     17  H   UNL A   1      33.507  18.756  26.936  1.00  0.00     0.163 HD
ATOM     18  O   UNL A   1      33.638  21.113  26.696  1.00  0.00    -0.273 OA
BRANCH  16  19
ATOM     19  C   UNL A   1      32.530  18.004  25.278  1.00  0.00     0.115 C 
BRANCH  19  20
ATOM     20  C   UNL A   1      33.264  16.668  25.335  1.00  0.00     0.018 C 
ATOM     21  C   UNL A   1      34.676  16.757  24.773  1.00  0.00     0.006 C 
ENDBRANCH  19  20
ENDBRANCH  16  19
ENDBRANCH  14  15
ENDBRANCH  12  14
ENDBRANCH  10  12
ENDBRANCH   6  10
ENDBRANCH   4   5
ENDBRANCH   1   3
BRANCH   1  22
ATOM     22  O   UNL A   1      33.464  30.490  26.352  1.00  0.00    -0.459 OA
BRANCH  22  23
ATOM     23  C   UNL A   1      32.152  30.722  26.897  1.00  0.00     0.275 C 
BRANCH  23  24
ATOM     24  C   UNL A   1      31.817  32.217  26.939  1.00  0.00     0.275 C 
BRANCH  24  25
ATOM     25  O   UNL A   1      32.995  33.040  26.869  1.00  0.00    -0.458 OA
BRANCH  25  26
ATOM     26  C   UNL A   1      33.225  33.804  27.965  1.00  0.00     0.338 C 
ATOM     27  O   UNL A   1      32.563  34.759  28.340  1.00  0.00    -0.246 OA
BRANCH  26  28
ATOM     28  C   UNL A   1      34.358  33.263  28.741  1.00  0.00     0.060 A 
ATOM     29  C   UNL A   1      35.650  33.517  28.271  1.00  0.00     0.016 A 
ATOM     30  C   UNL A   1      34.161  32.454  29.864  1.00  0.00     0.016 A 
ATOM     31  C   UNL A   1      36.750  32.949  28.912  1.00  0.00     0.010 A 
ATOM     32  C   UNL A   1      35.267  31.882  30.504  1.00  0.00     0.010 A 
ATOM     33  C   UNL A   1      36.567  32.110  30.020  1.00  0.00    -0.014 A 
BRANCH  33  34
ATOM     34  C   UNL A   1      37.739  31.434  30.629  1.00  0.00     0.031 A 
ATOM     35  C   UNL A   1      38.114  31.718  32.057  1.00  0.00     0.074 A 
ATOM     36  C   UNL A   1      38.458  30.557  29.905  1.00  0.00     0.049 A 
ATOM     37  N   UNL A   1      39.083  31.208  32.773  1.00  0.00    -0.248 NA
ATOM     38  C   UNL A   1      37.294  32.708  32.774  1.00  0.00     0.031 C 
ATOM     39  C   UNL A   1      38.204  30.209  28.507  1.00  0.00     0.029 A 
ATOM     40  N   UNL A   1      39.559  29.808  30.243  1.00  0.00    -0.354 N 
ATOM     41  C   UNL A   1      39.007  31.828  34.014  1.00  0.00     0.074 A 
ATOM     42  C   UNL A   1      37.904  32.762  33.951  1.00  0.00     0.031 C 
ATOM     43  C   UNL A   1      39.130  29.325  28.102  1.00  0.00     0.029 A 
ATOM     44  C   UNL A   1      40.053  29.056  29.204  1.00  0.00     0.049 A 
ATOM     45  H   UNL A   1      39.956  29.810  31.144  1.00  0.00     0.167 HD
ATOM     46  C   UNL A   1      39.772  31.622  35.113  1.00  0.00     0.034 A 
ATOM     47  C   UNL A   1      41.130  28.248  29.143  1.00  0.00     0.034 A 
ATOM     48  C   UNL A   1      40.852  30.674  35.184  1.00  0.00     0.049 A 
ATOM     49  C   UNL A   1      41.961  28.035  30.381  1.00  0.00     0.074 A 
ATOM     50  C   UNL A   1      41.651  30.359  36.270  1.00  0.00     0.029 A 
ATOM     51  N   UNL A   1      41.290  29.892  34.127  1.00  0.00    -0.354 N 
ATOM     52  N   UNL A   1      41.791  28.527  31.584  1.00  0.00    -0.248 NA
ATOM     53  C   UNL A   1      43.111  27.127  30.263  1.00  0.00     0.031 C 
ATOM     54  C   UNL A   1      42.583  29.398  35.864  1.00  0.00     0.029 A 
ATOM     55  C   UNL A   1      42.352  29.100  34.531  1.00  0.00     0.049 A 
ATOM     56  H   UNL A   1      40.902  29.898  33.222  1.00  0.00     0.167 HD
ATOM     57  C   UNL A   1      42.788  27.965  32.373  1.00  0.00     0.074 A 
ATOM     58  C   UNL A   1      43.547  27.077  31.515  1.00  0.00     0.031 C 
ATOM     59  C   UNL A   1      43.062  28.177  33.684  1.00  0.00     0.034 A 
BRANCH  46  60
ATOM     60  C   UNL A   1      39.441  32.412  36.352  1.00  0.00     0.023 A 
ATOM     61  C   UNL A   1      40.059  33.660  36.562  1.00  0.00     0.012 A 
ATOM     62  C   UNL A   1      38.478  31.953  37.272  1.00  0.00     0.148 A 
ATOM     63  C   UNL A   1      39.744  34.429  37.682  1.00  0.00     0.002 A 
ATOM     64  C   UNL A   1      38.141  32.741  38.366  1.00  0.00     0.091 A 
ATOM     65  F   UNL A   1      37.917  30.752  37.066  1.00  0.00    -0.205 F 
ATOM     66  C   UNL A   1      38.780  33.975  38.578  1.00  0.00     0.022 A 
BRANCH  64  67
ATOM     67  S   UNL A   1      36.861  32.275  39.536  1.00  0.00     0.127 S 
ATOM     68  O   UNL A   1      35.648  32.655  38.813  1.00  0.00    -0.237 OA
ATOM     69  O   UNL A   1      37.067  30.831  39.664  1.00  0.00    -0.237 OA
ATOM     70  O   UNL A   1      37.133  33.033  40.749  1.00  0.00    -0.744 OA
ENDBRANCH  64  67
ENDBRANCH  46  60
BRANCH  47  71
ATOM     71  C   UNL A   1      41.450  27.534  27.876  1.00  0.00     0.023 A 
ATOM     72  C   UNL A   1      41.918  28.266  26.767  1.00  0.00     0.012 A 
ATOM     73  C   UNL A   1      41.324  26.136  27.772  1.00  0.00     0.148 A 
ATOM     74  C   UNL A   1      42.230  27.620  25.570  1.00  0.00     0.002 A 
ATOM     75  C   UNL A   1      41.687  25.493  26.595  1.00  0.00     0.091 A 
ATOM     76  F   UNL A   1      40.856  25.459  28.832  1.00  0.00    -0.205 F 
ATOM     77  C   UNL A   1      42.127  26.234  25.488  1.00  0.00     0.022 A 
BRANCH  75  78
ATOM     78  S   UNL A   1      41.704  23.702  26.447  1.00  0.00     0.127 S 
ATOM     79  O   UNL A   1      40.279  23.385  26.496  1.00  0.00    -0.237 OA
ATOM     80  O   UNL A   1      42.333  23.509  25.140  1.00  0.00    -0.237 OA
ATOM     81  O   UNL A   1      42.500  23.227  27.570  1.00  0.00    -0.744 OA
ENDBRANCH  75  78
ENDBRANCH  47  71
BRANCH  59  82
ATOM     82  C   UNL A   1      44.212  27.416  34.292  1.00  0.00     0.023 A 
ATOM     83  C   UNL A   1      45.453  28.057  34.475  1.00  0.00     0.012 A 
ATOM     84  C   UNL A   1      44.040  26.096  34.753  1.00  0.00     0.148 A 
ATOM     85  C   UNL A   1      46.514  27.386  35.084  1.00  0.00     0.002 A 
ATOM     86  C   UNL A   1      45.089  25.449  35.398  1.00  0.00     0.091 A 
ATOM     87  F   UNL A   1      42.859  25.495  34.551  1.00  0.00    -0.205 F 
ATOM     88  C   UNL A   1      46.329  26.089  35.555  1.00  0.00     0.022 A 
BRANCH  86  89
ATOM     89  S   UNL A   1      44.908  23.812  36.117  1.00  0.00     0.127 S 
ATOM     90  O   UNL A   1      44.952  24.108  37.548  1.00  0.00    -0.237 OA
ATOM     91  O   UNL A   1      43.595  23.395  35.620  1.00  0.00    -0.237 OA
ATOM     92  O   UNL A   1      46.022  23.026  35.602  1.00  0.00    -0.744 OA
ENDBRANCH  86  89
ENDBRANCH  59  82
ENDBRANCH  33  34
ENDBRANCH  26  28
ENDBRANCH  25  26
ENDBRANCH  24  25
ENDBRANCH  23  24
ENDBRANCH  22  23
ENDBRANCH   1  22
TORSDOF 21
ENDMDL
MODEL 3
REMARK VINA RESULT:      -9.6      6.252     11.338
REMARK SMILES CCCNC(=O)CN(C)C(=O)c1csc(/C=C/C(=O)OCCOC(=O)c2ccc(-c3c4nc(c(-c5cccc(S(=O)(=O)[O-])c5F)c5ccc([nH]5)c(-c5cccc(S(=O)(=O)[O-])c5F)c5nc(c(-c6cccc(S(=O)(=O)[O-])c6F)c6ccc3[nH]6)C=C5)C=C4)cc2)c1
REMARK SMILES IDX 18 1 19 2 17 3 16 4 15 5 12 6 13 7 89 8 14 9 10 10 11 11
REMARK SMILES IDX 8 12 9 13 7 14 5 15 4 16 6 18 3 19 2 20 1 21 20 22 21 23
REMARK SMILES IDX 22 24 23 25 24 26 25 27 26 28 27 29 88 30 28 31 87 32 29 33
REMARK SMILES IDX 30 34 31 35 81 36 32 37 86 38 80 39 82 40 33 41 85 42 79 43
REMARK SMILES IDX 78 44 34 46 66 47 46 48 65 49 47 50 50 51 64 52 83 53 48 54
REMARK SMILES IDX 49 55 63 57 84 58 51 59 35 60 36 61 44 62 37 63 39 64 45 65
REMARK SMILES IDX 38 66 40 67 41 68 42 69 43 70 67 71 68 72 76 73 69 74 71 75
REMARK SMILES IDX 77 76 70 77 72 78 73 79 74 80 75 81 52 82 53 83 61 84 54 85
REMARK SMILES IDX 56 86 62 87 55 88 57 89 58 90 59 91 60 92
REMARK H PARENT 4 17 82 45 50 56
REMARK Flexibility Score: inf
ROOT
ATOM      1  C   UNL A   1      34.457  29.891  27.264  1.00  0.00     0.330 C 
ATOM      2  O   UNL A   1      34.982  29.585  28.325  1.00  0.00    -0.247 OA
ENDROOT
BRANCH   1   3
ATOM      3  C   UNL A   1      34.310  28.906  26.175  1.00  0.00     0.095 C 
ATOM      4  C   UNL A   1      33.507  27.832  26.210  1.00  0.00     0.026 C 
BRANCH   4   5
ATOM      5  C   UNL A   1      33.436  26.887  25.140  1.00  0.00     0.028 A 
ATOM      6  C   UNL A   1      33.484  24.824  23.968  1.00  0.00     0.051 A 
ATOM      7  C   UNL A   1      33.257  25.727  22.949  1.00  0.00     0.079 A 
ATOM      8  C   UNL A   1      33.552  25.511  25.230  1.00  0.00     0.033 A 
ATOM      9  S   UNL A   1      33.244  27.346  23.492  1.00  0.00    -0.144 S 
BRANCH   6  10
ATOM     10  C   UNL A   1      33.548  23.367  23.847  1.00  0.00     0.254 C 
ATOM     11  O   UNL A   1      34.582  22.846  23.434  1.00  0.00    -0.269 OA
BRANCH  10  12
ATOM     12  N   UNL A   1      32.409  22.600  24.117  1.00  0.00    -0.332 N 
ATOM     13  C   UNL A   1      31.142  23.126  24.602  1.00  0.00     0.147 C 
BRANCH  12  14
ATOM     14  C   UNL A   1      32.593  21.147  24.095  1.00  0.00     0.219 C 
BRANCH  14  15
ATOM     15  C   UNL A   1      32.147  20.440  22.800  1.00  0.00     0.239 C 
ATOM     16  N   UNL A   1      32.068  19.079  22.716  1.00  0.00    -0.355 N 
ATOM     17  H   UNL A   1      31.634  18.735  21.902  1.00  0.00     0.163 HD
ATOM     18  O   UNL A   1      32.010  21.073  21.746  1.00  0.00    -0.273 OA
BRANCH  16  19
ATOM     19  C   UNL A   1      32.524  18.065  23.643  1.00  0.00     0.115 C 
BRANCH  19  20
ATOM     20  C   UNL A   1      33.743  17.298  23.140  1.00  0.00     0.018 C 
ATOM     21  C   UNL A   1      34.370  16.430  24.223  1.00  0.00     0.006 C 
ENDBRANCH  19  20
ENDBRANCH  16  19
ENDBRANCH  14  15
ENDBRANCH  12  14
ENDBRANCH  10  12
ENDBRANCH   6  10
ENDBRANCH   4   5
ENDBRANCH   1   3
BRANCH   1  22
ATOM     22  O   UNL A   1      33.914  31.095  26.962  1.00  0.00    -0.459 OA
BRANCH  22  23
ATOM     23  C   UNL A   1      32.509  31.230  27.244  1.00  0.00     0.275 C 
BRANCH  23  24
ATOM     24  C   UNL A   1      32.075  32.700  27.242  1.00  0.00     0.275 C 
BRANCH  24  25
ATOM     25  O   UNL A   1      33.197  33.599  27.296  1.00  0.00    -0.458 OA
BRANCH  25  26
ATOM     26  C   UNL A   1      33.270  34.358  28.416  1.00  0.00     0.338 C 
ATOM     27  O   UNL A   1      32.528  35.278  28.722  1.00  0.00    -0.246 OA
BRANCH  26  28
ATOM     28  C   UNL A   1      34.330  33.856  29.311  1.00  0.00     0.060 A 
ATOM     29  C   UNL A   1      35.633  34.320  29.102  1.00  0.00     0.016 A 
ATOM     30  C   UNL A   1      34.074  32.888  30.287  1.00  0.00     0.016 A 
ATOM     31  C   UNL A   1      36.687  33.806  29.856  1.00  0.00     0.010 A 
ATOM     32  C   UNL A   1      35.134  32.371  31.040  1.00  0.00     0.010 A 
ATOM     33  C   UNL A   1      36.450  32.812  30.815  1.00  0.00    -0.014 A 
BRANCH  33  34
ATOM     34  C   UNL A   1      37.594  32.204  31.538  1.00  0.00     0.031 A 
ATOM     35  C   UNL A   1      38.366  31.075  30.914  1.00  0.00     0.074 A 
ATOM     36  C   UNL A   1      37.948  32.673  32.749  1.00  0.00     0.049 A 
ATOM     37  N   UNL A   1      39.409  30.434  31.374  1.00  0.00    -0.248 NA
ATOM     38  C   UNL A   1      37.902  30.602  29.600  1.00  0.00     0.031 C 
ATOM     39  C   UNL A   1      37.269  33.753  33.466  1.00  0.00     0.029 A 
ATOM     40  N   UNL A   1      38.959  32.291  33.596  1.00  0.00    -0.354 N 
ATOM     41  C   UNL A   1      39.714  29.469  30.422  1.00  0.00     0.074 A 
ATOM     42  C   UNL A   1      38.737  29.599  29.363  1.00  0.00     0.031 C 
ATOM     43  C   UNL A   1      37.875  33.938  34.650  1.00  0.00     0.029 A 
ATOM     44  C   UNL A   1      38.972  32.981  34.784  1.00  0.00     0.049 A 
ATOM     45  H   UNL A   1      39.613  31.589  33.372  1.00  0.00     0.167 HD
ATOM     46  C   UNL A   1      40.728  28.571  30.421  1.00  0.00     0.034 A 
ATOM     47  C   UNL A   1      39.771  32.853  35.862  1.00  0.00     0.034 A 
ATOM     48  C   UNL A   1      41.715  28.459  31.461  1.00  0.00     0.049 A 
ATOM     49  C   UNL A   1      40.893  31.849  35.831  1.00  0.00     0.074 A 
ATOM     50  C   UNL A   1      42.810  27.614  31.522  1.00  0.00     0.029 A 
ATOM     51  N   UNL A   1      41.727  29.211  32.626  1.00  0.00    -0.354 N 
ATOM     52  N   UNL A   1      41.248  31.037  34.865  1.00  0.00    -0.248 NA
ATOM     53  C   UNL A   1      41.746  31.767  37.026  1.00  0.00     0.031 C 
ATOM     54  C   UNL A   1      43.473  27.843  32.732  1.00  0.00     0.029 A 
ATOM     55  C   UNL A   1      42.803  28.845  33.416  1.00  0.00     0.049 A 
ATOM     56  H   UNL A   1      41.066  29.903  32.857  1.00  0.00     0.167 HD
ATOM     57  C   UNL A   1      42.383  30.374  35.319  1.00  0.00     0.074 A 
ATOM     58  C   UNL A   1      42.668  30.894  36.640  1.00  0.00     0.031 C 
ATOM     59  C   UNL A   1      43.112  29.410  34.704  1.00  0.00     0.034 A 
BRANCH  46  60
ATOM     60  C   UNL A   1      40.850  27.657  29.229  1.00  0.00     0.023 A 
ATOM     61  C   UNL A   1      40.068  26.486  29.173  1.00  0.00     0.012 A 
ATOM     62  C   UNL A   1      41.684  27.985  28.142  1.00  0.00     0.148 A 
ATOM     63  C   UNL A   1      40.133  25.641  28.066  1.00  0.00     0.002 A 
ATOM     64  C   UNL A   1      41.716  27.158  27.025  1.00  0.00     0.091 A 
ATOM     65  F   UNL A   1      42.437  29.092  28.224  1.00  0.00    -0.205 F 
ATOM     66  C   UNL A   1      40.949  25.981  26.989  1.00  0.00     0.022 A 
BRANCH  64  67
ATOM     67  S   UNL A   1      42.680  27.548  25.562  1.00  0.00     0.127 S 
ATOM     68  O   UNL A   1      44.042  27.539  26.094  1.00  0.00    -0.237 OA
ATOM     69  O   UNL A   1      42.366  26.427  24.674  1.00  0.00    -0.237 OA
ATOM     70  O   UNL A   1      42.195  28.840  25.097  1.00  0.00    -0.744 OA
ENDBRANCH  64  67
ENDBRANCH  46  60
BRANCH  47  71
ATOM     71  C   UNL A   1      39.573  33.741  37.042  1.00  0.00     0.023 A 
ATOM     72  C   UNL A   1      40.029  35.072  36.991  1.00  0.00     0.012 A 
ATOM     73  C   UNL A   1      38.911  33.285  38.197  1.00  0.00     0.148 A 
ATOM     74  C   UNL A   1      39.851  35.926  38.082  1.00  0.00     0.002 A 
ATOM     75  C   UNL A   1      38.690  34.155  39.258  1.00  0.00     0.091 A 
ATOM     76  F   UNL A   1      38.504  32.007  38.234  1.00  0.00    -0.205 F 
ATOM     77  C   UNL A   1      39.172  35.472  39.209  1.00  0.00     0.022 A 
BRANCH  75  78
ATOM     78  S   UNL A   1      37.715  33.688  40.693  1.00  0.00     0.127 S 
ATOM     79  O   UNL A   1      37.439  34.986  41.302  1.00  0.00    -0.237 OA
ATOM     80  O   UNL A   1      36.557  33.038  40.077  1.00  0.00    -0.237 OA
ATOM     81  O   UNL A   1      38.563  32.791  41.465  1.00  0.00    -0.744 OA
ENDBRANCH  75  78
ENDBRANCH  47  71
BRANCH  59  82
ATOM     82  C   UNL A   1      44.314  28.868  35.433  1.00  0.00     0.023 A 
ATOM     83  C   UNL A   1      45.571  29.480  35.255  1.00  0.00     0.012 A 
ATOM     84  C   UNL A   1      44.185  27.808  36.352  1.00  0.00     0.148 A 
ATOM     85  C   UNL A   1      46.686  29.026  35.961  1.00  0.00     0.002 A 
ATOM     86  C   UNL A   1      45.291  27.390  37.083  1.00  0.00     0.091 A 
ATOM     87  F   UNL A   1      42.985  27.224  36.491  1.00  0.00    -0.205 F 
ATOM     88  C   UNL A   1      46.544  27.991  36.882  1.00  0.00     0.022 A 
BRANCH  86  89
ATOM     89  S   UNL A   1      45.176  26.127  38.356  1.00  0.00     0.127 S 
ATOM     90  O   UNL A   1      46.502  26.197  38.967  1.00  0.00    -0.237 OA
ATOM     91  O   UNL A   1      44.088  26.627  39.198  1.00  0.00    -0.237 OA
ATOM     92  O   UNL A   1      44.871  24.884  37.657  1.00  0.00    -0.744 OA
ENDBRANCH  86  89
ENDBRANCH  59  82
ENDBRANCH  33  34
ENDBRANCH  26  28
ENDBRANCH  25  26
ENDBRANCH  24  25
ENDBRANCH  23  24
ENDBRANCH  22  23
ENDBRANCH   1  22
TORSDOF 21
ENDMDL
