MODEL 1
REMARK VINA RESULT:     -12.6      0.000      0.000
REMARK SMILES O=C(OCCOC(=O)[C@@H]1C[C@@H](O)CN1C(=O)C1(c2ccccc2)CC1)c1ccc(-c2c3nc(c(-c4cccc(S(=O)(=O)[O-])c4F)c4ccc([nH]4)c(-c4cccc(S(=O)(=O)[O-])c4F)c4nc(c(-c5cccc(S(=O)(=O)[O-])c5F)c5ccc2[nH]5)C=C4)C=C3)cc1
REMARK SMILES IDX 4 1 3 2 2 3 1 4 26 5 27 6 88 7 28 8 87 9 29 10 30 11 31 12
REMARK SMILES IDX 81 13 32 14 86 15 80 16 82 17 33 18 85 19 79 20 78 21 34 23
REMARK SMILES IDX 66 24 46 25 65 26 47 27 50 28 64 29 83 30 48 31 49 32 63 34
REMARK SMILES IDX 84 35 51 36 35 37 36 38 44 39 37 40 39 41 45 42 38 43 40 44
REMARK SMILES IDX 41 45 42 46 43 47 67 48 68 49 76 50 69 51 71 52 77 53 70 54
REMARK SMILES IDX 72 55 73 56 74 57 75 58 52 59 53 60 61 61 54 62 56 63 62 64
REMARK SMILES IDX 55 65 57 66 58 67 59 68 60 69 5 70 6 71 7 72 8 73 9 74 10 75
REMARK SMILES IDX 14 76 11 77 13 78 15 79 16 80 17 81 24 82 25 83 18 84 19 85
REMARK SMILES IDX 23 86 20 87 22 88 21 89 12 90
REMARK H PARENT 82 22 50 33 12 91
REMARK Flexibility Score: inf
ROOT
ATOM      1  C   UNL A   1      31.919  32.872  26.627  1.00  0.00     0.275 C 
ENDROOT
BRANCH   1   2
ATOM      2  O   UNL A   1      32.078  33.651  27.822  1.00  0.00    -0.458 OA
BRANCH   2   3
ATOM      3  C   UNL A   1      33.223  34.154  28.338  1.00  0.00     0.338 C 
ATOM      4  O   UNL A   1      33.463  35.350  28.198  1.00  0.00    -0.246 OA
BRANCH   3   5
ATOM      5  C   UNL A   1      34.292  33.302  28.943  1.00  0.00     0.060 A 
ATOM      6  C   UNL A   1      34.421  32.741  30.689  1.00  0.00     0.016 A 
ATOM      7  C   UNL A   1      35.610  32.753  27.756  1.00  0.00     0.016 A 
ATOM      8  C   UNL A   1      35.839  31.747  31.250  1.00  0.00     0.010 A 
ATOM      9  C   UNL A   1      37.098  31.899  28.393  1.00  0.00     0.010 A 
ATOM     10  C   UNL A   1      37.252  31.430  30.147  1.00  0.00    -0.014 A 
BRANCH  10  11
ATOM     11  C   UNL A   1      38.497  30.736  30.745  1.00  0.00     0.031 A 
ATOM     12  C   UNL A   1      39.245  31.167  32.024  1.00  0.00     0.074 A 
ATOM     13  C   UNL A   1      38.856  29.510  30.313  1.00  0.00     0.049 A 
ATOM     14  N   UNL A   1      39.655  30.354  32.978  1.00  0.00    -0.248 NA
ATOM     15  C   UNL A   1      39.338  32.573  32.423  1.00  0.00     0.031 C 
ATOM     16  C   UNL A   1      38.183  28.668  29.336  1.00  0.00     0.029 A 
ATOM     17  N   UNL A   1      40.016  28.825  30.541  1.00  0.00    -0.354 N 
ATOM     18  C   UNL A   1      39.783  31.135  34.125  1.00  0.00     0.074 A 
ATOM     19  C   UNL A   1      39.406  32.473  33.753  1.00  0.00     0.031 C 
ATOM     20  C   UNL A   1      39.070  27.844  28.765  1.00  0.00     0.029 A 
ATOM     21  C   UNL A   1      40.308  27.971  29.506  1.00  0.00     0.049 A 
ATOM     22  H   UNL A   1      40.572  28.930  31.346  1.00  0.00     0.167 HD
ATOM     23  C   UNL A   1      40.344  30.833  35.325  1.00  0.00     0.034 A 
ATOM     24  C   UNL A   1      41.472  27.381  29.202  1.00  0.00     0.034 A 
ATOM     25  C   UNL A   1      41.457  29.921  35.344  1.00  0.00     0.049 A 
ATOM     26  C   UNL A   1      42.487  27.385  30.293  1.00  0.00     0.074 A 
ATOM     27  C   UNL A   1      42.466  29.793  36.278  1.00  0.00     0.029 A 
ATOM     28  N   UNL A   1      41.825  29.160  34.239  1.00  0.00    -0.354 N 
ATOM     29  N   UNL A   1      42.421  28.012  31.444  1.00  0.00    -0.248 NA
ATOM     30  C   UNL A   1      43.650  26.516  30.133  1.00  0.00     0.031 C 
ATOM     31  C   UNL A   1      43.525  29.118  35.651  1.00  0.00     0.029 A 
ATOM     32  C   UNL A   1      43.104  28.682  34.400  1.00  0.00     0.049 A 
ATOM     33  H   UNL A   1      41.253  28.989  33.455  1.00  0.00     0.167 HD
ATOM     34  C   UNL A   1      43.483  27.549  32.190  1.00  0.00     0.074 A 
ATOM     35  C   UNL A   1      44.208  26.624  31.334  1.00  0.00     0.031 C 
ATOM     36  C   UNL A   1      43.801  27.819  33.478  1.00  0.00     0.034 A 
BRANCH  23  37
ATOM     37  C   UNL A   1      40.082  31.773  36.485  1.00  0.00     0.023 A 
ATOM     38  C   UNL A   1      41.106  32.634  36.940  1.00  0.00     0.012 A 
ATOM     39  C   UNL A   1      38.862  31.741  37.189  1.00  0.00     0.148 A 
ATOM     40  C   UNL A   1      40.940  33.393  38.106  1.00  0.00     0.002 A 
ATOM     41  C   UNL A   1      38.702  32.502  38.345  1.00  0.00     0.091 A 
ATOM     42  F   UNL A   1      37.899  30.922  36.750  1.00  0.00    -0.205 F 
ATOM     43  C   UNL A   1      39.745  33.314  38.817  1.00  0.00     0.022 A 
BRANCH  41  44
ATOM     44  S   UNL A   1      37.207  32.449  39.340  1.00  0.00     0.127 S 
ATOM     45  O   UNL A   1      36.181  32.785  38.353  1.00  0.00    -0.237 OA
ATOM     46  O   UNL A   1      37.188  31.059  39.791  1.00  0.00    -0.237 OA
ATOM     47  O   UNL A   1      37.389  33.437  40.395  1.00  0.00    -0.744 OA
ENDBRANCH  41  44
ENDBRANCH  23  37
BRANCH  24  48
ATOM     48  C   UNL A   1      41.623  26.737  27.878  1.00  0.00     0.023 A 
ATOM     49  C   UNL A   1      42.007  27.480  26.752  1.00  0.00     0.012 A 
ATOM     50  C   UNL A   1      41.533  25.330  27.782  1.00  0.00     0.148 A 
ATOM     51  C   UNL A   1      42.283  26.836  25.543  1.00  0.00     0.002 A 
ATOM     52  C   UNL A   1      41.833  24.693  26.584  1.00  0.00     0.091 A 
ATOM     53  F   UNL A   1      41.192  24.641  28.882  1.00  0.00    -0.205 F 
ATOM     54  C   UNL A   1      42.201  25.446  25.460  1.00  0.00     0.022 A 
BRANCH  52  55
ATOM     55  S   UNL A   1      41.858  22.903  26.420  1.00  0.00     0.127 S 
ATOM     56  O   UNL A   1      42.685  22.512  27.558  1.00  0.00    -0.237 OA
ATOM     57  O   UNL A   1      40.439  22.571  26.542  1.00  0.00    -0.237 OA
ATOM     58  O   UNL A   1      42.427  22.637  25.105  1.00  0.00    -0.744 OA
ENDBRANCH  52  55
ENDBRANCH  24  48
BRANCH  36  59
ATOM     59  C   UNL A   1      44.979  27.105  34.047  1.00  0.00     0.023 A 
ATOM     60  C   UNL A   1      46.255  27.688  34.004  1.00  0.00     0.012 A 
ATOM     61  C   UNL A   1      44.752  25.927  34.782  1.00  0.00     0.148 A 
ATOM     62  C   UNL A   1      47.306  27.095  34.693  1.00  0.00     0.002 A 
ATOM     63  C   UNL A   1      45.784  25.385  35.521  1.00  0.00     0.091 A 
ATOM     64  F   UNL A   1      43.522  25.392  34.767  1.00  0.00    -0.205 F 
ATOM     65  C   UNL A   1      47.066  25.960  35.469  1.00  0.00     0.022 A 
BRANCH  63  66
ATOM     66  S   UNL A   1      45.519  24.023  36.654  1.00  0.00     0.127 S 
ATOM     67  O   UNL A   1      44.660  24.643  37.662  1.00  0.00    -0.237 OA
ATOM     68  O   UNL A   1      44.852  23.043  35.798  1.00  0.00    -0.237 OA
ATOM     69  O   UNL A   1      46.837  23.622  37.126  1.00  0.00    -0.744 OA
ENDBRANCH  63  66
ENDBRANCH  36  59
ENDBRANCH  10  11
ENDBRANCH   3   5
ENDBRANCH   2   3
ENDBRANCH   1   2
BRANCH   1  70
ATOM     70  C   UNL A   1      32.027  31.361  26.897  1.00  0.00     0.274 C 
BRANCH  70  71
ATOM     71  O   UNL A   1      31.438  30.587  25.833  1.00  0.00    -0.461 OA
BRANCH  71  72
ATOM     72  C   UNL A   1      32.177  29.550  25.371  1.00  0.00     0.329 C 
ATOM     73  O   UNL A   1      33.078  29.038  26.030  1.00  0.00    -0.250 OA
BRANCH  72  74
ATOM     74  C   UNL A   1      31.781  29.067  23.924  1.00  0.00     0.197 C 
ATOM     75  C   UNL A   1      30.384  29.706  23.778  1.00  0.00     0.070 C 
ATOM     76  N   UNL A   1      31.664  27.400  23.282  1.00  0.00    -0.325 N 
ATOM     77  C   UNL A   1      29.855  29.118  22.519  1.00  0.00     0.136 C 
ATOM     78  C   UNL A   1      30.125  27.628  22.741  1.00  0.00     0.152 C 
BRANCH  76  79
ATOM     79  C   UNL A   1      33.029  25.975  22.960  1.00  0.00     0.234 C 
ATOM     80  O   UNL A   1      33.830  25.822  21.991  1.00  0.00    -0.274 OA
BRANCH  79  81
ATOM     81  C   UNL A   1      33.790  24.723  23.991  1.00  0.00     0.074 C 
ATOM     82  C   UNL A   1      35.059  24.769  24.847  1.00  0.00     0.023 C 
ATOM     83  C   UNL A   1      33.828  25.388  25.398  1.00  0.00     0.023 C 
BRANCH  81  84
ATOM     84  C   UNL A   1      33.104  23.340  24.089  1.00  0.00    -0.032 A 
ATOM     85  C   UNL A   1      33.875  22.175  23.932  1.00  0.00     0.005 A 
ATOM     86  C   UNL A   1      31.834  23.216  24.684  1.00  0.00     0.005 A 
ATOM     87  C   UNL A   1      33.427  20.952  24.427  1.00  0.00     0.000 A 
ATOM     88  C   UNL A   1      31.387  21.999  25.182  1.00  0.00     0.000 A 
ATOM     89  C   UNL A   1      32.189  20.868  25.061  1.00  0.00     0.000 A 
ENDBRANCH  81  84
ENDBRANCH  79  81
ENDBRANCH  76  79
BRANCH  77  90
ATOM     90  O   UNL A   1      30.545  29.646  21.396  1.00  0.00    -0.391 OA
ATOM     91  H   UNL A   1      30.001  30.328  20.973  1.00  0.00     0.211 HD
ENDBRANCH  77  90
ENDBRANCH  72  74
ENDBRANCH  71  72
ENDBRANCH  70  71
ENDBRANCH   1  70
TORSDOF 18
ENDMDL
MODEL 2
REMARK VINA RESULT:     -12.5      5.547     11.275
REMARK SMILES O=C(OCCOC(=O)[C@@H]1C[C@@H](O)CN1C(=O)C1(c2ccccc2)CC1)c1ccc(-c2c3nc(c(-c4cccc(S(=O)(=O)[O-])c4F)c4ccc([nH]4)c(-c4cccc(S(=O)(=O)[O-])c4F)c4nc(c(-c5cccc(S(=O)(=O)[O-])c5F)c5ccc2[nH]5)C=C4)C=C3)cc1
REMARK SMILES IDX 4 1 3 2 2 3 1 4 26 5 27 6 88 7 28 8 87 9 29 10 30 11 31 12
REMARK SMILES IDX 81 13 32 14 86 15 80 16 82 17 33 18 85 19 79 20 78 21 34 23
REMARK SMILES IDX 66 24 46 25 65 26 47 27 50 28 64 29 83 30 48 31 49 32 63 34
REMARK SMILES IDX 84 35 51 36 35 37 36 38 44 39 37 40 39 41 45 42 38 43 40 44
REMARK SMILES IDX 41 45 42 46 43 47 67 48 68 49 76 50 69 51 71 52 77 53 70 54
REMARK SMILES IDX 72 55 73 56 74 57 75 58 52 59 53 60 61 61 54 62 56 63 62 64
REMARK SMILES IDX 55 65 57 66 58 67 59 68 60 69 5 70 6 71 7 72 8 73 9 74 10 75
REMARK SMILES IDX 14 76 11 77 13 78 15 79 16 80 17 81 24 82 25 83 18 84 19 85
REMARK SMILES IDX 23 86 20 87 22 88 21 89 12 90
REMARK H PARENT 82 22 50 33 12 91
REMARK Flexibility Score: inf
ROOT
ATOM      1  C   UNL A   1      38.785  19.143  25.723  1.00  0.00     0.275 C 
ENDROOT
BRANCH   1   2
ATOM      2  O   UNL A   1      40.177  19.082  25.378  1.00  0.00    -0.458 OA
BRANCH   2   3
ATOM      3  C   UNL A   1      41.228  19.559  26.083  1.00  0.00     0.338 C 
ATOM      4  O   UNL A   1      41.921  18.772  26.722  1.00  0.00    -0.246 OA
BRANCH   3   5
ATOM      5  C   UNL A   1      41.508  21.018  26.251  1.00  0.00     0.060 A 
ATOM      6  C   UNL A   1      42.655  22.058  25.260  1.00  0.00     0.016 A 
ATOM      7  C   UNL A   1      40.551  21.839  27.614  1.00  0.00     0.016 A 
ATOM      8  C   UNL A   1      42.902  23.818  25.657  1.00  0.00     0.010 A 
ATOM      9  C   UNL A   1      40.952  23.561  28.086  1.00  0.00     0.010 A 
ATOM     10  C   UNL A   1      42.160  24.551  27.148  1.00  0.00    -0.014 A 
BRANCH  10  11
ATOM     11  C   UNL A   1      42.559  25.997  27.520  1.00  0.00     0.031 A 
ATOM     12  C   UNL A   1      43.990  26.575  27.495  1.00  0.00     0.074 A 
ATOM     13  C   UNL A   1      41.610  26.948  27.639  1.00  0.00     0.049 A 
ATOM     14  N   UNL A   1      44.330  27.747  26.995  1.00  0.00    -0.248 NA
ATOM     15  C   UNL A   1      45.159  25.746  27.795  1.00  0.00     0.031 C 
ATOM     16  C   UNL A   1      40.178  26.820  27.415  1.00  0.00     0.029 A 
ATOM     17  N   UNL A   1      41.714  28.206  28.161  1.00  0.00    -0.354 N 
ATOM     18  C   UNL A   1      45.687  27.661  26.691  1.00  0.00     0.074 A 
ATOM     19  C   UNL A   1      46.104  26.332  27.055  1.00  0.00     0.031 C 
ATOM     20  C   UNL A   1      39.526  27.737  28.141  1.00  0.00     0.029 A 
ATOM     21  C   UNL A   1      40.522  28.631  28.693  1.00  0.00     0.049 A 
ATOM     22  H   UNL A   1      42.541  28.740  28.154  1.00  0.00     0.167 HD
ATOM     23  C   UNL A   1      46.562  28.636  26.332  1.00  0.00     0.034 A 
ATOM     24  C   UNL A   1      40.292  29.633  29.552  1.00  0.00     0.034 A 
ATOM     25  C   UNL A   1      46.361  29.958  26.863  1.00  0.00     0.049 A 
ATOM     26  C   UNL A   1      41.406  30.611  29.697  1.00  0.00     0.074 A 
ATOM     27  C   UNL A   1      47.279  30.973  27.050  1.00  0.00     0.029 A 
ATOM     28  N   UNL A   1      45.196  30.334  27.524  1.00  0.00    -0.354 N 
ATOM     29  N   UNL A   1      42.616  30.526  29.194  1.00  0.00    -0.248 NA
ATOM     30  C   UNL A   1      41.114  31.868  30.382  1.00  0.00     0.031 C 
ATOM     31  C   UNL A   1      46.727  31.861  27.986  1.00  0.00     0.029 A 
ATOM     32  C   UNL A   1      45.412  31.488  28.241  1.00  0.00     0.049 A 
ATOM     33  H   UNL A   1      44.341  29.846  27.484  1.00  0.00     0.167 HD
ATOM     34  C   UNL A   1      43.209  31.750  29.419  1.00  0.00     0.074 A 
ATOM     35  C   UNL A   1      42.236  32.542  30.153  1.00  0.00     0.031 C 
ATOM     36  C   UNL A   1      44.420  32.197  29.011  1.00  0.00     0.034 A 
BRANCH  23  37
ATOM     37  C   UNL A   1      47.907  28.210  25.778  1.00  0.00     0.023 A 
ATOM     38  C   UNL A   1      49.045  28.209  26.615  1.00  0.00     0.012 A 
ATOM     39  C   UNL A   1      48.072  27.905  24.412  1.00  0.00     0.148 A 
ATOM     40  C   UNL A   1      50.323  27.974  26.089  1.00  0.00     0.002 A 
ATOM     41  C   UNL A   1      49.343  27.668  23.896  1.00  0.00     0.091 A 
ATOM     42  F   UNL A   1      46.986  27.909  23.628  1.00  0.00    -0.205 F 
ATOM     43  C   UNL A   1      50.473  27.720  24.728  1.00  0.00     0.022 A 
BRANCH  41  44
ATOM     44  S   UNL A   1      49.639  27.355  22.152  1.00  0.00     0.127 S 
ATOM     45  O   UNL A   1      51.062  27.018  22.149  1.00  0.00    -0.237 OA
ATOM     46  O   UNL A   1      48.745  26.229  21.887  1.00  0.00    -0.237 OA
ATOM     47  O   UNL A   1      49.300  28.588  21.457  1.00  0.00    -0.744 OA
ENDBRANCH  41  44
ENDBRANCH  23  37
BRANCH  24  48
ATOM     48  C   UNL A   1      38.970  29.720  30.212  1.00  0.00     0.023 A 
ATOM     49  C   UNL A   1      38.708  29.023  31.401  1.00  0.00     0.012 A 
ATOM     50  C   UNL A   1      38.015  30.639  29.723  1.00  0.00     0.148 A 
ATOM     51  C   UNL A   1      37.507  29.226  32.087  1.00  0.00     0.002 A 
ATOM     52  C   UNL A   1      36.834  30.855  30.422  1.00  0.00     0.091 A 
ATOM     53  F   UNL A   1      38.303  31.314  28.600  1.00  0.00    -0.205 F 
ATOM     54  C   UNL A   1      36.575  30.143  31.602  1.00  0.00     0.022 A 
BRANCH  52  55
ATOM     55  S   UNL A   1      35.629  32.094  29.928  1.00  0.00     0.127 S 
ATOM     56  O   UNL A   1      35.054  31.488  28.730  1.00  0.00    -0.237 OA
ATOM     57  O   UNL A   1      34.742  32.129  31.091  1.00  0.00    -0.237 OA
ATOM     58  O   UNL A   1      36.388  33.319  29.714  1.00  0.00    -0.744 OA
ENDBRANCH  52  55
ENDBRANCH  24  48
BRANCH  36  59
ATOM     59  C   UNL A   1      44.765  33.608  29.342  1.00  0.00     0.023 A 
ATOM     60  C   UNL A   1      45.375  33.924  30.567  1.00  0.00     0.012 A 
ATOM     61  C   UNL A   1      44.631  34.580  28.334  1.00  0.00     0.148 A 
ATOM     62  C   UNL A   1      45.851  35.211  30.786  1.00  0.00     0.002 A 
ATOM     63  C   UNL A   1      45.171  35.834  28.533  1.00  0.00     0.091 A 
ATOM     64  F   UNL A   1      44.013  34.237  27.194  1.00  0.00    -0.205 F 
ATOM     65  C   UNL A   1      45.771  36.157  29.763  1.00  0.00     0.022 A 
BRANCH  63  66
ATOM     66  S   UNL A   1      45.239  37.050  27.220  1.00  0.00     0.127 S 
ATOM     67  O   UNL A   1      46.024  38.114  27.845  1.00  0.00    -0.237 OA
ATOM     68  O   UNL A   1      45.933  36.316  26.162  1.00  0.00    -0.237 OA
ATOM     69  O   UNL A   1      43.859  37.399  26.914  1.00  0.00    -0.744 OA
ENDBRANCH  63  66
ENDBRANCH  36  59
ENDBRANCH  10  11
ENDBRANCH   3   5
ENDBRANCH   2   3
ENDBRANCH   1   2
BRANCH   1  70
ATOM     70  C   UNL A   1      38.048  20.274  24.983  1.00  0.00     0.274 C 
BRANCH  70  71
ATOM     71  O   UNL A   1      36.618  20.105  25.044  1.00  0.00    -0.461 OA
BRANCH  71  72
ATOM     72  C   UNL A   1      35.911  21.174  25.485  1.00  0.00     0.329 C 
ATOM     73  O   UNL A   1      36.443  22.243  25.772  1.00  0.00    -0.250 OA
BRANCH  72  74
ATOM     74  C   UNL A   1      34.359  20.921  25.597  1.00  0.00     0.197 C 
ATOM     75  C   UNL A   1      34.216  19.630  24.764  1.00  0.00     0.070 C 
ATOM     76  N   UNL A   1      33.004  21.995  25.135  1.00  0.00    -0.325 N 
ATOM     77  C   UNL A   1      32.745  19.446  24.646  1.00  0.00     0.136 C 
ATOM     78  C   UNL A   1      32.298  20.839  24.198  1.00  0.00     0.152 C 
BRANCH  76  79
ATOM     79  C   UNL A   1      32.372  23.757  25.841  1.00  0.00     0.234 C 
ATOM     80  O   UNL A   1      31.807  24.036  26.938  1.00  0.00    -0.274 OA
BRANCH  79  81
ATOM     81  C   UNL A   1      32.671  25.462  25.380  1.00  0.00     0.074 C 
ATOM     82  C   UNL A   1      33.763  26.440  25.823  1.00  0.00     0.023 C 
ATOM     83  C   UNL A   1      34.113  25.431  24.793  1.00  0.00     0.023 C 
BRANCH  81  84
ATOM     84  C   UNL A   1      31.710  26.124  24.364  1.00  0.00    -0.032 A 
ATOM     85  C   UNL A   1      30.867  27.165  24.789  1.00  0.00     0.005 A 
ATOM     86  C   UNL A   1      31.921  25.968  22.981  1.00  0.00     0.005 A 
ATOM     87  C   UNL A   1      30.325  28.062  23.872  1.00  0.00     0.000 A 
ATOM     88  C   UNL A   1      31.385  26.864  22.064  1.00  0.00     0.000 A 
ATOM     89  C   UNL A   1      30.594  27.917  22.513  1.00  0.00     0.000 A 
ENDBRANCH  81  84
ENDBRANCH  79  81
ENDBRANCH  76  79
BRANCH  77  90
ATOM     90  O   UNL A   1      32.192  19.060  25.896  1.00  0.00    -0.391 OA
ATOM     91  H   UNL A   1      31.369  19.549  26.050  1.00  0.00     0.211 HD
ENDBRANCH  77  90
ENDBRANCH  72  74
ENDBRANCH  71  72
ENDBRANCH  70  71
ENDBRANCH   1  70
TORSDOF 18
ENDMDL
MODEL 3
REMARK VINA RESULT:     -12.1      5.711     10.979
REMARK SMILES O=C(OCCOC(=O)[C@@H]1C[C@@H](O)CN1C(=O)C1(c2ccccc2)CC1)c1ccc(-c2c3nc(c(-c4cccc(S(=O)(=O)[O-])c4F)c4ccc([nH]4)c(-c4cccc(S(=O)(=O)[O-])c4F)c4nc(c(-c5cccc(S(=O)(=O)[O-])c5F)c5ccc2[nH]5)C=C4)C=C3)cc1
REMARK SMILES IDX 4 1 3 2 2 3 1 4 26 5 27 6 88 7 28 8 87 9 29 10 30 11 31 12
REMARK SMILES IDX 81 13 32 14 86 15 80 16 82 17 33 18 85 19 79 20 78 21 34 23
REMARK SMILES IDX 66 24 46 25 65 26 47 27 50 28 64 29 83 30 48 31 49 32 63 34
REMARK SMILES IDX 84 35 51 36 35 37 36 38 44 39 37 40 39 41 45 42 38 43 40 44
REMARK SMILES IDX 41 45 42 46 43 47 67 48 68 49 76 50 69 51 71 52 77 53 70 54
REMARK SMILES IDX 72 55 73 56 74 57 75 58 52 59 53 60 61 61 54 62 56 63 62 64
REMARK SMILES IDX 55 65 57 66 58 67 59 68 60 69 5 70 6 71 7 72 8 73 9 74 10 75
REMARK SMILES IDX 14 76 11 77 13 78 15 79 16 80 17 81 24 82 25 83 18 84 19 85
REMARK SMILES IDX 23 86 20 87 22 88 21 89 12 90
REMARK H PARENT 82 22 50 33 12 91
REMARK Flexibility Score: inf
ROOT
ATOM      1  C   UNL A   1      38.804  19.853  25.835  1.00  0.00     0.275 C 
ENDROOT
BRANCH   1   2
ATOM      2  O   UNL A   1      39.975  19.056  25.601  1.00  0.00    -0.458 OA
BRANCH   2   3
ATOM      3  C   UNL A   1      41.252  19.338  25.945  1.00  0.00     0.338 C 
ATOM      4  O   UNL A   1      42.079  18.429  25.954  1.00  0.00    -0.246 OA
BRANCH   3   5
ATOM      5  C   UNL A   1      41.687  20.671  26.461  1.00  0.00     0.060 A 
ATOM      6  C   UNL A   1      41.179  21.484  28.029  1.00  0.00     0.016 A 
ATOM      7  C   UNL A   1      42.896  21.567  25.372  1.00  0.00     0.016 A 
ATOM      8  C   UNL A   1      41.780  23.148  28.459  1.00  0.00     0.010 A 
ATOM      9  C   UNL A   1      43.344  23.299  25.757  1.00  0.00     0.010 A 
ATOM     10  C   UNL A   1      42.757  24.123  27.272  1.00  0.00    -0.014 A 
BRANCH  10  11
ATOM     11  C   UNL A   1      43.077  25.592  27.631  1.00  0.00     0.031 A 
ATOM     12  C   UNL A   1      44.487  26.208  27.740  1.00  0.00     0.074 A 
ATOM     13  C   UNL A   1      42.098  26.518  27.611  1.00  0.00     0.049 A 
ATOM     14  N   UNL A   1      44.851  27.372  27.237  1.00  0.00    -0.248 NA
ATOM     15  C   UNL A   1      45.637  25.423  28.196  1.00  0.00     0.031 C 
ATOM     16  C   UNL A   1      40.702  26.343  27.238  1.00  0.00     0.029 A 
ATOM     17  N   UNL A   1      42.114  27.796  28.095  1.00  0.00    -0.354 N 
ATOM     18  C   UNL A   1      46.235  27.313  27.085  1.00  0.00     0.074 A 
ATOM     19  C   UNL A   1      46.642  26.010  27.541  1.00  0.00     0.031 C 
ATOM     20  C   UNL A   1      39.953  27.264  27.856  1.00  0.00     0.029 A 
ATOM     21  C   UNL A   1      40.861  28.205  28.479  1.00  0.00     0.049 A 
ATOM     22  H   UNL A   1      42.923  28.353  28.158  1.00  0.00     0.167 HD
ATOM     23  C   UNL A   1      47.120  28.300  26.787  1.00  0.00     0.034 A 
ATOM     24  C   UNL A   1      40.513  29.228  29.270  1.00  0.00     0.034 A 
ATOM     25  C   UNL A   1      46.830  29.634  27.244  1.00  0.00     0.049 A 
ATOM     26  C   UNL A   1      41.581  30.242  29.498  1.00  0.00     0.074 A 
ATOM     27  C   UNL A   1      47.697  30.680  27.491  1.00  0.00     0.029 A 
ATOM     28  N   UNL A   1      45.591  29.999  27.760  1.00  0.00    -0.354 N 
ATOM     29  N   UNL A   1      42.840  30.174  29.133  1.00  0.00    -0.248 NA
ATOM     30  C   UNL A   1      41.185  31.513  30.101  1.00  0.00     0.031 C 
ATOM     31  C   UNL A   1      47.025  31.583  28.329  1.00  0.00     0.029 A 
ATOM     32  C   UNL A   1      45.700  31.182  28.453  1.00  0.00     0.049 A 
ATOM     33  H   UNL A   1      44.758  29.486  27.647  1.00  0.00     0.167 HD
ATOM     34  C   UNL A   1      43.375  31.421  29.375  1.00  0.00     0.074 A 
ATOM     35  C   UNL A   1      42.309  32.211  29.970  1.00  0.00     0.031 C 
ATOM     36  C   UNL A   1      44.612  31.888  29.085  1.00  0.00     0.034 A 
BRANCH  23  37
ATOM     37  C   UNL A   1      48.528  27.894  26.398  1.00  0.00     0.023 A 
ATOM     38  C   UNL A   1      48.828  27.599  25.049  1.00  0.00     0.012 A 
ATOM     39  C   UNL A   1      49.530  27.708  27.370  1.00  0.00     0.148 A 
ATOM     40  C   UNL A   1      50.076  27.070  24.691  1.00  0.00     0.002 A 
ATOM     41  C   UNL A   1      50.769  27.186  27.007  1.00  0.00     0.091 A 
ATOM     42  F   UNL A   1      49.235  27.990  28.646  1.00  0.00    -0.205 F 
ATOM     43  C   UNL A   1      51.039  26.849  25.671  1.00  0.00     0.022 A 
BRANCH  41  44
ATOM     44  S   UNL A   1      52.065  26.844  28.203  1.00  0.00     0.127 S 
ATOM     45  O   UNL A   1      53.059  26.161  27.376  1.00  0.00    -0.237 OA
ATOM     46  O   UNL A   1      52.449  28.188  28.632  1.00  0.00    -0.237 OA
ATOM     47  O   UNL A   1      51.455  26.018  29.235  1.00  0.00    -0.744 OA
ENDBRANCH  41  44
ENDBRANCH  23  37
BRANCH  24  48
ATOM     48  C   UNL A   1      39.126  29.300  29.779  1.00  0.00     0.023 A 
ATOM     49  C   UNL A   1      38.800  28.829  31.059  1.00  0.00     0.012 A 
ATOM     50  C   UNL A   1      38.151  29.995  29.028  1.00  0.00     0.148 A 
ATOM     51  C   UNL A   1      37.519  29.032  31.580  1.00  0.00     0.002 A 
ATOM     52  C   UNL A   1      36.887  30.216  29.561  1.00  0.00     0.091 A 
ATOM     53  F   UNL A   1      38.498  30.461  27.818  1.00  0.00    -0.205 F 
ATOM     54  C   UNL A   1      36.567  29.728  30.836  1.00  0.00     0.022 A 
BRANCH  52  55
ATOM     55  S   UNL A   1      35.637  31.194  28.716  1.00  0.00     0.127 S 
ATOM     56  O   UNL A   1      34.983  30.186  27.886  1.00  0.00    -0.237 OA
ATOM     57  O   UNL A   1      34.837  31.688  29.837  1.00  0.00    -0.237 OA
ATOM     58  O   UNL A   1      36.368  32.229  27.996  1.00  0.00    -0.744 OA
ENDBRANCH  52  55
ENDBRANCH  24  48
BRANCH  36  59
ATOM     59  C   UNL A   1      44.884  33.319  29.399  1.00  0.00     0.023 A 
ATOM     60  C   UNL A   1      45.494  33.679  30.612  1.00  0.00     0.012 A 
ATOM     61  C   UNL A   1      44.683  34.273  28.385  1.00  0.00     0.148 A 
ATOM     62  C   UNL A   1      45.902  34.992  30.813  1.00  0.00     0.002 A 
ATOM     63  C   UNL A   1      45.157  35.557  28.565  1.00  0.00     0.091 A 
ATOM     64  F   UNL A   1      44.069  33.887  27.257  1.00  0.00    -0.205 F 
ATOM     65  C   UNL A   1      45.756  35.923  29.784  1.00  0.00     0.022 A 
BRANCH  63  66
ATOM     66  S   UNL A   1      45.140  36.763  27.241  1.00  0.00     0.127 S 
ATOM     67  O   UNL A   1      45.796  37.905  27.876  1.00  0.00    -0.237 OA
ATOM     68  O   UNL A   1      45.933  36.093  26.211  1.00  0.00    -0.237 OA
ATOM     69  O   UNL A   1      43.741  36.968  26.893  1.00  0.00    -0.744 OA
ENDBRANCH  63  66
ENDBRANCH  36  59
ENDBRANCH  10  11
ENDBRANCH   3   5
ENDBRANCH   2   3
ENDBRANCH   1   2
BRANCH   1  70
ATOM     70  C   UNL A   1      37.866  19.884  24.616  1.00  0.00     0.274 C 
BRANCH  70  71
ATOM     71  O   UNL A   1      36.505  19.582  24.985  1.00  0.00    -0.461 OA
BRANCH  71  72
ATOM     72  C   UNL A   1      35.635  20.620  24.956  1.00  0.00     0.329 C 
ATOM     73  O   UNL A   1      36.007  21.790  24.920  1.00  0.00    -0.250 OA
BRANCH  72  74
ATOM     74  C   UNL A   1      34.118  20.194  24.973  1.00  0.00     0.197 C 
ATOM     75  C   UNL A   1      34.219  18.746  24.448  1.00  0.00     0.070 C 
ATOM     76  N   UNL A   1      32.722  20.953  24.150  1.00  0.00    -0.325 N 
ATOM     77  C   UNL A   1      32.802  18.347  24.234  1.00  0.00     0.136 C 
ATOM     78  C   UNL A   1      32.266  19.539  23.439  1.00  0.00     0.152 C 
BRANCH  76  79
ATOM     79  C   UNL A   1      31.822  22.726  24.369  1.00  0.00     0.234 C 
ATOM     80  O   UNL A   1      31.217  23.440  23.516  1.00  0.00    -0.274 OA
BRANCH  79  81
ATOM     81  C   UNL A   1      31.282  23.682  25.784  1.00  0.00     0.074 C 
ATOM     82  C   UNL A   1      30.198  23.397  26.828  1.00  0.00     0.023 C 
ATOM     83  C   UNL A   1      31.506  22.713  26.982  1.00  0.00     0.023 C 
BRANCH  81  84
ATOM     84  C   UNL A   1      31.987  25.030  26.068  1.00  0.00    -0.032 A 
ATOM     85  C   UNL A   1      33.375  25.137  25.872  1.00  0.00     0.005 A 
ATOM     86  C   UNL A   1      31.238  26.219  26.156  1.00  0.00     0.005 A 
ATOM     87  C   UNL A   1      33.974  26.381  25.689  1.00  0.00     0.000 A 
ATOM     88  C   UNL A   1      31.833  27.461  25.969  1.00  0.00     0.000 A 
ATOM     89  C   UNL A   1      33.201  27.540  25.727  1.00  0.00     0.000 A 
ENDBRANCH  81  84
ENDBRANCH  79  81
ENDBRANCH  76  79
BRANCH  77  90
ATOM     90  O   UNL A   1      32.144  18.170  25.481  1.00  0.00    -0.391 OA
ATOM     91  H   UNL A   1      31.926  19.037  25.858  1.00  0.00     0.211 HD
ENDBRANCH  77  90
ENDBRANCH  72  74
ENDBRANCH  71  72
ENDBRANCH  70  71
ENDBRANCH   1  70
TORSDOF 18
ENDMDL
