MODEL 1
REMARK VINA RESULT:     -12.1      0.000      0.000
REMARK SMILES Cc1cc(C(=O)N2[C@@H](C(=O)OCCOC(=O)c3ccc(-c4c5nc(c(-c6cccc(S(=O)(=O)[O-])c6F)c6ccc([nH]6)c(-c6cccc(S(=O)(=O)[O-])c6F)c6nc(c(-c7cccc(S(=O)(=O)[O-])c7F)c7ccc4[nH]7)C=C6)C=C5)cc3)C[C@H]3CCCC[C@H]32)c(C)s1
REMARK SMILES IDX 13 1 12 2 11 3 9 4 10 5 8 6 7 7 86 8 80 9 81 10 85 11 82 12
REMARK SMILES IDX 84 13 83 14 5 15 6 16 4 17 1 18 2 19 3 20 89 21 87 22 88 23
REMARK SMILES IDX 14 24 15 25 16 26 17 27 18 28 79 29 19 30 78 31 20 32 21 33
REMARK SMILES IDX 22 34 72 35 23 36 77 37 71 38 73 39 24 40 76 41 70 42 69 43
REMARK SMILES IDX 25 45 57 46 37 47 56 48 38 49 41 50 55 51 74 52 39 53 40 54
REMARK SMILES IDX 54 56 75 57 42 58 26 59 27 60 35 61 28 62 30 63 36 64 29 65
REMARK SMILES IDX 31 66 32 67 33 68 34 69 58 70 59 71 67 72 60 73 62 74 68 75
REMARK SMILES IDX 61 76 63 77 64 78 65 79 66 80 43 81 44 82 52 83 45 84 47 85
REMARK SMILES IDX 53 86 46 87 48 88 49 89 50 90 51 91
REMARK H PARENT 73 44 41 55
REMARK Flexibility Score: inf
ROOT
ATOM      1  C   UNL A   1      31.778  29.500  26.525  1.00  0.00     0.275 C 
ENDROOT
BRANCH   1   2
ATOM      2  C   UNL A   1      31.921  27.991  26.734  1.00  0.00     0.274 C 
BRANCH   2   3
ATOM      3  O   UNL A   1      33.044  27.450  26.007  1.00  0.00    -0.461 OA
BRANCH   3   4
ATOM      4  C   UNL A   1      33.021  26.105  25.799  1.00  0.00     0.329 C 
ATOM      5  O   UNL A   1      32.159  25.354  26.243  1.00  0.00    -0.250 OA
BRANCH   4   6
ATOM      6  C   UNL A   1      34.101  25.620  24.821  1.00  0.00     0.196 C 
ATOM      7  N   UNL A   1      33.596  25.112  23.535  1.00  0.00    -0.322 N 
ATOM      8  C   UNL A   1      33.938  23.704  23.350  1.00  0.00     0.089 C 
ATOM      9  C   UNL A   1      34.914  24.445  25.389  1.00  0.00     0.043 C 
ATOM     10  C   UNL A   1      35.236  23.598  24.156  1.00  0.00     0.014 C 
ATOM     11  C   UNL A   1      32.845  22.750  23.852  1.00  0.00     0.025 C 
ATOM     12  C   UNL A   1      35.697  22.178  24.454  1.00  0.00     0.006 C 
ATOM     13  C   UNL A   1      33.369  21.323  24.007  1.00  0.00     0.002 C 
ATOM     14  C   UNL A   1      34.577  21.266  24.938  1.00  0.00     0.000 C 
BRANCH   7  15
ATOM     15  C   UNL A   1      33.119  25.874  22.478  1.00  0.00     0.255 C 
ATOM     16  O   UNL A   1      33.637  25.832  21.364  1.00  0.00    -0.269 OA
BRANCH  15  17
ATOM     17  C   UNL A   1      32.008  26.793  22.763  1.00  0.00     0.053 A 
ATOM     18  C   UNL A   1      28.329  27.409  23.499  1.00  0.00     0.056 C 
ATOM     19  C   UNL A   1      29.799  27.452  23.259  1.00  0.00     0.003 A 
ATOM     20  C   UNL A   1      30.664  26.394  23.100  1.00  0.00     0.029 A 
ATOM     21  S   UNL A   1      30.630  28.937  23.184  1.00  0.00    -0.145 S 
ATOM     22  C   UNL A   1      32.133  28.171  22.869  1.00  0.00     0.014 A 
ATOM     23  C   UNL A   1      33.358  29.016  22.749  1.00  0.00     0.057 C 
ENDBRANCH  15  17
ENDBRANCH   7  15
ENDBRANCH   4   6
ENDBRANCH   3   4
ENDBRANCH   2   3
ENDBRANCH   1   2
BRANCH   1  24
ATOM     24  O   UNL A   1      33.049  30.086  26.195  1.00  0.00    -0.458 OA
BRANCH  24  25
ATOM     25  C   UNL A   1      33.436  31.131  26.960  1.00  0.00     0.338 C 
ATOM     26  O   UNL A   1      32.800  32.139  27.213  1.00  0.00    -0.246 OA
BRANCH  25  27
ATOM     27  C   UNL A   1      34.765  30.865  27.532  1.00  0.00     0.060 A 
ATOM     28  C   UNL A   1      35.099  29.563  27.900  1.00  0.00     0.016 A 
ATOM     29  C   UNL A   1      35.623  31.919  27.839  1.00  0.00     0.016 A 
ATOM     30  C   UNL A   1      36.236  29.312  28.656  1.00  0.00     0.010 A 
ATOM     31  C   UNL A   1      36.818  31.653  28.515  1.00  0.00     0.010 A 
ATOM     32  C   UNL A   1      37.117  30.353  28.963  1.00  0.00    -0.014 A 
BRANCH  32  33
ATOM     33  C   UNL A   1      38.338  30.080  29.763  1.00  0.00     0.031 A 
ATOM     34  C   UNL A   1      39.399  29.160  29.226  1.00  0.00     0.074 A 
ATOM     35  C   UNL A   1      38.484  30.645  30.977  1.00  0.00     0.049 A 
ATOM     36  N   UNL A   1      40.458  28.683  29.827  1.00  0.00    -0.248 NA
ATOM     37  C   UNL A   1      39.246  28.708  27.833  1.00  0.00     0.031 C 
ATOM     38  C   UNL A   1      37.531  31.566  31.602  1.00  0.00     0.029 A 
ATOM     39  N   UNL A   1      39.478  30.512  31.913  1.00  0.00    -0.354 N 
ATOM     40  C   UNL A   1      41.055  27.821  28.916  1.00  0.00     0.074 A 
ATOM     41  C   UNL A   1      40.251  27.850  27.714  1.00  0.00     0.031 C 
ATOM     42  C   UNL A   1      37.982  31.909  32.816  1.00  0.00     0.029 A 
ATOM     43  C   UNL A   1      39.218  31.184  33.086  1.00  0.00     0.049 A 
ATOM     44  H   UNL A   1      40.297  29.986  31.762  1.00  0.00     0.167 HD
ATOM     45  C   UNL A   1      42.178  27.078  29.067  1.00  0.00     0.034 A 
ATOM     46  C   UNL A   1      39.875  31.183  34.261  1.00  0.00     0.034 A 
ATOM     47  C   UNL A   1      43.010  27.105  30.240  1.00  0.00     0.049 A 
ATOM     48  C   UNL A   1      41.124  30.360  34.397  1.00  0.00     0.074 A 
ATOM     49  C   UNL A   1      44.199  26.435  30.466  1.00  0.00     0.029 A 
ATOM     50  N   UNL A   1      42.743  27.843  31.382  1.00  0.00    -0.354 N 
ATOM     51  N   UNL A   1      41.718  29.611  33.500  1.00  0.00    -0.248 NA
ATOM     52  C   UNL A   1      41.805  30.395  35.699  1.00  0.00     0.031 C 
ATOM     53  C   UNL A   1      44.646  26.759  31.752  1.00  0.00     0.029 A 
ATOM     54  C   UNL A   1      43.741  27.642  32.320  1.00  0.00     0.049 A 
ATOM     55  H   UNL A   1      41.959  28.425  31.509  1.00  0.00     0.167 HD
ATOM     56  C   UNL A   1      42.851  29.100  34.119  1.00  0.00     0.074 A 
ATOM     57  C   UNL A   1      42.876  29.649  35.461  1.00  0.00     0.031 C 
ATOM     58  C   UNL A   1      43.776  28.238  33.631  1.00  0.00     0.034 A 
BRANCH  45  59
ATOM     59  C   UNL A   1      42.587  26.189  27.925  1.00  0.00     0.023 A 
ATOM     60  C   UNL A   1      43.543  26.640  26.993  1.00  0.00     0.012 A 
ATOM     61  C   UNL A   1      42.064  24.886  27.804  1.00  0.00     0.148 A 
ATOM     62  C   UNL A   1      43.953  25.817  25.943  1.00  0.00     0.002 A 
ATOM     63  C   UNL A   1      42.505  24.059  26.777  1.00  0.00     0.091 A 
ATOM     64  F   UNL A   1      41.135  24.484  28.683  1.00  0.00    -0.205 F 
ATOM     65  C   UNL A   1      43.443  24.526  25.841  1.00  0.00     0.022 A 
BRANCH  63  66
ATOM     66  S   UNL A   1      41.956  22.356  26.610  1.00  0.00     0.127 S 
ATOM     67  O   UNL A   1      42.446  21.766  27.855  1.00  0.00    -0.237 OA
ATOM     68  O   UNL A   1      40.502  22.503  26.539  1.00  0.00    -0.237 OA
ATOM     69  O   UNL A   1      42.573  21.857  25.390  1.00  0.00    -0.744 OA
ENDBRANCH  63  66
ENDBRANCH  45  59
BRANCH  46  70
ATOM     70  C   UNL A   1      39.361  32.005  35.392  1.00  0.00     0.023 A 
ATOM     71  C   UNL A   1      38.482  31.425  36.327  1.00  0.00     0.012 A 
ATOM     72  C   UNL A   1      39.781  33.336  35.580  1.00  0.00     0.148 A 
ATOM     73  C   UNL A   1      38.019  32.160  37.418  1.00  0.00     0.002 A 
ATOM     74  C   UNL A   1      39.364  34.044  36.701  1.00  0.00     0.091 A 
ATOM     75  F   UNL A   1      40.601  33.880  34.669  1.00  0.00    -0.205 F 
ATOM     76  C   UNL A   1      38.471  33.463  37.614  1.00  0.00     0.022 A 
BRANCH  74  77
ATOM     77  S   UNL A   1      40.014  35.670  37.102  1.00  0.00     0.127 S 
ATOM     78  O   UNL A   1      41.442  35.394  37.247  1.00  0.00    -0.237 OA
ATOM     79  O   UNL A   1      39.654  36.445  35.915  1.00  0.00    -0.237 OA
ATOM     80  O   UNL A   1      39.317  36.078  38.314  1.00  0.00    -0.744 OA
ENDBRANCH  74  77
ENDBRANCH  46  70
BRANCH  58  81
ATOM     81  C   UNL A   1      44.909  27.847  34.542  1.00  0.00     0.023 A 
ATOM     82  C   UNL A   1      46.055  28.663  34.613  1.00  0.00     0.012 A 
ATOM     83  C   UNL A   1      44.806  26.719  35.379  1.00  0.00     0.148 A 
ATOM     84  C   UNL A   1      47.095  28.347  35.486  1.00  0.00     0.002 A 
ATOM     85  C   UNL A   1      45.828  26.435  36.277  1.00  0.00     0.091 A 
ATOM     86  F   UNL A   1      43.718  25.944  35.278  1.00  0.00    -0.205 F 
ATOM     87  C   UNL A   1      46.977  27.242  36.326  1.00  0.00     0.022 A 
BRANCH  85  88
ATOM     88  S   UNL A   1      45.714  25.083  37.455  1.00  0.00     0.127 S 
ATOM     89  O   UNL A   1      44.489  25.419  38.178  1.00  0.00    -0.237 OA
ATOM     90  O   UNL A   1      45.606  23.914  36.582  1.00  0.00    -0.237 OA
ATOM     91  O   UNL A   1      46.942  25.135  38.238  1.00  0.00    -0.744 OA
ENDBRANCH  85  88
ENDBRANCH  58  81
ENDBRANCH  32  33
ENDBRANCH  25  27
ENDBRANCH  24  25
ENDBRANCH   1  24
TORSDOF 16
ENDMDL
MODEL 2
REMARK VINA RESULT:     -12.1      4.948      9.942
REMARK SMILES Cc1cc(C(=O)N2[C@@H](C(=O)OCCOC(=O)c3ccc(-c4c5nc(c(-c6cccc(S(=O)(=O)[O-])c6F)c6ccc([nH]6)c(-c6cccc(S(=O)(=O)[O-])c6F)c6nc(c(-c7cccc(S(=O)(=O)[O-])c7F)c7ccc4[nH]7)C=C6)C=C5)cc3)C[C@H]3CCCC[C@H]32)c(C)s1
REMARK SMILES IDX 13 1 12 2 11 3 9 4 10 5 8 6 7 7 86 8 80 9 81 10 85 11 82 12
REMARK SMILES IDX 84 13 83 14 5 15 6 16 4 17 1 18 2 19 3 20 89 21 87 22 88 23
REMARK SMILES IDX 14 24 15 25 16 26 17 27 18 28 79 29 19 30 78 31 20 32 21 33
REMARK SMILES IDX 22 34 72 35 23 36 77 37 71 38 73 39 24 40 76 41 70 42 69 43
REMARK SMILES IDX 25 45 57 46 37 47 56 48 38 49 41 50 55 51 74 52 39 53 40 54
REMARK SMILES IDX 54 56 75 57 42 58 26 59 27 60 35 61 28 62 30 63 36 64 29 65
REMARK SMILES IDX 31 66 32 67 33 68 34 69 58 70 59 71 67 72 60 73 62 74 68 75
REMARK SMILES IDX 61 76 63 77 64 78 65 79 66 80 43 81 44 82 52 83 45 84 47 85
REMARK SMILES IDX 53 86 46 87 48 88 49 89 50 90 51 91
REMARK H PARENT 73 44 41 55
REMARK Flexibility Score: inf
ROOT
ATOM      1  C   UNL A   1      36.613  21.475  24.396  1.00  0.00     0.275 C 
ENDROOT
BRANCH   1   2
ATOM      2  C   UNL A   1      36.163  22.779  23.736  1.00  0.00     0.274 C 
BRANCH   2   3
ATOM      3  O   UNL A   1      35.486  23.650  24.666  1.00  0.00    -0.461 OA
BRANCH   3   4
ATOM      4  C   UNL A   1      34.530  24.457  24.132  1.00  0.00     0.329 C 
ATOM      5  O   UNL A   1      34.197  24.443  22.951  1.00  0.00    -0.250 OA
BRANCH   4   6
ATOM      6  C   UNL A   1      33.785  25.298  25.179  1.00  0.00     0.196 C 
ATOM      7  N   UNL A   1      32.398  24.880  25.445  1.00  0.00    -0.322 N 
ATOM      8  C   UNL A   1      31.451  25.936  25.100  1.00  0.00     0.089 C 
ATOM      9  C   UNL A   1      33.653  26.770  24.756  1.00  0.00     0.043 C 
ATOM     10  C   UNL A   1      32.298  27.191  25.331  1.00  0.00     0.014 C 
ATOM     11  C   UNL A   1      30.927  25.827  23.662  1.00  0.00     0.025 C 
ATOM     12  C   UNL A   1      31.724  28.475  24.747  1.00  0.00     0.006 C 
ATOM     13  C   UNL A   1      30.260  27.123  23.204  1.00  0.00     0.002 C 
ATOM     14  C   UNL A   1      31.206  28.315  23.324  1.00  0.00     0.000 C 
BRANCH   7  15
ATOM     15  C   UNL A   1      31.998  23.778  26.186  1.00  0.00     0.255 C 
ATOM     16  O   UNL A   1      31.396  23.897  27.251  1.00  0.00    -0.269 OA
BRANCH  15  17
ATOM     17  C   UNL A   1      32.388  22.453  25.681  1.00  0.00     0.053 A 
ATOM     18  C   UNL A   1      32.154  19.714  23.053  1.00  0.00     0.056 C 
ATOM     19  C   UNL A   1      32.451  20.620  24.199  1.00  0.00     0.003 A 
ATOM     20  C   UNL A   1      32.004  21.905  24.404  1.00  0.00     0.029 A 
ATOM     21  S   UNL A   1      33.485  20.125  25.459  1.00  0.00    -0.145 S 
ATOM     22  C   UNL A   1      33.280  21.601  26.313  1.00  0.00     0.014 A 
ATOM     23  C   UNL A   1      34.043  21.807  27.580  1.00  0.00     0.057 C 
ENDBRANCH  15  17
ENDBRANCH   7  15
ENDBRANCH   4   6
ENDBRANCH   3   4
ENDBRANCH   2   3
ENDBRANCH   1   2
BRANCH   1  24
ATOM     24  O   UNL A   1      37.109  21.727  25.722  1.00  0.00    -0.458 OA
BRANCH  24  25
ATOM     25  C   UNL A   1      38.422  21.477  25.922  1.00  0.00     0.338 C 
ATOM     26  O   UNL A   1      39.037  20.466  25.629  1.00  0.00    -0.246 OA
BRANCH  25  27
ATOM     27  C   UNL A   1      39.071  22.659  26.511  1.00  0.00     0.060 A 
ATOM     28  C   UNL A   1      38.578  23.927  26.207  1.00  0.00     0.016 A 
ATOM     29  C   UNL A   1      40.249  22.523  27.242  1.00  0.00     0.016 A 
ATOM     30  C   UNL A   1      39.300  25.064  26.544  1.00  0.00     0.010 A 
ATOM     31  C   UNL A   1      40.926  23.672  27.667  1.00  0.00     0.010 A 
ATOM     32  C   UNL A   1      40.478  24.951  27.290  1.00  0.00    -0.014 A 
BRANCH  32  33
ATOM     33  C   UNL A   1      41.242  26.170  27.658  1.00  0.00     0.031 A 
ATOM     34  C   UNL A   1      40.599  27.236  28.502  1.00  0.00     0.074 A 
ATOM     35  C   UNL A   1      42.506  26.326  27.219  1.00  0.00     0.049 A 
ATOM     36  N   UNL A   1      41.044  28.427  28.805  1.00  0.00    -0.248 NA
ATOM     37  C   UNL A   1      39.278  26.924  29.074  1.00  0.00     0.031 C 
ATOM     38  C   UNL A   1      43.245  25.358  26.405  1.00  0.00     0.029 A 
ATOM     39  N   UNL A   1      43.387  27.366  27.377  1.00  0.00    -0.354 N 
ATOM     40  C   UNL A   1      40.032  29.035  29.537  1.00  0.00     0.074 A 
ATOM     41  C   UNL A   1      38.954  28.076  29.647  1.00  0.00     0.031 C 
ATOM     42  C   UNL A   1      44.461  25.850  26.131  1.00  0.00     0.029 A 
ATOM     43  C   UNL A   1      44.566  27.193  26.689  1.00  0.00     0.049 A 
ATOM     44  H   UNL A   1      43.195  28.160  27.928  1.00  0.00     0.167 HD
ATOM     45  C   UNL A   1      40.007  30.278  30.074  1.00  0.00     0.034 A 
ATOM     46  C   UNL A   1      45.599  28.035  26.492  1.00  0.00     0.034 A 
ATOM     47  C   UNL A   1      41.108  31.202  30.018  1.00  0.00     0.049 A 
ATOM     48  C   UNL A   1      45.552  29.403  27.110  1.00  0.00     0.074 A 
ATOM     49  C   UNL A   1      41.203  32.461  30.583  1.00  0.00     0.029 A 
ATOM     50  N   UNL A   1      42.306  30.965  29.363  1.00  0.00    -0.354 N 
ATOM     51  N   UNL A   1      44.620  29.933  27.865  1.00  0.00    -0.248 NA
ATOM     52  C   UNL A   1      46.702  30.283  26.866  1.00  0.00     0.031 C 
ATOM     53  C   UNL A   1      42.457  32.991  30.258  1.00  0.00     0.029 A 
ATOM     54  C   UNL A   1      43.146  32.057  29.503  1.00  0.00     0.049 A 
ATOM     55  H   UNL A   1      42.527  30.142  28.869  1.00  0.00     0.167 HD
ATOM     56  C   UNL A   1      45.078  31.200  28.203  1.00  0.00     0.074 A 
ATOM     57  C   UNL A   1      46.385  31.347  27.593  1.00  0.00     0.031 C 
ATOM     58  C   UNL A   1      44.465  32.164  28.933  1.00  0.00     0.034 A 
BRANCH  45  59
ATOM     59  C   UNL A   1      38.756  30.705  30.793  1.00  0.00     0.023 A 
ATOM     60  C   UNL A   1      38.653  30.527  32.187  1.00  0.00     0.012 A 
ATOM     61  C   UNL A   1      37.704  31.330  30.096  1.00  0.00     0.148 A 
ATOM     62  C   UNL A   1      37.511  30.941  32.873  1.00  0.00     0.002 A 
ATOM     63  C   UNL A   1      36.584  31.775  30.792  1.00  0.00     0.091 A 
ATOM     64  F   UNL A   1      37.807  31.466  28.766  1.00  0.00    -0.205 F 
ATOM     65  C   UNL A   1      36.483  31.573  32.178  1.00  0.00     0.022 A 
BRANCH  63  66
ATOM     66  S   UNL A   1      35.244  32.662  29.990  1.00  0.00     0.127 S 
ATOM     67  O   UNL A   1      34.333  32.896  31.111  1.00  0.00    -0.237 OA
ATOM     68  O   UNL A   1      35.918  33.863  29.495  1.00  0.00    -0.237 OA
ATOM     69  O   UNL A   1      34.747  31.777  28.948  1.00  0.00    -0.744 OA
ENDBRANCH  63  66
ENDBRANCH  45  59
BRANCH  46  70
ATOM     70  C   UNL A   1      46.767  27.590  25.681  1.00  0.00     0.023 A 
ATOM     71  C   UNL A   1      46.773  27.821  24.291  1.00  0.00     0.012 A 
ATOM     72  C   UNL A   1      47.892  26.995  26.283  1.00  0.00     0.148 A 
ATOM     73  C   UNL A   1      47.872  27.453  23.516  1.00  0.00     0.002 A 
ATOM     74  C   UNL A   1      49.008  26.684  25.515  1.00  0.00     0.091 A 
ATOM     75  F   UNL A   1      47.859  26.762  27.603  1.00  0.00    -0.205 F 
ATOM     76  C   UNL A   1      48.995  26.899  24.128  1.00  0.00     0.022 A 
BRANCH  74  77
ATOM     77  S   UNL A   1      50.542  26.106  26.247  1.00  0.00     0.127 S 
ATOM     78  O   UNL A   1      50.125  24.850  26.865  1.00  0.00    -0.237 OA
ATOM     79  O   UNL A   1      51.405  25.959  25.074  1.00  0.00    -0.237 OA
ATOM     80  O   UNL A   1      50.957  27.161  27.162  1.00  0.00    -0.744 OA
ENDBRANCH  74  77
ENDBRANCH  46  70
BRANCH  58  81
ATOM     81  C   UNL A   1      45.206  33.458  29.134  1.00  0.00     0.023 A 
ATOM     82  C   UNL A   1      46.028  33.617  30.267  1.00  0.00     0.012 A 
ATOM     83  C   UNL A   1      45.147  34.482  28.169  1.00  0.00     0.148 A 
ATOM     84  C   UNL A   1      46.762  34.789  30.448  1.00  0.00     0.002 A 
ATOM     85  C   UNL A   1      45.915  35.628  28.335  1.00  0.00     0.091 A 
ATOM     86  F   UNL A   1      44.340  34.319  27.111  1.00  0.00    -0.205 F 
ATOM     87  C   UNL A   1      46.716  35.787  29.478  1.00  0.00     0.022 A 
BRANCH  85  88
ATOM     88  S   UNL A   1      45.981  36.922  27.090  1.00  0.00     0.127 S 
ATOM     89  O   UNL A   1      44.585  37.352  27.032  1.00  0.00    -0.237 OA
ATOM     90  O   UNL A   1      46.893  37.893  27.696  1.00  0.00    -0.237 OA
ATOM     91  O   UNL A   1      46.495  36.286  25.885  1.00  0.00    -0.744 OA
ENDBRANCH  85  88
ENDBRANCH  58  81
ENDBRANCH  32  33
ENDBRANCH  25  27
ENDBRANCH  24  25
ENDBRANCH   1  24
TORSDOF 16
ENDMDL
MODEL 3
REMARK VINA RESULT:     -11.9      1.333      1.697
REMARK SMILES Cc1cc(C(=O)N2[C@@H](C(=O)OCCOC(=O)c3ccc(-c4c5nc(c(-c6cccc(S(=O)(=O)[O-])c6F)c6ccc([nH]6)c(-c6cccc(S(=O)(=O)[O-])c6F)c6nc(c(-c7cccc(S(=O)(=O)[O-])c7F)c7ccc4[nH]7)C=C6)C=C5)cc3)C[C@H]3CCCC[C@H]32)c(C)s1
REMARK SMILES IDX 13 1 12 2 11 3 9 4 10 5 8 6 7 7 86 8 80 9 81 10 85 11 82 12
REMARK SMILES IDX 84 13 83 14 5 15 6 16 4 17 1 18 2 19 3 20 89 21 87 22 88 23
REMARK SMILES IDX 14 24 15 25 16 26 17 27 18 28 79 29 19 30 78 31 20 32 21 33
REMARK SMILES IDX 22 34 72 35 23 36 77 37 71 38 73 39 24 40 76 41 70 42 69 43
REMARK SMILES IDX 25 45 57 46 37 47 56 48 38 49 41 50 55 51 74 52 39 53 40 54
REMARK SMILES IDX 54 56 75 57 42 58 26 59 27 60 35 61 28 62 30 63 36 64 29 65
REMARK SMILES IDX 31 66 32 67 33 68 34 69 58 70 59 71 67 72 60 73 62 74 68 75
REMARK SMILES IDX 61 76 63 77 64 78 65 79 66 80 43 81 44 82 52 83 45 84 47 85
REMARK SMILES IDX 53 86 46 87 48 88 49 89 50 90 51 91
REMARK H PARENT 73 44 41 55
REMARK Flexibility Score: inf
ROOT
ATOM      1  C   UNL A   1      31.696  29.386  26.479  1.00  0.00     0.275 C 
ENDROOT
BRANCH   1   2
ATOM      2  C   UNL A   1      31.825  27.868  26.625  1.00  0.00     0.274 C 
BRANCH   2   3
ATOM      3  O   UNL A   1      33.008  27.362  25.973  1.00  0.00    -0.461 OA
BRANCH   3   4
ATOM      4  C   UNL A   1      33.125  26.006  25.931  1.00  0.00     0.329 C 
ATOM      5  O   UNL A   1      32.399  25.232  26.547  1.00  0.00    -0.250 OA
BRANCH   4   6
ATOM      6  C   UNL A   1      34.165  25.514  24.914  1.00  0.00     0.196 C 
ATOM      7  N   UNL A   1      33.608  24.974  23.663  1.00  0.00    -0.322 N 
ATOM      8  C   UNL A   1      33.959  23.568  23.491  1.00  0.00     0.089 C 
ATOM      9  C   UNL A   1      35.018  24.361  25.467  1.00  0.00     0.043 C 
ATOM     10  C   UNL A   1      35.294  23.493  24.237  1.00  0.00     0.014 C 
ATOM     11  C   UNL A   1      32.903  22.611  24.061  1.00  0.00     0.025 C 
ATOM     12  C   UNL A   1      35.787  22.086  24.542  1.00  0.00     0.006 C 
ATOM     13  C   UNL A   1      33.452  21.194  24.220  1.00  0.00     0.002 C 
ATOM     14  C   UNL A   1      34.702  21.170  25.095  1.00  0.00     0.000 C 
BRANCH   7  15
ATOM     15  C   UNL A   1      33.073  25.709  22.614  1.00  0.00     0.255 C 
ATOM     16  O   UNL A   1      33.638  25.790  21.526  1.00  0.00    -0.269 OA
BRANCH  15  17
ATOM     17  C   UNL A   1      31.833  26.451  22.882  1.00  0.00     0.053 A 
ATOM     18  C   UNL A   1      29.918  29.730  23.086  1.00  0.00     0.056 C 
ATOM     19  C   UNL A   1      30.411  28.324  23.059  1.00  0.00     0.003 A 
ATOM     20  C   UNL A   1      31.649  27.866  22.670  1.00  0.00     0.029 A 
ATOM     21  S   UNL A   1      29.396  27.033  23.512  1.00  0.00    -0.145 S 
ATOM     22  C   UNL A   1      30.632  25.868  23.257  1.00  0.00     0.014 A 
ATOM     23  C   UNL A   1      30.306  24.424  23.453  1.00  0.00     0.057 C 
ENDBRANCH  15  17
ENDBRANCH   7  15
ENDBRANCH   4   6
ENDBRANCH   3   4
ENDBRANCH   2   3
ENDBRANCH   1   2
BRANCH   1  24
ATOM     24  O   UNL A   1      32.984  29.980  26.243  1.00  0.00    -0.458 OA
BRANCH  24  25
ATOM     25  C   UNL A   1      33.331  30.992  27.068  1.00  0.00     0.338 C 
ATOM     26  O   UNL A   1      32.639  31.933  27.418  1.00  0.00    -0.246 OA
BRANCH  25  27
ATOM     27  C   UNL A   1      34.698  30.781  27.570  1.00  0.00     0.060 A 
ATOM     28  C   UNL A   1      35.081  29.505  27.979  1.00  0.00     0.016 A 
ATOM     29  C   UNL A   1      35.548  31.866  27.773  1.00  0.00     0.016 A 
ATOM     30  C   UNL A   1      36.267  29.314  28.676  1.00  0.00     0.010 A 
ATOM     31  C   UNL A   1      36.788  31.656  28.388  1.00  0.00     0.010 A 
ATOM     32  C   UNL A   1      37.142  30.386  28.879  1.00  0.00    -0.014 A 
BRANCH  32  33
ATOM     33  C   UNL A   1      38.414  30.176  29.616  1.00  0.00     0.031 A 
ATOM     34  C   UNL A   1      39.481  29.289  29.037  1.00  0.00     0.074 A 
ATOM     35  C   UNL A   1      38.601  30.768  30.811  1.00  0.00     0.049 A 
ATOM     36  N   UNL A   1      40.589  28.866  29.587  1.00  0.00    -0.248 NA
ATOM     37  C   UNL A   1      39.272  28.807  27.661  1.00  0.00     0.031 C 
ATOM     38  C   UNL A   1      37.647  31.662  31.472  1.00  0.00     0.029 A 
ATOM     39  N   UNL A   1      39.649  30.692  31.694  1.00  0.00    -0.354 N 
ATOM     40  C   UNL A   1      41.172  28.013  28.659  1.00  0.00     0.074 A 
ATOM     41  C   UNL A   1      40.303  27.987  27.502  1.00  0.00     0.031 C 
ATOM     42  C   UNL A   1      38.148  32.045  32.654  1.00  0.00     0.029 A 
ATOM     43  C   UNL A   1      39.425  31.374  32.868  1.00  0.00     0.049 A 
ATOM     44  H   UNL A   1      40.479  30.196  31.507  1.00  0.00     0.167 HD
ATOM     45  C   UNL A   1      42.330  27.317  28.760  1.00  0.00     0.034 A 
ATOM     46  C   UNL A   1      40.144  31.421  34.006  1.00  0.00     0.034 A 
ATOM     47  C   UNL A   1      43.222  27.399  29.886  1.00  0.00     0.049 A 
ATOM     48  C   UNL A   1      41.431  30.651  34.087  1.00  0.00     0.074 A 
ATOM     49  C   UNL A   1      44.448  26.781  30.057  1.00  0.00     0.029 A 
ATOM     50  N   UNL A   1      42.987  28.146  31.029  1.00  0.00    -0.354 N 
ATOM     51  N   UNL A   1      42.006  29.911  33.170  1.00  0.00    -0.248 NA
ATOM     52  C   UNL A   1      42.179  30.737  35.348  1.00  0.00     0.031 C 
ATOM     53  C   UNL A   1      44.949  27.146  31.311  1.00  0.00     0.029 A 
ATOM     54  C   UNL A   1      44.042  28.002  31.914  1.00  0.00     0.049 A 
ATOM     55  H   UNL A   1      42.188  28.699  31.188  1.00  0.00     0.167 HD
ATOM     56  C   UNL A   1      43.191  29.456  33.735  1.00  0.00     0.074 A 
ATOM     57  C   UNL A   1      43.265  30.030  35.064  1.00  0.00     0.031 C 
ATOM     58  C   UNL A   1      44.123  28.623  33.211  1.00  0.00     0.034 A 
BRANCH  45  59
ATOM     59  C   UNL A   1      42.713  26.425  27.611  1.00  0.00     0.023 A 
ATOM     60  C   UNL A   1      43.622  26.886  26.638  1.00  0.00     0.012 A 
ATOM     61  C   UNL A   1      42.215  25.110  27.524  1.00  0.00     0.148 A 
ATOM     62  C   UNL A   1      44.008  26.061  25.581  1.00  0.00     0.002 A 
ATOM     63  C   UNL A   1      42.633  24.281  26.489  1.00  0.00     0.091 A 
ATOM     64  F   UNL A   1      41.329  24.698  28.444  1.00  0.00    -0.205 F 
ATOM     65  C   UNL A   1      43.522  24.758  25.512  1.00  0.00     0.022 A 
BRANCH  63  66
ATOM     66  S   UNL A   1      42.115  22.566  26.362  1.00  0.00     0.127 S 
ATOM     67  O   UNL A   1      42.816  22.135  25.153  1.00  0.00    -0.237 OA
ATOM     68  O   UNL A   1      42.634  21.990  27.603  1.00  0.00    -0.237 OA
ATOM     69  O   UNL A   1      40.662  22.594  26.271  1.00  0.00    -0.744 OA
ENDBRANCH  63  66
ENDBRANCH  45  59
BRANCH  46  70
ATOM     70  C   UNL A   1      39.658  32.242  35.150  1.00  0.00     0.023 A 
ATOM     71  C   UNL A   1      39.860  33.636  35.137  1.00  0.00     0.012 A 
ATOM     72  C   UNL A   1      38.948  31.661  36.218  1.00  0.00     0.148 A 
ATOM     73  C   UNL A   1      39.378  34.433  36.176  1.00  0.00     0.002 A 
ATOM     74  C   UNL A   1      38.418  32.467  37.219  1.00  0.00     0.091 A 
ATOM     75  F   UNL A   1      38.784  30.330  36.225  1.00  0.00    -0.205 F 
ATOM     76  C   UNL A   1      38.644  33.852  37.208  1.00  0.00     0.022 A 
BRANCH  74  77
ATOM     77  S   UNL A   1      37.341  31.816  38.501  1.00  0.00     0.127 S 
ATOM     78  O   UNL A   1      38.173  31.959  39.692  1.00  0.00    -0.237 OA
ATOM     79  O   UNL A   1      36.198  32.728  38.433  1.00  0.00    -0.237 OA
ATOM     80  O   UNL A   1      37.037  30.450  38.095  1.00  0.00    -0.744 OA
ENDBRANCH  74  77
ENDBRANCH  46  70
BRANCH  58  81
ATOM     81  C   UNL A   1      45.317  28.294  34.065  1.00  0.00     0.023 A 
ATOM     82  C   UNL A   1      46.429  29.159  34.065  1.00  0.00     0.012 A 
ATOM     83  C   UNL A   1      45.308  27.175  34.920  1.00  0.00     0.148 A 
ATOM     84  C   UNL A   1      47.526  28.900  34.885  1.00  0.00     0.002 A 
ATOM     85  C   UNL A   1      46.387  26.948  35.767  1.00  0.00     0.091 A 
ATOM     86  F   UNL A   1      44.250  26.352  34.887  1.00  0.00    -0.205 F 
ATOM     87  C   UNL A   1      47.501  27.804  35.744  1.00  0.00     0.022 A 
BRANCH  85  88
ATOM     88  S   UNL A   1      46.394  25.610  36.965  1.00  0.00     0.127 S 
ATOM     89  O   UNL A   1      45.194  25.902  37.746  1.00  0.00    -0.237 OA
ATOM     90  O   UNL A   1      46.294  24.424  36.113  1.00  0.00    -0.237 OA
ATOM     91  O   UNL A   1      47.657  25.728  37.683  1.00  0.00    -0.744 OA
ENDBRANCH  85  88
ENDBRANCH  58  81
ENDBRANCH  32  33
ENDBRANCH  25  27
ENDBRANCH  24  25
ENDBRANCH   1  24
TORSDOF 16
ENDMDL
