MODEL 1
REMARK VINA RESULT:     -12.9      0.000      0.000
REMARK SMILES Nn1c(S[C@@H](C(=O)OCCOC(=O)c2ccc(-c3c4nc(c(-c5cccc(S(=O)(=O)[O-])c5F)c5ccc([nH]5)c(-c5cccc(S(=O)(=O)[O-])c5F)c5nc(c(-c6cccc(S(=O)(=O)[O-])c6F)c6ccc3[nH]6)C=C5)C=C4)cc2)c2ccccc2)nc2ccc(Br)cc2c1=O
REMARK SMILES IDX 9 1 8 2 6 3 7 4 5 5 4 6 3 7 2 8 91 9 83 10 90 11 92 12 84 13
REMARK SMILES IDX 89 14 85 15 87 16 86 17 88 18 1 19 77 22 78 23 82 24 79 25
REMARK SMILES IDX 81 26 80 27 10 28 11 29 12 30 13 31 14 32 15 33 76 34 16 35
REMARK SMILES IDX 75 36 17 37 18 38 19 39 69 40 20 41 74 42 68 43 70 44 21 45
REMARK SMILES IDX 73 46 67 47 66 48 22 50 54 51 34 52 53 53 35 54 38 55 52 56
REMARK SMILES IDX 71 57 36 58 37 59 51 61 72 62 39 63 23 64 24 65 32 66 25 67
REMARK SMILES IDX 27 68 33 69 26 70 28 71 29 72 30 73 31 74 55 75 56 76 64 77
REMARK SMILES IDX 57 78 59 79 65 80 58 81 60 82 61 83 62 84 63 85 40 86 41 87
REMARK SMILES IDX 49 88 42 89 44 90 50 91 43 92 45 93 46 94 47 95 48 96
REMARK H PARENT 1 20 1 21 70 49 38 60
REMARK Flexibility Score: inf
ROOT
ATOM      1  C   UNL A   1      31.715  29.052  25.820  1.00  0.00     0.274 C 
ENDROOT
BRANCH   1   2
ATOM      2  O   UNL A   1      32.627  29.001  24.697  1.00  0.00    -0.461 OA
BRANCH   2   3
ATOM      3  C   UNL A   1      32.059  28.919  23.454  1.00  0.00     0.324 C 
ATOM      4  O   UNL A   1      32.689  29.167  22.427  1.00  0.00    -0.251 OA
BRANCH   3   5
ATOM      5  C   UNL A   1      30.541  28.673  23.463  1.00  0.00     0.194 C 
BRANCH   5   6
ATOM      6  S   UNL A   1      29.940  26.998  23.217  1.00  0.00    -0.066 SA
BRANCH   6   7
ATOM      7  C   UNL A   1      31.179  25.770  23.267  1.00  0.00     0.191 A 
ATOM      8  N   UNL A   1      31.893  25.334  22.161  1.00  0.00    -0.202 N 
ATOM      9  C   UNL A   1      32.868  24.335  22.233  1.00  0.00     0.280 A 
ATOM     10  N   UNL A   1      31.437  25.327  24.460  1.00  0.00    -0.222 NA
ATOM     11  C   UNL A   1      33.178  23.839  23.574  1.00  0.00     0.069 A 
ATOM     12  O   UNL A   1      33.472  23.908  21.250  1.00  0.00    -0.267 OA
ATOM     13  C   UNL A   1      32.458  24.382  24.637  1.00  0.00     0.079 A 
ATOM     14  C   UNL A   1      34.198  22.902  23.771  1.00  0.00     0.031 A 
ATOM     15  C   UNL A   1      32.788  23.979  25.932  1.00  0.00     0.030 A 
ATOM     16  C   UNL A   1      34.510  22.515  25.068  1.00  0.00     0.018 A 
ATOM     17  C   UNL A   1      33.813  23.052  26.151  1.00  0.00     0.018 A 
ATOM     18  Br  UNL A   1      35.903  21.274  25.368  1.00  0.00    -0.051 Br
BRANCH   8  19
ATOM     19  N   UNL A   1      31.729  25.899  20.893  1.00  0.00    -0.334 N 
ATOM     20  H   UNL A   1      32.246  25.553  20.129  1.00  0.00     0.178 HD
ATOM     21  H   UNL A   1      31.097  26.643  20.764  1.00  0.00     0.178 HD
ENDBRANCH   8  19
ENDBRANCH   6   7
ENDBRANCH   5   6
BRANCH   5  22
ATOM     22  C   UNL A   1      29.695  29.866  23.000  1.00  0.00    -0.023 A 
ATOM     23  C   UNL A   1      29.218  29.872  21.669  1.00  0.00     0.005 A 
ATOM     24  C   UNL A   1      29.289  30.921  23.828  1.00  0.00     0.005 A 
ATOM     25  C   UNL A   1      28.372  30.881  21.195  1.00  0.00     0.000 A 
ATOM     26  C   UNL A   1      28.429  31.924  23.358  1.00  0.00     0.000 A 
ATOM     27  C   UNL A   1      27.971  31.903  22.045  1.00  0.00     0.000 A 
ENDBRANCH   5  22
ENDBRANCH   3   5
ENDBRANCH   2   3
ENDBRANCH   1   2
BRANCH   1  28
ATOM     28  C   UNL A   1      31.848  30.362  26.599  1.00  0.00     0.275 C 
BRANCH  28  29
ATOM     29  O   UNL A   1      33.007  30.282  27.443  1.00  0.00    -0.458 OA
BRANCH  29  30
ATOM     30  C   UNL A   1      33.715  31.420  27.616  1.00  0.00     0.338 C 
ATOM     31  O   UNL A   1      33.281  32.559  27.472  1.00  0.00    -0.246 OA
BRANCH  30  32
ATOM     32  C   UNL A   1      35.047  31.103  28.199  1.00  0.00     0.060 A 
ATOM     33  C   UNL A   1      35.379  29.778  28.484  1.00  0.00     0.016 A 
ATOM     34  C   UNL A   1      36.039  32.087  28.299  1.00  0.00     0.016 A 
ATOM     35  C   UNL A   1      36.670  29.464  28.930  1.00  0.00     0.010 A 
ATOM     36  C   UNL A   1      37.355  31.745  28.608  1.00  0.00     0.010 A 
ATOM     37  C   UNL A   1      37.676  30.446  29.007  1.00  0.00    -0.014 A 
BRANCH  37  38
ATOM     38  C   UNL A   1      39.009  30.123  29.592  1.00  0.00     0.031 A 
ATOM     39  C   UNL A   1      39.384  30.628  30.969  1.00  0.00     0.074 A 
ATOM     40  C   UNL A   1      39.886  29.342  28.926  1.00  0.00     0.049 A 
ATOM     41  N   UNL A   1      40.374  30.247  31.737  1.00  0.00    -0.248 NA
ATOM     42  C   UNL A   1      38.571  31.709  31.556  1.00  0.00     0.031 C 
ATOM     43  C   UNL A   1      39.743  28.885  27.542  1.00  0.00     0.029 A 
ATOM     44  N   UNL A   1      41.065  28.769  29.343  1.00  0.00    -0.354 N 
ATOM     45  C   UNL A   1      40.300  31.040  32.877  1.00  0.00     0.074 A 
ATOM     46  C   UNL A   1      39.221  31.975  32.677  1.00  0.00     0.031 C 
ATOM     47  C   UNL A   1      40.761  28.057  27.246  1.00  0.00     0.029 A 
ATOM     48  C   UNL A   1      41.617  27.910  28.420  1.00  0.00     0.049 A 
ATOM     49  H   UNL A   1      41.476  28.957  30.217  1.00  0.00     0.167 HD
ATOM     50  C   UNL A   1      41.007  30.957  34.026  1.00  0.00     0.034 A 
ATOM     51  C   UNL A   1      42.656  27.055  28.526  1.00  0.00     0.034 A 
ATOM     52  C   UNL A   1      42.019  29.977  34.278  1.00  0.00     0.049 A 
ATOM     53  C   UNL A   1      43.372  26.905  29.844  1.00  0.00     0.074 A 
ATOM     54  C   UNL A   1      42.697  29.729  35.458  1.00  0.00     0.029 A 
ATOM     55  N   UNL A   1      42.494  29.081  33.339  1.00  0.00    -0.354 N 
ATOM     56  N   UNL A   1      43.129  27.499  30.985  1.00  0.00    -0.248 NA
ATOM     57  C   UNL A   1      44.474  25.928  29.901  1.00  0.00     0.031 C 
ATOM     58  C   UNL A   1      43.585  28.675  35.230  1.00  0.00     0.029 A 
ATOM     59  C   UNL A   1      43.460  28.276  33.909  1.00  0.00     0.049 A 
ATOM     60  H   UNL A   1      42.189  29.026  32.405  1.00  0.00     0.167 HD
ATOM     61  C   UNL A   1      44.025  26.952  31.899  1.00  0.00     0.074 A 
ATOM     62  C   UNL A   1      44.808  25.967  31.186  1.00  0.00     0.031 C 
ATOM     63  C   UNL A   1      44.189  27.253  33.209  1.00  0.00     0.034 A 
BRANCH  50  64
ATOM     64  C   UNL A   1      40.617  31.875  35.149  1.00  0.00     0.023 A 
ATOM     65  C   UNL A   1      41.374  33.046  35.357  1.00  0.00     0.012 A 
ATOM     66  C   UNL A   1      39.490  31.620  35.951  1.00  0.00     0.148 A 
ATOM     67  C   UNL A   1      41.030  33.942  36.366  1.00  0.00     0.002 A 
ATOM     68  C   UNL A   1      39.136  32.533  36.937  1.00  0.00     0.091 A 
ATOM     69  F   UNL A   1      38.794  30.493  35.738  1.00  0.00    -0.205 F 
ATOM     70  C   UNL A   1      39.908  33.689  37.149  1.00  0.00     0.022 A 
BRANCH  68  71
ATOM     71  S   UNL A   1      37.687  32.334  37.978  1.00  0.00     0.127 S 
ATOM     72  O   UNL A   1      38.149  32.908  39.241  1.00  0.00    -0.237 OA
ATOM     73  O   UNL A   1      36.691  33.138  37.271  1.00  0.00    -0.237 OA
ATOM     74  O   UNL A   1      37.409  30.905  38.016  1.00  0.00    -0.744 OA
ENDBRANCH  68  71
ENDBRANCH  50  64
BRANCH  51  75
ATOM     75  C   UNL A   1      42.993  26.160  27.385  1.00  0.00     0.023 A 
ATOM     76  C   UNL A   1      43.849  26.637  26.372  1.00  0.00     0.012 A 
ATOM     77  C   UNL A   1      42.492  24.848  27.304  1.00  0.00     0.148 A 
ATOM     78  C   UNL A   1      44.184  25.830  25.286  1.00  0.00     0.002 A 
ATOM     79  C   UNL A   1      42.854  24.037  26.234  1.00  0.00     0.091 A 
ATOM     80  F   UNL A   1      41.679  24.419  28.280  1.00  0.00    -0.205 F 
ATOM     81  C   UNL A   1      43.690  24.530  25.218  1.00  0.00     0.022 A 
BRANCH  79  82
ATOM     82  S   UNL A   1      42.328  22.326  26.086  1.00  0.00     0.127 S 
ATOM     83  O   UNL A   1      43.052  21.892  24.895  1.00  0.00    -0.237 OA
ATOM     84  O   UNL A   1      42.814  21.757  27.344  1.00  0.00    -0.237 OA
ATOM     85  O   UNL A   1      40.878  22.365  25.957  1.00  0.00    -0.744 OA
ENDBRANCH  79  82
ENDBRANCH  51  75
BRANCH  63  86
ATOM     86  C   UNL A   1      45.246  26.531  33.998  1.00  0.00     0.023 A 
ATOM     87  C   UNL A   1      46.551  27.056  34.025  1.00  0.00     0.012 A 
ATOM     88  C   UNL A   1      44.901  25.468  34.856  1.00  0.00     0.148 A 
ATOM     89  C   UNL A   1      47.501  26.538  34.903  1.00  0.00     0.002 A 
ATOM     90  C   UNL A   1      45.843  24.979  35.753  1.00  0.00     0.091 A 
ATOM     91  F   UNL A   1      43.651  24.989  34.807  1.00  0.00    -0.205 F 
ATOM     92  C   UNL A   1      47.144  25.512  35.776  1.00  0.00     0.022 A 
BRANCH  90  93
ATOM     93  S   UNL A   1      45.458  23.726  36.981  1.00  0.00     0.127 S 
ATOM     94  O   UNL A   1      44.451  24.406  37.796  1.00  0.00    -0.237 OA
ATOM     95  O   UNL A   1      44.938  22.635  36.155  1.00  0.00    -0.237 OA
ATOM     96  O   UNL A   1      46.708  23.430  37.666  1.00  0.00    -0.744 OA
ENDBRANCH  90  93
ENDBRANCH  63  86
ENDBRANCH  37  38
ENDBRANCH  30  32
ENDBRANCH  29  30
ENDBRANCH  28  29
ENDBRANCH   1  28
TORSDOF 18
ENDMDL
MODEL 2
REMARK VINA RESULT:     -12.8      1.708      2.204
REMARK SMILES Nn1c(S[C@@H](C(=O)OCCOC(=O)c2ccc(-c3c4nc(c(-c5cccc(S(=O)(=O)[O-])c5F)c5ccc([nH]5)c(-c5cccc(S(=O)(=O)[O-])c5F)c5nc(c(-c6cccc(S(=O)(=O)[O-])c6F)c6ccc3[nH]6)C=C5)C=C4)cc2)c2ccccc2)nc2ccc(Br)cc2c1=O
REMARK SMILES IDX 9 1 8 2 6 3 7 4 5 5 4 6 3 7 2 8 91 9 83 10 90 11 92 12 84 13
REMARK SMILES IDX 89 14 85 15 87 16 86 17 88 18 1 19 77 22 78 23 82 24 79 25
REMARK SMILES IDX 81 26 80 27 10 28 11 29 12 30 13 31 14 32 15 33 76 34 16 35
REMARK SMILES IDX 75 36 17 37 18 38 19 39 69 40 20 41 74 42 68 43 70 44 21 45
REMARK SMILES IDX 73 46 67 47 66 48 22 50 54 51 34 52 53 53 35 54 38 55 52 56
REMARK SMILES IDX 71 57 36 58 37 59 51 61 72 62 39 63 23 64 24 65 32 66 25 67
REMARK SMILES IDX 27 68 33 69 26 70 28 71 29 72 30 73 31 74 55 75 56 76 64 77
REMARK SMILES IDX 57 78 59 79 65 80 58 81 60 82 61 83 62 84 63 85 40 86 41 87
REMARK SMILES IDX 49 88 42 89 44 90 50 91 43 92 45 93 46 94 47 95 48 96
REMARK H PARENT 1 20 1 21 70 49 38 60
REMARK Flexibility Score: inf
ROOT
ATOM      1  C   UNL A   1      32.708  29.049  24.671  1.00  0.00     0.274 C 
ENDROOT
BRANCH   1   2
ATOM      2  O   UNL A   1      32.529  27.683  25.115  1.00  0.00    -0.461 OA
BRANCH   2   3
ATOM      3  C   UNL A   1      31.255  27.185  25.058  1.00  0.00     0.324 C 
ATOM      4  O   UNL A   1      30.628  26.871  26.068  1.00  0.00    -0.251 OA
BRANCH   3   5
ATOM      5  C   UNL A   1      30.754  26.884  23.636  1.00  0.00     0.194 C 
BRANCH   5   6
ATOM      6  S   UNL A   1      31.830  25.976  22.519  1.00  0.00    -0.066 SA
BRANCH   6   7
ATOM      7  C   UNL A   1      32.618  24.595  23.237  1.00  0.00     0.191 A 
ATOM      8  N   UNL A   1      31.953  23.554  23.867  1.00  0.00    -0.202 N 
ATOM      9  C   UNL A   1      32.617  22.470  24.448  1.00  0.00     0.280 A 
ATOM     10  N   UNL A   1      33.907  24.578  23.076  1.00  0.00    -0.222 NA
ATOM     11  C   UNL A   1      34.068  22.433  24.260  1.00  0.00     0.069 A 
ATOM     12  O   UNL A   1      32.038  21.567  25.051  1.00  0.00    -0.267 OA
ATOM     13  C   UNL A   1      34.646  23.488  23.555  1.00  0.00     0.079 A 
ATOM     14  C   UNL A   1      34.821  21.349  24.724  1.00  0.00     0.031 A 
ATOM     15  C   UNL A   1      36.018  23.436  23.300  1.00  0.00     0.030 A 
ATOM     16  C   UNL A   1      36.184  21.319  24.459  1.00  0.00     0.018 A 
ATOM     17  C   UNL A   1      36.787  22.355  23.745  1.00  0.00     0.018 A 
ATOM     18  Br  UNL A   1      37.222  19.854  25.046  1.00  0.00    -0.051 Br
BRANCH   8  19
ATOM     19  N   UNL A   1      30.558  23.483  23.925  1.00  0.00    -0.334 N 
ATOM     20  H   UNL A   1      30.122  22.705  24.342  1.00  0.00     0.178 HD
ATOM     21  H   UNL A   1      30.012  24.211  23.548  1.00  0.00     0.178 HD
ENDBRANCH   8  19
ENDBRANCH   6   7
ENDBRANCH   5   6
BRANCH   5  22
ATOM     22  C   UNL A   1      29.758  27.908  23.076  1.00  0.00    -0.023 A 
ATOM     23  C   UNL A   1      28.393  27.772  23.420  1.00  0.00     0.005 A 
ATOM     24  C   UNL A   1      30.114  29.025  22.310  1.00  0.00     0.005 A 
ATOM     25  C   UNL A   1      27.436  28.711  23.020  1.00  0.00     0.000 A 
ATOM     26  C   UNL A   1      29.158  29.974  21.921  1.00  0.00     0.000 A 
ATOM     27  C   UNL A   1      27.822  29.818  22.276  1.00  0.00     0.000 A 
ENDBRANCH   5  22
ENDBRANCH   3   5
ENDBRANCH   2   3
ENDBRANCH   1   2
BRANCH   1  28
ATOM     28  C   UNL A   1      31.852  30.025  25.481  1.00  0.00     0.275 C 
BRANCH  28  29
ATOM     29  O   UNL A   1      32.385  30.114  26.810  1.00  0.00    -0.458 OA
BRANCH  29  30
ATOM     30  C   UNL A   1      32.903  31.306  27.180  1.00  0.00     0.338 C 
ATOM     31  O   UNL A   1      32.313  32.382  27.149  1.00  0.00    -0.246 OA
BRANCH  30  32
ATOM     32  C   UNL A   1      34.232  31.103  27.820  1.00  0.00     0.060 A 
ATOM     33  C   UNL A   1      34.668  29.810  28.113  1.00  0.00     0.016 A 
ATOM     34  C   UNL A   1      35.127  32.171  27.970  1.00  0.00     0.016 A 
ATOM     35  C   UNL A   1      35.961  29.607  28.614  1.00  0.00     0.010 A 
ATOM     36  C   UNL A   1      36.453  31.943  28.335  1.00  0.00     0.010 A 
ATOM     37  C   UNL A   1      36.871  30.674  28.741  1.00  0.00    -0.014 A 
BRANCH  37  38
ATOM     38  C   UNL A   1      38.201  30.466  29.383  1.00  0.00     0.031 A 
ATOM     39  C   UNL A   1      38.475  31.006  30.770  1.00  0.00     0.074 A 
ATOM     40  C   UNL A   1      39.166  29.758  28.759  1.00  0.00     0.049 A 
ATOM     41  N   UNL A   1      39.460  30.711  31.581  1.00  0.00    -0.248 NA
ATOM     42  C   UNL A   1      37.551  32.018  31.315  1.00  0.00     0.031 C 
ATOM     43  C   UNL A   1      39.120  29.285  27.373  1.00  0.00     0.029 A 
ATOM     44  N   UNL A   1      40.370  29.286  29.228  1.00  0.00    -0.354 N 
ATOM     45  C   UNL A   1      39.273  31.499  32.711  1.00  0.00     0.074 A 
ATOM     46  C   UNL A   1      38.130  32.341  32.460  1.00  0.00     0.031 C 
ATOM     47  C   UNL A   1      40.214  28.544  27.126  1.00  0.00     0.029 A 
ATOM     48  C   UNL A   1      41.030  28.473  28.336  1.00  0.00     0.049 A 
ATOM     49  H   UNL A   1      40.727  29.511  30.118  1.00  0.00     0.167 HD
ATOM     50  C   UNL A   1      39.936  31.481  33.889  1.00  0.00     0.034 A 
ATOM     51  C   UNL A   1      42.131  27.708  28.491  1.00  0.00     0.034 A 
ATOM     52  C   UNL A   1      41.014  30.589  34.190  1.00  0.00     0.049 A 
ATOM     53  C   UNL A   1      42.801  27.622  29.838  1.00  0.00     0.074 A 
ATOM     54  C   UNL A   1      41.660  30.402  35.398  1.00  0.00     0.029 A 
ATOM     55  N   UNL A   1      41.600  29.732  33.278  1.00  0.00    -0.354 N 
ATOM     56  N   UNL A   1      42.463  28.199  30.964  1.00  0.00    -0.248 NA
ATOM     57  C   UNL A   1      43.976  26.741  29.947  1.00  0.00     0.031 C 
ATOM     58  C   UNL A   1      42.641  29.425  35.215  1.00  0.00     0.029 A 
ATOM     59  C   UNL A   1      42.606  29.012  33.893  1.00  0.00     0.049 A 
ATOM     60  H   UNL A   1      41.341  29.648  32.332  1.00  0.00     0.167 HD
ATOM     61  C   UNL A   1      43.362  27.731  31.918  1.00  0.00     0.074 A 
ATOM     62  C   UNL A   1      44.253  26.813  31.245  1.00  0.00     0.031 C 
ATOM     63  C   UNL A   1      43.445  28.050  33.232  1.00  0.00     0.034 A 
BRANCH  50  64
ATOM     64  C   UNL A   1      39.424  32.367  34.988  1.00  0.00     0.023 A 
ATOM     65  C   UNL A   1      38.422  31.868  35.845  1.00  0.00     0.012 A 
ATOM     66  C   UNL A   1      39.960  33.648  35.212  1.00  0.00     0.148 A 
ATOM     67  C   UNL A   1      37.939  32.642  36.897  1.00  0.00     0.002 A 
ATOM     68  C   UNL A   1      39.494  34.403  36.282  1.00  0.00     0.091 A 
ATOM     69  F   UNL A   1      40.905  34.102  34.375  1.00  0.00    -0.205 F 
ATOM     70  C   UNL A   1      38.481  33.904  37.120  1.00  0.00     0.022 A 
BRANCH  68  71
ATOM     71  S   UNL A   1      40.147  36.024  36.690  1.00  0.00     0.127 S 
ATOM     72  O   UNL A   1      41.564  35.728  36.900  1.00  0.00    -0.237 OA
ATOM     73  O   UNL A   1      39.857  36.785  35.475  1.00  0.00    -0.237 OA
ATOM     74  O   UNL A   1      39.428  36.464  37.877  1.00  0.00    -0.744 OA
ENDBRANCH  68  71
ENDBRANCH  50  64
BRANCH  51  75
ATOM     75  C   UNL A   1      42.588  26.839  27.371  1.00  0.00     0.023 A 
ATOM     76  C   UNL A   1      43.408  27.393  26.368  1.00  0.00     0.012 A 
ATOM     77  C   UNL A   1      42.235  25.479  27.302  1.00  0.00     0.148 A 
ATOM     78  C   UNL A   1      43.853  26.612  25.302  1.00  0.00     0.002 A 
ATOM     79  C   UNL A   1      42.706  24.698  26.252  1.00  0.00     0.091 A 
ATOM     80  F   UNL A   1      41.453  24.978  28.267  1.00  0.00    -0.205 F 
ATOM     81  C   UNL A   1      43.505  25.265  25.245  1.00  0.00     0.022 A 
BRANCH  79  82
ATOM     82  S   UNL A   1      42.374  22.938  26.121  1.00  0.00     0.127 S 
ATOM     83  O   UNL A   1      43.103  22.409  27.271  1.00  0.00    -0.237 OA
ATOM     84  O   UNL A   1      40.917  22.900  26.245  1.00  0.00    -0.237 OA
ATOM     85  O   UNL A   1      42.884  22.533  24.818  1.00  0.00    -0.744 OA
ENDBRANCH  79  82
ENDBRANCH  51  75
BRANCH  63  86
ATOM     86  C   UNL A   1      44.524  27.422  34.068  1.00  0.00     0.023 A 
ATOM     87  C   UNL A   1      45.766  28.074  34.178  1.00  0.00     0.012 A 
ATOM     88  C   UNL A   1      44.242  26.312  34.889  1.00  0.00     0.148 A 
ATOM     89  C   UNL A   1      46.714  27.636  35.101  1.00  0.00     0.002 A 
ATOM     90  C   UNL A   1      45.178  25.902  35.831  1.00  0.00     0.091 A 
ATOM     91  F   UNL A   1      43.051  25.711  34.762  1.00  0.00    -0.205 F 
ATOM     92  C   UNL A   1      46.415  26.561  35.937  1.00  0.00     0.022 A 
BRANCH  90  93
ATOM     93  S   UNL A   1      44.853  24.591  37.017  1.00  0.00     0.127 S 
ATOM     94  O   UNL A   1      46.064  24.624  37.836  1.00  0.00    -0.237 OA
ATOM     95  O   UNL A   1      43.648  25.076  37.690  1.00  0.00    -0.237 OA
ATOM     96  O   UNL A   1      44.670  23.375  36.236  1.00  0.00    -0.744 OA
ENDBRANCH  90  93
ENDBRANCH  63  86
ENDBRANCH  37  38
ENDBRANCH  30  32
ENDBRANCH  29  30
ENDBRANCH  28  29
ENDBRANCH   1  28
TORSDOF 18
ENDMDL
MODEL 3
REMARK VINA RESULT:     -12.6      1.492      2.020
REMARK SMILES Nn1c(S[C@@H](C(=O)OCCOC(=O)c2ccc(-c3c4nc(c(-c5cccc(S(=O)(=O)[O-])c5F)c5ccc([nH]5)c(-c5cccc(S(=O)(=O)[O-])c5F)c5nc(c(-c6cccc(S(=O)(=O)[O-])c6F)c6ccc3[nH]6)C=C5)C=C4)cc2)c2ccccc2)nc2ccc(Br)cc2c1=O
REMARK SMILES IDX 9 1 8 2 6 3 7 4 5 5 4 6 3 7 2 8 91 9 83 10 90 11 92 12 84 13
REMARK SMILES IDX 89 14 85 15 87 16 86 17 88 18 1 19 77 22 78 23 82 24 79 25
REMARK SMILES IDX 81 26 80 27 10 28 11 29 12 30 13 31 14 32 15 33 76 34 16 35
REMARK SMILES IDX 75 36 17 37 18 38 19 39 69 40 20 41 74 42 68 43 70 44 21 45
REMARK SMILES IDX 73 46 67 47 66 48 22 50 54 51 34 52 53 53 35 54 38 55 52 56
REMARK SMILES IDX 71 57 36 58 37 59 51 61 72 62 39 63 23 64 24 65 32 66 25 67
REMARK SMILES IDX 27 68 33 69 26 70 28 71 29 72 30 73 31 74 55 75 56 76 64 77
REMARK SMILES IDX 57 78 59 79 65 80 58 81 60 82 61 83 62 84 63 85 40 86 41 87
REMARK SMILES IDX 49 88 42 89 44 90 50 91 43 92 45 93 46 94 47 95 48 96
REMARK H PARENT 1 20 1 21 70 49 38 60
REMARK Flexibility Score: inf
ROOT
ATOM      1  C   UNL A   1      31.713  28.853  26.007  1.00  0.00     0.274 C 
ENDROOT
BRANCH   1   2
ATOM      2  O   UNL A   1      32.550  28.854  24.826  1.00  0.00    -0.461 OA
BRANCH   2   3
ATOM      3  C   UNL A   1      31.903  28.844  23.620  1.00  0.00     0.324 C 
ATOM      4  O   UNL A   1      32.455  29.186  22.575  1.00  0.00    -0.251 OA
BRANCH   3   5
ATOM      5  C   UNL A   1      30.396  28.551  23.710  1.00  0.00     0.194 C 
BRANCH   5   6
ATOM      6  S   UNL A   1      29.846  26.842  23.629  1.00  0.00    -0.066 SA
BRANCH   6   7
ATOM      7  C   UNL A   1      30.935  25.696  24.368  1.00  0.00     0.191 A 
ATOM      8  N   UNL A   1      30.729  25.109  25.607  1.00  0.00    -0.202 N 
ATOM      9  C   UNL A   1      31.631  24.207  26.178  1.00  0.00     0.280 A 
ATOM     10  N   UNL A   1      31.949  25.373  23.622  1.00  0.00    -0.222 NA
ATOM     11  C   UNL A   1      32.770  23.825  25.342  1.00  0.00     0.069 A 
ATOM     12  O   UNL A   1      31.481  23.719  27.297  1.00  0.00    -0.267 OA
ATOM     13  C   UNL A   1      32.861  24.414  24.081  1.00  0.00     0.079 A 
ATOM     14  C   UNL A   1      33.686  22.863  25.780  1.00  0.00     0.031 A 
ATOM     15  C   UNL A   1      33.897  24.008  23.238  1.00  0.00     0.030 A 
ATOM     16  C   UNL A   1      34.709  22.474  24.924  1.00  0.00     0.018 A 
ATOM     17  C   UNL A   1      34.817  23.038  23.653  1.00  0.00     0.018 A 
ATOM     18  Br  UNL A   1      35.945  21.155  25.476  1.00  0.00    -0.051 Br
BRANCH   8  19
ATOM     19  N   UNL A   1      29.574  25.335  26.360  1.00  0.00    -0.334 N 
ATOM     20  H   UNL A   1      28.730  24.890  26.115  1.00  0.00     0.178 HD
ATOM     21  H   UNL A   1      29.604  25.942  27.136  1.00  0.00     0.178 HD
ENDBRANCH   8  19
ENDBRANCH   6   7
ENDBRANCH   5   6
BRANCH   5  22
ATOM     22  C   UNL A   1      29.492  29.672  23.182  1.00  0.00    -0.023 A 
ATOM     23  C   UNL A   1      29.461  30.897  23.888  1.00  0.00     0.005 A 
ATOM     24  C   UNL A   1      28.749  29.602  21.996  1.00  0.00     0.005 A 
ATOM     25  C   UNL A   1      28.729  31.996  23.426  1.00  0.00     0.000 A 
ATOM     26  C   UNL A   1      28.026  30.707  21.525  1.00  0.00     0.000 A 
ATOM     27  C   UNL A   1      28.016  31.902  22.238  1.00  0.00     0.000 A 
ENDBRANCH   5  22
ENDBRANCH   3   5
ENDBRANCH   2   3
ENDBRANCH   1   2
BRANCH   1  28
ATOM     28  C   UNL A   1      32.039  30.026  26.933  1.00  0.00     0.275 C 
BRANCH  28  29
ATOM     29  O   UNL A   1      33.386  30.454  26.681  1.00  0.00    -0.458 OA
BRANCH  29  30
ATOM     30  C   UNL A   1      33.853  31.475  27.433  1.00  0.00     0.338 C 
ATOM     31  O   UNL A   1      33.225  32.488  27.730  1.00  0.00    -0.246 OA
BRANCH  30  32
ATOM     32  C   UNL A   1      35.172  31.110  28.019  1.00  0.00     0.060 A 
ATOM     33  C   UNL A   1      35.454  29.775  28.308  1.00  0.00     0.016 A 
ATOM     34  C   UNL A   1      36.200  32.057  28.117  1.00  0.00     0.016 A 
ATOM     35  C   UNL A   1      36.731  29.413  28.756  1.00  0.00     0.010 A 
ATOM     36  C   UNL A   1      37.501  31.667  28.428  1.00  0.00     0.010 A 
ATOM     37  C   UNL A   1      37.773  30.358  28.831  1.00  0.00    -0.014 A 
BRANCH  37  38
ATOM     38  C   UNL A   1      39.093  29.987  29.419  1.00  0.00     0.031 A 
ATOM     39  C   UNL A   1      39.511  30.531  30.767  1.00  0.00     0.074 A 
ATOM     40  C   UNL A   1      39.917  29.129  28.781  1.00  0.00     0.049 A 
ATOM     41  N   UNL A   1      40.487  30.130  31.544  1.00  0.00    -0.248 NA
ATOM     42  C   UNL A   1      38.766  31.682  31.312  1.00  0.00     0.031 C 
ATOM     43  C   UNL A   1      39.734  28.620  27.420  1.00  0.00     0.029 A 
ATOM     44  N   UNL A   1      41.067  28.510  29.213  1.00  0.00    -0.354 N 
ATOM     45  C   UNL A   1      40.470  30.976  32.647  1.00  0.00     0.074 A 
ATOM     46  C   UNL A   1      39.443  31.961  32.414  1.00  0.00     0.031 C 
ATOM     47  C   UNL A   1      40.700  27.723  27.153  1.00  0.00     0.029 A 
ATOM     48  C   UNL A   1      41.560  27.581  28.326  1.00  0.00     0.049 A 
ATOM     49  H   UNL A   1      41.498  28.713  30.074  1.00  0.00     0.167 HD
ATOM     50  C   UNL A   1      41.185  30.906  33.792  1.00  0.00     0.034 A 
ATOM     51  C   UNL A   1      42.551  26.675  28.461  1.00  0.00     0.034 A 
ATOM     52  C   UNL A   1      42.143  29.882  34.080  1.00  0.00     0.049 A 
ATOM     53  C   UNL A   1      43.273  26.543  29.777  1.00  0.00     0.074 A 
ATOM     54  C   UNL A   1      42.819  29.649  35.263  1.00  0.00     0.029 A 
ATOM     55  N   UNL A   1      42.557  28.920  33.178  1.00  0.00    -0.354 N 
ATOM     56  N   UNL A   1      43.076  27.201  30.893  1.00  0.00    -0.248 NA
ATOM     57  C   UNL A   1      44.319  25.510  29.869  1.00  0.00     0.031 C 
ATOM     58  C   UNL A   1      43.645  28.538  35.076  1.00  0.00     0.029 A 
ATOM     59  C   UNL A   1      43.483  28.089  33.775  1.00  0.00     0.049 A 
ATOM     60  H   UNL A   1      42.239  28.840  32.250  1.00  0.00     0.167 HD
ATOM     61  C   UNL A   1      43.951  26.645  31.823  1.00  0.00     0.074 A 
ATOM     62  C   UNL A   1      44.670  25.588  31.148  1.00  0.00     0.031 C 
ATOM     63  C   UNL A   1      44.146  26.995  33.116  1.00  0.00     0.034 A 
BRANCH  50  64
ATOM     64  C   UNL A   1      40.859  31.893  34.876  1.00  0.00     0.023 A 
ATOM     65  C   UNL A   1      41.712  33.000  35.058  1.00  0.00     0.012 A 
ATOM     66  C   UNL A   1      39.701  31.766  35.666  1.00  0.00     0.148 A 
ATOM     67  C   UNL A   1      41.433  33.958  36.030  1.00  0.00     0.002 A 
ATOM     68  C   UNL A   1      39.414  32.741  36.613  1.00  0.00     0.091 A 
ATOM     69  F   UNL A   1      38.914  30.697  35.478  1.00  0.00    -0.205 F 
ATOM     70  C   UNL A   1      40.280  33.832  36.800  1.00  0.00     0.022 A 
BRANCH  68  71
ATOM     71  S   UNL A   1      37.937  32.705  37.633  1.00  0.00     0.127 S 
ATOM     72  O   UNL A   1      38.065  33.955  38.382  1.00  0.00    -0.237 OA
ATOM     73  O   UNL A   1      36.873  32.703  36.629  1.00  0.00    -0.237 OA
ATOM     74  O   UNL A   1      38.027  31.495  38.436  1.00  0.00    -0.744 OA
ENDBRANCH  68  71
ENDBRANCH  50  64
BRANCH  51  75
ATOM     75  C   UNL A   1      42.825  25.711  27.358  1.00  0.00     0.023 A 
ATOM     76  C   UNL A   1      43.638  26.119  26.282  1.00  0.00     0.012 A 
ATOM     77  C   UNL A   1      42.306  24.404  27.376  1.00  0.00     0.148 A 
ATOM     78  C   UNL A   1      43.913  25.247  25.229  1.00  0.00     0.002 A 
ATOM     79  C   UNL A   1      42.608  23.529  26.338  1.00  0.00     0.091 A 
ATOM     80  F   UNL A   1      41.535  24.043  28.410  1.00  0.00    -0.205 F 
ATOM     81  C   UNL A   1      43.402  23.952  25.259  1.00  0.00     0.022 A 
BRANCH  79  82
ATOM     82  S   UNL A   1      42.058  21.820  26.313  1.00  0.00     0.127 S 
ATOM     83  O   UNL A   1      40.647  21.964  25.966  1.00  0.00    -0.237 OA
ATOM     84  O   UNL A   1      42.897  21.253  25.257  1.00  0.00    -0.237 OA
ATOM     85  O   UNL A   1      42.323  21.297  27.647  1.00  0.00    -0.744 OA
ENDBRANCH  79  82
ENDBRANCH  51  75
BRANCH  63  86
ATOM     86  C   UNL A   1      45.169  26.251  33.928  1.00  0.00     0.023 A 
ATOM     87  C   UNL A   1      44.765  25.120  34.659  1.00  0.00     0.012 A 
ATOM     88  C   UNL A   1      46.540  26.552  33.805  1.00  0.00     0.148 A 
ATOM     89  C   UNL A   1      45.713  24.288  35.253  1.00  0.00     0.002 A 
ATOM     90  C   UNL A   1      47.481  25.700  34.370  1.00  0.00     0.091 A 
ATOM     91  F   UNL A   1      46.895  27.637  33.102  1.00  0.00    -0.205 F 
ATOM     92  C   UNL A   1      47.069  24.569  35.096  1.00  0.00     0.022 A 
BRANCH  90  93
ATOM     93  S   UNL A   1      49.251  25.920  34.147  1.00  0.00     0.127 S 
ATOM     94  O   UNL A   1      49.376  25.868  32.691  1.00  0.00    -0.237 OA
ATOM     95  O   UNL A   1      49.472  27.244  34.731  1.00  0.00    -0.237 OA
ATOM     96  O   UNL A   1      49.889  24.823  34.860  1.00  0.00    -0.744 OA
ENDBRANCH  90  93
ENDBRANCH  63  86
ENDBRANCH  37  38
ENDBRANCH  30  32
ENDBRANCH  29  30
ENDBRANCH  28  29
ENDBRANCH   1  28
TORSDOF 18
ENDMDL
