MODEL 1
REMARK VINA RESULT:     -10.9      0.000      0.000
REMARK SMILES COCc1cccc(O[C@@H](F)C(=O)OCCOC(=O)c2ccc(-c3c4nc(c(-c5cccc(S(=O)(=O)[O-])c5F)c5ccc([nH]5)c(-c5cccc(S(=O)(=O)[O-])c5F)c5nc(c(-c6cccc(S(=O)(=O)[O-])c6F)c6ccc3[nH]6)C=C5)C=C4)cc2)c1
REMARK SMILES IDX 15 1 14 2 12 3 13 4 10 5 11 6 9 7 8 8 4 9 5 10 83 11 6 12
REMARK SMILES IDX 7 13 3 14 2 15 1 16 16 17 17 18 18 19 19 20 20 21 21 22
REMARK SMILES IDX 82 23 22 24 81 25 23 26 24 27 25 28 75 29 26 30 80 31 74 32
REMARK SMILES IDX 76 33 27 34 79 35 73 36 72 37 28 39 60 40 40 41 59 42 41 43
REMARK SMILES IDX 44 44 58 45 77 46 42 47 43 48 57 50 78 51 45 52 29 53 30 54
REMARK SMILES IDX 38 55 31 56 33 57 39 58 32 59 34 60 35 61 36 62 37 63 61 64
REMARK SMILES IDX 62 65 70 66 63 67 65 68 71 69 64 70 66 71 67 72 68 73 69 74
REMARK SMILES IDX 46 75 47 76 55 77 48 78 50 79 56 80 49 81 51 82 52 83 53 84
REMARK SMILES IDX 54 85
REMARK H PARENT 76 38 44 49
REMARK Flexibility Score: inf
ROOT
ATOM      1  C   UNL A   1      36.065  21.481  25.764  1.00  0.00     0.274 C 
ENDROOT
BRANCH   1   2
ATOM      2  O   UNL A   1      34.753  21.037  25.377  1.00  0.00    -0.457 OA
BRANCH   2   3
ATOM      3  C   UNL A   1      33.800  21.974  25.129  1.00  0.00     0.381 C 
ATOM      4  O   UNL A   1      33.950  23.176  25.326  1.00  0.00    -0.244 OA
BRANCH   3   5
ATOM      5  C   UNL A   1      32.476  21.358  24.615  1.00  0.00     0.461 C 
ATOM      6  F   UNL A   1      31.463  22.280  24.575  1.00  0.00    -0.189 F 
BRANCH   5   7
ATOM      7  O   UNL A   1      31.957  20.152  25.151  1.00  0.00    -0.451 OA
BRANCH   7   8
ATOM      8  C   UNL A   1      32.370  18.960  24.631  1.00  0.00     0.124 A 
ATOM      9  C   UNL A   1      33.078  16.633  24.725  1.00  0.00    -0.019 A 
ATOM     10  C   UNL A   1      33.321  16.664  23.347  1.00  0.00     0.006 A 
ATOM     11  C   UNL A   1      32.565  17.780  25.348  1.00  0.00     0.052 A 
ATOM     12  C   UNL A   1      33.099  17.830  22.617  1.00  0.00     0.004 A 
ATOM     13  C   UNL A   1      32.635  18.977  23.261  1.00  0.00     0.046 A 
BRANCH   9  14
ATOM     14  C   UNL A   1      33.390  15.413  25.556  1.00  0.00     0.195 C 
BRANCH  14  15
ATOM     15  O   UNL A   1      34.692  14.886  25.294  1.00  0.00    -0.380 OA
ATOM     16  C   UNL A   1      35.732  15.840  25.450  1.00  0.00     0.195 C 
ENDBRANCH  14  15
ENDBRANCH   9  14
ENDBRANCH   7   8
ENDBRANCH   5   7
ENDBRANCH   3   5
ENDBRANCH   2   3
ENDBRANCH   1   2
BRANCH   1  17
ATOM     17  C   UNL A   1      37.126  20.525  25.216  1.00  0.00     0.275 C 
BRANCH  17  18
ATOM     18  O   UNL A   1      38.403  21.179  25.116  1.00  0.00    -0.458 OA
BRANCH  18  19
ATOM     19  C   UNL A   1      39.226  21.000  26.176  1.00  0.00     0.338 C 
ATOM     20  O   UNL A   1      39.620  19.945  26.639  1.00  0.00    -0.246 OA
BRANCH  19  21
ATOM     21  C   UNL A   1      39.744  22.304  26.612  1.00  0.00     0.060 A 
ATOM     22  C   UNL A   1      39.148  23.453  26.083  1.00  0.00     0.016 A 
ATOM     23  C   UNL A   1      40.829  22.397  27.483  1.00  0.00     0.016 A 
ATOM     24  C   UNL A   1      39.638  24.709  26.420  1.00  0.00     0.010 A 
ATOM     25  C   UNL A   1      41.322  23.658  27.819  1.00  0.00     0.010 A 
ATOM     26  C   UNL A   1      40.736  24.818  27.280  1.00  0.00    -0.014 A 
BRANCH  26  27
ATOM     27  C   UNL A   1      41.312  26.148  27.579  1.00  0.00     0.031 A 
ATOM     28  C   UNL A   1      42.719  26.455  27.156  1.00  0.00     0.074 A 
ATOM     29  C   UNL A   1      40.577  27.059  28.240  1.00  0.00     0.049 A 
ATOM     30  N   UNL A   1      43.445  27.510  27.410  1.00  0.00    -0.248 NA
ATOM     31  C   UNL A   1      43.402  25.434  26.342  1.00  0.00     0.031 C 
ATOM     32  C   UNL A   1      39.195  26.867  28.683  1.00  0.00     0.029 A 
ATOM     33  N   UNL A   1      40.899  28.317  28.681  1.00  0.00    -0.354 N 
ATOM     34  C   UNL A   1      44.680  27.270  26.821  1.00  0.00     0.074 A 
ATOM     35  C   UNL A   1      44.608  25.965  26.200  1.00  0.00     0.031 C 
ATOM     36  C   UNL A   1      38.798  27.958  29.358  1.00  0.00     0.029 A 
ATOM     37  C   UNL A   1      39.907  28.905  29.428  1.00  0.00     0.049 A 
ATOM     38  H   UNL A   1      41.758  28.756  28.481  1.00  0.00     0.167 HD
ATOM     39  C   UNL A   1      45.770  28.074  26.790  1.00  0.00     0.034 A 
ATOM     40  C   UNL A   1      39.908  30.060  30.121  1.00  0.00     0.034 A 
ATOM     41  C   UNL A   1      45.820  29.379  27.391  1.00  0.00     0.049 A 
ATOM     42  C   UNL A   1      41.143  30.922  30.092  1.00  0.00     0.074 A 
ATOM     43  C   UNL A   1      46.867  30.283  27.399  1.00  0.00     0.029 A 
ATOM     44  N   UNL A   1      44.777  29.966  28.094  1.00  0.00    -0.354 N 
ATOM     45  N   UNL A   1      42.275  30.721  29.460  1.00  0.00    -0.248 NA
ATOM     46  C   UNL A   1      41.092  32.181  30.848  1.00  0.00     0.031 C 
ATOM     47  C   UNL A   1      46.461  31.412  28.121  1.00  0.00     0.029 A 
ATOM     48  C   UNL A   1      45.156  31.219  28.543  1.00  0.00     0.049 A 
ATOM     49  H   UNL A   1      43.899  29.551  28.251  1.00  0.00     0.167 HD
ATOM     50  C   UNL A   1      43.056  31.842  29.713  1.00  0.00     0.074 A 
ATOM     51  C   UNL A   1      42.261  32.727  30.539  1.00  0.00     0.031 C 
ATOM     52  C   UNL A   1      44.324  32.109  29.313  1.00  0.00     0.034 A 
BRANCH  39  53
ATOM     53  C   UNL A   1      46.986  27.574  26.057  1.00  0.00     0.023 A 
ATOM     54  C   UNL A   1      47.927  26.776  26.735  1.00  0.00     0.012 A 
ATOM     55  C   UNL A   1      47.172  27.850  24.688  1.00  0.00     0.148 A 
ATOM     56  C   UNL A   1      49.051  26.283  26.072  1.00  0.00     0.002 A 
ATOM     57  C   UNL A   1      48.273  27.322  24.023  1.00  0.00     0.091 A 
ATOM     58  F   UNL A   1      46.278  28.632  24.065  1.00  0.00    -0.205 F 
ATOM     59  C   UNL A   1      49.218  26.547  24.715  1.00  0.00     0.022 A 
BRANCH  57  60
ATOM     60  S   UNL A   1      48.541  27.548  22.261  1.00  0.00     0.127 S 
ATOM     61  O   UNL A   1      49.719  28.414  22.250  1.00  0.00    -0.237 OA
ATOM     62  O   UNL A   1      48.789  26.177  21.809  1.00  0.00    -0.237 OA
ATOM     63  O   UNL A   1      47.319  28.146  21.742  1.00  0.00    -0.744 OA
ENDBRANCH  57  60
ENDBRANCH  39  53
BRANCH  40  64
ATOM     64  C   UNL A   1      38.696  30.477  30.881  1.00  0.00     0.023 A 
ATOM     65  C   UNL A   1      38.602  30.179  32.254  1.00  0.00     0.012 A 
ATOM     66  C   UNL A   1      37.649  31.184  30.258  1.00  0.00     0.148 A 
ATOM     67  C   UNL A   1      37.473  30.551  32.985  1.00  0.00     0.002 A 
ATOM     68  C   UNL A   1      36.552  31.600  31.005  1.00  0.00     0.091 A 
ATOM     69  F   UNL A   1      37.746  31.441  28.946  1.00  0.00    -0.205 F 
ATOM     70  C   UNL A   1      36.455  31.271  32.366  1.00  0.00     0.022 A 
BRANCH  68  71
ATOM     71  S   UNL A   1      35.262  32.640  30.313  1.00  0.00     0.127 S 
ATOM     72  O   UNL A   1      34.799  31.835  29.188  1.00  0.00    -0.237 OA
ATOM     73  O   UNL A   1      34.320  32.742  31.428  1.00  0.00    -0.237 OA
ATOM     74  O   UNL A   1      35.917  33.896  29.970  1.00  0.00    -0.744 OA
ENDBRANCH  68  71
ENDBRANCH  40  64
BRANCH  52  75
ATOM     75  C   UNL A   1      44.922  33.428  29.725  1.00  0.00     0.023 A 
ATOM     76  C   UNL A   1      45.659  33.518  30.922  1.00  0.00     0.012 A 
ATOM     77  C   UNL A   1      44.822  34.554  28.885  1.00  0.00     0.148 A 
ATOM     78  C   UNL A   1      46.266  34.718  31.290  1.00  0.00     0.002 A 
ATOM     79  C   UNL A   1      45.469  35.733  29.235  1.00  0.00     0.091 A 
ATOM     80  F   UNL A   1      44.100  34.450  27.760  1.00  0.00    -0.205 F 
ATOM     81  C   UNL A   1      46.181  35.820  30.442  1.00  0.00     0.022 A 
BRANCH  79  82
ATOM     82  S   UNL A   1      45.495  37.172  28.161  1.00  0.00     0.127 S 
ATOM     83  O   UNL A   1      46.227  38.140  28.977  1.00  0.00    -0.237 OA
ATOM     84  O   UNL A   1      46.230  36.676  26.997  1.00  0.00    -0.237 OA
ATOM     85  O   UNL A   1      44.101  37.504  27.899  1.00  0.00    -0.744 OA
ENDBRANCH  79  82
ENDBRANCH  52  75
ENDBRANCH  26  27
ENDBRANCH  19  21
ENDBRANCH  18  19
ENDBRANCH  17  18
ENDBRANCH   1  17
TORSDOF 18
ENDMDL
MODEL 2
REMARK VINA RESULT:     -10.6      5.613      7.917
REMARK SMILES COCc1cccc(O[C@@H](F)C(=O)OCCOC(=O)c2ccc(-c3c4nc(c(-c5cccc(S(=O)(=O)[O-])c5F)c5ccc([nH]5)c(-c5cccc(S(=O)(=O)[O-])c5F)c5nc(c(-c6cccc(S(=O)(=O)[O-])c6F)c6ccc3[nH]6)C=C5)C=C4)cc2)c1
REMARK SMILES IDX 15 1 14 2 12 3 13 4 10 5 11 6 9 7 8 8 4 9 5 10 83 11 6 12
REMARK SMILES IDX 7 13 3 14 2 15 1 16 16 17 17 18 18 19 19 20 20 21 21 22
REMARK SMILES IDX 82 23 22 24 81 25 23 26 24 27 25 28 75 29 26 30 80 31 74 32
REMARK SMILES IDX 76 33 27 34 79 35 73 36 72 37 28 39 60 40 40 41 59 42 41 43
REMARK SMILES IDX 44 44 58 45 77 46 42 47 43 48 57 50 78 51 45 52 29 53 30 54
REMARK SMILES IDX 38 55 31 56 33 57 39 58 32 59 34 60 35 61 36 62 37 63 61 64
REMARK SMILES IDX 62 65 70 66 63 67 65 68 71 69 64 70 66 71 67 72 68 73 69 74
REMARK SMILES IDX 46 75 47 76 55 77 48 78 50 79 56 80 49 81 51 82 52 83 53 84
REMARK SMILES IDX 54 85
REMARK H PARENT 76 38 44 49
REMARK Flexibility Score: inf
ROOT
ATOM      1  C   UNL A   1      31.580  29.301  24.267  1.00  0.00     0.274 C 
ENDROOT
BRANCH   1   2
ATOM      2  O   UNL A   1      30.236  28.834  24.058  1.00  0.00    -0.457 OA
BRANCH   2   3
ATOM      3  C   UNL A   1      30.043  27.760  23.246  1.00  0.00     0.381 C 
ATOM      4  O   UNL A   1      30.276  27.760  22.041  1.00  0.00    -0.244 OA
BRANCH   3   5
ATOM      5  C   UNL A   1      29.447  26.543  23.996  1.00  0.00     0.461 C 
ATOM      6  F   UNL A   1      28.078  26.526  23.938  1.00  0.00    -0.189 F 
BRANCH   5   7
ATOM      7  O   UNL A   1      29.840  26.219  25.319  1.00  0.00    -0.451 OA
BRANCH   7   8
ATOM      8  C   UNL A   1      30.947  25.446  25.514  1.00  0.00     0.124 A 
ATOM      9  C   UNL A   1      32.171  23.353  25.738  1.00  0.00    -0.019 A 
ATOM     10  C   UNL A   1      33.326  24.078  26.056  1.00  0.00     0.006 A 
ATOM     11  C   UNL A   1      30.996  24.054  25.430  1.00  0.00     0.052 A 
ATOM     12  C   UNL A   1      33.293  25.470  26.111  1.00  0.00     0.004 A 
ATOM     13  C   UNL A   1      32.104  26.150  25.850  1.00  0.00     0.046 A 
BRANCH   9  14
ATOM     14  C   UNL A   1      32.154  21.845  25.755  1.00  0.00     0.195 C 
BRANCH  14  15
ATOM     15  O   UNL A   1      33.463  21.280  25.860  1.00  0.00    -0.380 OA
ATOM     16  C   UNL A   1      34.006  20.874  24.612  1.00  0.00     0.195 C 
ENDBRANCH  14  15
ENDBRANCH   9  14
ENDBRANCH   7   8
ENDBRANCH   5   7
ENDBRANCH   3   5
ENDBRANCH   2   3
ENDBRANCH   1   2
BRANCH   1  17
ATOM     17  C   UNL A   1      31.638  30.199  25.504  1.00  0.00     0.275 C 
BRANCH  17  18
ATOM     18  O   UNL A   1      32.937  30.141  26.119  1.00  0.00    -0.458 OA
BRANCH  18  19
ATOM     19  C   UNL A   1      33.226  31.170  26.950  1.00  0.00     0.338 C 
ATOM     20  O   UNL A   1      32.502  32.098  27.262  1.00  0.00    -0.246 OA
BRANCH  19  21
ATOM     21  C   UNL A   1      34.525  30.924  27.590  1.00  0.00     0.060 A 
ATOM     22  C   UNL A   1      34.849  29.605  27.924  1.00  0.00     0.016 A 
ATOM     23  C   UNL A   1      35.387  31.974  27.905  1.00  0.00     0.016 A 
ATOM     24  C   UNL A   1      36.041  29.327  28.583  1.00  0.00     0.010 A 
ATOM     25  C   UNL A   1      36.582  31.694  28.568  1.00  0.00     0.010 A 
ATOM     26  C   UNL A   1      36.909  30.371  28.920  1.00  0.00    -0.014 A 
BRANCH  26  27
ATOM     27  C   UNL A   1      38.139  30.090  29.691  1.00  0.00     0.031 A 
ATOM     28  C   UNL A   1      39.171  29.161  29.122  1.00  0.00     0.074 A 
ATOM     29  C   UNL A   1      38.311  30.654  30.900  1.00  0.00     0.049 A 
ATOM     30  N   UNL A   1      40.260  28.700  29.675  1.00  0.00    -0.248 NA
ATOM     31  C   UNL A   1      38.942  28.682  27.748  1.00  0.00     0.031 C 
ATOM     32  C   UNL A   1      37.377  31.584  31.537  1.00  0.00     0.029 A 
ATOM     33  N   UNL A   1      39.319  30.506  31.819  1.00  0.00    -0.354 N 
ATOM     34  C   UNL A   1      40.831  27.850  28.736  1.00  0.00     0.074 A 
ATOM     35  C   UNL A   1      39.964  27.854  27.577  1.00  0.00     0.031 C 
ATOM     36  C   UNL A   1      37.841  31.900  32.758  1.00  0.00     0.029 A 
ATOM     37  C   UNL A   1      39.081  31.167  33.000  1.00  0.00     0.049 A 
ATOM     38  H   UNL A   1      40.132  29.978  31.649  1.00  0.00     0.167 HD
ATOM     39  C   UNL A   1      41.983  27.143  28.828  1.00  0.00     0.034 A 
ATOM     40  C   UNL A   1      39.768  31.153  34.159  1.00  0.00     0.034 A 
ATOM     41  C   UNL A   1      42.847  27.167  29.976  1.00  0.00     0.049 A 
ATOM     42  C   UNL A   1      41.030  30.336  34.243  1.00  0.00     0.074 A 
ATOM     43  C   UNL A   1      44.048  26.505  30.164  1.00  0.00     0.029 A 
ATOM     44  N   UNL A   1      42.603  27.891  31.135  1.00  0.00    -0.354 N 
ATOM     45  N   UNL A   1      41.603  29.604  33.317  1.00  0.00    -0.248 NA
ATOM     46  C   UNL A   1      41.756  30.364  35.521  1.00  0.00     0.031 C 
ATOM     47  C   UNL A   1      44.522  26.817  31.443  1.00  0.00     0.029 A 
ATOM     48  C   UNL A   1      43.628  27.690  32.043  1.00  0.00     0.049 A 
ATOM     49  H   UNL A   1      41.817  28.462  31.288  1.00  0.00     0.167 HD
ATOM     50  C   UNL A   1      42.771  29.113  33.888  1.00  0.00     0.074 A 
ATOM     51  C   UNL A   1      42.835  29.648  35.233  1.00  0.00     0.031 C 
ATOM     52  C   UNL A   1      43.700  28.282  33.354  1.00  0.00     0.034 A 
BRANCH  39  53
ATOM     53  C   UNL A   1      42.387  26.308  27.643  1.00  0.00     0.023 A 
ATOM     54  C   UNL A   1      43.212  26.868  26.648  1.00  0.00     0.012 A 
ATOM     55  C   UNL A   1      41.994  24.959  27.537  1.00  0.00     0.148 A 
ATOM     56  C   UNL A   1      43.618  26.108  25.550  1.00  0.00     0.002 A 
ATOM     57  C   UNL A   1      42.436  24.196  26.462  1.00  0.00     0.091 A 
ATOM     58  F   UNL A   1      41.190  24.451  28.481  1.00  0.00    -0.205 F 
ATOM     59  C   UNL A   1      43.239  24.771  25.463  1.00  0.00     0.022 A 
BRANCH  57  60
ATOM     60  S   UNL A   1      42.060  22.447  26.296  1.00  0.00     0.127 S 
ATOM     61  O   UNL A   1      40.600  22.466  26.207  1.00  0.00    -0.237 OA
ATOM     62  O   UNL A   1      42.742  22.103  25.047  1.00  0.00    -0.237 OA
ATOM     63  O   UNL A   1      42.606  21.804  27.483  1.00  0.00    -0.744 OA
ENDBRANCH  57  60
ENDBRANCH  39  53
BRANCH  40  64
ATOM     64  C   UNL A   1      39.288  31.951  35.322  1.00  0.00     0.023 A 
ATOM     65  C   UNL A   1      38.362  31.385  36.217  1.00  0.00     0.012 A 
ATOM     66  C   UNL A   1      39.761  33.257  35.558  1.00  0.00     0.148 A 
ATOM     67  C   UNL A   1      37.891  32.116  37.310  1.00  0.00     0.002 A 
ATOM     68  C   UNL A   1      39.330  33.959  36.678  1.00  0.00     0.091 A 
ATOM     69  F   UNL A   1      40.627  33.789  34.684  1.00  0.00    -0.205 F 
ATOM     70  C   UNL A   1      38.383  33.396  37.547  1.00  0.00     0.022 A 
BRANCH  68  71
ATOM     71  S   UNL A   1      40.011  35.560  37.125  1.00  0.00     0.127 S 
ATOM     72  O   UNL A   1      39.357  35.818  38.404  1.00  0.00    -0.237 OA
ATOM     73  O   UNL A   1      41.443  35.270  37.211  1.00  0.00    -0.237 OA
ATOM     74  O   UNL A   1      39.649  36.455  36.033  1.00  0.00    -0.744 OA
ENDBRANCH  68  71
ENDBRANCH  40  64
BRANCH  52  75
ATOM     75  C   UNL A   1      44.889  27.928  34.207  1.00  0.00     0.023 A 
ATOM     76  C   UNL A   1      46.073  28.685  34.105  1.00  0.00     0.012 A 
ATOM     77  C   UNL A   1      44.804  26.899  35.165  1.00  0.00     0.148 A 
ATOM     78  C   UNL A   1      47.164  28.405  34.927  1.00  0.00     0.002 A 
ATOM     79  C   UNL A   1      45.879  26.657  36.013  1.00  0.00     0.091 A 
ATOM     80  F   UNL A   1      43.674  26.180  35.232  1.00  0.00    -0.205 F 
ATOM     81  C   UNL A   1      47.063  27.402  35.888  1.00  0.00     0.022 A 
BRANCH  79  82
ATOM     82  S   UNL A   1      45.803  25.451  37.341  1.00  0.00     0.127 S 
ATOM     83  O   UNL A   1      44.658  25.930  38.114  1.00  0.00    -0.237 OA
ATOM     84  O   UNL A   1      45.570  24.203  36.614  1.00  0.00    -0.237 OA
ATOM     85  O   UNL A   1      47.089  25.522  38.022  1.00  0.00    -0.744 OA
ENDBRANCH  79  82
ENDBRANCH  52  75
ENDBRANCH  26  27
ENDBRANCH  19  21
ENDBRANCH  18  19
ENDBRANCH  17  18
ENDBRANCH   1  17
TORSDOF 18
ENDMDL
MODEL 3
REMARK VINA RESULT:     -10.4      4.302      6.747
REMARK SMILES COCc1cccc(O[C@@H](F)C(=O)OCCOC(=O)c2ccc(-c3c4nc(c(-c5cccc(S(=O)(=O)[O-])c5F)c5ccc([nH]5)c(-c5cccc(S(=O)(=O)[O-])c5F)c5nc(c(-c6cccc(S(=O)(=O)[O-])c6F)c6ccc3[nH]6)C=C5)C=C4)cc2)c1
REMARK SMILES IDX 15 1 14 2 12 3 13 4 10 5 11 6 9 7 8 8 4 9 5 10 83 11 6 12
REMARK SMILES IDX 7 13 3 14 2 15 1 16 16 17 17 18 18 19 19 20 20 21 21 22
REMARK SMILES IDX 82 23 22 24 81 25 23 26 24 27 25 28 75 29 26 30 80 31 74 32
REMARK SMILES IDX 76 33 27 34 79 35 73 36 72 37 28 39 60 40 40 41 59 42 41 43
REMARK SMILES IDX 44 44 58 45 77 46 42 47 43 48 57 50 78 51 45 52 29 53 30 54
REMARK SMILES IDX 38 55 31 56 33 57 39 58 32 59 34 60 35 61 36 62 37 63 61 64
REMARK SMILES IDX 62 65 70 66 63 67 65 68 71 69 64 70 66 71 67 72 68 73 69 74
REMARK SMILES IDX 46 75 47 76 55 77 48 78 50 79 56 80 49 81 51 82 52 83 53 84
REMARK SMILES IDX 54 85
REMARK H PARENT 76 38 44 49
REMARK Flexibility Score: inf
ROOT
ATOM      1  C   UNL A   1      42.040  19.617  26.688  1.00  0.00     0.274 C 
ENDROOT
BRANCH   1   2
ATOM      2  O   UNL A   1      42.531  19.252  25.387  1.00  0.00    -0.457 OA
BRANCH   2   3
ATOM      3  C   UNL A   1      43.865  19.036  25.237  1.00  0.00     0.381 C 
ATOM      4  O   UNL A   1      44.464  18.079  25.717  1.00  0.00    -0.244 OA
BRANCH   3   5
ATOM      5  C   UNL A   1      44.565  20.157  24.430  1.00  0.00     0.461 C 
ATOM      6  F   UNL A   1      45.176  19.672  23.303  1.00  0.00    -0.189 F 
BRANCH   5   7
ATOM      7  O   UNL A   1      45.443  21.082  25.048  1.00  0.00    -0.451 OA
BRANCH   7   8
ATOM      8  C   UNL A   1      45.119  22.407  25.053  1.00  0.00     0.124 A 
ATOM      9  C   UNL A   1      45.568  24.793  25.232  1.00  0.00    -0.019 A 
ATOM     10  C   UNL A   1      44.194  25.046  25.142  1.00  0.00     0.006 A 
ATOM     11  C   UNL A   1      46.019  23.468  25.147  1.00  0.00     0.052 A 
ATOM     12  C   UNL A   1      43.289  23.993  25.015  1.00  0.00     0.004 A 
ATOM     13  C   UNL A   1      43.751  22.678  24.982  1.00  0.00     0.046 A 
BRANCH   9  14
ATOM     14  C   UNL A   1      46.563  25.904  25.457  1.00  0.00     0.195 C 
BRANCH  14  15
ATOM     15  O   UNL A   1      46.890  26.602  24.252  1.00  0.00    -0.380 OA
ATOM     16  C   UNL A   1      46.450  27.952  24.241  1.00  0.00     0.195 C 
ENDBRANCH  14  15
ENDBRANCH   9  14
ENDBRANCH   7   8
ENDBRANCH   5   7
ENDBRANCH   3   5
ENDBRANCH   2   3
ENDBRANCH   1   2
BRANCH   1  17
ATOM     17  C   UNL A   1      40.708  20.357  26.558  1.00  0.00     0.275 C 
BRANCH  17  18
ATOM     18  O   UNL A   1      40.921  21.746  26.252  1.00  0.00    -0.458 OA
BRANCH  18  19
ATOM     19  C   UNL A   1      39.843  22.546  26.430  1.00  0.00     0.338 C 
ATOM     20  O   UNL A   1      38.668  22.231  26.377  1.00  0.00    -0.246 OA
BRANCH  19  21
ATOM     21  C   UNL A   1      40.292  23.869  26.885  1.00  0.00     0.060 A 
ATOM     22  C   UNL A   1      40.955  23.945  28.114  1.00  0.00     0.016 A 
ATOM     23  C   UNL A   1      40.022  25.019  26.144  1.00  0.00     0.016 A 
ATOM     24  C   UNL A   1      41.350  25.181  28.615  1.00  0.00     0.010 A 
ATOM     25  C   UNL A   1      40.417  26.258  26.650  1.00  0.00     0.010 A 
ATOM     26  C   UNL A   1      41.072  26.345  27.891  1.00  0.00    -0.014 A 
BRANCH  26  27
ATOM     27  C   UNL A   1      41.417  27.668  28.458  1.00  0.00     0.031 A 
ATOM     28  C   UNL A   1      42.859  28.026  28.670  1.00  0.00     0.074 A 
ATOM     29  C   UNL A   1      40.437  28.526  28.792  1.00  0.00     0.049 A 
ATOM     30  N   UNL A   1      43.371  29.079  29.248  1.00  0.00    -0.248 NA
ATOM     31  C   UNL A   1      43.858  27.065  28.171  1.00  0.00     0.031 C 
ATOM     32  C   UNL A   1      39.005  28.282  28.612  1.00  0.00     0.029 A 
ATOM     33  N   UNL A   1      40.497  29.764  29.379  1.00  0.00    -0.354 N 
ATOM     34  C   UNL A   1      44.747  28.897  29.215  1.00  0.00     0.074 A 
ATOM     35  C   UNL A   1      44.993  27.627  28.565  1.00  0.00     0.031 C 
ATOM     36  C   UNL A   1      38.320  29.326  29.108  1.00  0.00     0.029 A 
ATOM     37  C   UNL A   1      39.261  30.289  29.672  1.00  0.00     0.049 A 
ATOM     38  H   UNL A   1      41.343  30.230  29.573  1.00  0.00     0.167 HD
ATOM     39  C   UNL A   1      45.718  29.723  29.673  1.00  0.00     0.034 A 
ATOM     40  C   UNL A   1      38.928  31.404  30.351  1.00  0.00     0.034 A 
ATOM     41  C   UNL A   1      45.462  30.993  30.295  1.00  0.00     0.049 A 
ATOM     42  C   UNL A   1      40.027  32.290  30.873  1.00  0.00     0.074 A 
ATOM     43  C   UNL A   1      46.373  31.917  30.775  1.00  0.00     0.029 A 
ATOM     44  N   UNL A   1      44.199  31.519  30.526  1.00  0.00    -0.354 N 
ATOM     45  N   UNL A   1      41.327  32.148  30.760  1.00  0.00    -0.248 NA
ATOM     46  C   UNL A   1      39.617  33.505  31.592  1.00  0.00     0.031 C 
ATOM     47  C   UNL A   1      45.660  32.995  31.310  1.00  0.00     0.029 A 
ATOM     48  C   UNL A   1      44.306  32.753  31.143  1.00  0.00     0.049 A 
ATOM     49  H   UNL A   1      43.352  31.079  30.286  1.00  0.00     0.167 HD
ATOM     50  C   UNL A   1      41.887  33.268  31.362  1.00  0.00     0.074 A 
ATOM     51  C   UNL A   1      40.786  34.090  31.820  1.00  0.00     0.031 C 
ATOM     52  C   UNL A   1      43.195  33.582  31.535  1.00  0.00     0.034 A 
BRANCH  39  53
ATOM     53  C   UNL A   1      47.148  29.289  29.490  1.00  0.00     0.023 A 
ATOM     54  C   UNL A   1      47.762  28.487  30.472  1.00  0.00     0.012 A 
ATOM     55  C   UNL A   1      47.867  29.630  28.327  1.00  0.00     0.148 A 
ATOM     56  C   UNL A   1      49.079  28.055  30.315  1.00  0.00     0.002 A 
ATOM     57  C   UNL A   1      49.166  29.161  28.158  1.00  0.00     0.091 A 
ATOM     58  F   UNL A   1      47.274  30.413  27.415  1.00  0.00    -0.205 F 
ATOM     59  C   UNL A   1      49.776  28.382  29.155  1.00  0.00     0.022 A 
BRANCH  57  60
ATOM     60  S   UNL A   1      50.122  29.470  26.669  1.00  0.00     0.127 S 
ATOM     61  O   UNL A   1      51.428  28.926  27.039  1.00  0.00    -0.237 OA
ATOM     62  O   UNL A   1      49.396  28.686  25.668  1.00  0.00    -0.237 OA
ATOM     63  O   UNL A   1      50.081  30.911  26.458  1.00  0.00    -0.744 OA
ENDBRANCH  57  60
ENDBRANCH  39  53
BRANCH  40  64
ATOM     64  C   UNL A   1      37.494  31.754  30.556  1.00  0.00     0.023 A 
ATOM     65  C   UNL A   1      36.864  31.415  31.768  1.00  0.00     0.012 A 
ATOM     66  C   UNL A   1      36.759  32.438  29.568  1.00  0.00     0.148 A 
ATOM     67  C   UNL A   1      35.520  31.724  31.981  1.00  0.00     0.002 A 
ATOM     68  C   UNL A   1      35.436  32.792  29.808  1.00  0.00     0.091 A 
ATOM     69  F   UNL A   1      37.369  32.735  28.411  1.00  0.00    -0.205 F 
ATOM     70  C   UNL A   1      34.809  32.422  31.008  1.00  0.00     0.022 A 
BRANCH  68  71
ATOM     71  S   UNL A   1      34.492  33.801  28.661  1.00  0.00     0.127 S 
ATOM     72  O   UNL A   1      35.412  34.905  28.405  1.00  0.00    -0.237 OA
ATOM     73  O   UNL A   1      34.299  32.886  27.535  1.00  0.00    -0.237 OA
ATOM     74  O   UNL A   1      33.264  34.146  29.365  1.00  0.00    -0.744 OA
ENDBRANCH  68  71
ENDBRANCH  40  64
BRANCH  52  75
ATOM     75  C   UNL A   1      43.514  34.887  32.214  1.00  0.00     0.023 A 
ATOM     76  C   UNL A   1      43.773  36.034  31.437  1.00  0.00     0.012 A 
ATOM     77  C   UNL A   1      43.474  34.995  33.617  1.00  0.00     0.148 A 
ATOM     78  C   UNL A   1      44.015  37.263  32.050  1.00  0.00     0.002 A 
ATOM     79  C   UNL A   1      43.669  36.233  34.219  1.00  0.00     0.091 A 
ATOM     80  F   UNL A   1      43.243  33.887  34.337  1.00  0.00    -0.205 F 
ATOM     81  C   UNL A   1      43.951  37.365  33.438  1.00  0.00     0.022 A 
BRANCH  79  82
ATOM     82  S   UNL A   1      43.510  36.477  35.991  1.00  0.00     0.127 S 
ATOM     83  O   UNL A   1      44.565  35.605  36.508  1.00  0.00    -0.237 OA
ATOM     84  O   UNL A   1      43.780  37.908  36.133  1.00  0.00    -0.237 OA
ATOM     85  O   UNL A   1      42.150  36.081  36.331  1.00  0.00    -0.744 OA
ENDBRANCH  79  82
ENDBRANCH  52  75
ENDBRANCH  26  27
ENDBRANCH  19  21
ENDBRANCH  18  19
ENDBRANCH  17  18
ENDBRANCH   1  17
TORSDOF 18
ENDMDL
