MODEL 1
REMARK VINA RESULT:     -11.4      0.000      0.000
REMARK SMILES C[C@](NC(=O)c1ccc(Br)o1)(C(=O)OCCOC(=O)c1ccc(-c2c3nc(c(-c4cccc(S(=O)(=O)[O-])c4F)c4ccc([nH]4)c(-c4cccc(S(=O)(=O)[O-])c4F)c4nc(c(-c5cccc(S(=O)(=O)[O-])c5F)c5ccc2[nH]5)C=C4)C=C3)cc1)C(F)(F)F
REMARK SMILES IDX 16 1 15 2 14 3 12 4 13 5 2 6 1 7 83 8 84 9 85 10 86 11 3 12
REMARK SMILES IDX 4 13 5 15 6 16 7 17 11 18 8 19 9 20 10 21 17 22 18 23 19 24
REMARK SMILES IDX 20 25 21 26 82 27 22 28 81 29 23 30 24 31 25 32 75 33 26 34
REMARK SMILES IDX 80 35 74 36 76 37 27 38 79 39 73 40 72 41 28 43 60 44 40 45
REMARK SMILES IDX 59 46 41 47 44 48 58 49 77 50 42 51 43 52 57 54 78 55 45 56
REMARK SMILES IDX 29 57 30 58 38 59 31 60 33 61 39 62 32 63 34 64 35 65 36 66
REMARK SMILES IDX 37 67 61 68 62 69 70 70 63 71 65 72 71 73 64 74 66 75 67 76
REMARK SMILES IDX 68 77 69 78 46 79 47 80 55 81 48 82 50 83 56 84 49 85 51 86
REMARK SMILES IDX 52 87 53 88 54 89
REMARK H PARENT 3 14 76 42 44 53
REMARK Flexibility Score: inf
ROOT
ATOM      1  C   UNL A   1      36.072  21.513  24.379  1.00  0.00     0.275 C 
ENDROOT
BRANCH   1   2
ATOM      2  C   UNL A   1      35.369  22.810  23.946  1.00  0.00     0.274 C 
BRANCH   2   3
ATOM      3  O   UNL A   1      33.952  22.822  24.264  1.00  0.00    -0.460 OA
BRANCH   3   4
ATOM      4  C   UNL A   1      33.680  23.456  25.438  1.00  0.00     0.341 C 
ATOM      5  O   UNL A   1      34.238  24.497  25.780  1.00  0.00    -0.249 OA
BRANCH   4   6
ATOM      6  C   UNL A   1      32.555  22.831  26.287  1.00  0.00     0.231 C 
ATOM      7  C   UNL A   1      31.952  21.821  25.287  1.00  0.00     0.058 C 
BRANCH   6   8
ATOM      8  C   UNL A   1      33.421  22.256  27.422  1.00  0.00     0.422 C 
ATOM      9  F   UNL A   1      33.941  21.054  27.080  1.00  0.00    -0.168 F 
ATOM     10  F   UNL A   1      34.520  22.996  27.682  1.00  0.00    -0.168 F 
ATOM     11  F   UNL A   1      32.741  22.143  28.578  1.00  0.00    -0.168 F 
ENDBRANCH   6   8
BRANCH   6  12
ATOM     12  N   UNL A   1      31.472  23.685  26.864  1.00  0.00    -0.326 N 
ATOM     13  C   UNL A   1      30.623  24.553  26.161  1.00  0.00     0.288 C 
ATOM     14  H   UNL A   1      31.340  23.633  27.838  1.00  0.00     0.165 HD
ATOM     15  O   UNL A   1      29.640  24.987  26.761  1.00  0.00    -0.266 OA
BRANCH  13  16
ATOM     16  C   UNL A   1      30.948  24.944  24.791  1.00  0.00     0.192 A 
ATOM     17  C   UNL A   1      30.666  24.413  23.540  1.00  0.00     0.057 A 
ATOM     18  O   UNL A   1      31.741  26.055  24.617  1.00  0.00    -0.444 OA
ATOM     19  C   UNL A   1      31.456  25.116  22.596  1.00  0.00     0.059 A 
ATOM     20  C   UNL A   1      32.064  26.128  23.296  1.00  0.00     0.170 A 
ATOM     21  Br  UNL A   1      33.229  27.385  22.561  1.00  0.00    -0.008 Br
ENDBRANCH  13  16
ENDBRANCH   6  12
ENDBRANCH   4   6
ENDBRANCH   3   4
ENDBRANCH   2   3
ENDBRANCH   1   2
BRANCH   1  22
ATOM     22  O   UNL A   1      36.698  21.653  25.666  1.00  0.00    -0.458 OA
BRANCH  22  23
ATOM     23  C   UNL A   1      38.010  21.292  25.718  1.00  0.00     0.338 C 
ATOM     24  O   UNL A   1      38.457  20.216  25.340  1.00  0.00    -0.246 OA
BRANCH  23  25
ATOM     25  C   UNL A   1      38.870  22.412  26.203  1.00  0.00     0.060 A 
ATOM     26  C   UNL A   1      40.023  22.176  26.946  1.00  0.00     0.016 A 
ATOM     27  C   UNL A   1      38.471  23.737  26.003  1.00  0.00     0.016 A 
ATOM     28  C   UNL A   1      40.668  23.222  27.614  1.00  0.00     0.010 A 
ATOM     29  C   UNL A   1      39.221  24.797  26.545  1.00  0.00     0.010 A 
ATOM     30  C   UNL A   1      40.323  24.559  27.385  1.00  0.00    -0.014 A 
BRANCH  30  31
ATOM     31  C   UNL A   1      41.130  25.690  27.956  1.00  0.00     0.031 A 
ATOM     32  C   UNL A   1      40.474  26.764  28.794  1.00  0.00     0.074 A 
ATOM     33  C   UNL A   1      42.443  25.817  27.661  1.00  0.00     0.049 A 
ATOM     34  N   UNL A   1      40.902  27.968  29.078  1.00  0.00    -0.248 NA
ATOM     35  C   UNL A   1      39.158  26.450  29.377  1.00  0.00     0.031 C 
ATOM     36  C   UNL A   1      43.245  24.865  26.889  1.00  0.00     0.029 A 
ATOM     37  N   UNL A   1      43.335  26.832  27.940  1.00  0.00    -0.354 N 
ATOM     38  C   UNL A   1      39.868  28.593  29.768  1.00  0.00     0.074 A 
ATOM     39  C   UNL A   1      38.808  27.618  29.904  1.00  0.00     0.031 C 
ATOM     40  C   UNL A   1      44.494  25.326  26.762  1.00  0.00     0.029 A 
ATOM     41  C   UNL A   1      44.555  26.668  27.320  1.00  0.00     0.049 A 
ATOM     42  H   UNL A   1      43.121  27.596  28.524  1.00  0.00     0.167 HD
ATOM     43  C   UNL A   1      39.808  29.864  30.235  1.00  0.00     0.034 A 
ATOM     44  C   UNL A   1      45.582  27.517  27.120  1.00  0.00     0.034 A 
ATOM     45  C   UNL A   1      40.903  30.797  30.195  1.00  0.00     0.049 A 
ATOM     46  C   UNL A   1      45.489  28.920  27.640  1.00  0.00     0.074 A 
ATOM     47  C   UNL A   1      40.965  32.073  30.732  1.00  0.00     0.029 A 
ATOM     48  N   UNL A   1      42.129  30.559  29.596  1.00  0.00    -0.354 N 
ATOM     49  N   UNL A   1      44.525  29.480  28.326  1.00  0.00    -0.248 NA
ATOM     50  C   UNL A   1      46.624  29.810  27.356  1.00  0.00     0.031 C 
ATOM     51  C   UNL A   1      42.220  32.615  30.437  1.00  0.00     0.029 A 
ATOM     52  C   UNL A   1      42.946  31.670  29.731  1.00  0.00     0.049 A 
ATOM     53  H   UNL A   1      42.382  29.725  29.139  1.00  0.00     0.167 HD
ATOM     54  C   UNL A   1      44.938  30.783  28.566  1.00  0.00     0.074 A 
ATOM     55  C   UNL A   1      46.256  30.921  27.981  1.00  0.00     0.031 C 
ATOM     56  C   UNL A   1      44.274  31.784  29.191  1.00  0.00     0.034 A 
BRANCH  43  57
ATOM     57  C   UNL A   1      38.518  30.347  30.848  1.00  0.00     0.023 A 
ATOM     58  C   UNL A   1      38.313  30.247  32.237  1.00  0.00     0.012 A 
ATOM     59  C   UNL A   1      37.561  31.014  30.053  1.00  0.00     0.148 A 
ATOM     60  C   UNL A   1      37.168  30.788  32.824  1.00  0.00     0.002 A 
ATOM     61  C   UNL A   1      36.443  31.584  30.651  1.00  0.00     0.091 A 
ATOM     62  F   UNL A   1      37.768  31.085  28.731  1.00  0.00    -0.205 F 
ATOM     63  C   UNL A   1      36.241  31.466  32.035  1.00  0.00     0.022 A 
BRANCH  61  64
ATOM     64  S   UNL A   1      35.237  32.549  29.730  1.00  0.00     0.127 S 
ATOM     65  O   UNL A   1      36.072  33.617  29.182  1.00  0.00    -0.237 OA
ATOM     66  O   UNL A   1      34.758  31.582  28.741  1.00  0.00    -0.237 OA
ATOM     67  O   UNL A   1      34.236  32.973  30.699  1.00  0.00    -0.744 OA
ENDBRANCH  61  64
ENDBRANCH  43  57
BRANCH  44  68
ATOM     68  C   UNL A   1      46.769  27.065  26.337  1.00  0.00     0.023 A 
ATOM     69  C   UNL A   1      46.837  27.337  24.958  1.00  0.00     0.012 A 
ATOM     70  C   UNL A   1      47.855  26.420  26.963  1.00  0.00     0.148 A 
ATOM     71  C   UNL A   1      47.958  26.964  24.216  1.00  0.00     0.002 A 
ATOM     72  C   UNL A   1      48.998  26.117  26.233  1.00  0.00     0.091 A 
ATOM     73  F   UNL A   1      47.762  26.139  28.271  1.00  0.00    -0.205 F 
ATOM     74  C   UNL A   1      49.046  26.371  24.856  1.00  0.00     0.022 A 
BRANCH  72  75
ATOM     75  S   UNL A   1      50.495  25.519  27.029  1.00  0.00     0.127 S 
ATOM     76  O   UNL A   1      50.034  24.281  27.648  1.00  0.00    -0.237 OA
ATOM     77  O   UNL A   1      51.400  25.341  25.891  1.00  0.00    -0.237 OA
ATOM     78  O   UNL A   1      50.894  26.585  27.939  1.00  0.00    -0.744 OA
ENDBRANCH  72  75
ENDBRANCH  44  68
BRANCH  56  79
ATOM     79  C   UNL A   1      44.965  33.116  29.299  1.00  0.00     0.023 A 
ATOM     80  C   UNL A   1      45.812  33.370  30.395  1.00  0.00     0.012 A 
ATOM     81  C   UNL A   1      44.828  34.085  28.287  1.00  0.00     0.148 A 
ATOM     82  C   UNL A   1      46.496  34.581  30.495  1.00  0.00     0.002 A 
ATOM     83  C   UNL A   1      45.545  35.272  28.371  1.00  0.00     0.091 A 
ATOM     84  F   UNL A   1      44.000  33.829  27.264  1.00  0.00    -0.205 F 
ATOM     85  C   UNL A   1      46.371  35.526  29.478  1.00  0.00     0.022 A 
BRANCH  83  86
ATOM     86  S   UNL A   1      45.514  36.512  27.072  1.00  0.00     0.127 S 
ATOM     87  O   UNL A   1      46.437  37.518  27.598  1.00  0.00    -0.237 OA
ATOM     88  O   UNL A   1      46.016  35.766  25.918  1.00  0.00    -0.237 OA
ATOM     89  O   UNL A   1      44.126  36.941  26.959  1.00  0.00    -0.744 OA
ENDBRANCH  83  86
ENDBRANCH  56  79
ENDBRANCH  30  31
ENDBRANCH  23  25
ENDBRANCH  22  23
ENDBRANCH   1  22
TORSDOF 17
ENDMDL
MODEL 2
REMARK VINA RESULT:     -11.3      1.247      1.909
REMARK SMILES C[C@](NC(=O)c1ccc(Br)o1)(C(=O)OCCOC(=O)c1ccc(-c2c3nc(c(-c4cccc(S(=O)(=O)[O-])c4F)c4ccc([nH]4)c(-c4cccc(S(=O)(=O)[O-])c4F)c4nc(c(-c5cccc(S(=O)(=O)[O-])c5F)c5ccc2[nH]5)C=C4)C=C3)cc1)C(F)(F)F
REMARK SMILES IDX 16 1 15 2 14 3 12 4 13 5 2 6 1 7 83 8 84 9 85 10 86 11 3 12
REMARK SMILES IDX 4 13 5 15 6 16 7 17 11 18 8 19 9 20 10 21 17 22 18 23 19 24
REMARK SMILES IDX 20 25 21 26 82 27 22 28 81 29 23 30 24 31 25 32 75 33 26 34
REMARK SMILES IDX 80 35 74 36 76 37 27 38 79 39 73 40 72 41 28 43 60 44 40 45
REMARK SMILES IDX 59 46 41 47 44 48 58 49 77 50 42 51 43 52 57 54 78 55 45 56
REMARK SMILES IDX 29 57 30 58 38 59 31 60 33 61 39 62 32 63 34 64 35 65 36 66
REMARK SMILES IDX 37 67 61 68 62 69 70 70 63 71 65 72 71 73 64 74 66 75 67 76
REMARK SMILES IDX 68 77 69 78 46 79 47 80 55 81 48 82 50 83 56 84 49 85 51 86
REMARK SMILES IDX 52 87 53 88 54 89
REMARK H PARENT 3 14 76 42 44 53
REMARK Flexibility Score: inf
ROOT
ATOM      1  C   UNL A   1      35.512  20.614  25.185  1.00  0.00     0.275 C 
ENDROOT
BRANCH   1   2
ATOM      2  C   UNL A   1      34.056  21.098  25.277  1.00  0.00     0.274 C 
BRANCH   2   3
ATOM      3  O   UNL A   1      33.802  22.291  24.489  1.00  0.00    -0.460 OA
BRANCH   3   4
ATOM      4  C   UNL A   1      32.700  22.974  24.906  1.00  0.00     0.341 C 
ATOM      5  O   UNL A   1      31.831  22.470  25.617  1.00  0.00    -0.249 OA
BRANCH   4   6
ATOM      6  C   UNL A   1      32.646  24.461  24.505  1.00  0.00     0.231 C 
ATOM      7  C   UNL A   1      31.125  24.726  24.543  1.00  0.00     0.058 C 
BRANCH   6   8
ATOM      8  C   UNL A   1      33.483  25.038  25.660  1.00  0.00     0.422 C 
ATOM      9  F   UNL A   1      32.766  25.926  26.388  1.00  0.00    -0.168 F 
ATOM     10  F   UNL A   1      33.835  24.112  26.577  1.00  0.00    -0.168 F 
ATOM     11  F   UNL A   1      34.619  25.617  25.230  1.00  0.00    -0.168 F 
ENDBRANCH   6   8
BRANCH   6  12
ATOM     12  N   UNL A   1      33.209  24.920  23.198  1.00  0.00    -0.326 N 
ATOM     13  C   UNL A   1      33.141  26.215  22.662  1.00  0.00     0.288 C 
ATOM     14  H   UNL A   1      33.677  24.243  22.657  1.00  0.00     0.165 HD
ATOM     15  O   UNL A   1      33.864  26.463  21.698  1.00  0.00    -0.266 OA
BRANCH  13  16
ATOM     16  C   UNL A   1      32.203  27.187  23.218  1.00  0.00     0.192 A 
ATOM     17  C   UNL A   1      30.927  27.609  22.873  1.00  0.00     0.057 A 
ATOM     18  O   UNL A   1      32.616  27.921  24.307  1.00  0.00    -0.444 OA
ATOM     19  C   UNL A   1      30.631  28.750  23.659  1.00  0.00     0.059 A 
ATOM     20  C   UNL A   1      31.676  28.877  24.541  1.00  0.00     0.170 A 
ATOM     21  Br  UNL A   1      31.826  30.213  25.833  1.00  0.00    -0.008 Br
ENDBRANCH  13  16
ENDBRANCH   6  12
ENDBRANCH   4   6
ENDBRANCH   3   4
ENDBRANCH   2   3
ENDBRANCH   1   2
BRANCH   1  22
ATOM     22  O   UNL A   1      36.425  21.572  25.749  1.00  0.00    -0.458 OA
BRANCH  22  23
ATOM     23  C   UNL A   1      37.746  21.263  25.618  1.00  0.00     0.338 C 
ATOM     24  O   UNL A   1      38.180  20.247  25.091  1.00  0.00    -0.246 OA
BRANCH  23  25
ATOM     25  C   UNL A   1      38.620  22.369  26.111  1.00  0.00     0.060 A 
ATOM     26  C   UNL A   1      39.802  22.112  26.800  1.00  0.00     0.016 A 
ATOM     27  C   UNL A   1      38.209  23.699  25.975  1.00  0.00     0.016 A 
ATOM     28  C   UNL A   1      40.468  23.136  27.481  1.00  0.00     0.010 A 
ATOM     29  C   UNL A   1      38.976  24.742  26.525  1.00  0.00     0.010 A 
ATOM     30  C   UNL A   1      40.110  24.479  27.314  1.00  0.00    -0.014 A 
BRANCH  30  31
ATOM     31  C   UNL A   1      40.934  25.592  27.895  1.00  0.00     0.031 A 
ATOM     32  C   UNL A   1      40.294  26.670  28.740  1.00  0.00     0.074 A 
ATOM     33  C   UNL A   1      42.250  25.700  27.603  1.00  0.00     0.049 A 
ATOM     34  N   UNL A   1      40.742  27.866  29.033  1.00  0.00    -0.248 NA
ATOM     35  C   UNL A   1      38.973  26.374  29.318  1.00  0.00     0.031 C 
ATOM     36  C   UNL A   1      43.038  24.740  26.825  1.00  0.00     0.029 A 
ATOM     37  N   UNL A   1      43.157  26.698  27.891  1.00  0.00    -0.354 N 
ATOM     38  C   UNL A   1      39.717  28.503  29.726  1.00  0.00     0.074 A 
ATOM     39  C   UNL A   1      38.640  27.543  29.853  1.00  0.00     0.031 C 
ATOM     40  C   UNL A   1      44.294  25.183  26.703  1.00  0.00     0.029 A 
ATOM     41  C   UNL A   1      44.376  26.519  27.271  1.00  0.00     0.049 A 
ATOM     42  H   UNL A   1      42.956  27.461  28.480  1.00  0.00     0.167 HD
ATOM     43  C   UNL A   1      39.677  29.770  30.202  1.00  0.00     0.034 A 
ATOM     44  C   UNL A   1      45.417  27.353  27.079  1.00  0.00     0.034 A 
ATOM     45  C   UNL A   1      40.788  30.685  30.171  1.00  0.00     0.049 A 
ATOM     46  C   UNL A   1      45.346  28.753  27.609  1.00  0.00     0.074 A 
ATOM     47  C   UNL A   1      40.869  31.956  30.718  1.00  0.00     0.029 A 
ATOM     48  N   UNL A   1      42.011  30.432  29.571  1.00  0.00    -0.354 N 
ATOM     49  N   UNL A   1      44.390  29.323  28.298  1.00  0.00    -0.248 NA
ATOM     50  C   UNL A   1      46.496  29.626  27.333  1.00  0.00     0.031 C 
ATOM     51  C   UNL A   1      42.133  32.480  30.428  1.00  0.00     0.029 A 
ATOM     52  C   UNL A   1      42.845  31.529  29.717  1.00  0.00     0.049 A 
ATOM     53  H   UNL A   1      42.251  29.597  29.109  1.00  0.00     0.167 HD
ATOM     54  C   UNL A   1      44.824  30.618  28.548  1.00  0.00     0.074 A 
ATOM     55  C   UNL A   1      46.145  30.738  27.966  1.00  0.00     0.031 C 
ATOM     56  C   UNL A   1      44.175  31.625  29.179  1.00  0.00     0.034 A 
BRANCH  43  57
ATOM     57  C   UNL A   1      38.394  30.270  30.817  1.00  0.00     0.023 A 
ATOM     58  C   UNL A   1      38.176  30.144  32.202  1.00  0.00     0.012 A 
ATOM     59  C   UNL A   1      37.459  30.977  30.030  1.00  0.00     0.148 A 
ATOM     60  C   UNL A   1      37.040  30.699  32.793  1.00  0.00     0.002 A 
ATOM     61  C   UNL A   1      36.350  31.560  30.633  1.00  0.00     0.091 A 
ATOM     62  F   UNL A   1      37.677  31.072  28.711  1.00  0.00    -0.205 F 
ATOM     63  C   UNL A   1      36.135  31.416  32.012  1.00  0.00     0.022 A 
BRANCH  61  64
ATOM     64  S   UNL A   1      35.174  32.573  29.725  1.00  0.00     0.127 S 
ATOM     65  O   UNL A   1      34.240  32.957  30.782  1.00  0.00    -0.237 OA
ATOM     66  O   UNL A   1      36.019  33.661  29.233  1.00  0.00    -0.237 OA
ATOM     67  O   UNL A   1      34.623  31.715  28.685  1.00  0.00    -0.744 OA
ENDBRANCH  61  64
ENDBRANCH  43  57
BRANCH  44  68
ATOM     68  C   UNL A   1      46.597  26.887  26.294  1.00  0.00     0.023 A 
ATOM     69  C   UNL A   1      46.626  27.078  24.901  1.00  0.00     0.012 A 
ATOM     70  C   UNL A   1      47.715  26.309  26.930  1.00  0.00     0.148 A 
ATOM     71  C   UNL A   1      47.740  26.692  24.154  1.00  0.00     0.002 A 
ATOM     72  C   UNL A   1      48.849  25.994  26.191  1.00  0.00     0.091 A 
ATOM     73  F   UNL A   1      47.662  26.103  28.254  1.00  0.00    -0.205 F 
ATOM     74  C   UNL A   1      48.858  26.168  24.800  1.00  0.00     0.022 A 
BRANCH  72  75
ATOM     75  S   UNL A   1      50.380  25.485  26.982  1.00  0.00     0.127 S 
ATOM     76  O   UNL A   1      51.273  25.327  25.839  1.00  0.00    -0.237 OA
ATOM     77  O   UNL A   1      50.679  26.630  27.845  1.00  0.00    -0.237 OA
ATOM     78  O   UNL A   1      50.046  24.268  27.712  1.00  0.00    -0.744 OA
ENDBRANCH  72  75
ENDBRANCH  44  68
BRANCH  56  79
ATOM     79  C   UNL A   1      44.888  32.944  29.298  1.00  0.00     0.023 A 
ATOM     80  C   UNL A   1      45.686  33.202  30.429  1.00  0.00     0.012 A 
ATOM     81  C   UNL A   1      44.820  33.898  28.264  1.00  0.00     0.148 A 
ATOM     82  C   UNL A   1      46.389  34.400  30.542  1.00  0.00     0.002 A 
ATOM     83  C   UNL A   1      45.557  35.071  28.363  1.00  0.00     0.091 A 
ATOM     84  F   UNL A   1      44.038  33.639  27.206  1.00  0.00    -0.205 F 
ATOM     85  C   UNL A   1      46.333  35.329  29.505  1.00  0.00     0.022 A 
BRANCH  83  86
ATOM     86  S   UNL A   1      45.615  36.288  27.043  1.00  0.00     0.127 S 
ATOM     87  O   UNL A   1      44.211  36.687  26.943  1.00  0.00    -0.237 OA
ATOM     88  O   UNL A   1      46.501  37.310  27.601  1.00  0.00    -0.237 OA
ATOM     89  O   UNL A   1      46.148  35.594  25.879  1.00  0.00    -0.744 OA
ENDBRANCH  83  86
ENDBRANCH  56  79
ENDBRANCH  30  31
ENDBRANCH  23  25
ENDBRANCH  22  23
ENDBRANCH   1  22
TORSDOF 17
ENDMDL
MODEL 3
REMARK VINA RESULT:     -11.3      4.925      9.738
REMARK SMILES C[C@](NC(=O)c1ccc(Br)o1)(C(=O)OCCOC(=O)c1ccc(-c2c3nc(c(-c4cccc(S(=O)(=O)[O-])c4F)c4ccc([nH]4)c(-c4cccc(S(=O)(=O)[O-])c4F)c4nc(c(-c5cccc(S(=O)(=O)[O-])c5F)c5ccc2[nH]5)C=C4)C=C3)cc1)C(F)(F)F
REMARK SMILES IDX 16 1 15 2 14 3 12 4 13 5 2 6 1 7 83 8 84 9 85 10 86 11 3 12
REMARK SMILES IDX 4 13 5 15 6 16 7 17 11 18 8 19 9 20 10 21 17 22 18 23 19 24
REMARK SMILES IDX 20 25 21 26 82 27 22 28 81 29 23 30 24 31 25 32 75 33 26 34
REMARK SMILES IDX 80 35 74 36 76 37 27 38 79 39 73 40 72 41 28 43 60 44 40 45
REMARK SMILES IDX 59 46 41 47 44 48 58 49 77 50 42 51 43 52 57 54 78 55 45 56
REMARK SMILES IDX 29 57 30 58 38 59 31 60 33 61 39 62 32 63 34 64 35 65 36 66
REMARK SMILES IDX 37 67 61 68 62 69 70 70 63 71 65 72 71 73 64 74 66 75 67 76
REMARK SMILES IDX 68 77 69 78 46 79 47 80 55 81 48 82 50 83 56 84 49 85 51 86
REMARK SMILES IDX 52 87 53 88 54 89
REMARK H PARENT 3 14 76 42 44 53
REMARK Flexibility Score: inf
ROOT
ATOM      1  C   UNL A   1      31.402  30.069  25.079  1.00  0.00     0.275 C 
ENDROOT
BRANCH   1   2
ATOM      2  C   UNL A   1      31.195  28.921  24.078  1.00  0.00     0.274 C 
BRANCH   2   3
ATOM      3  O   UNL A   1      31.282  27.607  24.693  1.00  0.00    -0.460 OA
BRANCH   3   4
ATOM      4  C   UNL A   1      31.751  26.656  23.839  1.00  0.00     0.341 C 
ATOM      5  O   UNL A   1      31.824  26.827  22.623  1.00  0.00    -0.249 OA
BRANCH   4   6
ATOM      6  C   UNL A   1      32.276  25.367  24.502  1.00  0.00     0.231 C 
ATOM      7  C   UNL A   1      32.019  24.331  23.386  1.00  0.00     0.058 C 
BRANCH   6   8
ATOM      8  C   UNL A   1      33.736  25.804  24.723  1.00  0.00     0.422 C 
ATOM      9  F   UNL A   1      34.063  25.769  26.036  1.00  0.00    -0.168 F 
ATOM     10  F   UNL A   1      34.634  24.965  24.167  1.00  0.00    -0.168 F 
ATOM     11  F   UNL A   1      33.983  27.030  24.227  1.00  0.00    -0.168 F 
ENDBRANCH   6   8
BRANCH   6  12
ATOM     12  N   UNL A   1      31.696  24.881  25.791  1.00  0.00    -0.326 N 
ATOM     13  C   UNL A   1      31.961  23.656  26.422  1.00  0.00     0.288 C 
ATOM     14  H   UNL A   1      31.063  25.483  26.245  1.00  0.00     0.165 HD
ATOM     15  O   UNL A   1      31.584  23.531  27.587  1.00  0.00    -0.266 OA
BRANCH  13  16
ATOM     16  C   UNL A   1      32.614  22.579  25.683  1.00  0.00     0.192 A 
ATOM     17  C   UNL A   1      32.157  21.494  24.949  1.00  0.00     0.057 A 
ATOM     18  O   UNL A   1      33.989  22.536  25.701  1.00  0.00    -0.444 OA
ATOM     19  C   UNL A   1      33.278  20.673  24.667  1.00  0.00     0.059 A 
ATOM     20  C   UNL A   1      34.373  21.369  25.114  1.00  0.00     0.170 A 
ATOM     21  Br  UNL A   1      36.136  20.772  25.002  1.00  0.00    -0.008 Br
ENDBRANCH  13  16
ENDBRANCH   6  12
ENDBRANCH   4   6
ENDBRANCH   3   4
ENDBRANCH   2   3
ENDBRANCH   1   2
BRANCH   1  22
ATOM     22  O   UNL A   1      32.724  30.045  25.645  1.00  0.00    -0.458 OA
BRANCH  22  23
ATOM     23  C   UNL A   1      32.925  30.898  26.689  1.00  0.00     0.338 C 
ATOM     24  O   UNL A   1      32.082  31.661  27.144  1.00  0.00    -0.246 OA
BRANCH  23  25
ATOM     25  C   UNL A   1      34.281  30.724  27.287  1.00  0.00     0.060 A 
ATOM     26  C   UNL A   1      34.777  29.465  27.614  1.00  0.00     0.016 A 
ATOM     27  C   UNL A   1      35.046  31.844  27.627  1.00  0.00     0.016 A 
ATOM     28  C   UNL A   1      35.921  29.332  28.407  1.00  0.00     0.010 A 
ATOM     29  C   UNL A   1      36.281  31.693  28.283  1.00  0.00     0.010 A 
ATOM     30  C   UNL A   1      36.732  30.432  28.710  1.00  0.00    -0.014 A 
BRANCH  30  31
ATOM     31  C   UNL A   1      38.054  30.267  29.404  1.00  0.00     0.031 A 
ATOM     32  C   UNL A   1      39.126  29.371  28.826  1.00  0.00     0.074 A 
ATOM     33  C   UNL A   1      38.281  30.850  30.602  1.00  0.00     0.049 A 
ATOM     34  N   UNL A   1      40.163  28.833  29.420  1.00  0.00    -0.248 NA
ATOM     35  C   UNL A   1      39.010  29.019  27.401  1.00  0.00     0.031 C 
ATOM     36  C   UNL A   1      37.373  31.766  31.297  1.00  0.00     0.029 A 
ATOM     37  N   UNL A   1      39.338  30.723  31.480  1.00  0.00    -0.354 N 
ATOM     38  C   UNL A   1      40.753  27.993  28.479  1.00  0.00     0.074 A 
ATOM     39  C   UNL A   1      39.987  28.130  27.259  1.00  0.00     0.031 C 
ATOM     40  C   UNL A   1      37.902  32.121  32.473  1.00  0.00     0.029 A 
ATOM     41  C   UNL A   1      39.121  31.357  32.685  1.00  0.00     0.049 A 
ATOM     42  H   UNL A   1      40.164  30.231  31.267  1.00  0.00     0.167 HD
ATOM     43  C   UNL A   1      41.826  27.180  28.625  1.00  0.00     0.034 A 
ATOM     44  C   UNL A   1      39.755  31.272  33.872  1.00  0.00     0.034 A 
ATOM     45  C   UNL A   1      42.651  27.128  29.805  1.00  0.00     0.049 A 
ATOM     46  C   UNL A   1      40.936  30.360  34.011  1.00  0.00     0.074 A 
ATOM     47  C   UNL A   1      43.816  26.405  30.006  1.00  0.00     0.029 A 
ATOM     48  N   UNL A   1      42.409  27.825  30.977  1.00  0.00    -0.354 N 
ATOM     49  N   UNL A   1      41.506  29.608  33.102  1.00  0.00    -0.248 NA
ATOM     50  C   UNL A   1      41.561  30.280  35.339  1.00  0.00     0.031 C 
ATOM     51  C   UNL A   1      44.265  26.648  31.308  1.00  0.00     0.029 A 
ATOM     52  C   UNL A   1      43.390  27.536  31.911  1.00  0.00     0.049 A 
ATOM     53  H   UNL A   1      41.651  28.436  31.124  1.00  0.00     0.167 HD
ATOM     54  C   UNL A   1      42.562  28.974  33.744  1.00  0.00     0.074 A 
ATOM     55  C   UNL A   1      42.574  29.455  35.109  1.00  0.00     0.031 C 
ATOM     56  C   UNL A   1      43.426  28.055  33.251  1.00  0.00     0.034 A 
BRANCH  43  57
ATOM     57  C   UNL A   1      42.203  26.269  27.485  1.00  0.00     0.023 A 
ATOM     58  C   UNL A   1      43.097  26.709  26.492  1.00  0.00     0.012 A 
ATOM     59  C   UNL A   1      41.758  24.929  27.473  1.00  0.00     0.148 A 
ATOM     60  C   UNL A   1      43.531  25.836  25.493  1.00  0.00     0.002 A 
ATOM     61  C   UNL A   1      42.226  24.055  26.497  1.00  0.00     0.091 A 
ATOM     62  F   UNL A   1      40.895  24.533  28.418  1.00  0.00    -0.205 F 
ATOM     63  C   UNL A   1      43.106  24.509  25.503  1.00  0.00     0.022 A 
BRANCH  61  64
ATOM     64  S   UNL A   1      41.802  22.308  26.477  1.00  0.00     0.127 S 
ATOM     65  O   UNL A   1      42.590  21.828  25.342  1.00  0.00    -0.237 OA
ATOM     66  O   UNL A   1      42.281  21.859  27.784  1.00  0.00    -0.237 OA
ATOM     67  O   UNL A   1      40.357  22.246  26.305  1.00  0.00    -0.744 OA
ENDBRANCH  61  64
ENDBRANCH  43  57
BRANCH  44  68
ATOM     68  C   UNL A   1      39.238  32.043  35.039  1.00  0.00     0.023 A 
ATOM     69  C   UNL A   1      38.334  31.434  35.929  1.00  0.00     0.012 A 
ATOM     70  C   UNL A   1      39.682  33.355  35.303  1.00  0.00     0.148 A 
ATOM     71  C   UNL A   1      37.873  32.122  37.053  1.00  0.00     0.002 A 
ATOM     72  C   UNL A   1      39.277  34.006  36.462  1.00  0.00     0.091 A 
ATOM     73  F   UNL A   1      40.519  33.934  34.430  1.00  0.00    -0.205 F 
ATOM     74  C   UNL A   1      38.358  33.399  37.330  1.00  0.00     0.022 A 
BRANCH  72  75
ATOM     75  S   UNL A   1      39.999  35.572  36.967  1.00  0.00     0.127 S 
ATOM     76  O   UNL A   1      41.414  35.233  37.068  1.00  0.00    -0.237 OA
ATOM     77  O   UNL A   1      39.652  36.449  35.846  1.00  0.00    -0.237 OA
ATOM     78  O   UNL A   1      39.328  35.916  38.215  1.00  0.00    -0.744 OA
ENDBRANCH  72  75
ENDBRANCH  44  68
BRANCH  56  79
ATOM     79  C   UNL A   1      44.477  27.520  34.185  1.00  0.00     0.023 A 
ATOM     80  C   UNL A   1      45.700  28.206  34.318  1.00  0.00     0.012 A 
ATOM     81  C   UNL A   1      44.230  26.381  34.974  1.00  0.00     0.148 A 
ATOM     82  C   UNL A   1      46.672  27.753  35.208  1.00  0.00     0.002 A 
ATOM     83  C   UNL A   1      45.186  25.959  35.890  1.00  0.00     0.091 A 
ATOM     84  F   UNL A   1      43.067  25.732  34.816  1.00  0.00    -0.205 F 
ATOM     85  C   UNL A   1      46.411  26.637  36.001  1.00  0.00     0.022 A 
BRANCH  83  86
ATOM     86  S   UNL A   1      44.908  24.585  37.012  1.00  0.00     0.127 S 
ATOM     87  O   UNL A   1      43.798  25.084  37.825  1.00  0.00    -0.237 OA
ATOM     88  O   UNL A   1      44.554  23.501  36.095  1.00  0.00    -0.237 OA
ATOM     89  O   UNL A   1      46.162  24.388  37.726  1.00  0.00    -0.744 OA
ENDBRANCH  83  86
ENDBRANCH  56  79
ENDBRANCH  30  31
ENDBRANCH  23  25
ENDBRANCH  22  23
ENDBRANCH   1  22
TORSDOF 17
ENDMDL
