MODEL 1
REMARK VINA RESULT:     -11.8      0.000      0.000
REMARK SMILES Cc1ccc(NC(=O)C[C@H]([NH2+]Cc2cccnc2)C(=O)OCCOC(=O)c2ccc(-c3c4nc(c(-c5cccc(S(=O)(=O)[O-])c5F)c5ccc([nH]5)c(-c5cccc(S(=O)(=O)[O-])c5F)c5nc(c(-c6cccc(S(=O)(=O)[O-])c6F)c6ccc3[nH]6)C=C5)C=C4)cc2)cc1Cl
REMARK SMILES IDX 22 1 21 2 19 3 20 4 10 5 9 6 7 7 6 8 8 10 5 11 1 12 2 13
REMARK SMILES IDX 3 14 91 15 4 16 90 17 92 18 11 19 12 22 13 23 14 24 18 25
REMARK SMILES IDX 15 26 17 27 16 28 23 29 24 30 25 31 26 32 27 33 28 34 89 35
REMARK SMILES IDX 29 36 88 37 30 38 31 39 32 40 82 41 33 42 87 43 81 44 83 45
REMARK SMILES IDX 34 46 86 47 80 48 79 49 35 51 67 52 47 53 66 54 48 55 51 56
REMARK SMILES IDX 65 57 84 58 49 59 50 60 64 62 85 63 52 64 36 65 37 66 45 67
REMARK SMILES IDX 38 68 40 69 46 70 39 71 41 72 42 73 43 74 44 75 68 76 69 77
REMARK SMILES IDX 77 78 70 79 72 80 78 81 71 82 73 83 74 84 75 85 76 86 53 87
REMARK SMILES IDX 54 88 62 89 55 90 57 91 63 92 56 93 58 94 59 95 60 96 61 97
REMARK H PARENT 6 9 11 20 11 21 83 50 51 61
REMARK Flexibility Score: inf
ROOT
ATOM      1  C   UNL A   1      35.474  21.304  24.674  1.00  0.00     0.274 C 
ENDROOT
BRANCH   1   2
ATOM      2  O   UNL A   1      34.408  21.112  25.629  1.00  0.00    -0.458 OA
BRANCH   2   3
ATOM      3  C   UNL A   1      33.131  21.278  25.197  1.00  0.00     0.365 C 
ATOM      4  O   UNL A   1      32.488  20.418  24.603  1.00  0.00    -0.245 OA
BRANCH   3   5
ATOM      5  C   UNL A   1      32.558  22.682  25.489  1.00  0.00     0.303 C 
BRANCH   5   6
ATOM      6  C   UNL A   1      31.066  22.586  25.742  1.00  0.00     0.177 C 
BRANCH   6   7
ATOM      7  C   UNL A   1      30.260  23.518  26.630  1.00  0.00     0.231 C 
ATOM      8  N   UNL A   1      30.142  24.864  26.609  1.00  0.00    -0.326 N 
ATOM      9  H   UNL A   1      29.915  25.180  27.512  1.00  0.00     0.169 HD
ATOM     10  O   UNL A   1      29.804  23.007  27.674  1.00  0.00    -0.274 OA
BRANCH   8  11
ATOM     11  C   UNL A   1      30.233  25.971  25.744  1.00  0.00     0.042 A 
ATOM     12  C   UNL A   1      30.508  29.050  22.674  1.00  0.00     0.046 C 
ATOM     13  C   UNL A   1      30.422  27.989  23.733  1.00  0.00    -0.032 A 
ATOM     14  C   UNL A   1      29.893  26.733  23.438  1.00  0.00     0.007 A 
ATOM     15  C   UNL A   1      30.859  28.222  25.038  1.00  0.00     0.046 A 
ATOM     16  C   UNL A   1      29.800  25.746  24.429  1.00  0.00     0.026 A 
ATOM     17  C   UNL A   1      30.801  27.206  26.009  1.00  0.00     0.047 A 
ATOM     18  Cl  UNL A   1      31.476  29.781  25.471  1.00  0.00    -0.084 Cl
ENDBRANCH   8  11
ENDBRANCH   6   7
ENDBRANCH   5   6
BRANCH   5  19
ATOM     19  N   UNL A   1      32.939  23.718  24.521  1.00  0.00    -0.330 N 
ATOM     20  H   UNL A   1      32.081  24.091  24.114  1.00  0.00     0.347 HD
ATOM     21  H   UNL A   1      33.558  23.250  23.859  1.00  0.00     0.347 HD
BRANCH  19  22
ATOM     22  C   UNL A   1      33.709  24.844  25.032  1.00  0.00     0.299 C 
BRANCH  22  23
ATOM     23  C   UNL A   1      33.737  25.972  24.034  1.00  0.00     0.024 A 
ATOM     24  C   UNL A   1      34.047  27.281  24.408  1.00  0.00     0.013 A 
ATOM     25  C   UNL A   1      33.506  25.742  22.678  1.00  0.00     0.120 A 
ATOM     26  C   UNL A   1      34.108  28.283  23.442  1.00  0.00     0.021 A 
ATOM     27  N   UNL A   1      33.542  26.696  21.714  1.00  0.00    -0.264 NA
ATOM     28  C   UNL A   1      33.853  27.944  22.124  1.00  0.00     0.111 A 
ENDBRANCH  22  23
ENDBRANCH  19  22
ENDBRANCH   5  19
ENDBRANCH   3   5
ENDBRANCH   2   3
ENDBRANCH   1   2
BRANCH   1  29
ATOM     29  C   UNL A   1      36.830  20.807  25.193  1.00  0.00     0.275 C 
BRANCH  29  30
ATOM     30  O   UNL A   1      37.758  21.889  25.392  1.00  0.00    -0.458 OA
BRANCH  30  31
ATOM     31  C   UNL A   1      38.905  21.520  25.998  1.00  0.00     0.338 C 
ATOM     32  O   UNL A   1      39.440  20.428  25.953  1.00  0.00    -0.246 OA
BRANCH  31  33
ATOM     33  C   UNL A   1      39.594  22.656  26.599  1.00  0.00     0.060 A 
ATOM     34  C   UNL A   1      39.310  23.914  26.053  1.00  0.00     0.016 A 
ATOM     35  C   UNL A   1      40.554  22.492  27.594  1.00  0.00     0.016 A 
ATOM     36  C   UNL A   1      39.983  25.032  26.507  1.00  0.00     0.010 A 
ATOM     37  C   UNL A   1      41.230  23.618  28.053  1.00  0.00     0.010 A 
ATOM     38  C   UNL A   1      40.942  24.884  27.511  1.00  0.00    -0.014 A 
BRANCH  38  39
ATOM     39  C   UNL A   1      41.633  26.077  28.021  1.00  0.00     0.031 A 
ATOM     40  C   UNL A   1      40.867  27.104  28.783  1.00  0.00     0.074 A 
ATOM     41  C   UNL A   1      42.936  26.223  27.732  1.00  0.00     0.049 A 
ATOM     42  N   UNL A   1      41.253  28.283  29.185  1.00  0.00    -0.248 NA
ATOM     43  C   UNL A   1      39.477  26.767  29.132  1.00  0.00     0.031 C 
ATOM     44  C   UNL A   1      43.748  25.249  27.000  1.00  0.00     0.029 A 
ATOM     45  N   UNL A   1      43.791  27.264  27.973  1.00  0.00    -0.354 N 
ATOM     46  C   UNL A   1      40.142  28.854  29.789  1.00  0.00     0.074 A 
ATOM     47  C   UNL A   1      39.070  27.885  29.718  1.00  0.00     0.031 C 
ATOM     48  C   UNL A   1      44.970  25.763  26.799  1.00  0.00     0.029 A 
ATOM     49  C   UNL A   1      45.006  27.114  27.350  1.00  0.00     0.049 A 
ATOM     50  H   UNL A   1      43.559  28.040  28.533  1.00  0.00     0.167 HD
ATOM     51  C   UNL A   1      40.040  30.082  30.345  1.00  0.00     0.034 A 
ATOM     52  C   UNL A   1      46.012  27.992  27.195  1.00  0.00     0.034 A 
ATOM     53  C   UNL A   1      41.133  31.013  30.412  1.00  0.00     0.049 A 
ATOM     54  C   UNL A   1      45.874  29.350  27.822  1.00  0.00     0.074 A 
ATOM     55  C   UNL A   1      41.168  32.260  31.006  1.00  0.00     0.029 A 
ATOM     56  N   UNL A   1      42.384  30.800  29.848  1.00  0.00    -0.354 N 
ATOM     57  N   UNL A   1      44.860  29.843  28.493  1.00  0.00    -0.248 NA
ATOM     58  C   UNL A   1      47.018  30.260  27.699  1.00  0.00     0.031 C 
ATOM     59  C   UNL A   1      42.434  32.811  30.780  1.00  0.00     0.029 A 
ATOM     60  C   UNL A   1      43.196  31.898  30.065  1.00  0.00     0.049 A 
ATOM     61  H   UNL A   1      42.653  29.987  29.363  1.00  0.00     0.167 HD
ATOM     62  C   UNL A   1      45.251  31.111  28.899  1.00  0.00     0.074 A 
ATOM     63  C   UNL A   1      46.603  31.303  28.407  1.00  0.00     0.031 C 
ATOM     64  C   UNL A   1      44.555  32.038  29.603  1.00  0.00     0.034 A 
BRANCH  51  65
ATOM     65  C   UNL A   1      38.707  30.477  30.916  1.00  0.00     0.023 A 
ATOM     66  C   UNL A   1      38.408  30.194  32.264  1.00  0.00     0.012 A 
ATOM     67  C   UNL A   1      37.755  31.149  30.124  1.00  0.00     0.148 A 
ATOM     68  C   UNL A   1      37.171  30.544  32.806  1.00  0.00     0.002 A 
ATOM     69  C   UNL A   1      36.539  31.528  30.681  1.00  0.00     0.091 A 
ATOM     70  F   UNL A   1      38.042  31.380  28.835  1.00  0.00    -0.205 F 
ATOM     71  C   UNL A   1      36.242  31.218  32.018  1.00  0.00     0.022 A 
BRANCH  69  72
ATOM     72  S   UNL A   1      35.312  32.458  29.756  1.00  0.00     0.127 S 
ATOM     73  O   UNL A   1      36.104  33.585  29.264  1.00  0.00    -0.237 OA
ATOM     74  O   UNL A   1      34.909  31.502  28.724  1.00  0.00    -0.237 OA
ATOM     75  O   UNL A   1      34.265  32.790  30.711  1.00  0.00    -0.744 OA
ENDBRANCH  69  72
ENDBRANCH  51  65
BRANCH  52  76
ATOM     76  C   UNL A   1      47.219  27.584  26.428  1.00  0.00     0.023 A 
ATOM     77  C   UNL A   1      48.204  26.797  27.050  1.00  0.00     0.012 A 
ATOM     78  C   UNL A   1      47.339  27.882  25.054  1.00  0.00     0.148 A 
ATOM     79  C   UNL A   1      49.296  26.322  26.321  1.00  0.00     0.002 A 
ATOM     80  C   UNL A   1      48.400  27.362  24.323  1.00  0.00     0.091 A 
ATOM     81  F   UNL A   1      46.392  28.640  24.484  1.00  0.00    -0.205 F 
ATOM     82  C   UNL A   1      49.387  26.592  24.957  1.00  0.00     0.022 A 
BRANCH  80  83
ATOM     83  S   UNL A   1      48.522  27.539  22.538  1.00  0.00     0.127 S 
ATOM     84  O   UNL A   1      47.300  28.277  22.229  1.00  0.00    -0.237 OA
ATOM     85  O   UNL A   1      49.759  28.306  22.394  1.00  0.00    -0.237 OA
ATOM     86  O   UNL A   1      48.592  26.183  22.011  1.00  0.00    -0.744 OA
ENDBRANCH  80  83
ENDBRANCH  52  76
BRANCH  64  87
ATOM     87  C   UNL A   1      45.247  33.335  29.915  1.00  0.00     0.023 A 
ATOM     88  C   UNL A   1      46.019  33.449  31.087  1.00  0.00     0.012 A 
ATOM     89  C   UNL A   1      45.222  34.396  28.990  1.00  0.00     0.148 A 
ATOM     90  C   UNL A   1      46.746  34.610  31.342  1.00  0.00     0.002 A 
ATOM     91  C   UNL A   1      45.985  35.531  29.229  1.00  0.00     0.091 A 
ATOM     92  F   UNL A   1      44.463  34.269  27.891  1.00  0.00    -0.205 F 
ATOM     93  C   UNL A   1      46.740  35.645  30.407  1.00  0.00     0.022 A 
BRANCH  91  94
ATOM     94  S   UNL A   1      46.118  36.869  28.036  1.00  0.00     0.127 S 
ATOM     95  O   UNL A   1      47.224  36.413  27.198  1.00  0.00    -0.237 OA
ATOM     96  O   UNL A   1      44.807  36.837  27.388  1.00  0.00    -0.237 OA
ATOM     97  O   UNL A   1      46.379  38.074  28.812  1.00  0.00    -0.744 OA
ENDBRANCH  91  94
ENDBRANCH  64  87
ENDBRANCH  38  39
ENDBRANCH  31  33
ENDBRANCH  30  31
ENDBRANCH  29  30
ENDBRANCH   1  29
TORSDOF 20
ENDMDL
MODEL 2
REMARK VINA RESULT:     -11.8      1.656      2.391
REMARK SMILES Cc1ccc(NC(=O)C[C@H]([NH2+]Cc2cccnc2)C(=O)OCCOC(=O)c2ccc(-c3c4nc(c(-c5cccc(S(=O)(=O)[O-])c5F)c5ccc([nH]5)c(-c5cccc(S(=O)(=O)[O-])c5F)c5nc(c(-c6cccc(S(=O)(=O)[O-])c6F)c6ccc3[nH]6)C=C5)C=C4)cc2)cc1Cl
REMARK SMILES IDX 22 1 21 2 19 3 20 4 10 5 9 6 7 7 6 8 8 10 5 11 1 12 2 13
REMARK SMILES IDX 3 14 91 15 4 16 90 17 92 18 11 19 12 22 13 23 14 24 18 25
REMARK SMILES IDX 15 26 17 27 16 28 23 29 24 30 25 31 26 32 27 33 28 34 89 35
REMARK SMILES IDX 29 36 88 37 30 38 31 39 32 40 82 41 33 42 87 43 81 44 83 45
REMARK SMILES IDX 34 46 86 47 80 48 79 49 35 51 67 52 47 53 66 54 48 55 51 56
REMARK SMILES IDX 65 57 84 58 49 59 50 60 64 62 85 63 52 64 36 65 37 66 45 67
REMARK SMILES IDX 38 68 40 69 46 70 39 71 41 72 42 73 43 74 44 75 68 76 69 77
REMARK SMILES IDX 77 78 70 79 72 80 78 81 71 82 73 83 74 84 75 85 76 86 53 87
REMARK SMILES IDX 54 88 62 89 55 90 57 91 63 92 56 93 58 94 59 95 60 96 61 97
REMARK H PARENT 6 9 11 20 11 21 83 50 51 61
REMARK Flexibility Score: inf
ROOT
ATOM      1  C   UNL A   1      34.857  20.646  25.317  1.00  0.00     0.274 C 
ENDROOT
BRANCH   1   2
ATOM      2  O   UNL A   1      33.886  21.001  24.309  1.00  0.00    -0.458 OA
BRANCH   2   3
ATOM      3  C   UNL A   1      32.670  21.441  24.726  1.00  0.00     0.365 C 
ATOM      4  O   UNL A   1      31.794  20.712  25.180  1.00  0.00    -0.245 OA
BRANCH   3   5
ATOM      5  C   UNL A   1      32.466  22.961  24.540  1.00  0.00     0.303 C 
BRANCH   5   6
ATOM      6  C   UNL A   1      33.491  23.500  23.561  1.00  0.00     0.177 C 
BRANCH   6   7
ATOM      7  C   UNL A   1      33.185  24.063  22.184  1.00  0.00     0.231 C 
ATOM      8  N   UNL A   1      32.334  25.044  21.807  1.00  0.00    -0.326 N 
ATOM      9  H   UNL A   1      32.058  24.889  20.876  1.00  0.00     0.169 HD
ATOM     10  O   UNL A   1      33.605  23.389  21.220  1.00  0.00    -0.274 OA
BRANCH   8  11
ATOM     11  C   UNL A   1      31.707  26.210  22.286  1.00  0.00     0.042 A 
ATOM     12  C   UNL A   1      30.236  29.962  23.942  1.00  0.00     0.046 C 
ATOM     13  C   UNL A   1      30.740  28.665  23.379  1.00  0.00    -0.032 A 
ATOM     14  C   UNL A   1      32.086  28.511  23.045  1.00  0.00     0.007 A 
ATOM     15  C   UNL A   1      29.888  27.580  23.166  1.00  0.00     0.046 A 
ATOM     16  C   UNL A   1      32.555  27.304  22.507  1.00  0.00     0.026 A 
ATOM     17  C   UNL A   1      30.384  26.361  22.668  1.00  0.00     0.047 A 
ATOM     18  Cl  UNL A   1      28.199  27.734  23.515  1.00  0.00    -0.084 Cl
ENDBRANCH   8  11
ENDBRANCH   6   7
ENDBRANCH   5   6
BRANCH   5  19
ATOM     19  N   UNL A   1      32.364  23.728  25.788  1.00  0.00    -0.330 N 
ATOM     20  H   UNL A   1      33.261  24.191  25.940  1.00  0.00     0.347 HD
ATOM     21  H   UNL A   1      32.110  23.044  26.502  1.00  0.00     0.347 HD
BRANCH  19  22
ATOM     22  C   UNL A   1      31.326  24.747  25.849  1.00  0.00     0.299 C 
BRANCH  22  23
ATOM     23  C   UNL A   1      31.918  26.100  26.149  1.00  0.00     0.024 A 
ATOM     24  C   UNL A   1      31.152  27.139  26.680  1.00  0.00     0.013 A 
ATOM     25  C   UNL A   1      33.277  26.350  25.959  1.00  0.00     0.120 A 
ATOM     26  C   UNL A   1      31.754  28.358  26.986  1.00  0.00     0.021 A 
ATOM     27  N   UNL A   1      33.891  27.528  26.232  1.00  0.00    -0.264 NA
ATOM     28  C   UNL A   1      33.111  28.501  26.748  1.00  0.00     0.111 A 
ENDBRANCH  22  23
ENDBRANCH  19  22
ENDBRANCH   5  19
ENDBRANCH   3   5
ENDBRANCH   2   3
ENDBRANCH   1   2
BRANCH   1  29
ATOM     29  C   UNL A   1      36.298  20.945  24.882  1.00  0.00     0.275 C 
BRANCH  29  30
ATOM     30  O   UNL A   1      37.005  21.722  25.866  1.00  0.00    -0.458 OA
BRANCH  30  31
ATOM     31  C   UNL A   1      38.324  21.448  25.933  1.00  0.00     0.338 C 
ATOM     32  O   UNL A   1      38.899  20.487  25.458  1.00  0.00    -0.246 OA
BRANCH  31  33
ATOM     33  C   UNL A   1      39.083  22.558  26.497  1.00  0.00     0.060 A 
ATOM     34  C   UNL A   1      38.716  23.841  26.073  1.00  0.00     0.016 A 
ATOM     35  C   UNL A   1      40.176  22.351  27.334  1.00  0.00     0.016 A 
ATOM     36  C   UNL A   1      39.439  24.941  26.493  1.00  0.00     0.010 A 
ATOM     37  C   UNL A   1      40.903  23.459  27.759  1.00  0.00     0.010 A 
ATOM     38  C   UNL A   1      40.532  24.750  27.340  1.00  0.00    -0.014 A 
BRANCH  38  39
ATOM     39  C   UNL A   1      41.280  25.921  27.817  1.00  0.00     0.031 A 
ATOM     40  C   UNL A   1      40.577  26.976  28.603  1.00  0.00     0.074 A 
ATOM     41  C   UNL A   1      42.575  26.025  27.477  1.00  0.00     0.049 A 
ATOM     42  N   UNL A   1      41.017  28.142  28.985  1.00  0.00    -0.248 NA
ATOM     43  C   UNL A   1      39.192  26.684  29.008  1.00  0.00     0.031 C 
ATOM     44  C   UNL A   1      43.326  25.022  26.718  1.00  0.00     0.029 A 
ATOM     45  N   UNL A   1      43.471  27.039  27.680  1.00  0.00    -0.354 N 
ATOM     46  C   UNL A   1      39.949  28.751  29.629  1.00  0.00     0.074 A 
ATOM     47  C   UNL A   1      38.845  27.817  29.604  1.00  0.00     0.031 C 
ATOM     48  C   UNL A   1      44.555  25.496  26.468  1.00  0.00     0.029 A 
ATOM     49  C   UNL A   1      44.655  26.848  27.011  1.00  0.00     0.049 A 
ATOM     50  H   UNL A   1      43.286  27.824  28.244  1.00  0.00     0.167 HD
ATOM     51  C   UNL A   1      39.908  29.984  30.182  1.00  0.00     0.034 A 
ATOM     52  C   UNL A   1      45.682  27.692  26.812  1.00  0.00     0.034 A 
ATOM     53  C   UNL A   1      41.032  30.879  30.203  1.00  0.00     0.049 A 
ATOM     54  C   UNL A   1      45.612  29.056  27.438  1.00  0.00     0.074 A 
ATOM     55  C   UNL A   1      41.130  32.127  30.789  1.00  0.00     0.029 A 
ATOM     56  N   UNL A   1      42.252  30.625  29.591  1.00  0.00    -0.354 N 
ATOM     57  N   UNL A   1      44.641  29.584  28.145  1.00  0.00    -0.248 NA
ATOM     58  C   UNL A   1      46.779  29.929  27.267  1.00  0.00     0.031 C 
ATOM     59  C   UNL A   1      42.403  32.636  30.512  1.00  0.00     0.029 A 
ATOM     60  C   UNL A   1      43.107  31.697  29.772  1.00  0.00     0.049 A 
ATOM     61  H   UNL A   1      42.477  29.802  29.100  1.00  0.00     0.167 HD
ATOM     62  C   UNL A   1      45.089  30.840  28.530  1.00  0.00     0.074 A 
ATOM     63  C   UNL A   1      46.426  30.987  27.985  1.00  0.00     0.031 C 
ATOM     64  C   UNL A   1      44.451  31.791  29.257  1.00  0.00     0.034 A 
BRANCH  51  65
ATOM     65  C   UNL A   1      38.611  30.424  30.803  1.00  0.00     0.023 A 
ATOM     66  C   UNL A   1      38.355  30.151  32.162  1.00  0.00     0.012 A 
ATOM     67  C   UNL A   1      37.653  31.126  30.047  1.00  0.00     0.148 A 
ATOM     68  C   UNL A   1      37.152  30.542  32.750  1.00  0.00     0.002 A 
ATOM     69  C   UNL A   1      36.473  31.546  30.650  1.00  0.00     0.091 A 
ATOM     70  F   UNL A   1      37.899  31.347  28.748  1.00  0.00    -0.205 F 
ATOM     71  C   UNL A   1      36.216  31.247  31.997  1.00  0.00     0.022 A 
BRANCH  69  72
ATOM     72  S   UNL A   1      35.243  32.516  29.770  1.00  0.00     0.127 S 
ATOM     73  O   UNL A   1      34.278  32.803  30.830  1.00  0.00    -0.237 OA
ATOM     74  O   UNL A   1      36.019  33.675  29.325  1.00  0.00    -0.237 OA
ATOM     75  O   UNL A   1      34.764  31.663  28.692  1.00  0.00    -0.744 OA
ENDBRANCH  69  72
ENDBRANCH  51  65
BRANCH  52  76
ATOM     76  C   UNL A   1      46.845  27.243  26.001  1.00  0.00     0.023 A 
ATOM     77  C   UNL A   1      46.890  27.541  24.628  1.00  0.00     0.012 A 
ATOM     78  C   UNL A   1      47.954  26.620  26.609  1.00  0.00     0.148 A 
ATOM     79  C   UNL A   1      48.015  27.215  23.868  1.00  0.00     0.002 A 
ATOM     80  C   UNL A   1      49.092  26.347  25.858  1.00  0.00     0.091 A 
ATOM     81  F   UNL A   1      47.887  26.339  27.918  1.00  0.00    -0.205 F 
ATOM     82  C   UNL A   1      49.120  26.632  24.485  1.00  0.00     0.022 A 
BRANCH  80  83
ATOM     83  S   UNL A   1      50.610  25.728  26.597  1.00  0.00     0.127 S 
ATOM     84  O   UNL A   1      51.452  25.524  25.421  1.00  0.00    -0.237 OA
ATOM     85  O   UNL A   1      51.008  26.847  27.452  1.00  0.00    -0.237 OA
ATOM     86  O   UNL A   1      50.233  24.523  27.322  1.00  0.00    -0.744 OA
ENDBRANCH  80  83
ENDBRANCH  52  76
BRANCH  64  87
ATOM     87  C   UNL A   1      45.196  33.067  29.535  1.00  0.00     0.023 A 
ATOM     88  C   UNL A   1      46.043  33.148  30.657  1.00  0.00     0.012 A 
ATOM     89  C   UNL A   1      45.140  34.138  28.623  1.00  0.00     0.148 A 
ATOM     90  C   UNL A   1      46.815  34.287  30.875  1.00  0.00     0.002 A 
ATOM     91  C   UNL A   1      45.947  35.250  28.822  1.00  0.00     0.091 A 
ATOM     92  F   UNL A   1      44.310  34.042  27.574  1.00  0.00    -0.205 F 
ATOM     93  C   UNL A   1      46.778  35.331  29.952  1.00  0.00     0.022 A 
BRANCH  91  94
ATOM     94  S   UNL A   1      46.039  36.596  27.636  1.00  0.00     0.127 S 
ATOM     95  O   UNL A   1      44.649  37.045  27.586  1.00  0.00    -0.237 OA
ATOM     96  O   UNL A   1      46.958  37.525  28.293  1.00  0.00    -0.237 OA
ATOM     97  O   UNL A   1      46.550  36.010  26.403  1.00  0.00    -0.744 OA
ENDBRANCH  91  94
ENDBRANCH  64  87
ENDBRANCH  38  39
ENDBRANCH  31  33
ENDBRANCH  30  31
ENDBRANCH  29  30
ENDBRANCH   1  29
TORSDOF 20
ENDMDL
MODEL 3
REMARK VINA RESULT:     -11.7      1.715      2.835
REMARK SMILES Cc1ccc(NC(=O)C[C@H]([NH2+]Cc2cccnc2)C(=O)OCCOC(=O)c2ccc(-c3c4nc(c(-c5cccc(S(=O)(=O)[O-])c5F)c5ccc([nH]5)c(-c5cccc(S(=O)(=O)[O-])c5F)c5nc(c(-c6cccc(S(=O)(=O)[O-])c6F)c6ccc3[nH]6)C=C5)C=C4)cc2)cc1Cl
REMARK SMILES IDX 22 1 21 2 19 3 20 4 10 5 9 6 7 7 6 8 8 10 5 11 1 12 2 13
REMARK SMILES IDX 3 14 91 15 4 16 90 17 92 18 11 19 12 22 13 23 14 24 18 25
REMARK SMILES IDX 15 26 17 27 16 28 23 29 24 30 25 31 26 32 27 33 28 34 89 35
REMARK SMILES IDX 29 36 88 37 30 38 31 39 32 40 82 41 33 42 87 43 81 44 83 45
REMARK SMILES IDX 34 46 86 47 80 48 79 49 35 51 67 52 47 53 66 54 48 55 51 56
REMARK SMILES IDX 65 57 84 58 49 59 50 60 64 62 85 63 52 64 36 65 37 66 45 67
REMARK SMILES IDX 38 68 40 69 46 70 39 71 41 72 42 73 43 74 44 75 68 76 69 77
REMARK SMILES IDX 77 78 70 79 72 80 78 81 71 82 73 83 74 84 75 85 76 86 53 87
REMARK SMILES IDX 54 88 62 89 55 90 57 91 63 92 56 93 58 94 59 95 60 96 61 97
REMARK H PARENT 6 9 11 20 11 21 83 50 51 61
REMARK Flexibility Score: inf
ROOT
ATOM      1  C   UNL A   1      35.570  21.925  24.470  1.00  0.00     0.274 C 
ENDROOT
BRANCH   1   2
ATOM      2  O   UNL A   1      35.095  22.700  25.593  1.00  0.00    -0.458 OA
BRANCH   2   3
ATOM      3  C   UNL A   1      34.168  22.134  26.408  1.00  0.00     0.365 C 
ATOM      4  O   UNL A   1      34.438  21.511  27.429  1.00  0.00    -0.245 OA
BRANCH   3   5
ATOM      5  C   UNL A   1      32.717  22.315  25.910  1.00  0.00     0.303 C 
BRANCH   5   6
ATOM      6  C   UNL A   1      31.928  23.134  26.914  1.00  0.00     0.177 C 
BRANCH   6   7
ATOM      7  C   UNL A   1      30.465  23.519  26.783  1.00  0.00     0.231 C 
ATOM      8  N   UNL A   1      29.894  24.689  26.419  1.00  0.00    -0.326 N 
ATOM      9  H   UNL A   1      29.000  24.750  26.824  1.00  0.00     0.169 HD
ATOM     10  O   UNL A   1      29.650  22.721  27.292  1.00  0.00    -0.274 OA
BRANCH   8  11
ATOM     11  C   UNL A   1      30.137  25.851  25.662  1.00  0.00     0.042 A 
ATOM     12  C   UNL A   1      30.688  29.184  22.911  1.00  0.00     0.046 C 
ATOM     13  C   UNL A   1      30.507  28.033  23.857  1.00  0.00    -0.032 A 
ATOM     14  C   UNL A   1      29.560  27.043  23.598  1.00  0.00     0.007 A 
ATOM     15  C   UNL A   1      31.268  27.918  25.022  1.00  0.00     0.046 A 
ATOM     16  C   UNL A   1      29.381  25.975  24.488  1.00  0.00     0.026 A 
ATOM     17  C   UNL A   1      31.107  26.815  25.881  1.00  0.00     0.047 A 
ATOM     18  Cl  UNL A   1      32.421  29.146  25.419  1.00  0.00    -0.084 Cl
ENDBRANCH   8  11
ENDBRANCH   6   7
ENDBRANCH   5   6
BRANCH   5  19
ATOM     19  N   UNL A   1      32.050  21.079  25.486  1.00  0.00    -0.330 N 
ATOM     20  H   UNL A   1      31.071  21.144  25.766  1.00  0.00     0.347 HD
ATOM     21  H   UNL A   1      32.573  20.326  25.934  1.00  0.00     0.347 HD
BRANCH  19  22
ATOM     22  C   UNL A   1      32.082  20.770  24.063  1.00  0.00     0.299 C 
BRANCH  22  23
ATOM     23  C   UNL A   1      32.718  19.425  23.821  1.00  0.00     0.024 A 
ATOM     24  C   UNL A   1      33.729  18.928  24.645  1.00  0.00     0.013 A 
ATOM     25  C   UNL A   1      32.280  18.595  22.789  1.00  0.00     0.120 A 
ATOM     26  C   UNL A   1      34.254  17.659  24.411  1.00  0.00     0.021 A 
ATOM     27  N   UNL A   1      32.779  17.362  22.524  1.00  0.00    -0.264 NA
ATOM     28  C   UNL A   1      33.751  16.923  23.352  1.00  0.00     0.111 A 
ENDBRANCH  22  23
ENDBRANCH  19  22
ENDBRANCH   5  19
ENDBRANCH   3   5
ENDBRANCH   2   3
ENDBRANCH   1   2
BRANCH   1  29
ATOM     29  C   UNL A   1      36.989  21.381  24.684  1.00  0.00     0.275 C 
BRANCH  29  30
ATOM     30  O   UNL A   1      37.500  21.713  25.988  1.00  0.00    -0.458 OA
BRANCH  30  31
ATOM     31  C   UNL A   1      38.815  21.451  26.141  1.00  0.00     0.338 C 
ATOM     32  O   UNL A   1      39.414  20.460  25.770  1.00  0.00    -0.246 OA
BRANCH  31  33
ATOM     33  C   UNL A   1      39.543  22.604  26.659  1.00  0.00     0.060 A 
ATOM     34  C   UNL A   1      39.211  23.847  26.105  1.00  0.00     0.016 A 
ATOM     35  C   UNL A   1      40.579  22.468  27.578  1.00  0.00     0.016 A 
ATOM     36  C   UNL A   1      39.912  24.978  26.476  1.00  0.00     0.010 A 
ATOM     37  C   UNL A   1      41.283  23.608  27.955  1.00  0.00     0.010 A 
ATOM     38  C   UNL A   1      40.947  24.859  27.406  1.00  0.00    -0.014 A 
BRANCH  38  39
ATOM     39  C   UNL A   1      41.670  26.066  27.830  1.00  0.00     0.031 A 
ATOM     40  C   UNL A   1      40.954  27.122  28.600  1.00  0.00     0.074 A 
ATOM     41  C   UNL A   1      42.954  26.197  27.457  1.00  0.00     0.049 A 
ATOM     42  N   UNL A   1      41.367  28.313  28.936  1.00  0.00    -0.248 NA
ATOM     43  C   UNL A   1      39.587  26.803  29.046  1.00  0.00     0.031 C 
ATOM     44  C   UNL A   1      43.717  25.194  26.712  1.00  0.00     0.029 A 
ATOM     45  N   UNL A   1      43.823  27.242  27.608  1.00  0.00    -0.354 N 
ATOM     46  C   UNL A   1      40.296  28.909  29.586  1.00  0.00     0.074 A 
ATOM     47  C   UNL A   1      39.219  27.943  29.615  1.00  0.00     0.031 C 
ATOM     48  C   UNL A   1      44.925  25.696  26.419  1.00  0.00     0.029 A 
ATOM     49  C   UNL A   1      44.997  27.065  26.918  1.00  0.00     0.049 A 
ATOM     50  H   UNL A   1      43.627  28.038  28.153  1.00  0.00     0.167 HD
ATOM     51  C   UNL A   1      40.229  30.156  30.103  1.00  0.00     0.034 A 
ATOM     52  C   UNL A   1      45.994  27.933  26.670  1.00  0.00     0.034 A 
ATOM     53  C   UNL A   1      41.326  31.085  30.071  1.00  0.00     0.049 A 
ATOM     54  C   UNL A   1      45.897  29.313  27.256  1.00  0.00     0.074 A 
ATOM     55  C   UNL A   1      41.400  32.352  30.617  1.00  0.00     0.029 A 
ATOM     56  N   UNL A   1      42.540  30.847  29.439  1.00  0.00    -0.354 N 
ATOM     57  N   UNL A   1      44.926  29.834  27.970  1.00  0.00    -0.248 NA
ATOM     58  C   UNL A   1      47.033  30.214  27.032  1.00  0.00     0.031 C 
ATOM     59  C   UNL A   1      42.650  32.890  30.295  1.00  0.00     0.029 A 
ATOM     60  C   UNL A   1      43.366  31.949  29.568  1.00  0.00     0.049 A 
ATOM     61  H   UNL A   1      42.778  30.017  28.968  1.00  0.00     0.167 HD
ATOM     62  C   UNL A   1      45.344  31.114  28.306  1.00  0.00     0.074 A 
ATOM     63  C   UNL A   1      46.664  31.283  27.726  1.00  0.00     0.031 C 
ATOM     64  C   UNL A   1      44.694  32.067  29.019  1.00  0.00     0.034 A 
BRANCH  51  65
ATOM     65  C   UNL A   1      38.934  30.577  30.741  1.00  0.00     0.023 A 
ATOM     66  C   UNL A   1      38.688  30.277  32.096  1.00  0.00     0.012 A 
ATOM     67  C   UNL A   1      37.968  31.287  30.004  1.00  0.00     0.148 A 
ATOM     68  C   UNL A   1      37.487  30.651  32.699  1.00  0.00     0.002 A 
ATOM     69  C   UNL A   1      36.788  31.689  30.622  1.00  0.00     0.091 A 
ATOM     70  F   UNL A   1      38.203  31.534  28.707  1.00  0.00    -0.205 F 
ATOM     71  C   UNL A   1      36.542  31.363  31.965  1.00  0.00     0.022 A 
BRANCH  69  72
ATOM     72  S   UNL A   1      35.547  32.668  29.768  1.00  0.00     0.127 S 
ATOM     73  O   UNL A   1      36.158  33.996  29.781  1.00  0.00    -0.237 OA
ATOM     74  O   UNL A   1      35.501  32.032  28.451  1.00  0.00    -0.237 OA
ATOM     75  O   UNL A   1      34.326  32.525  30.548  1.00  0.00    -0.744 OA
ENDBRANCH  69  72
ENDBRANCH  51  65
BRANCH  52  76
ATOM     76  C   UNL A   1      47.151  27.494  25.846  1.00  0.00     0.023 A 
ATOM     77  C   UNL A   1      47.140  27.718  24.458  1.00  0.00     0.012 A 
ATOM     78  C   UNL A   1      48.307  26.955  26.449  1.00  0.00     0.148 A 
ATOM     79  C   UNL A   1      48.255  27.402  23.681  1.00  0.00     0.002 A 
ATOM     80  C   UNL A   1      49.432  26.694  25.678  1.00  0.00     0.091 A 
ATOM     81  F   UNL A   1      48.292  26.744  27.773  1.00  0.00    -0.205 F 
ATOM     82  C   UNL A   1      49.405  26.905  24.291  1.00  0.00     0.022 A 
BRANCH  80  83
ATOM     83  S   UNL A   1      51.000  26.186  26.397  1.00  0.00     0.127 S 
ATOM     84  O   UNL A   1      50.648  24.905  27.005  1.00  0.00    -0.237 OA
ATOM     85  O   UNL A   1      51.858  26.093  25.216  1.00  0.00    -0.237 OA
ATOM     86  O   UNL A   1      51.369  27.246  27.326  1.00  0.00    -0.744 OA
ENDBRANCH  80  83
ENDBRANCH  52  76
BRANCH  64  87
ATOM     87  C   UNL A   1      45.407  33.372  29.242  1.00  0.00     0.023 A 
ATOM     88  C   UNL A   1      46.244  33.525  30.362  1.00  0.00     0.012 A 
ATOM     89  C   UNL A   1      45.330  34.398  28.280  1.00  0.00     0.148 A 
ATOM     90  C   UNL A   1      46.988  34.692  30.531  1.00  0.00     0.002 A 
ATOM     91  C   UNL A   1      46.109  35.538  28.432  1.00  0.00     0.091 A 
ATOM     92  F   UNL A   1      44.509  34.234  27.233  1.00  0.00    -0.205 F 
ATOM     93  C   UNL A   1      46.931  35.691  29.561  1.00  0.00     0.022 A 
BRANCH  91  94
ATOM     94  S   UNL A   1      46.176  36.829  27.185  1.00  0.00     0.127 S 
ATOM     95  O   UNL A   1      47.099  37.785  27.794  1.00  0.00    -0.237 OA
ATOM     96  O   UNL A   1      46.713  36.114  26.027  1.00  0.00    -0.237 OA
ATOM     97  O   UNL A   1      44.807  37.302  27.022  1.00  0.00    -0.744 OA
ENDBRANCH  91  94
ENDBRANCH  64  87
ENDBRANCH  38  39
ENDBRANCH  31  33
ENDBRANCH  30  31
ENDBRANCH  29  30
ENDBRANCH   1  29
TORSDOF 20
ENDMDL
