MODEL 1
REMARK VINA RESULT:     -10.6      0.000      0.000
REMARK SMILES O=C(CCn1ccnc1)N[C@H]1C=C[C@H](C(=O)OCCOC(=O)c2ccc(-c3c4nc(c(-c5cccc(S(=O)(=O)[O-])c5F)c5ccc([nH]5)c(-c5cccc(S(=O)(=O)[O-])c5F)c5nc(c(-c6cccc(S(=O)(=O)[O-])c6F)c6ccc3[nH]6)C=C5)C=C4)cc2)C1
REMARK SMILES IDX 18 1 17 2 15 3 16 4 14 5 11 6 12 7 86 8 13 9 10 10 1 11 2 12
REMARK SMILES IDX 3 14 4 15 5 16 6 17 9 18 7 19 8 20 19 21 20 22 21 23 22 24
REMARK SMILES IDX 23 25 24 26 85 27 25 28 84 29 26 30 27 31 28 32 78 33 29 34
REMARK SMILES IDX 83 35 77 36 79 37 30 38 82 39 76 40 75 41 31 43 63 44 43 45
REMARK SMILES IDX 62 46 44 47 47 48 61 49 80 50 45 51 46 52 60 54 81 55 48 56
REMARK SMILES IDX 32 57 33 58 41 59 34 60 36 61 42 62 35 63 37 64 38 65 39 66
REMARK SMILES IDX 40 67 64 68 65 69 73 70 66 71 68 72 74 73 67 74 69 75 70 76
REMARK SMILES IDX 71 77 72 78 49 79 50 80 58 81 51 82 53 83 59 84 52 85 54 86
REMARK SMILES IDX 55 87 56 88 57 89
REMARK H PARENT 10 13 79 42 47 53
REMARK Flexibility Score: inf
ROOT
ATOM      1  C   UNL A   1      38.692  21.300  25.659  1.00  0.00     0.274 C 
ENDROOT
BRANCH   1   2
ATOM      2  O   UNL A   1      37.691  21.781  24.737  1.00  0.00    -0.462 OA
BRANCH   2   3
ATOM      3  C   UNL A   1      36.499  22.164  25.286  1.00  0.00     0.312 C 
ATOM      4  O   UNL A   1      35.919  21.543  26.169  1.00  0.00    -0.252 OA
BRANCH   3   5
ATOM      5  C   UNL A   1      35.939  23.398  24.570  1.00  0.00     0.124 C 
ATOM      6  C   UNL A   1      33.682  24.007  25.292  1.00  0.00     0.106 C 
ATOM      7  C   UNL A   1      33.660  23.342  23.953  1.00  0.00    -0.006 C 
ATOM      8  C   UNL A   1      35.159  24.394  25.442  1.00  0.00     0.048 C 
ATOM      9  C   UNL A   1      34.893  23.004  23.559  1.00  0.00    -0.014 C 
BRANCH   6  10
ATOM     10  N   UNL A   1      32.643  25.016  25.331  1.00  0.00    -0.350 N 
ATOM     11  O   UNL A   1      31.392  24.419  27.182  1.00  0.00    -0.275 OA
ATOM     12  C   UNL A   1      31.623  25.163  26.237  1.00  0.00     0.222 C 
ATOM     13  H   UNL A   1      32.672  25.687  24.611  1.00  0.00     0.164 HD
BRANCH  12  14
ATOM     14  C   UNL A   1      30.760  26.387  26.006  1.00  0.00     0.122 C 
BRANCH  14  15
ATOM     15  C   UNL A   1      29.824  26.186  24.819  1.00  0.00     0.133 C 
BRANCH  15  16
ATOM     16  N   UNL A   1      29.986  27.189  23.784  1.00  0.00    -0.337 N 
ATOM     17  C   UNL A   1      31.171  27.655  23.288  1.00  0.00     0.107 A 
ATOM     18  C   UNL A   1      28.979  27.874  23.167  1.00  0.00     0.199 A 
ATOM     19  C   UNL A   1      30.819  28.657  22.413  1.00  0.00     0.130 A 
ATOM     20  N   UNL A   1      29.455  28.781  22.343  1.00  0.00    -0.245 NA
ENDBRANCH  15  16
ENDBRANCH  14  15
ENDBRANCH  12  14
ENDBRANCH   6  10
ENDBRANCH   3   5
ENDBRANCH   2   3
ENDBRANCH   1   2
BRANCH   1  21
ATOM     21  C   UNL A   1      39.329  19.974  25.250  1.00  0.00     0.275 C 
BRANCH  21  22
ATOM     22  O   UNL A   1      40.097  19.375  26.294  1.00  0.00    -0.458 OA
BRANCH  22  23
ATOM     23  C   UNL A   1      41.424  19.398  26.046  1.00  0.00     0.338 C 
ATOM     24  O   UNL A   1      42.084  18.522  25.515  1.00  0.00    -0.246 OA
BRANCH  23  25
ATOM     25  C   UNL A   1      42.066  20.557  26.659  1.00  0.00     0.060 A 
ATOM     26  C   UNL A   1      41.744  20.808  27.997  1.00  0.00     0.016 A 
ATOM     27  C   UNL A   1      42.709  21.507  25.862  1.00  0.00     0.016 A 
ATOM     28  C   UNL A   1      41.956  22.062  28.515  1.00  0.00     0.010 A 
ATOM     29  C   UNL A   1      42.915  22.770  26.379  1.00  0.00     0.010 A 
ATOM     30  C   UNL A   1      42.479  23.047  27.679  1.00  0.00    -0.014 A 
BRANCH  30  31
ATOM     31  C   UNL A   1      42.608  24.378  28.241  1.00  0.00     0.031 A 
ATOM     32  C   UNL A   1      41.413  25.240  28.062  1.00  0.00     0.074 A 
ATOM     33  C   UNL A   1      43.685  24.726  28.967  1.00  0.00     0.049 A 
ATOM     34  N   UNL A   1      41.349  26.434  27.570  1.00  0.00    -0.248 NA
ATOM     35  C   UNL A   1      40.104  24.642  28.374  1.00  0.00     0.031 C 
ATOM     36  C   UNL A   1      44.766  23.842  29.416  1.00  0.00     0.029 A 
ATOM     37  N   UNL A   1      43.943  25.898  29.612  1.00  0.00    -0.354 N 
ATOM     38  C   UNL A   1      40.016  26.816  27.715  1.00  0.00     0.074 A 
ATOM     39  C   UNL A   1      39.276  25.631  28.049  1.00  0.00     0.031 C 
ATOM     40  C   UNL A   1      45.384  24.415  30.470  1.00  0.00     0.029 A 
ATOM     41  C   UNL A   1      44.815  25.734  30.683  1.00  0.00     0.049 A 
ATOM     42  H   UNL A   1      43.556  26.764  29.351  1.00  0.00     0.167 HD
ATOM     43  C   UNL A   1      39.649  28.122  27.794  1.00  0.00     0.034 A 
ATOM     44  C   UNL A   1      44.965  26.570  31.736  1.00  0.00     0.034 A 
ATOM     45  C   UNL A   1      40.649  29.001  27.254  1.00  0.00     0.049 A 
ATOM     46  C   UNL A   1      44.396  27.884  31.362  1.00  0.00     0.074 A 
ATOM     47  C   UNL A   1      41.246  29.167  26.023  1.00  0.00     0.029 A 
ATOM     48  N   UNL A   1      41.410  29.705  28.151  1.00  0.00    -0.354 N 
ATOM     49  N   UNL A   1      44.917  28.682  30.473  1.00  0.00    -0.248 NA
ATOM     50  C   UNL A   1      43.021  28.179  31.736  1.00  0.00     0.031 C 
ATOM     51  C   UNL A   1      42.567  29.620  26.304  1.00  0.00     0.029 A 
ATOM     52  C   UNL A   1      42.699  29.713  27.692  1.00  0.00     0.049 A 
ATOM     53  H   UNL A   1      41.086  30.131  28.978  1.00  0.00     0.167 HD
ATOM     54  C   UNL A   1      43.825  29.293  29.870  1.00  0.00     0.074 A 
ATOM     55  C   UNL A   1      42.712  29.062  30.784  1.00  0.00     0.031 C 
ATOM     56  C   UNL A   1      43.863  29.660  28.554  1.00  0.00     0.034 A 
BRANCH  43  57
ATOM     57  C   UNL A   1      38.535  28.630  28.680  1.00  0.00     0.023 A 
ATOM     58  C   UNL A   1      37.440  29.262  28.050  1.00  0.00     0.012 A 
ATOM     59  C   UNL A   1      38.631  28.770  30.084  1.00  0.00     0.148 A 
ATOM     60  C   UNL A   1      36.521  30.030  28.772  1.00  0.00     0.002 A 
ATOM     61  C   UNL A   1      37.665  29.459  30.807  1.00  0.00     0.091 A 
ATOM     62  F   UNL A   1      39.729  28.363  30.730  1.00  0.00    -0.205 F 
ATOM     63  C   UNL A   1      36.626  30.120  30.154  1.00  0.00     0.022 A 
BRANCH  61  64
ATOM     64  S   UNL A   1      37.734  29.531  32.602  1.00  0.00     0.127 S 
ATOM     65  O   UNL A   1      36.644  30.453  32.902  1.00  0.00    -0.237 OA
ATOM     66  O   UNL A   1      37.489  28.137  32.974  1.00  0.00    -0.237 OA
ATOM     67  O   UNL A   1      39.081  29.996  32.908  1.00  0.00    -0.744 OA
ENDBRANCH  61  64
ENDBRANCH  43  57
BRANCH  44  68
ATOM     68  C   UNL A   1      45.358  26.245  33.125  1.00  0.00     0.023 A 
ATOM     69  C   UNL A   1      46.642  26.597  33.580  1.00  0.00     0.012 A 
ATOM     70  C   UNL A   1      44.413  25.793  34.075  1.00  0.00     0.148 A 
ATOM     71  C   UNL A   1      46.971  26.515  34.938  1.00  0.00     0.002 A 
ATOM     72  C   UNL A   1      44.753  25.689  35.420  1.00  0.00     0.091 A 
ATOM     73  F   UNL A   1      43.156  25.553  33.679  1.00  0.00    -0.205 F 
ATOM     74  C   UNL A   1      46.029  26.062  35.858  1.00  0.00     0.022 A 
BRANCH  72  75
ATOM     75  S   UNL A   1      43.585  25.096  36.652  1.00  0.00     0.127 S 
ATOM     76  O   UNL A   1      42.751  26.277  36.881  1.00  0.00    -0.237 OA
ATOM     77  O   UNL A   1      42.921  24.007  35.941  1.00  0.00    -0.237 OA
ATOM     78  O   UNL A   1      44.392  24.708  37.802  1.00  0.00    -0.744 OA
ENDBRANCH  72  75
ENDBRANCH  44  68
BRANCH  56  79
ATOM     79  C   UNL A   1      45.202  29.693  27.857  1.00  0.00     0.023 A 
ATOM     80  C   UNL A   1      46.048  30.818  27.932  1.00  0.00     0.012 A 
ATOM     81  C   UNL A   1      45.698  28.509  27.281  1.00  0.00     0.148 A 
ATOM     82  C   UNL A   1      47.346  30.776  27.417  1.00  0.00     0.002 A 
ATOM     83  C   UNL A   1      47.008  28.456  26.819  1.00  0.00     0.091 A 
ATOM     84  F   UNL A   1      44.888  27.440  27.222  1.00  0.00    -0.205 F 
ATOM     85  C   UNL A   1      47.832  29.590  26.875  1.00  0.00     0.022 A 
BRANCH  83  86
ATOM     86  S   UNL A   1      47.737  26.914  26.253  1.00  0.00     0.127 S 
ATOM     87  O   UNL A   1      46.972  26.640  25.039  1.00  0.00    -0.237 OA
ATOM     88  O   UNL A   1      49.135  27.286  26.024  1.00  0.00    -0.237 OA
ATOM     89  O   UNL A   1      47.551  25.968  27.347  1.00  0.00    -0.744 OA
ENDBRANCH  83  86
ENDBRANCH  56  79
ENDBRANCH  30  31
ENDBRANCH  23  25
ENDBRANCH  22  23
ENDBRANCH  21  22
ENDBRANCH   1  21
TORSDOF 18
ENDMDL
MODEL 2
REMARK VINA RESULT:     -10.5      4.721      9.947
REMARK SMILES O=C(CCn1ccnc1)N[C@H]1C=C[C@H](C(=O)OCCOC(=O)c2ccc(-c3c4nc(c(-c5cccc(S(=O)(=O)[O-])c5F)c5ccc([nH]5)c(-c5cccc(S(=O)(=O)[O-])c5F)c5nc(c(-c6cccc(S(=O)(=O)[O-])c6F)c6ccc3[nH]6)C=C5)C=C4)cc2)C1
REMARK SMILES IDX 18 1 17 2 15 3 16 4 14 5 11 6 12 7 86 8 13 9 10 10 1 11 2 12
REMARK SMILES IDX 3 14 4 15 5 16 6 17 9 18 7 19 8 20 19 21 20 22 21 23 22 24
REMARK SMILES IDX 23 25 24 26 85 27 25 28 84 29 26 30 27 31 28 32 78 33 29 34
REMARK SMILES IDX 83 35 77 36 79 37 30 38 82 39 76 40 75 41 31 43 63 44 43 45
REMARK SMILES IDX 62 46 44 47 47 48 61 49 80 50 45 51 46 52 60 54 81 55 48 56
REMARK SMILES IDX 32 57 33 58 41 59 34 60 36 61 42 62 35 63 37 64 38 65 39 66
REMARK SMILES IDX 40 67 64 68 65 69 73 70 66 71 68 72 74 73 67 74 69 75 70 76
REMARK SMILES IDX 71 77 72 78 49 79 50 80 58 81 51 82 53 83 59 84 52 85 54 86
REMARK SMILES IDX 55 87 56 88 57 89
REMARK H PARENT 10 13 79 42 47 53
REMARK Flexibility Score: inf
ROOT
ATOM      1  C   UNL A   1      33.907  34.951  29.138  1.00  0.00     0.274 C 
ENDROOT
BRANCH   1   2
ATOM      2  O   UNL A   1      33.228  34.578  30.356  1.00  0.00    -0.462 OA
BRANCH   2   3
ATOM      3  C   UNL A   1      32.974  35.591  31.239  1.00  0.00     0.312 C 
ATOM      4  O   UNL A   1      32.541  36.691  30.916  1.00  0.00    -0.252 OA
BRANCH   3   5
ATOM      5  C   UNL A   1      33.414  35.204  32.655  1.00  0.00     0.124 C 
ATOM      6  C   UNL A   1      35.790  34.644  32.823  1.00  0.00     0.106 C 
ATOM      7  C   UNL A   1      34.941  33.414  32.858  1.00  0.00    -0.006 C 
ATOM      8  C   UNL A   1      34.772  35.753  33.118  1.00  0.00     0.048 C 
ATOM      9  C   UNL A   1      33.641  33.718  32.761  1.00  0.00    -0.014 C 
BRANCH   6  10
ATOM     10  N   UNL A   1      36.940  34.443  33.681  1.00  0.00    -0.350 N 
ATOM     11  O   UNL A   1      36.007  33.658  35.646  1.00  0.00    -0.275 OA
ATOM     12  C   UNL A   1      36.978  33.971  34.968  1.00  0.00     0.222 C 
ATOM     13  H   UNL A   1      37.811  34.677  33.287  1.00  0.00     0.164 HD
BRANCH  12  14
ATOM     14  C   UNL A   1      38.377  33.824  35.533  1.00  0.00     0.122 C 
BRANCH  14  15
ATOM     15  C   UNL A   1      38.975  32.467  35.176  1.00  0.00     0.133 C 
BRANCH  15  16
ATOM     16  N   UNL A   1      40.052  32.552  34.208  1.00  0.00    -0.337 N 
ATOM     17  C   UNL A   1      41.366  32.245  34.431  1.00  0.00     0.107 A 
ATOM     18  C   UNL A   1      39.944  33.003  32.924  1.00  0.00     0.199 A 
ATOM     19  C   UNL A   1      42.011  32.581  33.263  1.00  0.00     0.130 A 
ATOM     20  N   UNL A   1      41.117  33.047  32.333  1.00  0.00    -0.245 NA
ENDBRANCH  15  16
ENDBRANCH  14  15
ENDBRANCH  12  14
ENDBRANCH   6  10
ENDBRANCH   3   5
ENDBRANCH   2   3
ENDBRANCH   1   2
BRANCH   1  21
ATOM     21  C   UNL A   1      35.212  34.195  28.898  1.00  0.00     0.275 C 
BRANCH  21  22
ATOM     22  O   UNL A   1      35.262  32.935  29.569  1.00  0.00    -0.458 OA
BRANCH  22  23
ATOM     23  C   UNL A   1      35.679  31.932  28.768  1.00  0.00     0.338 C 
ATOM     24  O   UNL A   1      35.159  31.559  27.731  1.00  0.00    -0.246 OA
BRANCH  23  25
ATOM     25  C   UNL A   1      36.770  31.177  29.376  1.00  0.00     0.060 A 
ATOM     26  C   UNL A   1      37.924  31.901  29.692  1.00  0.00     0.016 A 
ATOM     27  C   UNL A   1      36.758  29.780  29.349  1.00  0.00     0.016 A 
ATOM     28  C   UNL A   1      39.111  31.231  29.868  1.00  0.00     0.010 A 
ATOM     29  C   UNL A   1      37.951  29.107  29.518  1.00  0.00     0.010 A 
ATOM     30  C   UNL A   1      39.121  29.846  29.713  1.00  0.00    -0.014 A 
BRANCH  30  31
ATOM     31  C   UNL A   1      40.409  29.187  29.824  1.00  0.00     0.031 A 
ATOM     32  C   UNL A   1      40.879  28.985  31.218  1.00  0.00     0.074 A 
ATOM     33  C   UNL A   1      41.038  28.700  28.740  1.00  0.00     0.049 A 
ATOM     34  N   UNL A   1      42.016  29.314  31.739  1.00  0.00    -0.248 NA
ATOM     35  C   UNL A   1      39.905  28.443  32.180  1.00  0.00     0.031 C 
ATOM     36  C   UNL A   1      40.503  28.617  27.376  1.00  0.00     0.029 A 
ATOM     37  N   UNL A   1      42.210  28.008  28.666  1.00  0.00    -0.354 N 
ATOM     38  C   UNL A   1      41.975  28.820  33.041  1.00  0.00     0.074 A 
ATOM     39  C   UNL A   1      40.611  28.454  33.307  1.00  0.00     0.031 C 
ATOM     40  C   UNL A   1      41.197  27.681  26.696  1.00  0.00     0.029 A 
ATOM     41  C   UNL A   1      42.276  27.196  27.538  1.00  0.00     0.049 A 
ATOM     42  H   UNL A   1      42.929  28.075  29.334  1.00  0.00     0.167 HD
ATOM     43  C   UNL A   1      43.106  28.515  33.728  1.00  0.00     0.034 A 
ATOM     44  C   UNL A   1      43.080  26.122  27.365  1.00  0.00     0.034 A 
ATOM     45  C   UNL A   1      44.263  29.174  33.189  1.00  0.00     0.049 A 
ATOM     46  C   UNL A   1      44.176  26.206  28.357  1.00  0.00     0.074 A 
ATOM     47  C   UNL A   1      44.645  30.485  32.999  1.00  0.00     0.029 A 
ATOM     48  N   UNL A   1      45.131  28.408  32.454  1.00  0.00    -0.354 N 
ATOM     49  N   UNL A   1      45.125  27.099  28.328  1.00  0.00    -0.248 NA
ATOM     50  C   UNL A   1      44.032  25.491  29.615  1.00  0.00     0.031 C 
ATOM     51  C   UNL A   1      45.463  30.472  31.833  1.00  0.00     0.029 A 
ATOM     52  C   UNL A   1      45.542  29.152  31.382  1.00  0.00     0.049 A 
ATOM     53  H   UNL A   1      45.411  27.487  32.661  1.00  0.00     0.167 HD
ATOM     54  C   UNL A   1      45.401  27.360  29.663  1.00  0.00     0.074 A 
ATOM     55  C   UNL A   1      44.815  26.241  30.393  1.00  0.00     0.031 C 
ATOM     56  C   UNL A   1      45.810  28.599  30.069  1.00  0.00     0.034 A 
BRANCH  43  57
ATOM     57  C   UNL A   1      43.226  27.342  34.675  1.00  0.00     0.023 A 
ATOM     58  C   UNL A   1      43.240  27.622  36.058  1.00  0.00     0.012 A 
ATOM     59  C   UNL A   1      43.597  26.034  34.283  1.00  0.00     0.148 A 
ATOM     60  C   UNL A   1      43.649  26.669  36.996  1.00  0.00     0.002 A 
ATOM     61  C   UNL A   1      43.916  25.064  35.226  1.00  0.00     0.091 A 
ATOM     62  F   UNL A   1      43.787  25.743  32.992  1.00  0.00    -0.205 F 
ATOM     63  C   UNL A   1      43.977  25.383  36.582  1.00  0.00     0.022 A 
BRANCH  61  64
ATOM     64  S   UNL A   1      44.273  23.375  34.726  1.00  0.00     0.127 S 
ATOM     65  O   UNL A   1      43.047  23.011  34.023  1.00  0.00    -0.237 OA
ATOM     66  O   UNL A   1      45.450  23.550  33.873  1.00  0.00    -0.237 OA
ATOM     67  O   UNL A   1      44.545  22.664  35.969  1.00  0.00    -0.744 OA
ENDBRANCH  61  64
ENDBRANCH  43  57
BRANCH  44  68
ATOM     68  C   UNL A   1      42.839  24.909  26.554  1.00  0.00     0.023 A 
ATOM     69  C   UNL A   1      43.716  24.597  25.499  1.00  0.00     0.012 A 
ATOM     70  C   UNL A   1      41.888  23.937  26.943  1.00  0.00     0.148 A 
ATOM     71  C   UNL A   1      43.659  23.353  24.860  1.00  0.00     0.002 A 
ATOM     72  C   UNL A   1      41.818  22.711  26.287  1.00  0.00     0.091 A 
ATOM     73  F   UNL A   1      41.115  24.173  28.011  1.00  0.00    -0.205 F 
ATOM     74  C   UNL A   1      42.711  22.411  25.252  1.00  0.00     0.022 A 
BRANCH  72  75
ATOM     75  S   UNL A   1      40.606  21.461  26.737  1.00  0.00     0.127 S 
ATOM     76  O   UNL A   1      41.082  20.291  25.999  1.00  0.00    -0.237 OA
ATOM     77  O   UNL A   1      40.776  21.381  28.186  1.00  0.00    -0.237 OA
ATOM     78  O   UNL A   1      39.323  21.974  26.273  1.00  0.00    -0.744 OA
ENDBRANCH  72  75
ENDBRANCH  44  68
BRANCH  56  79
ATOM     79  C   UNL A   1      46.267  29.582  29.019  1.00  0.00     0.023 A 
ATOM     80  C   UNL A   1      47.583  29.566  28.512  1.00  0.00     0.012 A 
ATOM     81  C   UNL A   1      45.312  30.406  28.397  1.00  0.00     0.148 A 
ATOM     82  C   UNL A   1      47.947  30.373  27.432  1.00  0.00     0.002 A 
ATOM     83  C   UNL A   1      45.665  31.168  27.288  1.00  0.00     0.091 A 
ATOM     84  F   UNL A   1      44.059  30.409  28.880  1.00  0.00    -0.205 F 
ATOM     85  C   UNL A   1      46.984  31.163  26.810  1.00  0.00     0.022 A 
BRANCH  83  86
ATOM     86  S   UNL A   1      44.435  32.082  26.353  1.00  0.00     0.127 S 
ATOM     87  O   UNL A   1      44.018  33.105  27.310  1.00  0.00    -0.237 OA
ATOM     88  O   UNL A   1      45.208  32.589  25.217  1.00  0.00    -0.237 OA
ATOM     89  O   UNL A   1      43.416  31.106  25.983  1.00  0.00    -0.744 OA
ENDBRANCH  83  86
ENDBRANCH  56  79
ENDBRANCH  30  31
ENDBRANCH  23  25
ENDBRANCH  22  23
ENDBRANCH  21  22
ENDBRANCH   1  21
TORSDOF 18
ENDMDL
MODEL 3
REMARK VINA RESULT:     -10.4      2.956      7.823
REMARK SMILES O=C(CCn1ccnc1)N[C@H]1C=C[C@H](C(=O)OCCOC(=O)c2ccc(-c3c4nc(c(-c5cccc(S(=O)(=O)[O-])c5F)c5ccc([nH]5)c(-c5cccc(S(=O)(=O)[O-])c5F)c5nc(c(-c6cccc(S(=O)(=O)[O-])c6F)c6ccc3[nH]6)C=C5)C=C4)cc2)C1
REMARK SMILES IDX 18 1 17 2 15 3 16 4 14 5 11 6 12 7 86 8 13 9 10 10 1 11 2 12
REMARK SMILES IDX 3 14 4 15 5 16 6 17 9 18 7 19 8 20 19 21 20 22 21 23 22 24
REMARK SMILES IDX 23 25 24 26 85 27 25 28 84 29 26 30 27 31 28 32 78 33 29 34
REMARK SMILES IDX 83 35 77 36 79 37 30 38 82 39 76 40 75 41 31 43 63 44 43 45
REMARK SMILES IDX 62 46 44 47 47 48 61 49 80 50 45 51 46 52 60 54 81 55 48 56
REMARK SMILES IDX 32 57 33 58 41 59 34 60 36 61 42 62 35 63 37 64 38 65 39 66
REMARK SMILES IDX 40 67 64 68 65 69 73 70 66 71 68 72 74 73 67 74 69 75 70 76
REMARK SMILES IDX 71 77 72 78 49 79 50 80 58 81 51 82 53 83 59 84 52 85 54 86
REMARK SMILES IDX 55 87 56 88 57 89
REMARK H PARENT 10 13 79 42 47 53
REMARK Flexibility Score: inf
ROOT
ATOM      1  C   UNL A   1      33.166  30.257  26.246  1.00  0.00     0.274 C 
ENDROOT
BRANCH   1   2
ATOM      2  O   UNL A   1      31.951  29.479  26.278  1.00  0.00    -0.462 OA
BRANCH   2   3
ATOM      3  C   UNL A   1      31.612  28.843  25.116  1.00  0.00     0.312 C 
ATOM      4  O   UNL A   1      31.659  29.365  24.008  1.00  0.00    -0.252 OA
BRANCH   3   5
ATOM      5  C   UNL A   1      31.058  27.442  25.401  1.00  0.00     0.124 C 
ATOM      6  C   UNL A   1      31.974  25.710  23.937  1.00  0.00     0.106 C 
ATOM      7  C   UNL A   1      30.580  26.073  23.538  1.00  0.00    -0.006 C 
ATOM      8  C   UNL A   1      32.071  26.288  25.355  1.00  0.00     0.048 C 
ATOM      9  C   UNL A   1      30.079  27.024  24.335  1.00  0.00    -0.014 C 
BRANCH   6  10
ATOM     10  N   UNL A   1      32.177  24.296  23.696  1.00  0.00    -0.350 N 
ATOM     11  O   UNL A   1      33.250  24.254  21.649  1.00  0.00    -0.275 OA
ATOM     12  C   UNL A   1      32.787  23.685  22.630  1.00  0.00     0.222 C 
ATOM     13  H   UNL A   1      31.832  23.691  24.392  1.00  0.00     0.164 HD
BRANCH  12  14
ATOM     14  C   UNL A   1      32.885  22.178  22.751  1.00  0.00     0.122 C 
BRANCH  14  15
ATOM     15  C   UNL A   1      32.746  21.732  24.202  1.00  0.00     0.133 C 
BRANCH  15  16
ATOM     16  N   UNL A   1      34.019  21.573  24.878  1.00  0.00    -0.337 N 
ATOM     17  C   UNL A   1      34.607  22.477  25.718  1.00  0.00     0.107 A 
ATOM     18  C   UNL A   1      34.870  20.513  24.748  1.00  0.00     0.199 A 
ATOM     19  C   UNL A   1      35.834  21.932  26.021  1.00  0.00     0.130 A 
ATOM     20  N   UNL A   1      35.984  20.710  25.416  1.00  0.00    -0.245 NA
ENDBRANCH  15  16
ENDBRANCH  14  15
ENDBRANCH  12  14
ENDBRANCH   6  10
ENDBRANCH   3   5
ENDBRANCH   2   3
ENDBRANCH   1   2
BRANCH   1  21
ATOM     21  C   UNL A   1      33.907  30.309  27.581  1.00  0.00     0.275 C 
BRANCH  21  22
ATOM     22  O   UNL A   1      35.171  30.968  27.495  1.00  0.00    -0.458 OA
BRANCH  22  23
ATOM     23  C   UNL A   1      35.513  31.595  28.641  1.00  0.00     0.338 C 
ATOM     24  O   UNL A   1      35.065  32.646  29.061  1.00  0.00    -0.246 OA
BRANCH  23  25
ATOM     25  C   UNL A   1      36.657  30.954  29.283  1.00  0.00     0.060 A 
ATOM     26  C   UNL A   1      37.824  31.718  29.376  1.00  0.00     0.016 A 
ATOM     27  C   UNL A   1      36.657  29.574  29.502  1.00  0.00     0.016 A 
ATOM     28  C   UNL A   1      39.028  31.086  29.571  1.00  0.00     0.010 A 
ATOM     29  C   UNL A   1      37.866  28.937  29.690  1.00  0.00     0.010 A 
ATOM     30  C   UNL A   1      39.041  29.695  29.660  1.00  0.00    -0.014 A 
BRANCH  30  31
ATOM     31  C   UNL A   1      40.340  29.061  29.782  1.00  0.00     0.031 A 
ATOM     32  C   UNL A   1      40.797  28.856  31.179  1.00  0.00     0.074 A 
ATOM     33  C   UNL A   1      40.993  28.596  28.701  1.00  0.00     0.049 A 
ATOM     34  N   UNL A   1      41.920  29.204  31.717  1.00  0.00    -0.248 NA
ATOM     35  C   UNL A   1      39.822  28.287  32.124  1.00  0.00     0.031 C 
ATOM     36  C   UNL A   1      40.476  28.514  27.330  1.00  0.00     0.029 A 
ATOM     37  N   UNL A   1      42.179  27.929  28.636  1.00  0.00    -0.354 N 
ATOM     38  C   UNL A   1      41.873  28.699  33.015  1.00  0.00     0.074 A 
ATOM     39  C   UNL A   1      40.514  28.302  33.261  1.00  0.00     0.031 C 
ATOM     40  C   UNL A   1      41.198  27.598  26.652  1.00  0.00     0.029 A 
ATOM     41  C   UNL A   1      42.276  27.128  27.503  1.00  0.00     0.049 A 
ATOM     42  H   UNL A   1      42.888  28.004  29.314  1.00  0.00     0.167 HD
ATOM     43  C   UNL A   1      43.002  28.410  33.714  1.00  0.00     0.034 A 
ATOM     44  C   UNL A   1      43.104  26.072  27.331  1.00  0.00     0.034 A 
ATOM     45  C   UNL A   1      44.152  29.097  33.195  1.00  0.00     0.049 A 
ATOM     46  C   UNL A   1      44.185  26.170  28.337  1.00  0.00     0.074 A 
ATOM     47  C   UNL A   1      44.509  30.417  33.020  1.00  0.00     0.029 A 
ATOM     48  N   UNL A   1      45.044  28.355  32.464  1.00  0.00    -0.354 N 
ATOM     49  N   UNL A   1      45.116  27.082  28.327  1.00  0.00    -0.248 NA
ATOM     50  C   UNL A   1      44.040  25.441  29.588  1.00  0.00     0.031 C 
ATOM     51  C   UNL A   1      45.341  30.431  31.864  1.00  0.00     0.029 A 
ATOM     52  C   UNL A   1      45.453  29.117  31.404  1.00  0.00     0.049 A 
ATOM     53  H   UNL A   1      45.340  27.438  32.667  1.00  0.00     0.167 HD
ATOM     54  C   UNL A   1      45.370  27.336  29.669  1.00  0.00     0.074 A 
ATOM     55  C   UNL A   1      44.798  26.200  30.382  1.00  0.00     0.031 C 
ATOM     56  C   UNL A   1      45.748  28.580  30.090  1.00  0.00     0.034 A 
BRANCH  43  57
ATOM     57  C   UNL A   1      43.133  27.232  34.652  1.00  0.00     0.023 A 
ATOM     58  C   UNL A   1      43.126  27.501  36.038  1.00  0.00     0.012 A 
ATOM     59  C   UNL A   1      43.536  25.936  34.254  1.00  0.00     0.148 A 
ATOM     60  C   UNL A   1      43.543  26.548  36.973  1.00  0.00     0.002 A 
ATOM     61  C   UNL A   1      43.863  24.964  35.192  1.00  0.00     0.091 A 
ATOM     62  F   UNL A   1      43.747  25.659  32.963  1.00  0.00    -0.205 F 
ATOM     63  C   UNL A   1      43.901  25.273  36.552  1.00  0.00     0.022 A 
BRANCH  61  64
ATOM     64  S   UNL A   1      44.259  23.287  34.683  1.00  0.00     0.127 S 
ATOM     65  O   UNL A   1      43.014  22.870  34.045  1.00  0.00    -0.237 OA
ATOM     66  O   UNL A   1      45.383  23.501  33.771  1.00  0.00    -0.237 OA
ATOM     67  O   UNL A   1      44.621  22.595  35.914  1.00  0.00    -0.744 OA
ENDBRANCH  61  64
ENDBRANCH  43  57
BRANCH  44  68
ATOM     68  C   UNL A   1      42.898  24.861  26.507  1.00  0.00     0.023 A 
ATOM     69  C   UNL A   1      43.802  24.568  25.470  1.00  0.00     0.012 A 
ATOM     70  C   UNL A   1      41.952  23.874  26.868  1.00  0.00     0.148 A 
ATOM     71  C   UNL A   1      43.777  23.328  24.823  1.00  0.00     0.002 A 
ATOM     72  C   UNL A   1      41.913  22.652  26.203  1.00  0.00     0.091 A 
ATOM     73  F   UNL A   1      41.151  24.092  27.920  1.00  0.00    -0.205 F 
ATOM     74  C   UNL A   1      42.833  22.370  25.187  1.00  0.00     0.022 A 
BRANCH  72  75
ATOM     75  S   UNL A   1      40.708  21.383  26.618  1.00  0.00     0.127 S 
ATOM     76  O   UNL A   1      41.301  20.187  26.017  1.00  0.00    -0.237 OA
ATOM     77  O   UNL A   1      40.729  21.409  28.078  1.00  0.00    -0.237 OA
ATOM     78  O   UNL A   1      39.462  21.806  25.991  1.00  0.00    -0.744 OA
ENDBRANCH  72  75
ENDBRANCH  44  68
BRANCH  56  79
ATOM     79  C   UNL A   1      46.199  29.581  29.053  1.00  0.00     0.023 A 
ATOM     80  C   UNL A   1      47.523  29.603  28.572  1.00  0.00     0.012 A 
ATOM     81  C   UNL A   1      45.233  30.383  28.418  1.00  0.00     0.148 A 
ATOM     82  C   UNL A   1      47.886  30.427  27.503  1.00  0.00     0.002 A 
ATOM     83  C   UNL A   1      45.587  31.161  27.320  1.00  0.00     0.091 A 
ATOM     84  F   UNL A   1      43.973  30.349  28.878  1.00  0.00    -0.205 F 
ATOM     85  C   UNL A   1      46.914  31.194  26.867  1.00  0.00     0.022 A 
BRANCH  83  86
ATOM     86  S   UNL A   1      44.350  32.047  26.366  1.00  0.00     0.127 S 
ATOM     87  O   UNL A   1      45.128  32.535  25.230  1.00  0.00    -0.237 OA
ATOM     88  O   UNL A   1      43.385  30.995  26.038  1.00  0.00    -0.237 OA
ATOM     89  O   UNL A   1      43.823  33.071  27.262  1.00  0.00    -0.744 OA
ENDBRANCH  83  86
ENDBRANCH  56  79
ENDBRANCH  30  31
ENDBRANCH  23  25
ENDBRANCH  22  23
ENDBRANCH  21  22
ENDBRANCH   1  21
TORSDOF 18
ENDMDL
