MODEL 1
REMARK VINA RESULT:     -11.9      0.000      0.000
REMARK SMILES O=C(COc1ccc(/C=N/NC(=O)c2cc3cc([N+](=O)[O-])ccc3o2)cc1)OCCOC(=O)c1ccc(-c2c3nc(c(-c4cccc(S(=O)(=O)[O-])c4F)c4ccc([nH]4)c(-c4cccc(S(=O)(=O)[O-])c4F)c4nc(c(-c5cccc(S(=O)(=O)[O-])c5F)c5ccc2[nH]5)C=C4)C=C3)cc1
REMARK SMILES IDX 28 1 2 2 1 3 3 4 4 5 5 6 6 7 27 8 7 9 26 10 8 11 9 12 10 13
REMARK SMILES IDX 11 14 12 15 13 17 14 18 15 19 25 20 16 21 24 22 17 23 23 24
REMARK SMILES IDX 18 25 22 26 19 27 20 28 21 29 29 30 30 31 31 32 32 33 33 34
REMARK SMILES IDX 34 35 35 36 96 37 36 38 95 39 37 40 38 41 39 42 89 43 40 44
REMARK SMILES IDX 94 45 88 46 90 47 41 48 93 49 87 50 86 51 42 53 74 54 54 55
REMARK SMILES IDX 73 56 55 57 58 58 72 59 91 60 56 61 57 62 71 64 92 65 59 66
REMARK SMILES IDX 43 67 44 68 52 69 45 70 47 71 53 72 46 73 48 74 49 75 50 76
REMARK SMILES IDX 51 77 75 78 76 79 84 80 77 81 79 82 85 83 78 84 80 85 81 86
REMARK SMILES IDX 82 87 83 88 60 89 61 90 69 91 62 92 64 93 70 94 63 95 65 96
REMARK SMILES IDX 66 97 67 98 68 99
REMARK H PARENT 11 16 90 52 58 63
REMARK Flexibility Score: inf
ROOT
ATOM      1  O   UNL A   1      34.643  20.252  24.484  1.00  0.00    -0.460 OA
ENDROOT
BRANCH   1   2
ATOM      2  C   UNL A   1      33.543  19.636  24.986  1.00  0.00     0.344 C 
ATOM      3  O   UNL A   1      33.352  18.440  24.769  1.00  0.00    -0.248 OA
BRANCH   2   4
ATOM      4  C   UNL A   1      32.607  20.443  25.876  1.00  0.00     0.351 C 
BRANCH   4   5
ATOM      5  O   UNL A   1      31.784  21.343  25.138  1.00  0.00    -0.482 OA
BRANCH   5   6
ATOM      6  C   UNL A   1      32.116  22.625  25.472  1.00  0.00     0.120 A 
ATOM      7  C   UNL A   1      31.241  23.345  26.279  1.00  0.00     0.047 A 
ATOM      8  C   UNL A   1      33.307  23.183  25.007  1.00  0.00     0.047 A 
ATOM      9  C   UNL A   1      31.584  24.639  26.659  1.00  0.00     0.013 A 
ATOM     10  C   UNL A   1      33.656  24.472  25.392  1.00  0.00     0.013 A 
ATOM     11  C   UNL A   1      32.791  25.196  26.213  1.00  0.00    -0.005 A 
BRANCH  11  12
ATOM     12  C   UNL A   1      33.116  26.606  26.489  1.00  0.00     0.141 C 
ATOM     13  N   UNL A   1      32.358  27.304  27.258  1.00  0.00    -0.180 NA
BRANCH  13  14
ATOM     14  N   UNL A   1      32.468  28.656  27.353  1.00  0.00    -0.240 N 
ATOM     15  C   UNL A   1      31.973  29.668  26.565  1.00  0.00     0.307 C 
ATOM     16  H   UNL A   1      32.998  28.964  28.123  1.00  0.00     0.194 HD
ATOM     17  O   UNL A   1      31.482  30.651  27.129  1.00  0.00    -0.264 OA
BRANCH  15  18
ATOM     18  C   UNL A   1      32.159  29.679  25.129  1.00  0.00     0.194 A 
ATOM     19  C   UNL A   1      33.276  29.327  24.384  1.00  0.00     0.065 A 
ATOM     20  O   UNL A   1      31.030  29.430  24.387  1.00  0.00    -0.451 OA
ATOM     21  C   UNL A   1      32.788  28.479  23.350  1.00  0.00     0.028 A 
ATOM     22  C   UNL A   1      31.404  28.584  23.394  1.00  0.00     0.135 A 
ATOM     23  C   UNL A   1      33.371  27.520  22.504  1.00  0.00     0.097 A 
ATOM     24  C   UNL A   1      30.525  27.813  22.637  1.00  0.00     0.055 A 
ATOM     25  C   UNL A   1      32.502  26.628  21.846  1.00  0.00     0.270 A 
ATOM     26  C   UNL A   1      31.105  26.779  21.893  1.00  0.00     0.089 A 
BRANCH  25  27
ATOM     27  N   UNL A   1      33.071  25.437  21.202  1.00  0.00     0.062 N 
ATOM     28  O   UNL A   1      33.663  24.620  21.922  1.00  0.00    -0.258 OA
ATOM     29  O   UNL A   1      32.903  25.306  19.981  1.00  0.00    -0.258 OA
ENDBRANCH  25  27
ENDBRANCH  15  18
ENDBRANCH  13  14
ENDBRANCH  11  12
ENDBRANCH   5   6
ENDBRANCH   4   5
ENDBRANCH   2   4
ENDBRANCH   1   2
BRANCH   1  30
ATOM     30  C   UNL A   1      35.973  20.046  25.000  1.00  0.00     0.274 C 
BRANCH  30  31
ATOM     31  C   UNL A   1      36.495  21.312  25.681  1.00  0.00     0.275 C 
BRANCH  31  32
ATOM     32  O   UNL A   1      37.785  21.668  25.152  1.00  0.00    -0.458 OA
BRANCH  32  33
ATOM     33  C   UNL A   1      38.866  21.271  25.882  1.00  0.00     0.338 C 
ATOM     34  O   UNL A   1      39.349  20.165  25.919  1.00  0.00    -0.246 OA
BRANCH  33  35
ATOM     35  C   UNL A   1      39.498  22.486  26.459  1.00  0.00     0.060 A 
ATOM     36  C   UNL A   1      39.060  23.743  26.015  1.00  0.00     0.016 A 
ATOM     37  C   UNL A   1      40.469  22.392  27.457  1.00  0.00     0.016 A 
ATOM     38  C   UNL A   1      39.613  24.909  26.556  1.00  0.00     0.010 A 
ATOM     39  C   UNL A   1      41.026  23.556  27.988  1.00  0.00     0.010 A 
ATOM     40  C   UNL A   1      40.621  24.820  27.524  1.00  0.00    -0.014 A 
BRANCH  40  41
ATOM     41  C   UNL A   1      41.389  26.015  27.949  1.00  0.00     0.031 A 
ATOM     42  C   UNL A   1      40.649  27.132  28.629  1.00  0.00     0.074 A 
ATOM     43  C   UNL A   1      42.691  26.158  27.647  1.00  0.00     0.049 A 
ATOM     44  N   UNL A   1      41.069  28.322  28.964  1.00  0.00    -0.248 NA
ATOM     45  C   UNL A   1      39.236  26.873  28.957  1.00  0.00     0.031 C 
ATOM     46  C   UNL A   1      43.518  25.160  26.972  1.00  0.00     0.029 A 
ATOM     47  N   UNL A   1      43.531  27.231  27.823  1.00  0.00    -0.354 N 
ATOM     48  C   UNL A   1      39.967  28.969  29.506  1.00  0.00     0.074 A 
ATOM     49  C   UNL A   1      38.859  28.042  29.450  1.00  0.00     0.031 C 
ATOM     50  C   UNL A   1      44.732  25.688  26.740  1.00  0.00     0.029 A 
ATOM     51  C   UNL A   1      44.760  27.068  27.227  1.00  0.00     0.049 A 
ATOM     52  H   UNL A   1      43.277  28.038  28.327  1.00  0.00     0.167 HD
ATOM     53  C   UNL A   1      39.882  30.222  30.014  1.00  0.00     0.034 A 
ATOM     54  C   UNL A   1      45.774  27.942  27.062  1.00  0.00     0.034 A 
ATOM     55  C   UNL A   1      40.983  31.141  30.082  1.00  0.00     0.049 A 
ATOM     56  C   UNL A   1      45.661  29.335  27.626  1.00  0.00     0.074 A 
ATOM     57  C   UNL A   1      41.013  32.404  30.647  1.00  0.00     0.029 A 
ATOM     58  N   UNL A   1      42.240  30.911  29.547  1.00  0.00    -0.354 N 
ATOM     59  N   UNL A   1      44.663  29.883  28.278  1.00  0.00    -0.248 NA
ATOM     60  C   UNL A   1      46.823  30.224  27.461  1.00  0.00     0.031 C 
ATOM     61  C   UNL A   1      42.282  32.949  30.426  1.00  0.00     0.029 A 
ATOM     62  C   UNL A   1      43.050  32.014  29.750  1.00  0.00     0.049 A 
ATOM     63  H   UNL A   1      42.517  30.084  29.089  1.00  0.00     0.167 HD
ATOM     64  C   UNL A   1      45.088  31.161  28.631  1.00  0.00     0.074 A 
ATOM     65  C   UNL A   1      46.438  31.305  28.129  1.00  0.00     0.031 C 
ATOM     66  C   UNL A   1      44.415  32.129  29.300  1.00  0.00     0.034 A 
BRANCH  53  67
ATOM     67  C   UNL A   1      38.548  30.659  30.549  1.00  0.00     0.023 A 
ATOM     68  C   UNL A   1      38.233  30.435  31.905  1.00  0.00     0.012 A 
ATOM     69  C   UNL A   1      37.617  31.312  29.720  1.00  0.00     0.148 A 
ATOM     70  C   UNL A   1      36.995  30.819  32.417  1.00  0.00     0.002 A 
ATOM     71  C   UNL A   1      36.402  31.730  30.249  1.00  0.00     0.091 A 
ATOM     72  F   UNL A   1      37.923  31.489  28.426  1.00  0.00    -0.205 F 
ATOM     73  C   UNL A   1      36.084  31.474  31.592  1.00  0.00     0.022 A 
BRANCH  71  74
ATOM     74  S   UNL A   1      35.201  32.646  29.277  1.00  0.00     0.127 S 
ATOM     75  O   UNL A   1      34.087  32.761  30.215  1.00  0.00    -0.237 OA
ATOM     76  O   UNL A   1      35.907  33.900  29.011  1.00  0.00    -0.237 OA
ATOM     77  O   UNL A   1      34.949  31.835  28.093  1.00  0.00    -0.744 OA
ENDBRANCH  71  74
ENDBRANCH  53  67
BRANCH  54  78
ATOM     78  C   UNL A   1      47.003  27.511  26.337  1.00  0.00     0.023 A 
ATOM     79  C   UNL A   1      48.000  26.790  27.022  1.00  0.00     0.012 A 
ATOM     80  C   UNL A   1      47.168  27.777  24.964  1.00  0.00     0.148 A 
ATOM     81  C   UNL A   1      49.151  26.363  26.357  1.00  0.00     0.002 A 
ATOM     82  C   UNL A   1      48.290  27.302  24.296  1.00  0.00     0.091 A 
ATOM     83  F   UNL A   1      46.212  28.477  24.335  1.00  0.00    -0.205 F 
ATOM     84  C   UNL A   1      49.290  26.608  24.993  1.00  0.00     0.022 A 
BRANCH  82  85
ATOM     85  S   UNL A   1      48.492  27.455  22.517  1.00  0.00     0.127 S 
ATOM     86  O   UNL A   1      47.278  28.173  22.138  1.00  0.00    -0.237 OA
ATOM     87  O   UNL A   1      49.727  28.236  22.422  1.00  0.00    -0.237 OA
ATOM     88  O   UNL A   1      48.602  26.093  22.013  1.00  0.00    -0.744 OA
ENDBRANCH  82  85
ENDBRANCH  54  78
BRANCH  66  89
ATOM     89  C   UNL A   1      45.122  33.431  29.582  1.00  0.00     0.023 A 
ATOM     90  C   UNL A   1      45.903  33.567  30.746  1.00  0.00     0.012 A 
ATOM     91  C   UNL A   1      45.112  34.470  28.629  1.00  0.00     0.148 A 
ATOM     92  C   UNL A   1      46.653  34.724  30.963  1.00  0.00     0.002 A 
ATOM     93  C   UNL A   1      45.898  35.599  28.831  1.00  0.00     0.091 A 
ATOM     94  F   UNL A   1      44.349  34.326  27.536  1.00  0.00    -0.205 F 
ATOM     95  C   UNL A   1      46.662  35.731  30.002  1.00  0.00     0.022 A 
BRANCH  93  96
ATOM     96  S   UNL A   1      46.051  36.901  27.602  1.00  0.00     0.127 S 
ATOM     97  O   UNL A   1      44.771  37.593  27.739  1.00  0.00    -0.237 OA
ATOM     98  O   UNL A   1      47.207  37.654  28.091  1.00  0.00    -0.237 OA
ATOM     99  O   UNL A   1      46.263  36.230  26.326  1.00  0.00    -0.744 OA
ENDBRANCH  93  96
ENDBRANCH  66  89
ENDBRANCH  40  41
ENDBRANCH  33  35
ENDBRANCH  32  33
ENDBRANCH  31  32
ENDBRANCH  30  31
ENDBRANCH   1  30
TORSDOF 20
ENDMDL
MODEL 2
REMARK VINA RESULT:     -11.7      4.909      8.207
REMARK SMILES O=C(COc1ccc(/C=N/NC(=O)c2cc3cc([N+](=O)[O-])ccc3o2)cc1)OCCOC(=O)c1ccc(-c2c3nc(c(-c4cccc(S(=O)(=O)[O-])c4F)c4ccc([nH]4)c(-c4cccc(S(=O)(=O)[O-])c4F)c4nc(c(-c5cccc(S(=O)(=O)[O-])c5F)c5ccc2[nH]5)C=C4)C=C3)cc1
REMARK SMILES IDX 28 1 2 2 1 3 3 4 4 5 5 6 6 7 27 8 7 9 26 10 8 11 9 12 10 13
REMARK SMILES IDX 11 14 12 15 13 17 14 18 15 19 25 20 16 21 24 22 17 23 23 24
REMARK SMILES IDX 18 25 22 26 19 27 20 28 21 29 29 30 30 31 31 32 32 33 33 34
REMARK SMILES IDX 34 35 35 36 96 37 36 38 95 39 37 40 38 41 39 42 89 43 40 44
REMARK SMILES IDX 94 45 88 46 90 47 41 48 93 49 87 50 86 51 42 53 74 54 54 55
REMARK SMILES IDX 73 56 55 57 58 58 72 59 91 60 56 61 57 62 71 64 92 65 59 66
REMARK SMILES IDX 43 67 44 68 52 69 45 70 47 71 53 72 46 73 48 74 49 75 50 76
REMARK SMILES IDX 51 77 75 78 76 79 84 80 77 81 79 82 85 83 78 84 80 85 81 86
REMARK SMILES IDX 82 87 83 88 60 89 61 90 69 91 62 92 64 93 70 94 63 95 65 96
REMARK SMILES IDX 66 97 67 98 68 99
REMARK H PARENT 11 16 90 52 58 63
REMARK Flexibility Score: inf
ROOT
ATOM      1  O   UNL A   1      31.382  29.668  24.653  1.00  0.00    -0.460 OA
ENDROOT
BRANCH   1   2
ATOM      2  C   UNL A   1      30.542  29.358  23.635  1.00  0.00     0.344 C 
ATOM      3  O   UNL A   1      29.332  29.550  23.751  1.00  0.00    -0.248 OA
BRANCH   2   4
ATOM      4  C   UNL A   1      31.143  28.844  22.333  1.00  0.00     0.351 C 
BRANCH   4   5
ATOM      5  O   UNL A   1      30.886  27.459  22.117  1.00  0.00    -0.482 OA
BRANCH   5   6
ATOM      6  C   UNL A   1      31.901  26.727  22.663  1.00  0.00     0.120 A 
ATOM      7  C   UNL A   1      31.617  25.449  23.132  1.00  0.00     0.047 A 
ATOM      8  C   UNL A   1      33.187  27.265  22.743  1.00  0.00     0.047 A 
ATOM      9  C   UNL A   1      32.649  24.678  23.657  1.00  0.00     0.013 A 
ATOM     10  C   UNL A   1      34.221  26.494  23.259  1.00  0.00     0.013 A 
ATOM     11  C   UNL A   1      33.947  25.204  23.718  1.00  0.00    -0.005 A 
BRANCH  11  12
ATOM     12  C   UNL A   1      35.029  24.464  24.389  1.00  0.00     0.141 C 
ATOM     13  N   UNL A   1      35.845  23.748  23.699  1.00  0.00    -0.180 NA
BRANCH  13  14
ATOM     14  N   UNL A   1      36.698  22.862  24.276  1.00  0.00    -0.240 N 
ATOM     15  C   UNL A   1      36.528  21.555  24.669  1.00  0.00     0.307 C 
ATOM     16  H   UNL A   1      37.600  23.220  24.443  1.00  0.00     0.194 HD
ATOM     17  O   UNL A   1      37.426  20.750  24.403  1.00  0.00    -0.264 OA
BRANCH  15  18
ATOM     18  C   UNL A   1      35.420  21.148  25.508  1.00  0.00     0.194 A 
ATOM     19  C   UNL A   1      34.959  21.712  26.690  1.00  0.00     0.065 A 
ATOM     20  O   UNL A   1      34.367  20.562  24.850  1.00  0.00    -0.451 OA
ATOM     21  C   UNL A   1      33.548  21.819  26.530  1.00  0.00     0.028 A 
ATOM     22  C   UNL A   1      33.238  21.091  25.388  1.00  0.00     0.135 A 
ATOM     23  C   UNL A   1      32.542  22.588  27.139  1.00  0.00     0.097 A 
ATOM     24  C   UNL A   1      31.979  21.044  24.794  1.00  0.00     0.055 A 
ATOM     25  C   UNL A   1      31.305  22.676  26.472  1.00  0.00     0.270 A 
ATOM     26  C   UNL A   1      31.017  21.906  25.332  1.00  0.00     0.089 A 
BRANCH  25  27
ATOM     27  N   UNL A   1      30.341  23.696  26.908  1.00  0.00     0.062 N 
ATOM     28  O   UNL A   1      29.395  23.329  27.619  1.00  0.00    -0.258 OA
ATOM     29  O   UNL A   1      30.546  24.869  26.561  1.00  0.00    -0.258 OA
ENDBRANCH  25  27
ENDBRANCH  15  18
ENDBRANCH  13  14
ENDBRANCH  11  12
ENDBRANCH   5   6
ENDBRANCH   4   5
ENDBRANCH   2   4
ENDBRANCH   1   2
BRANCH   1  30
ATOM     30  C   UNL A   1      31.750  28.736  25.690  1.00  0.00     0.274 C 
BRANCH  30  31
ATOM     31  C   UNL A   1      32.288  29.473  26.918  1.00  0.00     0.275 C 
BRANCH  31  32
ATOM     32  O   UNL A   1      33.727  29.499  26.893  1.00  0.00    -0.458 OA
BRANCH  32  33
ATOM     33  C   UNL A   1      34.319  30.587  27.464  1.00  0.00     0.338 C 
ATOM     34  O   UNL A   1      33.829  31.679  27.623  1.00  0.00    -0.246 OA
BRANCH  33  35
ATOM     35  C   UNL A   1      35.603  30.143  28.067  1.00  0.00     0.060 A 
ATOM     36  C   UNL A   1      36.769  30.222  27.292  1.00  0.00     0.016 A 
ATOM     37  C   UNL A   1      35.667  29.703  29.391  1.00  0.00     0.016 A 
ATOM     38  C   UNL A   1      38.000  29.838  27.836  1.00  0.00     0.010 A 
ATOM     39  C   UNL A   1      36.893  29.312  29.929  1.00  0.00     0.010 A 
ATOM     40  C   UNL A   1      38.062  29.353  29.149  1.00  0.00    -0.014 A 
BRANCH  40  41
ATOM     41  C   UNL A   1      39.295  28.723  29.680  1.00  0.00     0.031 A 
ATOM     42  C   UNL A   1      40.045  29.436  30.769  1.00  0.00     0.074 A 
ATOM     43  C   UNL A   1      39.800  27.601  29.139  1.00  0.00     0.049 A 
ATOM     44  N   UNL A   1      41.209  29.159  31.293  1.00  0.00    -0.248 NA
ATOM     45  C   UNL A   1      39.399  30.635  31.329  1.00  0.00     0.031 C 
ATOM     46  C   UNL A   1      39.183  26.827  28.065  1.00  0.00     0.029 A 
ATOM     47  N   UNL A   1      40.984  26.950  29.390  1.00  0.00    -0.354 N 
ATOM     48  C   UNL A   1      41.454  30.168  32.215  1.00  0.00     0.074 A 
ATOM     49  C   UNL A   1      40.321  31.065  32.176  1.00  0.00     0.031 C 
ATOM     50  C   UNL A   1      40.019  25.836  27.709  1.00  0.00     0.029 A 
ATOM     51  C   UNL A   1      41.240  25.923  28.512  1.00  0.00     0.049 A 
ATOM     52  H   UNL A   1      41.590  27.196  30.126  1.00  0.00     0.167 HD
ATOM     53  C   UNL A   1      42.523  30.331  33.030  1.00  0.00     0.034 A 
ATOM     54  C   UNL A   1      42.344  25.165  28.350  1.00  0.00     0.034 A 
ATOM     55  C   UNL A   1      43.645  29.436  33.081  1.00  0.00     0.049 A 
ATOM     56  C   UNL A   1      43.529  25.366  29.261  1.00  0.00     0.074 A 
ATOM     57  C   UNL A   1      44.738  29.478  33.927  1.00  0.00     0.029 A 
ATOM     58  N   UNL A   1      43.831  28.354  32.237  1.00  0.00    -0.354 N 
ATOM     59  N   UNL A   1      43.683  26.228  30.238  1.00  0.00    -0.248 NA
ATOM     60  C   UNL A   1      44.682  24.471  29.071  1.00  0.00     0.031 C 
ATOM     61  C   UNL A   1      45.603  28.436  33.573  1.00  0.00     0.029 A 
ATOM     62  C   UNL A   1      45.031  27.729  32.526  1.00  0.00     0.049 A 
ATOM     63  H   UNL A   1      43.202  28.070  31.534  1.00  0.00     0.167 HD
ATOM     64  C   UNL A   1      44.927  25.957  30.799  1.00  0.00     0.074 A 
ATOM     65  C   UNL A   1      45.485  24.844  30.061  1.00  0.00     0.031 C 
ATOM     66  C   UNL A   1      45.554  26.582  31.826  1.00  0.00     0.034 A 
BRANCH  53  67
ATOM     67  C   UNL A   1      42.515  31.524  33.945  1.00  0.00     0.023 A 
ATOM     68  C   UNL A   1      43.075  32.742  33.508  1.00  0.00     0.012 A 
ATOM     69  C   UNL A   1      41.935  31.447  35.224  1.00  0.00     0.148 A 
ATOM     70  C   UNL A   1      43.092  33.854  34.347  1.00  0.00     0.002 A 
ATOM     71  C   UNL A   1      41.917  32.574  36.038  1.00  0.00     0.091 A 
ATOM     72  F   UNL A   1      41.435  30.272  35.633  1.00  0.00    -0.205 F 
ATOM     73  C   UNL A   1      42.505  33.773  35.607  1.00  0.00     0.022 A 
BRANCH  71  74
ATOM     74  S   UNL A   1      41.118  32.578  37.646  1.00  0.00     0.127 S 
ATOM     75  O   UNL A   1      41.125  34.002  37.976  1.00  0.00    -0.237 OA
ATOM     76  O   UNL A   1      39.796  32.029  37.339  1.00  0.00    -0.237 OA
ATOM     77  O   UNL A   1      41.938  31.729  38.499  1.00  0.00    -0.744 OA
ENDBRANCH  71  74
ENDBRANCH  53  67
BRANCH  54  78
ATOM     78  C   UNL A   1      42.371  24.125  27.283  1.00  0.00     0.023 A 
ATOM     79  C   UNL A   1      43.039  24.387  26.071  1.00  0.00     0.012 A 
ATOM     80  C   UNL A   1      41.773  22.865  27.480  1.00  0.00     0.148 A 
ATOM     81  C   UNL A   1      43.090  23.420  25.066  1.00  0.00     0.002 A 
ATOM     82  C   UNL A   1      41.874  21.889  26.497  1.00  0.00     0.091 A 
ATOM     83  F   UNL A   1      41.130  22.643  28.636  1.00  0.00    -0.205 F 
ATOM     84  C   UNL A   1      42.519  22.169  25.283  1.00  0.00     0.022 A 
BRANCH  82  85
ATOM     85  S   UNL A   1      41.285  20.209  26.739  1.00  0.00     0.127 S 
ATOM     86  O   UNL A   1      42.441  19.422  26.317  1.00  0.00    -0.237 OA
ATOM     87  O   UNL A   1      41.017  20.190  28.178  1.00  0.00    -0.237 OA
ATOM     88  O   UNL A   1      40.098  20.082  25.905  1.00  0.00    -0.744 OA
ENDBRANCH  82  85
ENDBRANCH  54  78
BRANCH  66  89
ATOM     89  C   UNL A   1      46.902  26.069  32.264  1.00  0.00     0.023 A 
ATOM     90  C   UNL A   1      48.076  26.635  31.729  1.00  0.00     0.012 A 
ATOM     91  C   UNL A   1      47.003  25.116  33.298  1.00  0.00     0.148 A 
ATOM     92  C   UNL A   1      49.329  26.249  32.206  1.00  0.00     0.002 A 
ATOM     93  C   UNL A   1      48.253  24.770  33.800  1.00  0.00     0.091 A 
ATOM     94  F   UNL A   1      45.874  24.578  33.782  1.00  0.00    -0.205 F 
ATOM     95  C   UNL A   1      49.417  25.330  33.249  1.00  0.00     0.022 A 
BRANCH  93  96
ATOM     96  S   UNL A   1      48.459  23.673  35.208  1.00  0.00     0.127 S 
ATOM     97  O   UNL A   1      47.687  24.363  36.239  1.00  0.00    -0.237 OA
ATOM     98  O   UNL A   1      47.856  22.431  34.723  1.00  0.00    -0.237 OA
ATOM     99  O   UNL A   1      49.893  23.594  35.451  1.00  0.00    -0.744 OA
ENDBRANCH  93  96
ENDBRANCH  66  89
ENDBRANCH  40  41
ENDBRANCH  33  35
ENDBRANCH  32  33
ENDBRANCH  31  32
ENDBRANCH  30  31
ENDBRANCH   1  30
TORSDOF 20
ENDMDL
MODEL 3
REMARK VINA RESULT:     -11.6      2.063      2.675
REMARK SMILES O=C(COc1ccc(/C=N/NC(=O)c2cc3cc([N+](=O)[O-])ccc3o2)cc1)OCCOC(=O)c1ccc(-c2c3nc(c(-c4cccc(S(=O)(=O)[O-])c4F)c4ccc([nH]4)c(-c4cccc(S(=O)(=O)[O-])c4F)c4nc(c(-c5cccc(S(=O)(=O)[O-])c5F)c5ccc2[nH]5)C=C4)C=C3)cc1
REMARK SMILES IDX 28 1 2 2 1 3 3 4 4 5 5 6 6 7 27 8 7 9 26 10 8 11 9 12 10 13
REMARK SMILES IDX 11 14 12 15 13 17 14 18 15 19 25 20 16 21 24 22 17 23 23 24
REMARK SMILES IDX 18 25 22 26 19 27 20 28 21 29 29 30 30 31 31 32 32 33 33 34
REMARK SMILES IDX 34 35 35 36 96 37 36 38 95 39 37 40 38 41 39 42 89 43 40 44
REMARK SMILES IDX 94 45 88 46 90 47 41 48 93 49 87 50 86 51 42 53 74 54 54 55
REMARK SMILES IDX 73 56 55 57 58 58 72 59 91 60 56 61 57 62 71 64 92 65 59 66
REMARK SMILES IDX 43 67 44 68 52 69 45 70 47 71 53 72 46 73 48 74 49 75 50 76
REMARK SMILES IDX 51 77 75 78 76 79 84 80 77 81 79 82 85 83 78 84 80 85 81 86
REMARK SMILES IDX 82 87 83 88 60 89 61 90 69 91 62 92 64 93 70 94 63 95 65 96
REMARK SMILES IDX 66 97 67 98 68 99
REMARK H PARENT 11 16 90 52 58 63
REMARK Flexibility Score: inf
ROOT
ATOM      1  O   UNL A   1      34.249  19.919  24.503  1.00  0.00    -0.460 OA
ENDROOT
BRANCH   1   2
ATOM      2  C   UNL A   1      33.158  20.069  25.294  1.00  0.00     0.344 C 
ATOM      3  O   UNL A   1      33.042  19.401  26.321  1.00  0.00    -0.248 OA
BRANCH   2   4
ATOM      4  C   UNL A   1      32.133  21.131  24.917  1.00  0.00     0.351 C 
BRANCH   4   5
ATOM      5  O   UNL A   1      32.343  21.660  23.610  1.00  0.00    -0.482 OA
BRANCH   5   6
ATOM      6  C   UNL A   1      32.725  22.967  23.716  1.00  0.00     0.120 A 
ATOM      7  C   UNL A   1      32.375  23.667  24.865  1.00  0.00     0.047 A 
ATOM      8  C   UNL A   1      33.448  23.569  22.685  1.00  0.00     0.047 A 
ATOM      9  C   UNL A   1      32.789  24.988  25.003  1.00  0.00     0.013 A 
ATOM     10  C   UNL A   1      33.870  24.886  22.824  1.00  0.00     0.013 A 
ATOM     11  C   UNL A   1      33.535  25.591  23.982  1.00  0.00    -0.005 A 
BRANCH  11  12
ATOM     12  C   UNL A   1      33.872  27.023  24.041  1.00  0.00     0.141 C 
ATOM     13  N   UNL A   1      33.688  27.685  25.129  1.00  0.00    -0.180 NA
BRANCH  13  14
ATOM     14  N   UNL A   1      33.749  29.042  25.171  1.00  0.00    -0.240 N 
ATOM     15  C   UNL A   1      32.899  29.977  25.714  1.00  0.00     0.307 C 
ATOM     16  H   UNL A   1      34.544  29.425  24.733  1.00  0.00     0.194 HD
ATOM     17  O   UNL A   1      33.398  30.912  26.347  1.00  0.00    -0.264 OA
BRANCH  15  18
ATOM     18  C   UNL A   1      31.479  29.975  25.430  1.00  0.00     0.194 A 
ATOM     19  C   UNL A   1      30.577  31.030  25.451  1.00  0.00     0.065 A 
ATOM     20  O   UNL A   1      31.065  29.051  24.502  1.00  0.00    -0.451 OA
ATOM     21  C   UNL A   1      29.846  30.924  24.235  1.00  0.00     0.028 A 
ATOM     22  C   UNL A   1      30.179  29.689  23.696  1.00  0.00     0.135 A 
ATOM     23  C   UNL A   1      29.073  31.814  23.468  1.00  0.00     0.097 A 
ATOM     24  C   UNL A   1      29.787  29.239  22.437  1.00  0.00     0.055 A 
ATOM     25  C   UNL A   1      28.795  31.444  22.138  1.00  0.00     0.270 A 
ATOM     26  C   UNL A   1      29.126  30.175  21.633  1.00  0.00     0.089 A 
BRANCH  25  27
ATOM     27  N   UNL A   1      28.260  32.461  21.222  1.00  0.00     0.062 N 
ATOM     28  O   UNL A   1      28.271  32.207  20.009  1.00  0.00    -0.258 OA
ATOM     29  O   UNL A   1      27.805  33.502  21.717  1.00  0.00    -0.258 OA
ENDBRANCH  25  27
ENDBRANCH  15  18
ENDBRANCH  13  14
ENDBRANCH  11  12
ENDBRANCH   5   6
ENDBRANCH   4   5
ENDBRANCH   2   4
ENDBRANCH   1   2
BRANCH   1  30
ATOM     30  C   UNL A   1      35.603  19.991  24.995  1.00  0.00     0.274 C 
BRANCH  30  31
ATOM     31  C   UNL A   1      35.906  21.383  25.553  1.00  0.00     0.275 C 
BRANCH  31  32
ATOM     32  O   UNL A   1      37.186  21.842  25.080  1.00  0.00    -0.458 OA
BRANCH  32  33
ATOM     33  C   UNL A   1      38.280  21.323  25.706  1.00  0.00     0.338 C 
ATOM     34  O   UNL A   1      38.700  20.195  25.616  1.00  0.00    -0.246 OA
BRANCH  33  35
ATOM     35  C   UNL A   1      39.011  22.445  26.350  1.00  0.00     0.060 A 
ATOM     36  C   UNL A   1      38.531  23.751  26.165  1.00  0.00     0.016 A 
ATOM     37  C   UNL A   1      40.121  22.213  27.165  1.00  0.00     0.016 A 
ATOM     38  C   UNL A   1      39.178  24.829  26.779  1.00  0.00     0.010 A 
ATOM     39  C   UNL A   1      40.771  23.291  27.768  1.00  0.00     0.010 A 
ATOM     40  C   UNL A   1      40.320  24.606  27.559  1.00  0.00    -0.014 A 
BRANCH  40  41
ATOM     41  C   UNL A   1      41.162  25.731  28.031  1.00  0.00     0.031 A 
ATOM     42  C   UNL A   1      40.507  26.826  28.824  1.00  0.00     0.074 A 
ATOM     43  C   UNL A   1      42.455  25.839  27.676  1.00  0.00     0.049 A 
ATOM     44  N   UNL A   1      40.998  27.969  29.223  1.00  0.00    -0.248 NA
ATOM     45  C   UNL A   1      39.101  26.607  29.202  1.00  0.00     0.031 C 
ATOM     46  C   UNL A   1      43.201  24.859  26.891  1.00  0.00     0.029 A 
ATOM     47  N   UNL A   1      43.351  26.859  27.888  1.00  0.00    -0.354 N 
ATOM     48  C   UNL A   1      39.954  28.622  29.864  1.00  0.00     0.074 A 
ATOM     49  C   UNL A   1      38.802  27.751  29.796  1.00  0.00     0.031 C 
ATOM     50  C   UNL A   1      44.428  25.349  26.639  1.00  0.00     0.029 A 
ATOM     51  C   UNL A   1      44.543  26.686  27.223  1.00  0.00     0.049 A 
ATOM     52  H   UNL A   1      43.159  27.636  28.460  1.00  0.00     0.167 HD
ATOM     53  C   UNL A   1      39.952  29.836  30.464  1.00  0.00     0.034 A 
ATOM     54  C   UNL A   1      45.589  27.525  27.071  1.00  0.00     0.034 A 
ATOM     55  C   UNL A   1      41.097  30.699  30.544  1.00  0.00     0.049 A 
ATOM     56  C   UNL A   1      45.567  28.876  27.739  1.00  0.00     0.074 A 
ATOM     57  C   UNL A   1      41.212  31.913  31.197  1.00  0.00     0.029 A 
ATOM     58  N   UNL A   1      42.316  30.453  29.933  1.00  0.00    -0.354 N 
ATOM     59  N   UNL A   1      44.627  29.418  28.477  1.00  0.00    -0.248 NA
ATOM     60  C   UNL A   1      46.761  29.723  27.581  1.00  0.00     0.031 C 
ATOM     61  C   UNL A   1      42.495  32.418  30.953  1.00  0.00     0.029 A 
ATOM     62  C   UNL A   1      43.185  31.502  30.175  1.00  0.00     0.049 A 
ATOM     63  H   UNL A   1      42.532  29.651  29.404  1.00  0.00     0.167 HD
ATOM     64  C   UNL A   1      45.128  30.646  28.899  1.00  0.00     0.074 A 
ATOM     65  C   UNL A   1      46.459  30.767  28.344  1.00  0.00     0.031 C 
ATOM     66  C   UNL A   1      44.532  31.590  29.669  1.00  0.00     0.034 A 
BRANCH  53  67
ATOM     67  C   UNL A   1      38.666  30.290  31.094  1.00  0.00     0.023 A 
ATOM     68  C   UNL A   1      38.390  29.957  32.436  1.00  0.00     0.012 A 
ATOM     69  C   UNL A   1      37.743  31.067  30.369  1.00  0.00     0.148 A 
ATOM     70  C   UNL A   1      37.196  30.355  33.033  1.00  0.00     0.002 A 
ATOM     71  C   UNL A   1      36.574  31.497  30.986  1.00  0.00     0.091 A 
ATOM     72  F   UNL A   1      38.009  31.348  29.085  1.00  0.00    -0.205 F 
ATOM     73  C   UNL A   1      36.293  31.132  32.313  1.00  0.00     0.022 A 
BRANCH  71  74
ATOM     74  S   UNL A   1      35.391  32.562  30.154  1.00  0.00     0.127 S 
ATOM     75  O   UNL A   1      34.931  31.700  29.067  1.00  0.00    -0.237 OA
ATOM     76  O   UNL A   1      34.398  32.803  31.202  1.00  0.00    -0.237 OA
ATOM     77  O   UNL A   1      36.138  33.744  29.750  1.00  0.00    -0.744 OA
ENDBRANCH  71  74
ENDBRANCH  53  67
BRANCH  54  78
ATOM     78  C   UNL A   1      46.761  27.095  26.257  1.00  0.00     0.023 A 
ATOM     79  C   UNL A   1      46.758  27.305  24.865  1.00  0.00     0.012 A 
ATOM     80  C   UNL A   1      47.894  26.518  26.864  1.00  0.00     0.148 A 
ATOM     81  C   UNL A   1      47.854  26.925  24.088  1.00  0.00     0.002 A 
ATOM     82  C   UNL A   1      49.002  26.192  26.092  1.00  0.00     0.091 A 
ATOM     83  F   UNL A   1      47.868  26.315  28.189  1.00  0.00    -0.205 F 
ATOM     84  C   UNL A   1      48.979  26.380  24.702  1.00  0.00     0.022 A 
BRANCH  82  85
ATOM     85  S   UNL A   1      50.542  25.609  26.810  1.00  0.00     0.127 S 
ATOM     86  O   UNL A   1      50.101  24.428  27.547  1.00  0.00    -0.237 OA
ATOM     87  O   UNL A   1      51.342  25.329  25.617  1.00  0.00    -0.237 OA
ATOM     88  O   UNL A   1      51.041  26.709  27.624  1.00  0.00    -0.744 OA
ENDBRANCH  82  85
ENDBRANCH  54  78
BRANCH  66  89
ATOM     89  C   UNL A   1      45.312  32.835  30.008  1.00  0.00     0.023 A 
ATOM     90  C   UNL A   1      46.163  32.846  31.130  1.00  0.00     0.012 A 
ATOM     91  C   UNL A   1      45.297  33.947  29.141  1.00  0.00     0.148 A 
ATOM     92  C   UNL A   1      46.976  33.950  31.392  1.00  0.00     0.002 A 
ATOM     93  C   UNL A   1      46.142  35.023  29.383  1.00  0.00     0.091 A 
ATOM     94  F   UNL A   1      44.467  33.922  28.088  1.00  0.00    -0.205 F 
ATOM     95  C   UNL A   1      46.976  35.030  30.513  1.00  0.00     0.022 A 
BRANCH  93  96
ATOM     96  S   UNL A   1      46.285  36.413  28.253  1.00  0.00     0.127 S 
ATOM     97  O   UNL A   1      47.273  37.249  28.931  1.00  0.00    -0.237 OA
ATOM     98  O   UNL A   1      46.769  35.769  27.030  1.00  0.00    -0.237 OA
ATOM     99  O   UNL A   1      44.950  36.986  28.146  1.00  0.00    -0.744 OA
ENDBRANCH  93  96
ENDBRANCH  66  89
ENDBRANCH  40  41
ENDBRANCH  33  35
ENDBRANCH  32  33
ENDBRANCH  31  32
ENDBRANCH  30  31
ENDBRANCH   1  30
TORSDOF 20
ENDMDL
