MODEL 1
REMARK VINA RESULT:     -12.6      0.000      0.000
REMARK SMILES O=C(OCCOC(=O)c1cc(N2C(=O)C[C@H](Nc3ccccc3O)C2=O)ccc1O)c1ccc(-c2c3nc(c(-c4cccc(S(=O)(=O)[O-])c4F)c4ccc([nH]4)c(-c4cccc(S(=O)(=O)[O-])c4F)c4nc(c(-c5cccc(S(=O)(=O)[O-])c5F)c5ccc2[nH]5)C=C4)C=C3)cc1
REMARK SMILES IDX 5 1 4 2 3 3 2 4 1 5 31 6 32 7 93 8 33 9 92 10 34 11 35 12
REMARK SMILES IDX 36 13 86 14 37 15 91 16 85 17 87 18 38 19 90 20 84 21 83 22
REMARK SMILES IDX 39 24 71 25 51 26 70 27 52 28 55 29 69 30 88 31 53 32 54 33
REMARK SMILES IDX 68 35 89 36 56 37 40 38 41 39 49 40 42 41 44 42 50 43 43 44
REMARK SMILES IDX 45 45 46 46 47 47 48 48 72 49 73 50 81 51 74 52 76 53 82 54
REMARK SMILES IDX 75 55 77 56 78 57 79 58 80 59 57 60 58 61 66 62 59 63 61 64
REMARK SMILES IDX 67 65 60 66 62 67 63 68 64 69 65 70 6 71 7 72 8 73 9 74
REMARK SMILES IDX 10 75 29 76 11 77 28 78 27 79 30 80 12 82 13 83 25 84 14 85
REMARK SMILES IDX 15 86 16 87 26 88 17 89 18 91 19 92 23 93 20 94 22 95 21 96
REMARK SMILES IDX 24 97
REMARK H PARENT 87 23 55 34 30 81 17 90 24 98
REMARK Flexibility Score: inf
ROOT
ATOM      1  C   UNL A   1      32.225  31.224  26.855  1.00  0.00     0.275 C 
ENDROOT
BRANCH   1   2
ATOM      2  C   UNL A   1      31.960  32.730  26.936  1.00  0.00     0.275 C 
BRANCH   2   3
ATOM      3  O   UNL A   1      32.721  33.428  27.932  1.00  0.00    -0.458 OA
BRANCH   3   4
ATOM      4  C   UNL A   1      34.030  33.773  27.940  1.00  0.00     0.338 C 
ATOM      5  O   UNL A   1      34.366  34.767  27.293  1.00  0.00    -0.246 OA
BRANCH   4   6
ATOM      6  C   UNL A   1      35.110  32.967  28.600  1.00  0.00     0.060 A 
ATOM      7  C   UNL A   1      34.957  31.798  29.350  1.00  0.00     0.016 A 
ATOM      8  C   UNL A   1      36.416  33.440  28.411  1.00  0.00     0.016 A 
ATOM      9  C   UNL A   1      36.064  31.080  29.819  1.00  0.00     0.010 A 
ATOM     10  C   UNL A   1      37.526  32.714  28.851  1.00  0.00     0.010 A 
ATOM     11  C   UNL A   1      37.356  31.530  29.566  1.00  0.00    -0.014 A 
BRANCH  11  12
ATOM     12  C   UNL A   1      38.523  30.854  30.171  1.00  0.00     0.031 A 
ATOM     13  C   UNL A   1      38.968  31.299  31.532  1.00  0.00     0.074 A 
ATOM     14  C   UNL A   1      39.165  29.866  29.520  1.00  0.00     0.049 A 
ATOM     15  N   UNL A   1      39.918  30.813  32.283  1.00  0.00    -0.248 NA
ATOM     16  C   UNL A   1      38.233  32.423  32.139  1.00  0.00     0.031 C 
ATOM     17  C   UNL A   1      38.790  29.338  28.210  1.00  0.00     0.029 A 
ATOM     18  N   UNL A   1      40.283  29.148  29.856  1.00  0.00    -0.354 N 
ATOM     19  C   UNL A   1      39.882  31.556  33.454  1.00  0.00     0.074 A 
ATOM     20  C   UNL A   1      38.863  32.566  33.294  1.00  0.00     0.031 C 
ATOM     21  C   UNL A   1      39.703  28.432  27.819  1.00  0.00     0.029 A 
ATOM     22  C   UNL A   1      40.713  28.299  28.862  1.00  0.00     0.049 A 
ATOM     23  H   UNL A   1      40.736  29.230  30.727  1.00  0.00     0.167 HD
ATOM     24  C   UNL A   1      40.603  31.379  34.583  1.00  0.00     0.034 A 
ATOM     25  C   UNL A   1      41.799  27.504  28.807  1.00  0.00     0.034 A 
ATOM     26  C   UNL A   1      41.624  30.382  34.718  1.00  0.00     0.049 A 
ATOM     27  C   UNL A   1      42.651  27.389  30.043  1.00  0.00     0.074 A 
ATOM     28  C   UNL A   1      42.403  30.087  35.819  1.00  0.00     0.029 A 
ATOM     29  N   UNL A   1      42.028  29.533  33.697  1.00  0.00    -0.354 N 
ATOM     30  N   UNL A   1      42.507  27.993  31.198  1.00  0.00    -0.248 NA
ATOM     31  C   UNL A   1      43.768  26.436  29.997  1.00  0.00     0.031 C 
ATOM     32  C   UNL A   1      43.308  29.086  35.450  1.00  0.00     0.029 A 
ATOM     33  C   UNL A   1      43.062  28.727  34.133  1.00  0.00     0.049 A 
ATOM     34  H   UNL A   1      41.634  29.508  32.795  1.00  0.00     0.167 HD
ATOM     35  C   UNL A   1      43.470  27.448  32.037  1.00  0.00     0.074 A 
ATOM     36  C   UNL A   1      44.194  26.467  31.252  1.00  0.00     0.031 C 
ATOM     37  C   UNL A   1      43.731  27.728  33.337  1.00  0.00     0.034 A 
BRANCH  24  38
ATOM     38  C   UNL A   1      40.282  32.278  35.744  1.00  0.00     0.023 A 
ATOM     39  C   UNL A   1      41.087  33.414  35.990  1.00  0.00     0.012 A 
ATOM     40  C   UNL A   1      39.205  31.995  36.602  1.00  0.00     0.148 A 
ATOM     41  C   UNL A   1      40.850  34.225  37.098  1.00  0.00     0.002 A 
ATOM     42  C   UNL A   1      38.947  32.834  37.679  1.00  0.00     0.091 A 
ATOM     43  F   UNL A   1      38.472  30.899  36.364  1.00  0.00    -0.205 F 
ATOM     44  C   UNL A   1      39.777  33.939  37.938  1.00  0.00     0.022 A 
BRANCH  42  45
ATOM     45  S   UNL A   1      37.557  32.589  38.786  1.00  0.00     0.127 S 
ATOM     46  O   UNL A   1      37.824  33.586  39.822  1.00  0.00    -0.237 OA
ATOM     47  O   UNL A   1      36.420  32.901  37.919  1.00  0.00    -0.237 OA
ATOM     48  O   UNL A   1      37.629  31.203  39.225  1.00  0.00    -0.744 OA
ENDBRANCH  42  45
ENDBRANCH  24  38
BRANCH  25  49
ATOM     49  C   UNL A   1      42.097  26.710  27.581  1.00  0.00     0.023 A 
ATOM     50  C   UNL A   1      42.667  27.337  26.457  1.00  0.00     0.012 A 
ATOM     51  C   UNL A   1      41.819  25.329  27.526  1.00  0.00     0.148 A 
ATOM     52  C   UNL A   1      42.917  26.616  25.287  1.00  0.00     0.002 A 
ATOM     53  C   UNL A   1      42.109  24.608  26.374  1.00  0.00     0.091 A 
ATOM     54  F   UNL A   1      41.282  24.748  28.608  1.00  0.00    -0.205 F 
ATOM     55  C   UNL A   1      42.642  25.251  25.247  1.00  0.00     0.022 A 
BRANCH  53  56
ATOM     56  S   UNL A   1      41.892  22.828  26.268  1.00  0.00     0.127 S 
ATOM     57  O   UNL A   1      42.558  22.519  25.007  1.00  0.00    -0.237 OA
ATOM     58  O   UNL A   1      42.594  22.371  27.468  1.00  0.00    -0.237 OA
ATOM     59  O   UNL A   1      40.451  22.610  26.297  1.00  0.00    -0.744 OA
ENDBRANCH  53  56
ENDBRANCH  25  49
BRANCH  37  60
ATOM     60  C   UNL A   1      44.811  26.930  34.014  1.00  0.00     0.023 A 
ATOM     61  C   UNL A   1      46.141  27.391  34.005  1.00  0.00     0.012 A 
ATOM     62  C   UNL A   1      44.481  25.765  34.735  1.00  0.00     0.148 A 
ATOM     63  C   UNL A   1      47.135  26.687  34.682  1.00  0.00     0.002 A 
ATOM     64  C   UNL A   1      45.466  25.103  35.454  1.00  0.00     0.091 A 
ATOM     65  F   UNL A   1      43.211  25.335  34.711  1.00  0.00    -0.205 F 
ATOM     66  C   UNL A   1      46.795  25.553  35.418  1.00  0.00     0.022 A 
BRANCH  64  67
ATOM     67  S   UNL A   1      45.098  23.705  36.518  1.00  0.00     0.127 S 
ATOM     68  O   UNL A   1      46.436  23.275  36.918  1.00  0.00    -0.237 OA
ATOM     69  O   UNL A   1      44.311  24.326  37.584  1.00  0.00    -0.237 OA
ATOM     70  O   UNL A   1      44.358  22.755  35.696  1.00  0.00    -0.744 OA
ENDBRANCH  64  67
ENDBRANCH  37  60
ENDBRANCH  11  12
ENDBRANCH   4   6
ENDBRANCH   3   4
ENDBRANCH   2   3
ENDBRANCH   1   2
BRANCH   1  71
ATOM     71  O   UNL A   1      31.555  30.569  25.767  1.00  0.00    -0.458 OA
BRANCH  71  72
ATOM     72  C   UNL A   1      32.239  29.558  25.170  1.00  0.00     0.342 C 
ATOM     73  O   UNL A   1      33.454  29.415  25.169  1.00  0.00    -0.246 OA
BRANCH  72  74
ATOM     74  C   UNL A   1      31.314  28.541  24.623  1.00  0.00     0.103 A 
ATOM     75  C   UNL A   1      31.565  27.186  24.921  1.00  0.00     0.046 A 
ATOM     76  C   UNL A   1      30.254  28.879  23.779  1.00  0.00     0.130 A 
ATOM     77  C   UNL A   1      30.753  26.180  24.379  1.00  0.00     0.053 A 
ATOM     78  C   UNL A   1      29.443  27.877  23.241  1.00  0.00     0.049 A 
ATOM     79  C   UNL A   1      29.697  26.535  23.535  1.00  0.00     0.031 A 
BRANCH  76  80
ATOM     80  O   UNL A   1      30.011  30.185  23.449  1.00  0.00    -0.507 OA
ATOM     81  H   UNL A   1      30.479  30.583  22.742  1.00  0.00     0.293 HD
ENDBRANCH  76  80
BRANCH  77  82
ATOM     82  N   UNL A   1      31.041  24.818  24.614  1.00  0.00    -0.249 N 
ATOM     83  C   UNL A   1      30.730  24.184  25.786  1.00  0.00     0.236 C 
ATOM     84  C   UNL A   1      31.857  24.047  23.823  1.00  0.00     0.256 C 
ATOM     85  O   UNL A   1      30.097  24.629  26.734  1.00  0.00    -0.274 OA
ATOM     86  C   UNL A   1      31.294  22.796  25.767  1.00  0.00     0.136 C 
ATOM     87  C   UNL A   1      31.824  22.622  24.354  1.00  0.00     0.179 C 
ATOM     88  O   UNL A   1      32.569  24.422  22.903  1.00  0.00    -0.272 OA
BRANCH  87  89
ATOM     89  N   UNL A   1      33.153  21.999  24.402  1.00  0.00    -0.370 N 
ATOM     90  H   UNL A   1      33.949  22.527  24.645  1.00  0.00     0.161 HD
BRANCH  89  91
ATOM     91  C   UNL A   1      33.262  20.638  24.093  1.00  0.00     0.077 A 
ATOM     92  C   UNL A   1      32.317  20.069  23.234  1.00  0.00     0.029 A 
ATOM     93  C   UNL A   1      34.154  19.776  24.749  1.00  0.00     0.138 A 
ATOM     94  C   UNL A   1      32.299  18.691  22.995  1.00  0.00     0.002 A 
ATOM     95  C   UNL A   1      34.134  18.397  24.531  1.00  0.00     0.048 A 
ATOM     96  C   UNL A   1      33.207  17.855  23.643  1.00  0.00     0.004 A 
BRANCH  93  97
ATOM     97  O   UNL A   1      35.054  20.296  25.638  1.00  0.00    -0.506 OA
ATOM     98  H   UNL A   1      35.969  20.283  25.440  1.00  0.00     0.293 HD
ENDBRANCH  93  97
ENDBRANCH  89  91
ENDBRANCH  87  89
ENDBRANCH  77  82
ENDBRANCH  72  74
ENDBRANCH  71  72
ENDBRANCH   1  71
TORSDOF 19
ENDMDL
MODEL 2
REMARK VINA RESULT:     -12.1      1.792      7.718
REMARK SMILES O=C(OCCOC(=O)c1cc(N2C(=O)C[C@H](Nc3ccccc3O)C2=O)ccc1O)c1ccc(-c2c3nc(c(-c4cccc(S(=O)(=O)[O-])c4F)c4ccc([nH]4)c(-c4cccc(S(=O)(=O)[O-])c4F)c4nc(c(-c5cccc(S(=O)(=O)[O-])c5F)c5ccc2[nH]5)C=C4)C=C3)cc1
REMARK SMILES IDX 5 1 4 2 3 3 2 4 1 5 31 6 32 7 93 8 33 9 92 10 34 11 35 12
REMARK SMILES IDX 36 13 86 14 37 15 91 16 85 17 87 18 38 19 90 20 84 21 83 22
REMARK SMILES IDX 39 24 71 25 51 26 70 27 52 28 55 29 69 30 88 31 53 32 54 33
REMARK SMILES IDX 68 35 89 36 56 37 40 38 41 39 49 40 42 41 44 42 50 43 43 44
REMARK SMILES IDX 45 45 46 46 47 47 48 48 72 49 73 50 81 51 74 52 76 53 82 54
REMARK SMILES IDX 75 55 77 56 78 57 79 58 80 59 57 60 58 61 66 62 59 63 61 64
REMARK SMILES IDX 67 65 60 66 62 67 63 68 64 69 65 70 6 71 7 72 8 73 9 74
REMARK SMILES IDX 10 75 29 76 11 77 28 78 27 79 30 80 12 82 13 83 25 84 14 85
REMARK SMILES IDX 15 86 16 87 26 88 17 89 18 91 19 92 23 93 20 94 22 95 21 96
REMARK SMILES IDX 24 97
REMARK H PARENT 87 23 55 34 30 81 17 90 24 98
REMARK Flexibility Score: inf
ROOT
ATOM      1  C   UNL A   1      32.392  31.489  26.918  1.00  0.00     0.275 C 
ENDROOT
BRANCH   1   2
ATOM      2  C   UNL A   1      31.759  32.868  27.119  1.00  0.00     0.275 C 
BRANCH   2   3
ATOM      3  O   UNL A   1      32.690  33.941  27.322  1.00  0.00    -0.458 OA
BRANCH   3   4
ATOM      4  C   UNL A   1      33.192  34.448  28.472  1.00  0.00     0.338 C 
ATOM      5  O   UNL A   1      32.818  35.570  28.817  1.00  0.00    -0.246 OA
BRANCH   4   6
ATOM      6  C   UNL A   1      34.248  33.774  29.300  1.00  0.00     0.060 A 
ATOM      7  C   UNL A   1      34.064  32.776  30.259  1.00  0.00     0.016 A 
ATOM      8  C   UNL A   1      35.563  34.188  29.051  1.00  0.00     0.016 A 
ATOM      9  C   UNL A   1      35.152  32.151  30.882  1.00  0.00     0.010 A 
ATOM     10  C   UNL A   1      36.655  33.551  29.646  1.00  0.00     0.010 A 
ATOM     11  C   UNL A   1      36.455  32.530  30.574  1.00  0.00    -0.014 A 
BRANCH  11  12
ATOM     12  C   UNL A   1      37.600  31.973  31.324  1.00  0.00     0.031 A 
ATOM     13  C   UNL A   1      38.335  30.810  30.728  1.00  0.00     0.074 A 
ATOM     14  C   UNL A   1      37.972  32.495  32.508  1.00  0.00     0.049 A 
ATOM     15  N   UNL A   1      39.402  30.202  31.169  1.00  0.00    -0.248 NA
ATOM     16  C   UNL A   1      37.819  30.276  29.455  1.00  0.00     0.031 C 
ATOM     17  C   UNL A   1      37.344  33.645  33.155  1.00  0.00     0.029 A 
ATOM     18  N   UNL A   1      38.948  32.113  33.390  1.00  0.00    -0.354 N 
ATOM     19  C   UNL A   1      39.694  29.231  30.222  1.00  0.00     0.074 A 
ATOM     20  C   UNL A   1      38.661  29.284  29.215  1.00  0.00     0.031 C 
ATOM     21  C   UNL A   1      37.901  33.832  34.365  1.00  0.00     0.029 A 
ATOM     22  C   UNL A   1      38.939  32.829  34.566  1.00  0.00     0.049 A 
ATOM     23  H   UNL A   1      39.596  31.396  33.202  1.00  0.00     0.167 HD
ATOM     24  C   UNL A   1      40.758  28.400  30.172  1.00  0.00     0.034 A 
ATOM     25  C   UNL A   1      39.692  32.689  35.674  1.00  0.00     0.034 A 
ATOM     26  C   UNL A   1      41.765  28.347  31.191  1.00  0.00     0.049 A 
ATOM     27  C   UNL A   1      40.816  31.689  35.641  1.00  0.00     0.074 A 
ATOM     28  C   UNL A   1      42.903  27.567  31.241  1.00  0.00     0.029 A 
ATOM     29  N   UNL A   1      41.732  29.091  32.363  1.00  0.00    -0.354 N 
ATOM     30  N   UNL A   1      41.169  30.882  34.669  1.00  0.00    -0.248 NA
ATOM     31  C   UNL A   1      41.690  31.627  36.821  1.00  0.00     0.031 C 
ATOM     32  C   UNL A   1      43.539  27.811  32.463  1.00  0.00     0.029 A 
ATOM     33  C   UNL A   1      42.819  28.774  33.155  1.00  0.00     0.049 A 
ATOM     34  H   UNL A   1      41.037  29.749  32.594  1.00  0.00     0.167 HD
ATOM     35  C   UNL A   1      42.339  30.264  35.090  1.00  0.00     0.074 A 
ATOM     36  C   UNL A   1      42.632  30.791  36.409  1.00  0.00     0.031 C 
ATOM     37  C   UNL A   1      43.105  29.350  34.445  1.00  0.00     0.034 A 
BRANCH  24  38
ATOM     38  C   UNL A   1      40.872  27.509  28.966  1.00  0.00     0.023 A 
ATOM     39  C   UNL A   1      40.095  26.332  28.893  1.00  0.00     0.012 A 
ATOM     40  C   UNL A   1      41.756  27.822  27.919  1.00  0.00     0.148 A 
ATOM     41  C   UNL A   1      40.231  25.457  27.816  1.00  0.00     0.002 A 
ATOM     42  C   UNL A   1      41.853  26.968  26.827  1.00  0.00     0.091 A 
ATOM     43  F   UNL A   1      42.501  28.930  28.022  1.00  0.00    -0.205 F 
ATOM     44  C   UNL A   1      41.105  25.778  26.782  1.00  0.00     0.022 A 
BRANCH  42  45
ATOM     45  S   UNL A   1      42.904  27.317  25.416  1.00  0.00     0.127 S 
ATOM     46  O   UNL A   1      42.864  26.045  24.694  1.00  0.00    -0.237 OA
ATOM     47  O   UNL A   1      42.182  28.410  24.763  1.00  0.00    -0.237 OA
ATOM     48  O   UNL A   1      44.204  27.682  25.959  1.00  0.00    -0.744 OA
ENDBRANCH  42  45
ENDBRANCH  24  38
BRANCH  25  49
ATOM     49  C   UNL A   1      39.456  33.552  36.866  1.00  0.00     0.023 A 
ATOM     50  C   UNL A   1      39.930  34.878  36.880  1.00  0.00     0.012 A 
ATOM     51  C   UNL A   1      38.760  33.064  37.990  1.00  0.00     0.148 A 
ATOM     52  C   UNL A   1      39.752  35.688  38.005  1.00  0.00     0.002 A 
ATOM     53  C   UNL A   1      38.548  33.888  39.089  1.00  0.00     0.091 A 
ATOM     54  F   UNL A   1      38.311  31.801  37.957  1.00  0.00    -0.205 F 
ATOM     55  C   UNL A   1      39.059  35.195  39.107  1.00  0.00     0.022 A 
BRANCH  53  56
ATOM     56  S   UNL A   1      37.571  33.376  40.507  1.00  0.00     0.127 S 
ATOM     57  O   UNL A   1      37.616  34.569  41.348  1.00  0.00    -0.237 OA
ATOM     58  O   UNL A   1      36.274  33.100  39.891  1.00  0.00    -0.237 OA
ATOM     59  O   UNL A   1      38.246  32.198  41.038  1.00  0.00    -0.744 OA
ENDBRANCH  53  56
ENDBRANCH  25  49
BRANCH  37  60
ATOM     60  C   UNL A   1      44.363  28.895  35.130  1.00  0.00     0.023 A 
ATOM     61  C   UNL A   1      45.585  29.541  34.866  1.00  0.00     0.012 A 
ATOM     62  C   UNL A   1      44.308  27.879  36.106  1.00  0.00     0.148 A 
ATOM     63  C   UNL A   1      46.743  29.164  35.543  1.00  0.00     0.002 A 
ATOM     64  C   UNL A   1      45.453  27.550  36.817  1.00  0.00     0.091 A 
ATOM     65  F   UNL A   1      43.137  27.264  36.325  1.00  0.00    -0.205 F 
ATOM     66  C   UNL A   1      46.674  28.180  36.528  1.00  0.00     0.022 A 
BRANCH  64  67
ATOM     67  S   UNL A   1      45.432  26.378  38.177  1.00  0.00     0.127 S 
ATOM     68  O   UNL A   1      44.468  26.995  39.087  1.00  0.00    -0.237 OA
ATOM     69  O   UNL A   1      44.960  25.156  37.524  1.00  0.00    -0.237 OA
ATOM     70  O   UNL A   1      46.801  26.309  38.672  1.00  0.00    -0.744 OA
ENDBRANCH  64  67
ENDBRANCH  37  60
ENDBRANCH  11  12
ENDBRANCH   4   6
ENDBRANCH   3   4
ENDBRANCH   2   3
ENDBRANCH   1   2
BRANCH   1  71
ATOM     71  O   UNL A   1      31.580  30.576  26.164  1.00  0.00    -0.458 OA
BRANCH  71  72
ATOM     72  C   UNL A   1      32.251  29.687  25.386  1.00  0.00     0.342 C 
ATOM     73  O   UNL A   1      33.467  29.593  25.287  1.00  0.00    -0.246 OA
BRANCH  72  74
ATOM     74  C   UNL A   1      31.321  28.722  24.758  1.00  0.00     0.103 A 
ATOM     75  C   UNL A   1      31.442  27.361  25.105  1.00  0.00     0.046 A 
ATOM     76  C   UNL A   1      30.385  29.110  23.797  1.00  0.00     0.130 A 
ATOM     77  C   UNL A   1      30.625  26.399  24.495  1.00  0.00     0.053 A 
ATOM     78  C   UNL A   1      29.568  28.153  23.191  1.00  0.00     0.049 A 
ATOM     79  C   UNL A   1      29.693  26.804  23.535  1.00  0.00     0.031 A 
BRANCH  76  80
ATOM     80  O   UNL A   1      30.272  30.421  23.420  1.00  0.00    -0.507 OA
ATOM     81  H   UNL A   1      30.806  30.756  22.727  1.00  0.00     0.293 HD
ENDBRANCH  76  80
BRANCH  77  82
ATOM     82  N   UNL A   1      30.788  25.027  24.784  1.00  0.00    -0.249 N 
ATOM     83  C   UNL A   1      30.309  24.446  25.926  1.00  0.00     0.236 C 
ATOM     84  C   UNL A   1      31.627  24.182  24.100  1.00  0.00     0.256 C 
ATOM     85  O   UNL A   1      29.612  24.957  26.793  1.00  0.00    -0.274 OA
ATOM     86  C   UNL A   1      30.773  23.023  25.993  1.00  0.00     0.136 C 
ATOM     87  C   UNL A   1      31.437  22.776  24.650  1.00  0.00     0.179 C 
ATOM     88  O   UNL A   1      32.459  24.485  23.256  1.00  0.00    -0.272 OA
BRANCH  87  89
ATOM     89  N   UNL A   1      32.706  22.065  24.852  1.00  0.00    -0.370 N 
ATOM     90  H   UNL A   1      33.510  22.546  25.159  1.00  0.00     0.161 HD
BRANCH  89  91
ATOM     91  C   UNL A   1      32.747  20.690  24.597  1.00  0.00     0.077 A 
ATOM     92  C   UNL A   1      32.381  20.233  23.327  1.00  0.00     0.029 A 
ATOM     93  C   UNL A   1      32.949  19.733  25.603  1.00  0.00     0.138 A 
ATOM     94  C   UNL A   1      32.276  18.865  23.056  1.00  0.00     0.002 A 
ATOM     95  C   UNL A   1      32.832  18.366  25.349  1.00  0.00     0.048 A 
ATOM     96  C   UNL A   1      32.501  17.932  24.066  1.00  0.00     0.004 A 
BRANCH  93  97
ATOM     97  O   UNL A   1      33.253  20.150  26.870  1.00  0.00    -0.506 OA
ATOM     98  H   UNL A   1      33.616  19.546  27.488  1.00  0.00     0.293 HD
ENDBRANCH  93  97
ENDBRANCH  89  91
ENDBRANCH  87  89
ENDBRANCH  77  82
ENDBRANCH  72  74
ENDBRANCH  71  72
ENDBRANCH   1  71
TORSDOF 19
ENDMDL
MODEL 3
REMARK VINA RESULT:     -12.1      5.549      9.437
REMARK SMILES O=C(OCCOC(=O)c1cc(N2C(=O)C[C@H](Nc3ccccc3O)C2=O)ccc1O)c1ccc(-c2c3nc(c(-c4cccc(S(=O)(=O)[O-])c4F)c4ccc([nH]4)c(-c4cccc(S(=O)(=O)[O-])c4F)c4nc(c(-c5cccc(S(=O)(=O)[O-])c5F)c5ccc2[nH]5)C=C4)C=C3)cc1
REMARK SMILES IDX 5 1 4 2 3 3 2 4 1 5 31 6 32 7 93 8 33 9 92 10 34 11 35 12
REMARK SMILES IDX 36 13 86 14 37 15 91 16 85 17 87 18 38 19 90 20 84 21 83 22
REMARK SMILES IDX 39 24 71 25 51 26 70 27 52 28 55 29 69 30 88 31 53 32 54 33
REMARK SMILES IDX 68 35 89 36 56 37 40 38 41 39 49 40 42 41 44 42 50 43 43 44
REMARK SMILES IDX 45 45 46 46 47 47 48 48 72 49 73 50 81 51 74 52 76 53 82 54
REMARK SMILES IDX 75 55 77 56 78 57 79 58 80 59 57 60 58 61 66 62 59 63 61 64
REMARK SMILES IDX 67 65 60 66 62 67 63 68 64 69 65 70 6 71 7 72 8 73 9 74
REMARK SMILES IDX 10 75 29 76 11 77 28 78 27 79 30 80 12 82 13 83 25 84 14 85
REMARK SMILES IDX 15 86 16 87 26 88 17 89 18 91 19 92 23 93 20 94 22 95 21 96
REMARK SMILES IDX 24 97
REMARK H PARENT 87 23 55 34 30 81 17 90 24 98
REMARK Flexibility Score: inf
ROOT
ATOM      1  C   UNL A   1      38.306  20.981  25.659  1.00  0.00     0.275 C 
ENDROOT
BRANCH   1   2
ATOM      2  C   UNL A   1      39.025  19.738  25.126  1.00  0.00     0.275 C 
BRANCH   2   3
ATOM      3  O   UNL A   1      40.050  19.215  25.982  1.00  0.00    -0.458 OA
BRANCH   3   4
ATOM      4  C   UNL A   1      41.368  19.515  26.040  1.00  0.00     0.338 C 
ATOM      5  O   UNL A   1      42.174  18.604  25.844  1.00  0.00    -0.246 OA
BRANCH   4   6
ATOM      6  C   UNL A   1      41.910  20.861  26.427  1.00  0.00     0.060 A 
ATOM      7  C   UNL A   1      42.243  21.303  27.709  1.00  0.00     0.016 A 
ATOM      8  C   UNL A   1      42.123  21.752  25.366  1.00  0.00     0.016 A 
ATOM      9  C   UNL A   1      42.847  22.550  27.918  1.00  0.00     0.010 A 
ATOM     10  C   UNL A   1      42.751  22.985  25.563  1.00  0.00     0.010 A 
ATOM     11  C   UNL A   1      43.111  23.395  26.846  1.00  0.00    -0.014 A 
BRANCH  11  12
ATOM     12  C   UNL A   1      43.622  24.764  27.072  1.00  0.00     0.031 A 
ATOM     13  C   UNL A   1      42.647  25.817  27.506  1.00  0.00     0.074 A 
ATOM     14  C   UNL A   1      44.924  25.055  26.894  1.00  0.00     0.049 A 
ATOM     15  N   UNL A   1      42.874  27.062  27.824  1.00  0.00    -0.248 NA
ATOM     16  C   UNL A   1      41.235  25.412  27.621  1.00  0.00     0.031 C 
ATOM     17  C   UNL A   1      45.956  24.096  26.507  1.00  0.00     0.029 A 
ATOM     18  N   UNL A   1      45.599  26.244  26.989  1.00  0.00    -0.354 N 
ATOM     19  C   UNL A   1      41.642  27.581  28.196  1.00  0.00     0.074 A 
ATOM     20  C   UNL A   1      40.659  26.541  28.003  1.00  0.00     0.031 C 
ATOM     21  C   UNL A   1      47.120  24.744  26.324  1.00  0.00     0.029 A 
ATOM     22  C   UNL A   1      46.919  26.161  26.605  1.00  0.00     0.049 A 
ATOM     23  H   UNL A   1      45.181  27.079  27.302  1.00  0.00     0.167 HD
ATOM     24  C   UNL A   1      41.363  28.803  28.699  1.00  0.00     0.034 A 
ATOM     25  C   UNL A   1      47.855  27.123  26.501  1.00  0.00     0.034 A 
ATOM     26  C   UNL A   1      42.348  29.830  28.865  1.00  0.00     0.049 A 
ATOM     27  C   UNL A   1      47.500  28.507  26.975  1.00  0.00     0.074 A 
ATOM     28  C   UNL A   1      42.194  31.099  29.389  1.00  0.00     0.029 A 
ATOM     29  N   UNL A   1      43.676  29.711  28.478  1.00  0.00    -0.354 N 
ATOM     30  N   UNL A   1      46.364  28.939  27.467  1.00  0.00    -0.248 NA
ATOM     31  C   UNL A   1      48.568  29.515  26.951  1.00  0.00     0.031 C 
ATOM     32  C   UNL A   1      43.421  31.761  29.280  1.00  0.00     0.029 A 
ATOM     33  C   UNL A   1      44.349  30.891  28.729  1.00  0.00     0.049 A 
ATOM     34  H   UNL A   1      44.078  28.904  28.083  1.00  0.00     0.167 HD
ATOM     35  C   UNL A   1      46.596  30.248  27.871  1.00  0.00     0.074 A 
ATOM     36  C   UNL A   1      47.983  30.536  27.562  1.00  0.00     0.031 C 
ATOM     37  C   UNL A   1      45.744  31.130  28.449  1.00  0.00     0.034 A 
BRANCH  24  38
ATOM     38  C   UNL A   1      39.940  29.062  29.110  1.00  0.00     0.023 A 
ATOM     39  C   UNL A   1      38.965  29.324  28.122  1.00  0.00     0.012 A 
ATOM     40  C   UNL A   1      39.570  29.067  30.466  1.00  0.00     0.148 A 
ATOM     41  C   UNL A   1      37.654  29.631  28.482  1.00  0.00     0.002 A 
ATOM     42  C   UNL A   1      38.252  29.331  30.816  1.00  0.00     0.091 A 
ATOM     43  F   UNL A   1      40.517  28.842  31.387  1.00  0.00    -0.205 F 
ATOM     44  C   UNL A   1      37.297  29.629  29.828  1.00  0.00     0.022 A 
BRANCH  42  45
ATOM     45  S   UNL A   1      37.674  29.294  32.514  1.00  0.00     0.127 S 
ATOM     46  O   UNL A   1      38.610  30.210  33.165  1.00  0.00    -0.237 OA
ATOM     47  O   UNL A   1      36.311  29.807  32.382  1.00  0.00    -0.237 OA
ATOM     48  O   UNL A   1      37.766  27.905  32.943  1.00  0.00    -0.744 OA
ENDBRANCH  42  45
ENDBRANCH  24  38
BRANCH  25  49
ATOM     49  C   UNL A   1      49.221  26.802  25.996  1.00  0.00     0.023 A 
ATOM     50  C   UNL A   1      50.134  26.118  26.821  1.00  0.00     0.012 A 
ATOM     51  C   UNL A   1      49.619  27.171  24.696  1.00  0.00     0.148 A 
ATOM     52  C   UNL A   1      51.430  25.844  26.378  1.00  0.00     0.002 A 
ATOM     53  C   UNL A   1      50.896  26.858  24.245  1.00  0.00     0.091 A 
ATOM     54  F   UNL A   1      48.735  27.817  23.922  1.00  0.00    -0.205 F 
ATOM     55  C   UNL A   1      51.810  26.210  25.090  1.00  0.00     0.022 A 
BRANCH  53  56
ATOM     56  S   UNL A   1      51.436  27.191  22.564  1.00  0.00     0.127 S 
ATOM     57  O   UNL A   1      51.570  28.645  22.575  1.00  0.00    -0.237 OA
ATOM     58  O   UNL A   1      52.697  26.452  22.504  1.00  0.00    -0.237 OA
ATOM     59  O   UNL A   1      50.386  26.656  21.706  1.00  0.00    -0.744 OA
ENDBRANCH  53  56
ENDBRANCH  25  49
BRANCH  37  60
ATOM     60  C   UNL A   1      46.295  32.474  28.834  1.00  0.00     0.023 A 
ATOM     61  C   UNL A   1      47.036  32.620  30.022  1.00  0.00     0.012 A 
ATOM     62  C   UNL A   1      46.150  33.573  27.963  1.00  0.00     0.148 A 
ATOM     63  C   UNL A   1      47.601  33.850  30.353  1.00  0.00     0.002 A 
ATOM     64  C   UNL A   1      46.765  34.777  28.272  1.00  0.00     0.091 A 
ATOM     65  F   UNL A   1      45.422  33.414  26.848  1.00  0.00    -0.205 F 
ATOM     66  C   UNL A   1      47.478  34.923  29.472  1.00  0.00     0.022 A 
BRANCH  64  67
ATOM     67  S   UNL A   1      46.754  36.175  27.144  1.00  0.00     0.127 S 
ATOM     68  O   UNL A   1      47.596  37.136  27.854  1.00  0.00    -0.237 OA
ATOM     69  O   UNL A   1      47.359  35.604  25.940  1.00  0.00    -0.237 OA
ATOM     70  O   UNL A   1      45.357  36.561  26.994  1.00  0.00    -0.744 OA
ENDBRANCH  64  67
ENDBRANCH  37  60
ENDBRANCH  11  12
ENDBRANCH   4   6
ENDBRANCH   3   4
ENDBRANCH   2   3
ENDBRANCH   1   2
BRANCH   1  71
ATOM     71  O   UNL A   1      37.053  21.255  25.015  1.00  0.00    -0.458 OA
BRANCH  71  72
ATOM     72  C   UNL A   1      36.286  22.217  25.592  1.00  0.00     0.342 C 
ATOM     73  O   UNL A   1      36.697  23.224  26.152  1.00  0.00    -0.246 OA
BRANCH  72  74
ATOM     74  C   UNL A   1      34.848  21.973  25.339  1.00  0.00     0.103 A 
ATOM     75  C   UNL A   1      33.974  23.078  25.360  1.00  0.00     0.046 A 
ATOM     76  C   UNL A   1      34.336  20.688  25.149  1.00  0.00     0.130 A 
ATOM     77  C   UNL A   1      32.595  22.893  25.184  1.00  0.00     0.053 A 
ATOM     78  C   UNL A   1      32.962  20.504  24.971  1.00  0.00     0.049 A 
ATOM     79  C   UNL A   1      32.097  21.601  24.995  1.00  0.00     0.031 A 
BRANCH  76  80
ATOM     80  O   UNL A   1      35.161  19.597  25.159  1.00  0.00    -0.507 OA
ATOM     81  H   UNL A   1      35.260  19.078  24.385  1.00  0.00     0.293 HD
ENDBRANCH  76  80
BRANCH  77  82
ATOM     82  N   UNL A   1      31.705  23.985  25.274  1.00  0.00    -0.249 N 
ATOM     83  C   UNL A   1      30.961  24.247  26.392  1.00  0.00     0.236 C 
ATOM     84  C   UNL A   1      31.304  24.754  24.209  1.00  0.00     0.256 C 
ATOM     85  O   UNL A   1      31.009  23.678  27.475  1.00  0.00    -0.274 OA
ATOM     86  C   UNL A   1      30.022  25.380  26.112  1.00  0.00     0.136 C 
ATOM     87  C   UNL A   1      30.432  25.882  24.739  1.00  0.00     0.179 C 
ATOM     88  O   UNL A   1      31.516  24.547  23.023  1.00  0.00    -0.272 OA
BRANCH  87  89
ATOM     89  N   UNL A   1      29.234  26.111  23.921  1.00  0.00    -0.370 N 
ATOM     90  H   UNL A   1      28.551  25.408  23.820  1.00  0.00     0.161 HD
BRANCH  89  91
ATOM     91  C   UNL A   1      29.087  27.350  23.287  1.00  0.00     0.077 A 
ATOM     92  C   UNL A   1      30.233  28.005  22.824  1.00  0.00     0.029 A 
ATOM     93  C   UNL A   1      27.875  28.056  23.264  1.00  0.00     0.138 A 
ATOM     94  C   UNL A   1      30.160  29.302  22.303  1.00  0.00     0.002 A 
ATOM     95  C   UNL A   1      27.793  29.356  22.762  1.00  0.00     0.048 A 
ATOM     96  C   UNL A   1      28.941  29.977  22.272  1.00  0.00     0.004 A 
BRANCH  93  97
ATOM     97  O   UNL A   1      26.747  27.464  23.763  1.00  0.00    -0.506 OA
ATOM     98  H   UNL A   1      26.689  26.530  23.806  1.00  0.00     0.293 HD
ENDBRANCH  93  97
ENDBRANCH  89  91
ENDBRANCH  87  89
ENDBRANCH  77  82
ENDBRANCH  72  74
ENDBRANCH  71  72
ENDBRANCH   1  71
TORSDOF 19
ENDMDL
