MODEL 1
REMARK VINA RESULT:     -13.0      0.000      0.000
REMARK SMILES Cc1cc(C(=O)OCCOC(=O)c2ccc(-c3c4nc(c(-c5cccc(S(=O)(=O)[O-])c5F)c5ccc([nH]5)c(-c5cccc(S(=O)(=O)[O-])c5F)c5nc(c(-c6cccc(S(=O)(=O)[O-])c6F)c6ccc3[nH]6)C=C5)C=C4)cc2)ccc1NS(=O)(=O)c1ccc2c(c1)CCC2
REMARK SMILES IDX 8 1 7 2 5 3 6 4 4 5 1 6 2 7 3 8 78 9 77 10 76 11 79 12 80 14
REMARK SMILES IDX 81 15 82 16 83 17 84 18 88 19 85 20 87 21 86 22 89 23 91 24
REMARK SMILES IDX 90 25 9 26 10 27 11 28 12 29 13 30 14 31 75 32 15 33 74 34
REMARK SMILES IDX 16 35 17 36 18 37 68 38 19 39 73 40 67 41 69 42 20 43 72 44
REMARK SMILES IDX 66 45 65 46 21 48 53 49 33 50 52 51 34 52 37 53 51 54 70 55
REMARK SMILES IDX 35 56 36 57 50 59 71 60 38 61 22 62 23 63 31 64 24 65 26 66
REMARK SMILES IDX 32 67 25 68 27 69 28 70 29 71 30 72 54 73 55 74 63 75 56 76
REMARK SMILES IDX 58 77 64 78 57 79 59 80 60 81 61 82 62 83 39 84 40 85 48 86
REMARK SMILES IDX 41 87 43 88 49 89 42 90 44 91 45 92 46 93 47 94
REMARK H PARENT 79 13 69 47 37 58
REMARK Flexibility Score: inf
ROOT
ATOM      1  C   UNL A   1      37.708  21.439  24.928  1.00  0.00     0.275 C 
ENDROOT
BRANCH   1   2
ATOM      2  O   UNL A   1      36.857  22.573  24.807  1.00  0.00    -0.458 OA
BRANCH   2   3
ATOM      3  C   UNL A   1      36.241  22.779  23.621  1.00  0.00     0.338 C 
ATOM      4  O   UNL A   1      36.766  23.118  22.587  1.00  0.00    -0.246 OA
BRANCH   3   5
ATOM      5  C   UNL A   1      34.789  22.500  23.795  1.00  0.00     0.060 A 
ATOM      6  C   UNL A   1      32.592  20.008  25.634  1.00  0.00     0.046 C 
ATOM      7  C   UNL A   1      33.035  21.260  24.934  1.00  0.00    -0.026 A 
ATOM      8  C   UNL A   1      34.387  21.422  24.590  1.00  0.00     0.021 A 
ATOM      9  C   UNL A   1      32.122  22.250  24.545  1.00  0.00     0.052 A 
ATOM     10  C   UNL A   1      32.483  23.186  23.577  1.00  0.00     0.028 A 
ATOM     11  C   UNL A   1      33.821  23.322  23.212  1.00  0.00     0.018 A 
BRANCH   9  12
ATOM     12  N   UNL A   1      30.928  22.523  25.293  1.00  0.00    -0.279 N 
ATOM     13  H   UNL A   1      30.051  22.176  25.009  1.00  0.00     0.180 HD
BRANCH  12  14
ATOM     14  S   UNL A   1      31.096  23.488  26.712  1.00  0.00     0.261 S 
ATOM     15  O   UNL A   1      29.745  23.743  27.177  1.00  0.00    -0.201 OA
ATOM     16  O   UNL A   1      32.059  22.876  27.607  1.00  0.00    -0.201 OA
BRANCH  14  17
ATOM     17  C   UNL A   1      31.780  25.054  26.179  1.00  0.00     0.088 A 
ATOM     18  C   UNL A   1      33.162  25.263  26.318  1.00  0.00     0.022 A 
ATOM     19  C   UNL A   1      30.974  26.058  25.637  1.00  0.00     0.026 A 
ATOM     20  C   UNL A   1      33.797  26.292  25.624  1.00  0.00     0.005 A 
ATOM     21  C   UNL A   1      31.612  27.150  25.062  1.00  0.00    -0.043 A 
ATOM     22  C   UNL A   1      33.006  27.197  24.949  1.00  0.00    -0.045 A 
ATOM     23  C   UNL A   1      31.029  28.415  24.516  1.00  0.00     0.036 C 
ATOM     24  C   UNL A   1      33.446  28.315  24.054  1.00  0.00     0.036 C 
ATOM     25  C   UNL A   1      32.102  28.813  23.496  1.00  0.00     0.010 C 
ENDBRANCH  14  17
ENDBRANCH  12  14
ENDBRANCH   9  12
ENDBRANCH   3   5
ENDBRANCH   2   3
ENDBRANCH   1   2
BRANCH   1  26
ATOM     26  C   UNL A   1      38.991  21.549  25.779  1.00  0.00     0.275 C 
BRANCH  26  27
ATOM     27  O   UNL A   1      39.343  22.753  26.514  1.00  0.00    -0.458 OA
BRANCH  27  28
ATOM     28  C   UNL A   1      40.495  23.471  26.556  1.00  0.00     0.338 C 
ATOM     29  O   UNL A   1      41.549  23.044  26.106  1.00  0.00    -0.246 OA
BRANCH  28  30
ATOM     30  C   UNL A   1      40.414  24.831  27.090  1.00  0.00     0.060 A 
ATOM     31  C   UNL A   1      40.989  25.902  26.381  1.00  0.00     0.016 A 
ATOM     32  C   UNL A   1      39.672  25.043  28.243  1.00  0.00     0.016 A 
ATOM     33  C   UNL A   1      40.746  27.210  26.794  1.00  0.00     0.010 A 
ATOM     34  C   UNL A   1      39.299  26.323  28.557  1.00  0.00     0.010 A 
ATOM     35  C   UNL A   1      39.897  27.406  27.884  1.00  0.00    -0.014 A 
BRANCH  35  36
ATOM     36  C   UNL A   1      39.948  28.587  28.732  1.00  0.00     0.031 A 
ATOM     37  C   UNL A   1      38.998  29.700  28.682  1.00  0.00     0.074 A 
ATOM     38  C   UNL A   1      40.811  28.395  29.753  1.00  0.00     0.049 A 
ATOM     39  N   UNL A   1      39.199  30.820  29.284  1.00  0.00    -0.248 NA
ATOM     40  C   UNL A   1      37.757  29.670  27.923  1.00  0.00     0.031 C 
ATOM     41  C   UNL A   1      40.885  29.014  31.058  1.00  0.00     0.029 A 
ATOM     42  N   UNL A   1      41.928  27.546  29.713  1.00  0.00    -0.354 N 
ATOM     43  C   UNL A   1      38.025  31.544  29.232  1.00  0.00     0.074 A 
ATOM     44  C   UNL A   1      37.217  30.848  28.259  1.00  0.00     0.031 C 
ATOM     45  C   UNL A   1      42.098  28.741  31.579  1.00  0.00     0.029 A 
ATOM     46  C   UNL A   1      42.896  28.116  30.526  1.00  0.00     0.049 A 
ATOM     47  H   UNL A   1      42.008  26.705  29.206  1.00  0.00     0.167 HD
ATOM     48  C   UNL A   1      37.840  32.541  30.146  1.00  0.00     0.034 A 
ATOM     49  C   UNL A   1      44.062  28.584  29.986  1.00  0.00     0.034 A 
ATOM     50  C   UNL A   1      39.063  32.708  30.956  1.00  0.00     0.049 A 
ATOM     51  C   UNL A   1      44.179  30.080  30.195  1.00  0.00     0.074 A 
ATOM     52  C   UNL A   1      39.426  32.209  32.196  1.00  0.00     0.029 A 
ATOM     53  N   UNL A   1      40.231  33.188  30.368  1.00  0.00    -0.354 N 
ATOM     54  N   UNL A   1      43.188  30.845  30.558  1.00  0.00    -0.248 NA
ATOM     55  C   UNL A   1      45.413  30.826  29.986  1.00  0.00     0.031 C 
ATOM     56  C   UNL A   1      40.845  32.265  32.288  1.00  0.00     0.029 A 
ATOM     57  C   UNL A   1      41.341  32.846  31.131  1.00  0.00     0.049 A 
ATOM     58  H   UNL A   1      40.265  33.700  29.529  1.00  0.00     0.167 HD
ATOM     59  C   UNL A   1      43.577  32.152  30.526  1.00  0.00     0.074 A 
ATOM     60  C   UNL A   1      45.001  32.082  30.234  1.00  0.00     0.031 C 
ATOM     61  C   UNL A   1      42.688  33.181  30.672  1.00  0.00     0.034 A 
BRANCH  48  62
ATOM     62  C   UNL A   1      36.512  33.184  30.555  1.00  0.00     0.023 A 
ATOM     63  C   UNL A   1      36.011  32.850  31.838  1.00  0.00     0.012 A 
ATOM     64  C   UNL A   1      35.670  34.016  29.776  1.00  0.00     0.148 A 
ATOM     65  C   UNL A   1      34.742  33.240  32.288  1.00  0.00     0.002 A 
ATOM     66  C   UNL A   1      34.396  34.400  30.218  1.00  0.00     0.091 A 
ATOM     67  F   UNL A   1      36.084  34.471  28.596  1.00  0.00    -0.205 F 
ATOM     68  C   UNL A   1      33.924  34.003  31.470  1.00  0.00     0.022 A 
BRANCH  66  69
ATOM     69  S   UNL A   1      33.269  35.391  29.210  1.00  0.00     0.127 S 
ATOM     70  O   UNL A   1      34.198  36.202  28.422  1.00  0.00    -0.237 OA
ATOM     71  O   UNL A   1      32.554  34.371  28.444  1.00  0.00    -0.237 OA
ATOM     72  O   UNL A   1      32.441  36.151  30.139  1.00  0.00    -0.744 OA
ENDBRANCH  66  69
ENDBRANCH  48  62
BRANCH  49  73
ATOM     73  C   UNL A   1      44.522  27.853  28.745  1.00  0.00     0.023 A 
ATOM     74  C   UNL A   1      44.332  28.496  27.494  1.00  0.00     0.012 A 
ATOM     75  C   UNL A   1      45.410  26.762  28.795  1.00  0.00     0.148 A 
ATOM     76  C   UNL A   1      45.082  28.140  26.366  1.00  0.00     0.002 A 
ATOM     77  C   UNL A   1      46.158  26.414  27.664  1.00  0.00     0.091 A 
ATOM     78  F   UNL A   1      45.570  26.107  29.952  1.00  0.00    -0.205 F 
ATOM     79  C   UNL A   1      46.011  27.112  26.457  1.00  0.00     0.022 A 
BRANCH  77  80
ATOM     80  S   UNL A   1      47.459  25.172  27.775  1.00  0.00     0.127 S 
ATOM     81  O   UNL A   1      48.132  25.507  29.031  1.00  0.00    -0.237 OA
ATOM     82  O   UNL A   1      46.736  23.908  27.822  1.00  0.00    -0.237 OA
ATOM     83  O   UNL A   1      48.236  25.441  26.570  1.00  0.00    -0.744 OA
ENDBRANCH  77  80
ENDBRANCH  49  73
BRANCH  61  84
ATOM     84  C   UNL A   1      43.032  34.618  30.371  1.00  0.00     0.023 A 
ATOM     85  C   UNL A   1      43.463  35.505  31.377  1.00  0.00     0.012 A 
ATOM     86  C   UNL A   1      43.089  35.080  29.036  1.00  0.00     0.148 A 
ATOM     87  C   UNL A   1      43.849  36.815  31.088  1.00  0.00     0.002 A 
ATOM     88  C   UNL A   1      43.593  36.343  28.742  1.00  0.00     0.091 A 
ATOM     89  F   UNL A   1      42.647  34.301  28.038  1.00  0.00    -0.205 F 
ATOM     90  C   UNL A   1      43.936  37.229  29.766  1.00  0.00     0.022 A 
BRANCH  88  91
ATOM     91  S   UNL A   1      43.980  36.784  27.045  1.00  0.00     0.127 S 
ATOM     92  O   UNL A   1      44.904  35.723  26.653  1.00  0.00    -0.237 OA
ATOM     93  O   UNL A   1      42.672  36.725  26.390  1.00  0.00    -0.237 OA
ATOM     94  O   UNL A   1      44.537  38.128  27.136  1.00  0.00    -0.744 OA
ENDBRANCH  88  91
ENDBRANCH  61  84
ENDBRANCH  35  36
ENDBRANCH  28  30
ENDBRANCH  27  28
ENDBRANCH  26  27
ENDBRANCH   1  26
TORSDOF 17
ENDMDL
MODEL 2
REMARK VINA RESULT:     -13.0      2.045      2.623
REMARK SMILES Cc1cc(C(=O)OCCOC(=O)c2ccc(-c3c4nc(c(-c5cccc(S(=O)(=O)[O-])c5F)c5ccc([nH]5)c(-c5cccc(S(=O)(=O)[O-])c5F)c5nc(c(-c6cccc(S(=O)(=O)[O-])c6F)c6ccc3[nH]6)C=C5)C=C4)cc2)ccc1NS(=O)(=O)c1ccc2c(c1)CCC2
REMARK SMILES IDX 8 1 7 2 5 3 6 4 4 5 1 6 2 7 3 8 78 9 77 10 76 11 79 12 80 14
REMARK SMILES IDX 81 15 82 16 83 17 84 18 88 19 85 20 87 21 86 22 89 23 91 24
REMARK SMILES IDX 90 25 9 26 10 27 11 28 12 29 13 30 14 31 75 32 15 33 74 34
REMARK SMILES IDX 16 35 17 36 18 37 68 38 19 39 73 40 67 41 69 42 20 43 72 44
REMARK SMILES IDX 66 45 65 46 21 48 53 49 33 50 52 51 34 52 37 53 51 54 70 55
REMARK SMILES IDX 35 56 36 57 50 59 71 60 38 61 22 62 23 63 31 64 24 65 26 66
REMARK SMILES IDX 32 67 25 68 27 69 28 70 29 71 30 72 54 73 55 74 63 75 56 76
REMARK SMILES IDX 58 77 64 78 57 79 59 80 60 81 61 82 62 83 39 84 40 85 48 86
REMARK SMILES IDX 41 87 43 88 49 89 42 90 44 91 45 92 46 93 47 94
REMARK H PARENT 79 13 69 47 37 58
REMARK Flexibility Score: inf
ROOT
ATOM      1  C   UNL A   1      37.769  21.453  25.172  1.00  0.00     0.275 C 
ENDROOT
BRANCH   1   2
ATOM      2  O   UNL A   1      36.496  21.788  25.714  1.00  0.00    -0.458 OA
BRANCH   2   3
ATOM      3  C   UNL A   1      36.089  23.074  25.627  1.00  0.00     0.338 C 
ATOM      4  O   UNL A   1      36.664  24.041  26.067  1.00  0.00    -0.246 OA
BRANCH   3   5
ATOM      5  C   UNL A   1      34.805  23.107  24.874  1.00  0.00     0.060 A 
ATOM      6  C   UNL A   1      31.231  24.261  25.433  1.00  0.00     0.046 C 
ATOM      7  C   UNL A   1      32.498  23.864  24.734  1.00  0.00    -0.026 A 
ATOM      8  C   UNL A   1      33.664  23.636  25.485  1.00  0.00     0.021 A 
ATOM      9  C   UNL A   1      32.540  23.641  23.351  1.00  0.00     0.052 A 
ATOM     10  C   UNL A   1      33.590  22.911  22.796  1.00  0.00     0.028 A 
ATOM     11  C   UNL A   1      34.731  22.656  23.554  1.00  0.00     0.018 A 
BRANCH   9  12
ATOM     12  N   UNL A   1      31.702  24.363  22.437  1.00  0.00    -0.279 N 
ATOM     13  H   UNL A   1      30.831  24.007  22.145  1.00  0.00     0.180 HD
BRANCH  12  14
ATOM     14  S   UNL A   1      32.287  25.882  21.870  1.00  0.00     0.261 S 
ATOM     15  O   UNL A   1      33.683  25.668  21.539  1.00  0.00    -0.201 OA
ATOM     16  O   UNL A   1      31.384  26.410  20.867  1.00  0.00    -0.201 OA
BRANCH  14  17
ATOM     17  C   UNL A   1      32.238  26.995  23.272  1.00  0.00     0.088 A 
ATOM     18  C   UNL A   1      31.000  27.538  23.653  1.00  0.00     0.022 A 
ATOM     19  C   UNL A   1      33.394  27.329  23.982  1.00  0.00     0.026 A 
ATOM     20  C   UNL A   1      30.837  28.120  24.910  1.00  0.00     0.005 A 
ATOM     21  C   UNL A   1      33.235  28.027  25.173  1.00  0.00    -0.043 A 
ATOM     22  C   UNL A   1      31.962  28.303  25.684  1.00  0.00    -0.045 A 
ATOM     23  C   UNL A   1      34.271  28.617  26.077  1.00  0.00     0.036 C 
ATOM     24  C   UNL A   1      32.035  28.803  27.096  1.00  0.00     0.036 C 
ATOM     25  C   UNL A   1      33.527  28.605  27.417  1.00  0.00     0.010 C 
ENDBRANCH  14  17
ENDBRANCH  12  14
ENDBRANCH   9  12
ENDBRANCH   3   5
ENDBRANCH   2   3
ENDBRANCH   1   2
BRANCH   1  26
ATOM     26  C   UNL A   1      39.023  21.580  26.062  1.00  0.00     0.275 C 
BRANCH  26  27
ATOM     27  O   UNL A   1      39.750  22.831  26.219  1.00  0.00    -0.458 OA
BRANCH  27  28
ATOM     28  C   UNL A   1      40.573  23.269  27.206  1.00  0.00     0.338 C 
ATOM     29  O   UNL A   1      41.453  22.567  27.684  1.00  0.00    -0.246 OA
BRANCH  28  30
ATOM     30  C   UNL A   1      40.426  24.664  27.626  1.00  0.00     0.060 A 
ATOM     31  C   UNL A   1      41.001  25.694  26.861  1.00  0.00     0.016 A 
ATOM     32  C   UNL A   1      39.626  24.939  28.726  1.00  0.00     0.016 A 
ATOM     33  C   UNL A   1      40.700  27.022  27.158  1.00  0.00     0.010 A 
ATOM     34  C   UNL A   1      39.201  26.226  28.920  1.00  0.00     0.010 A 
ATOM     35  C   UNL A   1      39.796  27.273  28.191  1.00  0.00    -0.014 A 
BRANCH  35  36
ATOM     36  C   UNL A   1      39.772  28.518  28.943  1.00  0.00     0.031 A 
ATOM     37  C   UNL A   1      38.879  29.647  28.675  1.00  0.00     0.074 A 
ATOM     38  C   UNL A   1      40.479  28.388  30.087  1.00  0.00     0.049 A 
ATOM     39  N   UNL A   1      39.036  30.806  29.211  1.00  0.00    -0.248 NA
ATOM     40  C   UNL A   1      37.755  29.586  27.753  1.00  0.00     0.031 C 
ATOM     41  C   UNL A   1      40.394  29.109  31.338  1.00  0.00     0.029 A 
ATOM     42  N   UNL A   1      41.559  27.510  30.270  1.00  0.00    -0.354 N 
ATOM     43  C   UNL A   1      37.907  31.552  28.939  1.00  0.00     0.074 A 
ATOM     44  C   UNL A   1      37.216  30.801  27.919  1.00  0.00     0.031 C 
ATOM     45  C   UNL A   1      41.513  28.849  32.044  1.00  0.00     0.029 A 
ATOM     46  C   UNL A   1      42.425  28.121  31.165  1.00  0.00     0.049 A 
ATOM     47  H   UNL A   1      41.678  26.630  29.846  1.00  0.00     0.167 HD
ATOM     48  C   UNL A   1      37.633  32.625  29.738  1.00  0.00     0.034 A 
ATOM     49  C   UNL A   1      43.671  28.513  30.759  1.00  0.00     0.034 A 
ATOM     50  C   UNL A   1      38.738  32.827  30.697  1.00  0.00     0.049 A 
ATOM     51  C   UNL A   1      43.812  30.018  30.867  1.00  0.00     0.074 A 
ATOM     52  C   UNL A   1      38.908  32.421  32.010  1.00  0.00     0.029 A 
ATOM     53  N   UNL A   1      39.992  33.228  30.244  1.00  0.00    -0.354 N 
ATOM     54  N   UNL A   1      42.808  30.835  31.027  1.00  0.00    -0.248 NA
ATOM     55  C   UNL A   1      45.089  30.714  30.777  1.00  0.00     0.031 C 
ATOM     56  C   UNL A   1      40.302  32.449  32.296  1.00  0.00     0.029 A 
ATOM     57  C   UNL A   1      40.973  32.922  31.179  1.00  0.00     0.049 A 
ATOM     58  H   UNL A   1      40.161  33.669  29.380  1.00  0.00     0.167 HD
ATOM     59  C   UNL A   1      43.245  32.125  30.950  1.00  0.00     0.074 A 
ATOM     60  C   UNL A   1      44.692  31.995  30.866  1.00  0.00     0.031 C 
ATOM     61  C   UNL A   1      42.382  33.184  30.890  1.00  0.00     0.034 A 
BRANCH  48  62
ATOM     62  C   UNL A   1      36.286  33.332  29.905  1.00  0.00     0.023 A 
ATOM     63  C   UNL A   1      35.733  33.932  28.747  1.00  0.00     0.012 A 
ATOM     64  C   UNL A   1      35.550  33.535  31.100  1.00  0.00     0.148 A 
ATOM     65  C   UNL A   1      34.587  34.738  28.776  1.00  0.00     0.002 A 
ATOM     66  C   UNL A   1      34.409  34.349  31.136  1.00  0.00     0.091 A 
ATOM     67  F   UNL A   1      35.924  32.936  32.227  1.00  0.00    -0.205 F 
ATOM     68  C   UNL A   1      33.931  34.962  29.976  1.00  0.00     0.022 A 
BRANCH  66  69
ATOM     69  S   UNL A   1      33.501  34.693  32.660  1.00  0.00     0.127 S 
ATOM     70  O   UNL A   1      32.316  35.391  32.159  1.00  0.00    -0.237 OA
ATOM     71  O   UNL A   1      33.241  33.351  33.180  1.00  0.00    -0.237 OA
ATOM     72  O   UNL A   1      34.378  35.511  33.490  1.00  0.00    -0.744 OA
ENDBRANCH  66  69
ENDBRANCH  48  62
BRANCH  49  73
ATOM     73  C   UNL A   1      44.271  27.673  29.656  1.00  0.00     0.023 A 
ATOM     74  C   UNL A   1      44.533  26.307  29.937  1.00  0.00     0.012 A 
ATOM     75  C   UNL A   1      44.260  28.076  28.306  1.00  0.00     0.148 A 
ATOM     76  C   UNL A   1      44.665  25.361  28.913  1.00  0.00     0.002 A 
ATOM     77  C   UNL A   1      44.390  27.124  27.289  1.00  0.00     0.091 A 
ATOM     78  F   UNL A   1      44.063  29.369  28.016  1.00  0.00    -0.205 F 
ATOM     79  C   UNL A   1      44.572  25.766  27.588  1.00  0.00     0.022 A 
BRANCH  77  80
ATOM     80  S   UNL A   1      44.151  27.590  25.565  1.00  0.00     0.127 S 
ATOM     81  O   UNL A   1      45.451  28.145  25.186  1.00  0.00    -0.237 OA
ATOM     82  O   UNL A   1      43.838  26.333  24.899  1.00  0.00    -0.237 OA
ATOM     83  O   UNL A   1      43.072  28.568  25.665  1.00  0.00    -0.744 OA
ENDBRANCH  77  80
ENDBRANCH  49  73
BRANCH  61  84
ATOM     84  C   UNL A   1      42.816  34.583  30.530  1.00  0.00     0.023 A 
ATOM     85  C   UNL A   1      43.271  35.494  31.504  1.00  0.00     0.012 A 
ATOM     86  C   UNL A   1      42.934  34.975  29.177  1.00  0.00     0.148 A 
ATOM     87  C   UNL A   1      43.739  36.764  31.163  1.00  0.00     0.002 A 
ATOM     88  C   UNL A   1      43.518  36.191  28.837  1.00  0.00     0.091 A 
ATOM     89  F   UNL A   1      42.475  34.172  28.204  1.00  0.00    -0.205 F 
ATOM     90  C   UNL A   1      43.885  37.106  29.826  1.00  0.00     0.022 A 
BRANCH  88  91
ATOM     91  S   UNL A   1      43.975  36.524  27.132  1.00  0.00     0.127 S 
ATOM     92  O   UNL A   1      42.704  36.357  26.433  1.00  0.00    -0.237 OA
ATOM     93  O   UNL A   1      44.459  37.905  27.194  1.00  0.00    -0.237 OA
ATOM     94  O   UNL A   1      45.013  35.546  26.836  1.00  0.00    -0.744 OA
ENDBRANCH  88  91
ENDBRANCH  61  84
ENDBRANCH  35  36
ENDBRANCH  28  30
ENDBRANCH  27  28
ENDBRANCH  26  27
ENDBRANCH   1  26
TORSDOF 17
ENDMDL
MODEL 3
REMARK VINA RESULT:     -13.0      4.034      9.783
REMARK SMILES Cc1cc(C(=O)OCCOC(=O)c2ccc(-c3c4nc(c(-c5cccc(S(=O)(=O)[O-])c5F)c5ccc([nH]5)c(-c5cccc(S(=O)(=O)[O-])c5F)c5nc(c(-c6cccc(S(=O)(=O)[O-])c6F)c6ccc3[nH]6)C=C5)C=C4)cc2)ccc1NS(=O)(=O)c1ccc2c(c1)CCC2
REMARK SMILES IDX 8 1 7 2 5 3 6 4 4 5 1 6 2 7 3 8 78 9 77 10 76 11 79 12 80 14
REMARK SMILES IDX 81 15 82 16 83 17 84 18 88 19 85 20 87 21 86 22 89 23 91 24
REMARK SMILES IDX 90 25 9 26 10 27 11 28 12 29 13 30 14 31 75 32 15 33 74 34
REMARK SMILES IDX 16 35 17 36 18 37 68 38 19 39 73 40 67 41 69 42 20 43 72 44
REMARK SMILES IDX 66 45 65 46 21 48 53 49 33 50 52 51 34 52 37 53 51 54 70 55
REMARK SMILES IDX 35 56 36 57 50 59 71 60 38 61 22 62 23 63 31 64 24 65 26 66
REMARK SMILES IDX 32 67 25 68 27 69 28 70 29 71 30 72 54 73 55 74 63 75 56 76
REMARK SMILES IDX 58 77 64 78 57 79 59 80 60 81 61 82 62 83 39 84 40 85 48 86
REMARK SMILES IDX 41 87 43 88 49 89 42 90 44 91 45 92 46 93 47 94
REMARK H PARENT 79 13 69 47 37 58
REMARK Flexibility Score: inf
ROOT
ATOM      1  C   UNL A   1      34.072  28.773  25.612  1.00  0.00     0.275 C 
ENDROOT
BRANCH   1   2
ATOM      2  O   UNL A   1      33.817  27.375  25.520  1.00  0.00    -0.458 OA
BRANCH   2   3
ATOM      3  C   UNL A   1      33.760  26.821  24.288  1.00  0.00     0.338 C 
ATOM      4  O   UNL A   1      33.436  27.375  23.265  1.00  0.00    -0.246 OA
BRANCH   3   5
ATOM      5  C   UNL A   1      34.184  25.398  24.397  1.00  0.00     0.060 A 
ATOM      6  C   UNL A   1      34.680  22.799  27.120  1.00  0.00     0.046 C 
ATOM      7  C   UNL A   1      34.440  23.407  25.769  1.00  0.00    -0.026 A 
ATOM      8  C   UNL A   1      34.242  24.793  25.657  1.00  0.00     0.021 A 
ATOM      9  C   UNL A   1      34.479  22.639  24.597  1.00  0.00     0.052 A 
ATOM     10  C   UNL A   1      34.645  23.265  23.362  1.00  0.00     0.028 A 
ATOM     11  C   UNL A   1      34.482  24.645  23.259  1.00  0.00     0.018 A 
BRANCH   9  12
ATOM     12  N   UNL A   1      34.077  21.262  24.573  1.00  0.00    -0.279 N 
ATOM     13  H   UNL A   1      34.720  20.535  24.743  1.00  0.00     0.180 HD
BRANCH  12  14
ATOM     14  S   UNL A   1      32.419  20.935  24.234  1.00  0.00     0.261 S 
ATOM     15  O   UNL A   1      32.321  20.853  22.789  1.00  0.00    -0.201 OA
ATOM     16  O   UNL A   1      31.964  19.825  25.048  1.00  0.00    -0.201 OA
BRANCH  14  17
ATOM     17  C   UNL A   1      31.504  22.385  24.748  1.00  0.00     0.088 A 
ATOM     18  C   UNL A   1      31.163  22.517  26.103  1.00  0.00     0.022 A 
ATOM     19  C   UNL A   1      31.128  23.374  23.835  1.00  0.00     0.026 A 
ATOM     20  C   UNL A   1      30.767  23.750  26.619  1.00  0.00     0.005 A 
ATOM     21  C   UNL A   1      30.608  24.556  24.349  1.00  0.00    -0.043 A 
ATOM     22  C   UNL A   1      30.551  24.780  25.729  1.00  0.00    -0.045 A 
ATOM     23  C   UNL A   1      30.018  25.729  23.632  1.00  0.00     0.036 C 
ATOM     24  C   UNL A   1      30.226  26.211  26.039  1.00  0.00     0.036 C 
ATOM     25  C   UNL A   1      30.286  26.851  24.641  1.00  0.00     0.010 C 
ENDBRANCH  14  17
ENDBRANCH  12  14
ENDBRANCH   9  12
ENDBRANCH   3   5
ENDBRANCH   2   3
ENDBRANCH   1   2
BRANCH   1  26
ATOM     26  C   UNL A   1      34.362  29.395  26.993  1.00  0.00     0.275 C 
BRANCH  26  27
ATOM     27  O   UNL A   1      35.564  30.166  27.270  1.00  0.00    -0.458 OA
BRANCH  27  28
ATOM     28  C   UNL A   1      36.268  30.346  28.417  1.00  0.00     0.338 C 
ATOM     29  O   UNL A   1      35.876  31.076  29.317  1.00  0.00    -0.246 OA
BRANCH  28  30
ATOM     30  C   UNL A   1      37.489  29.556  28.581  1.00  0.00     0.060 A 
ATOM     31  C   UNL A   1      37.663  28.756  29.724  1.00  0.00     0.016 A 
ATOM     32  C   UNL A   1      38.407  29.540  27.540  1.00  0.00     0.016 A 
ATOM     33  C   UNL A   1      38.733  27.866  29.785  1.00  0.00     0.010 A 
ATOM     34  C   UNL A   1      39.362  28.558  27.525  1.00  0.00     0.010 A 
ATOM     35  C   UNL A   1      39.575  27.777  28.676  1.00  0.00    -0.014 A 
BRANCH  35  36
ATOM     36  C   UNL A   1      40.956  27.327  28.758  1.00  0.00     0.031 A 
ATOM     37  C   UNL A   1      41.432  25.995  28.383  1.00  0.00     0.074 A 
ATOM     38  C   UNL A   1      41.780  28.379  28.957  1.00  0.00     0.049 A 
ATOM     39  N   UNL A   1      42.607  25.562  28.676  1.00  0.00    -0.248 NA
ATOM     40  C   UNL A   1      40.617  25.016  27.679  1.00  0.00     0.031 C 
ATOM     41  C   UNL A   1      43.186  28.549  28.661  1.00  0.00     0.029 A 
ATOM     42  N   UNL A   1      41.421  29.573  29.603  1.00  0.00    -0.354 N 
ATOM     43  C   UNL A   1      42.811  24.388  27.980  1.00  0.00     0.074 A 
ATOM     44  C   UNL A   1      41.501  24.026  27.495  1.00  0.00     0.031 C 
ATOM     45  C   UNL A   1      43.627  29.626  29.340  1.00  0.00     0.029 A 
ATOM     46  C   UNL A   1      42.557  30.040  30.245  1.00  0.00     0.049 A 
ATOM     47  H   UNL A   1      40.532  29.997  29.599  1.00  0.00     0.167 HD
ATOM     48  C   UNL A   1      44.095  23.973  27.772  1.00  0.00     0.034 A 
ATOM     49  C   UNL A   1      42.604  30.092  31.611  1.00  0.00     0.034 A 
ATOM     50  C   UNL A   1      45.029  24.867  28.487  1.00  0.00     0.049 A 
ATOM     51  C   UNL A   1      43.685  29.171  32.139  1.00  0.00     0.074 A 
ATOM     52  C   UNL A   1      45.758  25.967  28.069  1.00  0.00     0.029 A 
ATOM     53  N   UNL A   1      45.046  24.890  29.880  1.00  0.00    -0.354 N 
ATOM     54  N   UNL A   1      44.268  28.248  31.426  1.00  0.00    -0.248 NA
ATOM     55  C   UNL A   1      44.171  29.206  33.512  1.00  0.00     0.031 C 
ATOM     56  C   UNL A   1      46.095  26.730  29.222  1.00  0.00     0.029 A 
ATOM     57  C   UNL A   1      45.618  26.069  30.344  1.00  0.00     0.049 A 
ATOM     58  H   UNL A   1      44.702  24.171  30.456  1.00  0.00     0.167 HD
ATOM     59  C   UNL A   1      45.091  27.503  32.218  1.00  0.00     0.074 A 
ATOM     60  C   UNL A   1      45.051  28.190  33.501  1.00  0.00     0.031 C 
ATOM     61  C   UNL A   1      45.679  26.350  31.777  1.00  0.00     0.034 A 
BRANCH  48  62
ATOM     62  C   UNL A   1      44.586  22.978  26.718  1.00  0.00     0.023 A 
ATOM     63  C   UNL A   1      45.595  23.432  25.834  1.00  0.00     0.012 A 
ATOM     64  C   UNL A   1      44.099  21.673  26.459  1.00  0.00     0.148 A 
ATOM     65  C   UNL A   1      46.035  22.690  24.729  1.00  0.00     0.002 A 
ATOM     66  C   UNL A   1      44.528  20.930  25.350  1.00  0.00     0.091 A 
ATOM     67  F   UNL A   1      43.222  21.108  27.284  1.00  0.00    -0.205 F 
ATOM     68  C   UNL A   1      45.489  21.442  24.475  1.00  0.00     0.022 A 
BRANCH  66  69
ATOM     69  S   UNL A   1      43.862  19.298  24.948  1.00  0.00     0.127 S 
ATOM     70  O   UNL A   1      42.425  19.499  25.142  1.00  0.00    -0.237 OA
ATOM     71  O   UNL A   1      44.268  19.128  23.554  1.00  0.00    -0.237 OA
ATOM     72  O   UNL A   1      44.472  18.359  25.882  1.00  0.00    -0.744 OA
ENDBRANCH  66  69
ENDBRANCH  48  62
BRANCH  49  73
ATOM     73  C   UNL A   1      41.269  30.318  32.282  1.00  0.00     0.023 A 
ATOM     74  C   UNL A   1      40.568  29.178  32.756  1.00  0.00     0.012 A 
ATOM     75  C   UNL A   1      40.863  31.582  32.754  1.00  0.00     0.148 A 
ATOM     76  C   UNL A   1      39.582  29.283  33.744  1.00  0.00     0.002 A 
ATOM     77  C   UNL A   1      39.878  31.678  33.743  1.00  0.00     0.091 A 
ATOM     78  F   UNL A   1      41.475  32.677  32.285  1.00  0.00    -0.205 F 
ATOM     79  C   UNL A   1      39.251  30.533  34.253  1.00  0.00     0.022 A 
BRANCH  77  80
ATOM     80  S   UNL A   1      39.511  33.264  34.516  1.00  0.00     0.127 S 
ATOM     81  O   UNL A   1      40.800  33.665  35.081  1.00  0.00    -0.237 OA
ATOM     82  O   UNL A   1      39.075  34.103  33.409  1.00  0.00    -0.237 OA
ATOM     83  O   UNL A   1      38.498  32.893  35.499  1.00  0.00    -0.744 OA
ENDBRANCH  77  80
ENDBRANCH  49  73
BRANCH  61  84
ATOM     84  C   UNL A   1      46.363  25.367  32.696  1.00  0.00     0.023 A 
ATOM     85  C   UNL A   1      47.730  25.477  33.015  1.00  0.00     0.012 A 
ATOM     86  C   UNL A   1      45.612  24.396  33.398  1.00  0.00     0.148 A 
ATOM     87  C   UNL A   1      48.347  24.611  33.921  1.00  0.00     0.002 A 
ATOM     88  C   UNL A   1      46.204  23.621  34.389  1.00  0.00     0.091 A 
ATOM     89  F   UNL A   1      44.316  24.211  33.105  1.00  0.00    -0.205 F 
ATOM     90  C   UNL A   1      47.578  23.696  34.626  1.00  0.00     0.022 A 
BRANCH  88  91
ATOM     91  S   UNL A   1      45.183  22.648  35.501  1.00  0.00     0.127 S 
ATOM     92  O   UNL A   1      44.223  23.637  35.984  1.00  0.00    -0.237 OA
ATOM     93  O   UNL A   1      44.615  21.633  34.611  1.00  0.00    -0.237 OA
ATOM     94  O   UNL A   1      46.118  22.117  36.484  1.00  0.00    -0.744 OA
ENDBRANCH  88  91
ENDBRANCH  61  84
ENDBRANCH  35  36
ENDBRANCH  28  30
ENDBRANCH  27  28
ENDBRANCH  26  27
ENDBRANCH   1  26
TORSDOF 17
ENDMDL
