MODEL 1
REMARK VINA RESULT:     -10.6      0.000      0.000
REMARK SMILES O=C(OCCOC(=O)[C@H]1C[C@](O)(c2ccc(F)cc2)[C@@H](c2ccc(F)cc2)O1)c1ccc(-c2c3nc(c(-c4cccc(S(=O)(=O)[O-])c4F)c4ccc([nH]4)c(-c4cccc(S(=O)(=O)[O-])c4F)c4nc(c(-c5cccc(S(=O)(=O)[O-])c5F)c5ccc2[nH]5)C=C4)C=C3)cc1
REMARK SMILES IDX 4 1 3 2 2 3 1 4 29 5 30 6 91 7 31 8 90 9 32 10 33 11 34 12
REMARK SMILES IDX 84 13 35 14 89 15 83 16 85 17 36 18 88 19 82 20 81 21 37 23
REMARK SMILES IDX 69 24 49 25 68 26 50 27 53 28 67 29 86 30 51 31 52 32 66 34
REMARK SMILES IDX 87 35 54 36 38 37 39 38 47 39 40 40 42 41 48 42 41 43 43 44
REMARK SMILES IDX 44 45 45 46 46 47 70 48 71 49 79 50 72 51 74 52 80 53 73 54
REMARK SMILES IDX 75 55 76 56 77 57 78 58 55 59 56 60 64 61 57 62 59 63 65 64
REMARK SMILES IDX 58 65 60 66 61 67 62 68 63 69 5 70 6 71 7 72 8 73 9 74 10 75
REMARK SMILES IDX 28 76 11 77 20 78 13 79 14 80 19 81 15 82 18 83 16 84 17 85
REMARK SMILES IDX 12 86 21 88 22 89 27 90 23 91 26 92 24 93 25 94
REMARK H PARENT 85 22 53 33 12 87
REMARK Flexibility Score: inf
ROOT
ATOM      1  C   UNL A   1      41.753  20.566  26.216  1.00  0.00     0.275 C 
ENDROOT
BRANCH   1   2
ATOM      2  O   UNL A   1      41.133  21.591  26.990  1.00  0.00    -0.458 OA
BRANCH   2   3
ATOM      3  C   UNL A   1      40.147  22.427  26.600  1.00  0.00     0.338 C 
ATOM      4  O   UNL A   1      39.298  21.972  25.832  1.00  0.00    -0.246 OA
BRANCH   3   5
ATOM      5  C   UNL A   1      39.973  23.840  27.110  1.00  0.00     0.060 A 
ATOM      6  C   UNL A   1      39.711  24.297  28.415  1.00  0.00     0.016 A 
ATOM      7  C   UNL A   1      40.159  24.827  26.139  1.00  0.00     0.016 A 
ATOM      8  C   UNL A   1      39.816  25.674  28.774  1.00  0.00     0.010 A 
ATOM      9  C   UNL A   1      40.258  26.178  26.493  1.00  0.00     0.010 A 
ATOM     10  C   UNL A   1      40.179  26.630  27.828  1.00  0.00    -0.014 A 
BRANCH  10  11
ATOM     11  C   UNL A   1      40.482  28.091  28.075  1.00  0.00     0.031 A 
ATOM     12  C   UNL A   1      41.932  28.436  28.166  1.00  0.00     0.074 A 
ATOM     13  C   UNL A   1      39.589  29.070  28.391  1.00  0.00     0.049 A 
ATOM     14  N   UNL A   1      42.477  29.559  28.531  1.00  0.00    -0.248 NA
ATOM     15  C   UNL A   1      42.890  27.382  27.781  1.00  0.00     0.031 C 
ATOM     16  C   UNL A   1      38.150  29.000  28.218  1.00  0.00     0.029 A 
ATOM     17  N   UNL A   1      39.741  30.317  28.985  1.00  0.00    -0.354 N 
ATOM     18  C   UNL A   1      43.830  29.363  28.353  1.00  0.00     0.074 A 
ATOM     19  C   UNL A   1      44.041  27.969  28.050  1.00  0.00     0.031 C 
ATOM     20  C   UNL A   1      37.541  30.022  28.850  1.00  0.00     0.029 A 
ATOM     21  C   UNL A   1      38.549  30.913  29.392  1.00  0.00     0.049 A 
ATOM     22  H   UNL A   1      40.619  30.745  29.109  1.00  0.00     0.167 HD
ATOM     23  C   UNL A   1      44.799  30.296  28.292  1.00  0.00     0.034 A 
ATOM     24  C   UNL A   1      38.272  32.060  30.065  1.00  0.00     0.034 A 
ATOM     25  C   UNL A   1      44.594  31.680  28.574  1.00  0.00     0.049 A 
ATOM     26  C   UNL A   1      39.417  33.016  30.253  1.00  0.00     0.074 A 
ATOM     27  C   UNL A   1      45.505  32.711  28.492  1.00  0.00     0.029 A 
ATOM     28  N   UNL A   1      43.399  32.221  29.025  1.00  0.00    -0.354 N 
ATOM     29  N   UNL A   1      40.671  32.853  29.911  1.00  0.00    -0.248 NA
ATOM     30  C   UNL A   1      39.103  34.353  30.779  1.00  0.00     0.031 C 
ATOM     31  C   UNL A   1      44.876  33.872  28.946  1.00  0.00     0.029 A 
ATOM     32  C   UNL A   1      43.558  33.572  29.261  1.00  0.00     0.049 A 
ATOM     33  H   UNL A   1      42.564  31.718  29.158  1.00  0.00     0.167 HD
ATOM     34  C   UNL A   1      41.269  34.093  30.065  1.00  0.00     0.074 A 
ATOM     35  C   UNL A   1      40.254  34.987  30.588  1.00  0.00     0.031 C 
ATOM     36  C   UNL A   1      42.532  34.460  29.746  1.00  0.00     0.034 A 
BRANCH  23  37
ATOM     37  C   UNL A   1      46.127  29.803  27.819  1.00  0.00     0.023 A 
ATOM     38  C   UNL A   1      46.321  29.556  26.440  1.00  0.00     0.012 A 
ATOM     39  C   UNL A   1      47.138  29.496  28.737  1.00  0.00     0.148 A 
ATOM     40  C   UNL A   1      47.489  28.949  25.991  1.00  0.00     0.002 A 
ATOM     41  C   UNL A   1      48.320  28.939  28.276  1.00  0.00     0.091 A 
ATOM     42  F   UNL A   1      46.904  29.708  30.039  1.00  0.00    -0.205 F 
ATOM     43  C   UNL A   1      48.489  28.645  26.910  1.00  0.00     0.022 A 
BRANCH  41  44
ATOM     44  S   UNL A   1      49.689  28.553  29.364  1.00  0.00     0.127 S 
ATOM     45  O   UNL A   1      50.707  28.110  28.415  1.00  0.00    -0.237 OA
ATOM     46  O   UNL A   1      49.949  29.849  29.987  1.00  0.00    -0.237 OA
ATOM     47  O   UNL A   1      49.203  27.519  30.272  1.00  0.00    -0.744 OA
ENDBRANCH  41  44
ENDBRANCH  23  37
BRANCH  24  48
ATOM     48  C   UNL A   1      36.875  32.485  30.457  1.00  0.00     0.023 A 
ATOM     49  C   UNL A   1      36.364  32.207  31.737  1.00  0.00     0.012 A 
ATOM     50  C   UNL A   1      36.000  33.091  29.536  1.00  0.00     0.148 A 
ATOM     51  C   UNL A   1      35.040  32.537  32.078  1.00  0.00     0.002 A 
ATOM     52  C   UNL A   1      34.715  33.498  29.897  1.00  0.00     0.091 A 
ATOM     53  F   UNL A   1      36.388  33.166  28.267  1.00  0.00    -0.205 F 
ATOM     54  C   UNL A   1      34.223  33.206  31.169  1.00  0.00     0.022 A 
BRANCH  52  55
ATOM     55  S   UNL A   1      33.662  34.460  28.795  1.00  0.00     0.127 S 
ATOM     56  O   UNL A   1      33.246  33.462  27.815  1.00  0.00    -0.237 OA
ATOM     57  O   UNL A   1      32.610  34.910  29.706  1.00  0.00    -0.237 OA
ATOM     58  O   UNL A   1      34.512  35.533  28.292  1.00  0.00    -0.744 OA
ENDBRANCH  52  55
ENDBRANCH  24  48
BRANCH  36  59
ATOM     59  C   UNL A   1      42.904  35.906  29.878  1.00  0.00     0.023 A 
ATOM     60  C   UNL A   1      43.638  36.351  30.992  1.00  0.00     0.012 A 
ATOM     61  C   UNL A   1      42.658  36.785  28.803  1.00  0.00     0.148 A 
ATOM     62  C   UNL A   1      44.123  37.657  31.034  1.00  0.00     0.002 A 
ATOM     63  C   UNL A   1      43.199  38.060  28.824  1.00  0.00     0.091 A 
ATOM     64  F   UNL A   1      41.932  36.340  27.767  1.00  0.00    -0.205 F 
ATOM     65  C   UNL A   1      43.923  38.502  29.943  1.00  0.00     0.022 A 
BRANCH  63  66
ATOM     66  S   UNL A   1      43.111  39.162  27.409  1.00  0.00     0.127 S 
ATOM     67  O   UNL A   1      43.212  40.474  28.047  1.00  0.00    -0.237 OA
ATOM     68  O   UNL A   1      44.289  38.766  26.637  1.00  0.00    -0.237 OA
ATOM     69  O   UNL A   1      41.837  38.885  26.758  1.00  0.00    -0.744 OA
ENDBRANCH  63  66
ENDBRANCH  36  59
ENDBRANCH  10  11
ENDBRANCH   3   5
ENDBRANCH   2   3
ENDBRANCH   1   2
BRANCH   1  70
ATOM     70  C   UNL A   1      43.190  20.846  25.763  1.00  0.00     0.274 C 
BRANCH  70  71
ATOM     71  O   UNL A   1      43.337  21.830  24.719  1.00  0.00    -0.460 OA
BRANCH  71  72
ATOM     72  C   UNL A   1      43.998  22.970  25.078  1.00  0.00     0.335 C 
ATOM     73  O   UNL A   1      43.446  24.067  25.147  1.00  0.00    -0.249 OA
BRANCH  72  74
ATOM     74  C   UNL A   1      45.532  22.827  25.251  1.00  0.00     0.232 C 
ATOM     75  C   UNL A   1      46.421  23.826  24.547  1.00  0.00     0.087 C 
ATOM     76  O   UNL A   1      45.950  22.725  26.615  1.00  0.00    -0.355 OA
ATOM     77  C   UNL A   1      46.922  24.730  25.660  1.00  0.00     0.123 C 
ATOM     78  C   UNL A   1      46.773  23.866  26.978  1.00  0.00     0.186 C 
BRANCH  77  79
ATOM     79  C   UNL A   1      48.225  25.421  25.216  1.00  0.00    -0.013 A 
ATOM     80  C   UNL A   1      48.273  26.033  23.939  1.00  0.00     0.010 A 
ATOM     81  C   UNL A   1      49.415  25.460  25.940  1.00  0.00     0.010 A 
ATOM     82  C   UNL A   1      49.332  26.834  23.497  1.00  0.00     0.039 A 
ATOM     83  C   UNL A   1      50.537  26.154  25.432  1.00  0.00     0.039 A 
ATOM     84  C   UNL A   1      50.465  26.901  24.269  1.00  0.00     0.123 A 
ATOM     85  F   UNL A   1      51.511  27.635  23.864  1.00  0.00    -0.207 F 
ENDBRANCH  77  79
BRANCH  77  86
ATOM     86  O   UNL A   1      45.921  25.736  25.704  1.00  0.00    -0.382 OA
ATOM     87  H   UNL A   1      45.120  25.376  26.113  1.00  0.00     0.212 HD
ENDBRANCH  77  86
BRANCH  78  88
ATOM     88  C   UNL A   1      46.056  24.423  28.235  1.00  0.00    -0.016 A 
ATOM     89  C   UNL A   1      46.629  25.427  29.043  1.00  0.00     0.009 A 
ATOM     90  C   UNL A   1      44.774  23.992  28.620  1.00  0.00     0.009 A 
ATOM     91  C   UNL A   1      46.007  25.954  30.181  1.00  0.00     0.039 A 
ATOM     92  C   UNL A   1      44.153  24.486  29.786  1.00  0.00     0.039 A 
ATOM     93  C   UNL A   1      44.773  25.465  30.551  1.00  0.00     0.123 A 
ATOM     94  F   UNL A   1      44.181  25.943  31.655  1.00  0.00    -0.207 F 
ENDBRANCH  78  88
ENDBRANCH  72  74
ENDBRANCH  71  72
ENDBRANCH  70  71
ENDBRANCH   1  70
TORSDOF 17
ENDMDL
MODEL 2
REMARK VINA RESULT:     -10.5      5.986     12.766
REMARK SMILES O=C(OCCOC(=O)[C@H]1C[C@](O)(c2ccc(F)cc2)[C@@H](c2ccc(F)cc2)O1)c1ccc(-c2c3nc(c(-c4cccc(S(=O)(=O)[O-])c4F)c4ccc([nH]4)c(-c4cccc(S(=O)(=O)[O-])c4F)c4nc(c(-c5cccc(S(=O)(=O)[O-])c5F)c5ccc2[nH]5)C=C4)C=C3)cc1
REMARK SMILES IDX 4 1 3 2 2 3 1 4 29 5 30 6 91 7 31 8 90 9 32 10 33 11 34 12
REMARK SMILES IDX 84 13 35 14 89 15 83 16 85 17 36 18 88 19 82 20 81 21 37 23
REMARK SMILES IDX 69 24 49 25 68 26 50 27 53 28 67 29 86 30 51 31 52 32 66 34
REMARK SMILES IDX 87 35 54 36 38 37 39 38 47 39 40 40 42 41 48 42 41 43 43 44
REMARK SMILES IDX 44 45 45 46 46 47 70 48 71 49 79 50 72 51 74 52 80 53 73 54
REMARK SMILES IDX 75 55 76 56 77 57 78 58 55 59 56 60 64 61 57 62 59 63 65 64
REMARK SMILES IDX 58 65 60 66 61 67 62 68 63 69 5 70 6 71 7 72 8 73 9 74 10 75
REMARK SMILES IDX 28 76 11 77 20 78 13 79 14 80 19 81 15 82 18 83 16 84 17 85
REMARK SMILES IDX 12 86 21 88 22 89 27 90 23 91 26 92 24 93 25 94
REMARK H PARENT 85 22 53 33 12 87
REMARK Flexibility Score: inf
ROOT
ATOM      1  C   UNL A   1      31.957  32.741  26.611  1.00  0.00     0.275 C 
ENDROOT
BRANCH   1   2
ATOM      2  O   UNL A   1      32.155  33.508  27.797  1.00  0.00    -0.458 OA
BRANCH   2   3
ATOM      3  C   UNL A   1      33.316  34.025  28.251  1.00  0.00     0.338 C 
ATOM      4  O   UNL A   1      33.298  35.196  28.634  1.00  0.00    -0.246 OA
BRANCH   3   5
ATOM      5  C   UNL A   1      34.601  33.241  28.400  1.00  0.00     0.060 A 
ATOM      6  C   UNL A   1      35.906  33.570  27.989  1.00  0.00     0.016 A 
ATOM      7  C   UNL A   1      34.462  32.041  29.103  1.00  0.00     0.016 A 
ATOM      8  C   UNL A   1      37.049  32.832  28.421  1.00  0.00     0.010 A 
ATOM      9  C   UNL A   1      35.585  31.317  29.522  1.00  0.00     0.010 A 
ATOM     10  C   UNL A   1      36.909  31.737  29.271  1.00  0.00    -0.014 A 
BRANCH  10  11
ATOM     11  C   UNL A   1      38.016  30.951  29.936  1.00  0.00     0.031 A 
ATOM     12  C   UNL A   1      38.489  31.495  31.244  1.00  0.00     0.074 A 
ATOM     13  C   UNL A   1      38.728  29.923  29.396  1.00  0.00     0.049 A 
ATOM     14  N   UNL A   1      39.521  31.133  31.948  1.00  0.00    -0.248 NA
ATOM     15  C   UNL A   1      37.685  32.580  31.841  1.00  0.00     0.031 C 
ATOM     16  C   UNL A   1      38.355  29.148  28.228  1.00  0.00     0.029 A 
ATOM     17  N   UNL A   1      39.962  29.371  29.719  1.00  0.00    -0.354 N 
ATOM     18  C   UNL A   1      39.445  31.895  33.094  1.00  0.00     0.074 A 
ATOM     19  C   UNL A   1      38.403  32.875  32.908  1.00  0.00     0.031 C 
ATOM     20  C   UNL A   1      39.383  28.380  27.815  1.00  0.00     0.029 A 
ATOM     21  C   UNL A   1      40.479  28.506  28.756  1.00  0.00     0.049 A 
ATOM     22  H   UNL A   1      40.433  29.574  30.559  1.00  0.00     0.167 HD
ATOM     23  C   UNL A   1      40.082  31.696  34.263  1.00  0.00     0.034 A 
ATOM     24  C   UNL A   1      41.657  27.840  28.650  1.00  0.00     0.034 A 
ATOM     25  C   UNL A   1      41.103  30.717  34.459  1.00  0.00     0.049 A 
ATOM     26  C   UNL A   1      42.530  27.829  29.874  1.00  0.00     0.074 A 
ATOM     27  C   UNL A   1      41.775  30.407  35.621  1.00  0.00     0.029 A 
ATOM     28  N   UNL A   1      41.621  29.912  33.456  1.00  0.00    -0.354 N 
ATOM     29  N   UNL A   1      42.332  28.441  31.014  1.00  0.00    -0.248 NA
ATOM     30  C   UNL A   1      43.701  26.938  29.862  1.00  0.00     0.031 C 
ATOM     31  C   UNL A   1      42.741  29.448  35.312  1.00  0.00     0.029 A 
ATOM     32  C   UNL A   1      42.634  29.124  33.967  1.00  0.00     0.049 A 
ATOM     33  H   UNL A   1      41.314  29.902  32.521  1.00  0.00     0.167 HD
ATOM     34  C   UNL A   1      43.273  27.925  31.890  1.00  0.00     0.074 A 
ATOM     35  C   UNL A   1      44.082  26.990  31.133  1.00  0.00     0.031 C 
ATOM     36  C   UNL A   1      43.409  28.170  33.214  1.00  0.00     0.034 A 
BRANCH  23  37
ATOM     37  C   UNL A   1      39.594  32.526  35.404  1.00  0.00     0.023 A 
ATOM     38  C   UNL A   1      38.510  32.060  36.182  1.00  0.00     0.012 A 
ATOM     39  C   UNL A   1      40.135  33.795  35.641  1.00  0.00     0.148 A 
ATOM     40  C   UNL A   1      37.932  32.878  37.147  1.00  0.00     0.002 A 
ATOM     41  C   UNL A   1      39.587  34.585  36.639  1.00  0.00     0.091 A 
ATOM     42  F   UNL A   1      41.136  34.218  34.858  1.00  0.00    -0.205 F 
ATOM     43  C   UNL A   1      38.475  34.139  37.377  1.00  0.00     0.022 A 
BRANCH  41  44
ATOM     44  S   UNL A   1      40.238  36.202  37.050  1.00  0.00     0.127 S 
ATOM     45  O   UNL A   1      39.999  36.941  35.813  1.00  0.00    -0.237 OA
ATOM     46  O   UNL A   1      39.388  36.589  38.173  1.00  0.00    -0.237 OA
ATOM     47  O   UNL A   1      41.645  35.998  37.383  1.00  0.00    -0.744 OA
ENDBRANCH  41  44
ENDBRANCH  23  37
BRANCH  24  48
ATOM     48  C   UNL A   1      42.032  26.986  27.460  1.00  0.00     0.023 A 
ATOM     49  C   UNL A   1      42.554  27.562  26.288  1.00  0.00     0.012 A 
ATOM     50  C   UNL A   1      41.793  25.598  27.439  1.00  0.00     0.148 A 
ATOM     51  C   UNL A   1      42.835  26.777  25.155  1.00  0.00     0.002 A 
ATOM     52  C   UNL A   1      42.150  24.805  26.349  1.00  0.00     0.091 A 
ATOM     53  F   UNL A   1      41.107  25.072  28.447  1.00  0.00    -0.205 F 
ATOM     54  C   UNL A   1      42.659  25.396  25.192  1.00  0.00     0.022 A 
BRANCH  52  55
ATOM     55  S   UNL A   1      42.045  23.006  26.390  1.00  0.00     0.127 S 
ATOM     56  O   UNL A   1      40.605  22.783  26.488  1.00  0.00    -0.237 OA
ATOM     57  O   UNL A   1      42.640  22.643  25.104  1.00  0.00    -0.237 OA
ATOM     58  O   UNL A   1      42.834  22.601  27.547  1.00  0.00    -0.744 OA
ENDBRANCH  52  55
ENDBRANCH  24  48
BRANCH  36  59
ATOM     59  C   UNL A   1      44.425  27.377  33.980  1.00  0.00     0.023 A 
ATOM     60  C   UNL A   1      45.723  27.883  34.169  1.00  0.00     0.012 A 
ATOM     61  C   UNL A   1      44.025  26.202  34.648  1.00  0.00     0.148 A 
ATOM     62  C   UNL A   1      46.614  27.226  35.015  1.00  0.00     0.002 A 
ATOM     63  C   UNL A   1      44.894  25.591  35.538  1.00  0.00     0.091 A 
ATOM     64  F   UNL A   1      42.790  25.730  34.427  1.00  0.00    -0.205 F 
ATOM     65  C   UNL A   1      46.193  26.095  35.715  1.00  0.00     0.022 A 
BRANCH  63  66
ATOM     66  S   UNL A   1      44.390  24.221  36.583  1.00  0.00     0.127 S 
ATOM     67  O   UNL A   1      45.353  24.313  37.680  1.00  0.00    -0.237 OA
ATOM     68  O   UNL A   1      43.021  24.593  36.938  1.00  0.00    -0.237 OA
ATOM     69  O   UNL A   1      44.500  23.023  35.760  1.00  0.00    -0.744 OA
ENDBRANCH  63  66
ENDBRANCH  36  59
ENDBRANCH  10  11
ENDBRANCH   3   5
ENDBRANCH   2   3
ENDBRANCH   1   2
BRANCH   1  70
ATOM     70  C   UNL A   1      31.873  31.223  26.803  1.00  0.00     0.274 C 
BRANCH  70  71
ATOM     71  O   UNL A   1      33.089  30.492  26.544  1.00  0.00    -0.460 OA
BRANCH  71  72
ATOM     72  C   UNL A   1      32.976  29.132  26.595  1.00  0.00     0.335 C 
ATOM     73  O   UNL A   1      32.702  28.523  27.628  1.00  0.00    -0.249 OA
BRANCH  72  74
ATOM     74  C   UNL A   1      33.364  28.380  25.296  1.00  0.00     0.232 C 
ATOM     75  C   UNL A   1      33.190  26.879  25.266  1.00  0.00     0.087 C 
ATOM     76  O   UNL A   1      32.776  28.930  24.115  1.00  0.00    -0.355 OA
ATOM     77  C   UNL A   1      31.970  26.660  24.389  1.00  0.00     0.123 C 
ATOM     78  C   UNL A   1      31.871  27.971  23.505  1.00  0.00     0.186 C 
BRANCH  77  79
ATOM     79  C   UNL A   1      31.993  25.229  23.821  1.00  0.00    -0.013 A 
ATOM     80  C   UNL A   1      33.159  24.777  23.154  1.00  0.00     0.010 A 
ATOM     81  C   UNL A   1      30.932  24.325  23.845  1.00  0.00     0.010 A 
ATOM     82  C   UNL A   1      33.363  23.453  22.750  1.00  0.00     0.039 A 
ATOM     83  C   UNL A   1      31.091  23.026  23.311  1.00  0.00     0.039 A 
ATOM     84  C   UNL A   1      32.315  22.572  22.850  1.00  0.00     0.123 A 
ATOM     85  F   UNL A   1      32.464  21.302  22.447  1.00  0.00    -0.207 F 
ENDBRANCH  77  79
BRANCH  77  86
ATOM     86  O   UNL A   1      30.909  26.709  25.330  1.00  0.00    -0.382 OA
ATOM     87  H   UNL A   1      30.431  27.547  25.235  1.00  0.00     0.212 HD
ENDBRANCH  77  86
BRANCH  78  88
ATOM     88  C   UNL A   1      30.547  28.770  23.389  1.00  0.00    -0.016 A 
ATOM     89  C   UNL A   1      30.446  30.118  23.790  1.00  0.00     0.009 A 
ATOM     90  C   UNL A   1      29.380  28.211  22.837  1.00  0.00     0.009 A 
ATOM     91  C   UNL A   1      29.268  30.868  23.694  1.00  0.00     0.039 A 
ATOM     92  C   UNL A   1      28.176  28.944  22.771  1.00  0.00     0.039 A 
ATOM     93  C   UNL A   1      28.134  30.265  23.195  1.00  0.00     0.123 A 
ATOM     94  F   UNL A   1      26.993  30.966  23.126  1.00  0.00    -0.207 F 
ENDBRANCH  78  88
ENDBRANCH  72  74
ENDBRANCH  71  72
ENDBRANCH  70  71
ENDBRANCH   1  70
TORSDOF 17
ENDMDL
MODEL 3
REMARK VINA RESULT:     -10.5      5.847     12.667
REMARK SMILES O=C(OCCOC(=O)[C@H]1C[C@](O)(c2ccc(F)cc2)[C@@H](c2ccc(F)cc2)O1)c1ccc(-c2c3nc(c(-c4cccc(S(=O)(=O)[O-])c4F)c4ccc([nH]4)c(-c4cccc(S(=O)(=O)[O-])c4F)c4nc(c(-c5cccc(S(=O)(=O)[O-])c5F)c5ccc2[nH]5)C=C4)C=C3)cc1
REMARK SMILES IDX 4 1 3 2 2 3 1 4 29 5 30 6 91 7 31 8 90 9 32 10 33 11 34 12
REMARK SMILES IDX 84 13 35 14 89 15 83 16 85 17 36 18 88 19 82 20 81 21 37 23
REMARK SMILES IDX 69 24 49 25 68 26 50 27 53 28 67 29 86 30 51 31 52 32 66 34
REMARK SMILES IDX 87 35 54 36 38 37 39 38 47 39 40 40 42 41 48 42 41 43 43 44
REMARK SMILES IDX 44 45 45 46 46 47 70 48 71 49 79 50 72 51 74 52 80 53 73 54
REMARK SMILES IDX 75 55 76 56 77 57 78 58 55 59 56 60 64 61 57 62 59 63 65 64
REMARK SMILES IDX 58 65 60 66 61 67 62 68 63 69 5 70 6 71 7 72 8 73 9 74 10 75
REMARK SMILES IDX 28 76 11 77 20 78 13 79 14 80 19 81 15 82 18 83 16 84 17 85
REMARK SMILES IDX 12 86 21 88 22 89 27 90 23 91 26 92 24 93 25 94
REMARK H PARENT 85 22 53 33 12 87
REMARK Flexibility Score: inf
ROOT
ATOM      1  C   UNL A   1      32.203  33.230  26.820  1.00  0.00     0.275 C 
ENDROOT
BRANCH   1   2
ATOM      2  O   UNL A   1      32.302  33.975  28.032  1.00  0.00    -0.458 OA
BRANCH   2   3
ATOM      3  C   UNL A   1      33.429  34.326  28.687  1.00  0.00     0.338 C 
ATOM      4  O   UNL A   1      33.411  35.392  29.303  1.00  0.00    -0.246 OA
BRANCH   3   5
ATOM      5  C   UNL A   1      34.667  33.462  28.781  1.00  0.00     0.060 A 
ATOM      6  C   UNL A   1      35.937  33.649  28.204  1.00  0.00     0.016 A 
ATOM      7  C   UNL A   1      34.528  32.350  29.614  1.00  0.00     0.016 A 
ATOM      8  C   UNL A   1      37.069  32.869  28.587  1.00  0.00     0.010 A 
ATOM      9  C   UNL A   1      35.640  31.584  29.986  1.00  0.00     0.010 A 
ATOM     10  C   UNL A   1      36.952  31.875  29.556  1.00  0.00    -0.014 A 
BRANCH  10  11
ATOM     11  C   UNL A   1      38.072  31.072  30.180  1.00  0.00     0.031 A 
ATOM     12  C   UNL A   1      38.617  31.621  31.457  1.00  0.00     0.074 A 
ATOM     13  C   UNL A   1      38.736  30.021  29.621  1.00  0.00     0.049 A 
ATOM     14  N   UNL A   1      39.673  31.245  32.118  1.00  0.00    -0.248 NA
ATOM     15  C   UNL A   1      37.866  32.731  32.076  1.00  0.00     0.031 C 
ATOM     16  C   UNL A   1      38.293  29.241  28.482  1.00  0.00     0.029 A 
ATOM     17  N   UNL A   1      39.972  29.446  29.894  1.00  0.00    -0.354 N 
ATOM     18  C   UNL A   1      39.667  32.023  33.255  1.00  0.00     0.074 A 
ATOM     19  C   UNL A   1      38.639  33.023  33.105  1.00  0.00     0.031 C 
ATOM     20  C   UNL A   1      39.283  28.446  28.031  1.00  0.00     0.029 A 
ATOM     21  C   UNL A   1      40.424  28.559  28.919  1.00  0.00     0.049 A 
ATOM     22  H   UNL A   1      40.486  29.649  30.708  1.00  0.00     0.167 HD
ATOM     23  C   UNL A   1      40.354  31.824  34.396  1.00  0.00     0.034 A 
ATOM     24  C   UNL A   1      41.581  27.865  28.768  1.00  0.00     0.034 A 
ATOM     25  C   UNL A   1      41.361  30.824  34.557  1.00  0.00     0.049 A 
ATOM     26  C   UNL A   1      42.510  27.849  29.950  1.00  0.00     0.074 A 
ATOM     27  C   UNL A   1      42.079  30.514  35.691  1.00  0.00     0.029 A 
ATOM     28  N   UNL A   1      41.814  29.996  33.542  1.00  0.00    -0.354 N 
ATOM     29  N   UNL A   1      42.378  28.480  31.089  1.00  0.00    -0.248 NA
ATOM     30  C   UNL A   1      43.660  26.933  29.896  1.00  0.00     0.031 C 
ATOM     31  C   UNL A   1      43.009  29.530  35.350  1.00  0.00     0.029 A 
ATOM     32  C   UNL A   1      42.833  29.192  34.016  1.00  0.00     0.049 A 
ATOM     33  H   UNL A   1      41.464  29.982  32.622  1.00  0.00     0.167 HD
ATOM     34  C   UNL A   1      43.348  27.954  31.927  1.00  0.00     0.074 A 
ATOM     35  C   UNL A   1      44.101  26.992  31.147  1.00  0.00     0.031 C 
ATOM     36  C   UNL A   1      43.550  28.212  33.240  1.00  0.00     0.034 A 
BRANCH  23  37
ATOM     37  C   UNL A   1      39.937  32.678  35.547  1.00  0.00     0.023 A 
ATOM     38  C   UNL A   1      40.646  33.872  35.813  1.00  0.00     0.012 A 
ATOM     39  C   UNL A   1      38.922  32.256  36.413  1.00  0.00     0.148 A 
ATOM     40  C   UNL A   1      40.385  34.604  36.966  1.00  0.00     0.002 A 
ATOM     41  C   UNL A   1      38.632  33.018  37.533  1.00  0.00     0.091 A 
ATOM     42  F   UNL A   1      38.298  31.100  36.150  1.00  0.00    -0.205 F 
ATOM     43  C   UNL A   1      39.375  34.178  37.823  1.00  0.00     0.022 A 
BRANCH  41  44
ATOM     44  S   UNL A   1      37.322  32.588  38.676  1.00  0.00     0.127 S 
ATOM     45  O   UNL A   1      37.645  33.426  39.828  1.00  0.00    -0.237 OA
ATOM     46  O   UNL A   1      36.132  32.994  37.932  1.00  0.00    -0.237 OA
ATOM     47  O   UNL A   1      37.444  31.152  38.907  1.00  0.00    -0.744 OA
ENDBRANCH  41  44
ENDBRANCH  23  37
BRANCH  24  48
ATOM     48  C   UNL A   1      41.882  26.989  27.573  1.00  0.00     0.023 A 
ATOM     49  C   UNL A   1      42.433  27.527  26.397  1.00  0.00     0.012 A 
ATOM     50  C   UNL A   1      41.543  25.622  27.553  1.00  0.00     0.148 A 
ATOM     51  C   UNL A   1      42.645  26.727  25.260  1.00  0.00     0.002 A 
ATOM     52  C   UNL A   1      41.831  24.807  26.458  1.00  0.00     0.091 A 
ATOM     53  F   UNL A   1      40.830  25.145  28.567  1.00  0.00    -0.205 F 
ATOM     54  C   UNL A   1      42.370  25.361  25.297  1.00  0.00     0.022 A 
BRANCH  52  55
ATOM     55  S   UNL A   1      41.596  23.020  26.498  1.00  0.00     0.127 S 
ATOM     56  O   UNL A   1      42.202  22.657  27.775  1.00  0.00    -0.237 OA
ATOM     57  O   UNL A   1      40.138  22.910  26.451  1.00  0.00    -0.237 OA
ATOM     58  O   UNL A   1      42.269  22.517  25.306  1.00  0.00    -0.744 OA
ENDBRANCH  52  55
ENDBRANCH  24  48
BRANCH  36  59
ATOM     59  C   UNL A   1      44.584  27.406  33.969  1.00  0.00     0.023 A 
ATOM     60  C   UNL A   1      45.892  27.900  34.119  1.00  0.00     0.012 A 
ATOM     61  C   UNL A   1      44.195  26.231  34.643  1.00  0.00     0.148 A 
ATOM     62  C   UNL A   1      46.803  27.230  34.933  1.00  0.00     0.002 A 
ATOM     63  C   UNL A   1      45.087  25.607  35.502  1.00  0.00     0.091 A 
ATOM     64  F   UNL A   1      42.949  25.770  34.459  1.00  0.00    -0.205 F 
ATOM     65  C   UNL A   1      46.395  26.099  35.640  1.00  0.00     0.022 A 
BRANCH  63  66
ATOM     66  S   UNL A   1      44.605  24.235  36.554  1.00  0.00     0.127 S 
ATOM     67  O   UNL A   1      45.826  24.010  37.327  1.00  0.00    -0.237 OA
ATOM     68  O   UNL A   1      43.495  24.807  37.316  1.00  0.00    -0.237 OA
ATOM     69  O   UNL A   1      44.230  23.149  35.657  1.00  0.00    -0.744 OA
ENDBRANCH  63  66
ENDBRANCH  36  59
ENDBRANCH  10  11
ENDBRANCH   3   5
ENDBRANCH   2   3
ENDBRANCH   1   2
BRANCH   1  70
ATOM     70  C   UNL A   1      31.397  31.929  26.898  1.00  0.00     0.274 C 
BRANCH  70  71
ATOM     71  O   UNL A   1      31.797  30.889  25.983  1.00  0.00    -0.460 OA
BRANCH  71  72
ATOM     72  C   UNL A   1      32.771  30.049  26.443  1.00  0.00     0.335 C 
ATOM     73  O   UNL A   1      33.206  30.097  27.593  1.00  0.00    -0.249 OA
BRANCH  72  74
ATOM     74  C   UNL A   1      33.410  29.121  25.378  1.00  0.00     0.232 C 
ATOM     75  C   UNL A   1      33.760  27.708  25.786  1.00  0.00     0.087 C 
ATOM     76  O   UNL A   1      32.685  29.073  24.147  1.00  0.00    -0.355 OA
ATOM     77  C   UNL A   1      32.699  26.852  25.116  1.00  0.00     0.123 C 
ATOM     78  C   UNL A   1      32.171  27.735  23.913  1.00  0.00     0.186 C 
BRANCH  77  79
ATOM     79  C   UNL A   1      33.216  25.408  24.973  1.00  0.00    -0.013 A 
ATOM     80  C   UNL A   1      34.554  25.122  25.344  1.00  0.00     0.010 A 
ATOM     81  C   UNL A   1      32.501  24.334  24.447  1.00  0.00     0.010 A 
ATOM     82  C   UNL A   1      35.082  23.828  25.421  1.00  0.00     0.039 A 
ATOM     83  C   UNL A   1      33.084  23.047  24.395  1.00  0.00     0.039 A 
ATOM     84  C   UNL A   1      34.322  22.784  24.954  1.00  0.00     0.123 A 
ATOM     85  F   UNL A   1      34.806  21.535  24.986  1.00  0.00    -0.207 F 
ENDBRANCH  77  79
BRANCH  77  86
ATOM     86  O   UNL A   1      31.673  26.822  26.096  1.00  0.00    -0.382 OA
ATOM     87  H   UNL A   1      30.808  26.830  25.658  1.00  0.00     0.212 HD
ENDBRANCH  77  86
BRANCH  78  88
ATOM     88  C   UNL A   1      30.655  27.980  23.694  1.00  0.00    -0.016 A 
ATOM     89  C   UNL A   1      29.704  26.945  23.798  1.00  0.00     0.009 A 
ATOM     90  C   UNL A   1      30.134  29.258  23.421  1.00  0.00     0.009 A 
ATOM     91  C   UNL A   1      28.330  27.133  23.610  1.00  0.00     0.039 A 
ATOM     92  C   UNL A   1      28.756  29.454  23.191  1.00  0.00     0.039 A 
ATOM     93  C   UNL A   1      27.868  28.392  23.294  1.00  0.00     0.123 A 
ATOM     94  F   UNL A   1      26.557  28.578  23.083  1.00  0.00    -0.207 F 
ENDBRANCH  78  88
ENDBRANCH  72  74
ENDBRANCH  71  72
ENDBRANCH  70  71
ENDBRANCH   1  70
TORSDOF 17
ENDMDL
