MODEL 1
REMARK VINA RESULT:     -12.8      0.000      0.000
REMARK SMILES O=C(CN1C(=O)/C(=C\c2c(F)cccc2Cl)Oc2ccccc21)OCCOC(=O)c1ccc(-c2c3nc(c(-c4cccc(S(=O)(=O)[O-])c4F)c4ccc([nH]4)c(-c4cccc(S(=O)(=O)[O-])c4F)c4nc(c(-c5cccc(S(=O)(=O)[O-])c5F)c5ccc2[nH]5)C=C4)C=C3)cc1
REMARK SMILES IDX 26 1 25 2 24 3 2 4 1 5 3 6 4 7 5 8 23 9 6 10 7 11 18 12
REMARK SMILES IDX 22 13 8 14 17 15 19 16 21 17 20 18 9 19 10 20 15 21 11 22
REMARK SMILES IDX 12 23 14 24 16 25 13 26 27 27 28 28 29 29 30 30 31 31 92 32
REMARK SMILES IDX 32 33 91 34 33 35 34 36 35 37 85 38 36 39 90 40 84 41 86 42
REMARK SMILES IDX 37 43 89 44 83 45 82 46 38 48 70 49 50 50 69 51 51 52 54 53
REMARK SMILES IDX 68 54 87 55 52 56 53 57 67 59 88 60 55 61 39 62 40 63 48 64
REMARK SMILES IDX 41 65 43 66 49 67 42 68 44 69 45 70 46 71 47 72 71 73 72 74
REMARK SMILES IDX 80 75 73 76 75 77 81 78 74 79 76 80 77 81 78 82 79 83 56 84
REMARK SMILES IDX 57 85 65 86 58 87 60 88 66 89 59 90 61 91 62 92 63 93 64 94
REMARK H PARENT 86 47 54 58
REMARK Flexibility Score: inf
ROOT
ATOM      1  C   UNL A   1      32.125  29.127  27.278  1.00  0.00     0.275 C 
ENDROOT
BRANCH   1   2
ATOM      2  C   UNL A   1      31.385  27.821  27.590  1.00  0.00     0.274 C 
BRANCH   2   3
ATOM      3  O   UNL A   1      32.071  26.663  27.100  1.00  0.00    -0.461 OA
BRANCH   3   4
ATOM      4  C   UNL A   1      31.410  25.620  26.530  1.00  0.00     0.326 C 
ATOM      5  O   UNL A   1      31.442  24.526  27.086  1.00  0.00    -0.250 OA
BRANCH   4   6
ATOM      6  C   UNL A   1      30.747  25.855  25.163  1.00  0.00     0.248 C 
BRANCH   6   7
ATOM      7  N   UNL A   1      31.567  25.766  23.968  1.00  0.00    -0.291 N 
ATOM      8  C   UNL A   1      31.538  24.548  23.304  1.00  0.00     0.294 C 
ATOM      9  C   UNL A   1      32.463  26.787  23.526  1.00  0.00     0.088 A 
ATOM     10  O   UNL A   1      30.664  23.704  23.445  1.00  0.00    -0.265 OA
ATOM     11  C   UNL A   1      32.777  24.306  22.510  1.00  0.00     0.193 C 
ATOM     12  C   UNL A   1      33.185  26.578  22.336  1.00  0.00     0.151 A 
ATOM     13  C   UNL A   1      32.653  28.002  24.190  1.00  0.00     0.030 A 
ATOM     14  C   UNL A   1      33.543  23.232  22.773  1.00  0.00     0.065 C 
ATOM     15  O   UNL A   1      33.249  25.342  21.725  1.00  0.00    -0.449 OA
ATOM     16  C   UNL A   1      33.943  27.595  21.752  1.00  0.00     0.049 A 
ATOM     17  C   UNL A   1      33.417  29.024  23.613  1.00  0.00     0.002 A 
ATOM     18  C   UNL A   1      34.036  28.831  22.382  1.00  0.00     0.004 A 
BRANCH  14  19
ATOM     19  C   UNL A   1      33.196  22.255  23.817  1.00  0.00     0.033 A 
ATOM     20  C   UNL A   1      33.667  22.461  25.120  1.00  0.00     0.132 A 
ATOM     21  C   UNL A   1      32.529  21.053  23.526  1.00  0.00     0.051 A 
ATOM     22  F   UNL A   1      34.319  23.592  25.427  1.00  0.00    -0.206 F 
ATOM     23  C   UNL A   1      33.535  21.488  26.098  1.00  0.00     0.040 A 
ATOM     24  C   UNL A   1      32.360  20.087  24.517  1.00  0.00     0.021 A 
ATOM     25  Cl  UNL A   1      31.945  20.689  21.937  1.00  0.00    -0.084 Cl
ATOM     26  C   UNL A   1      32.885  20.303  25.792  1.00  0.00     0.005 A 
ENDBRANCH  14  19
ENDBRANCH   6   7
ENDBRANCH   4   6
ENDBRANCH   3   4
ENDBRANCH   2   3
ENDBRANCH   1   2
BRANCH   1  27
ATOM     27  O   UNL A   1      33.558  28.994  27.372  1.00  0.00    -0.458 OA
BRANCH  27  28
ATOM     28  C   UNL A   1      34.229  30.163  27.557  1.00  0.00     0.338 C 
ATOM     29  O   UNL A   1      33.764  31.279  27.381  1.00  0.00    -0.246 OA
BRANCH  28  30
ATOM     30  C   UNL A   1      35.578  29.939  28.143  1.00  0.00     0.060 A 
ATOM     31  C   UNL A   1      35.786  29.622  29.487  1.00  0.00     0.016 A 
ATOM     32  C   UNL A   1      36.677  29.996  27.280  1.00  0.00     0.016 A 
ATOM     33  C   UNL A   1      37.083  29.307  29.935  1.00  0.00     0.010 A 
ATOM     34  C   UNL A   1      37.963  29.659  27.728  1.00  0.00     0.010 A 
ATOM     35  C   UNL A   1      38.188  29.278  29.054  1.00  0.00    -0.014 A 
BRANCH  35  36
ATOM     36  C   UNL A   1      39.485  28.699  29.512  1.00  0.00     0.031 A 
ATOM     37  C   UNL A   1      40.340  29.256  30.605  1.00  0.00     0.074 A 
ATOM     38  C   UNL A   1      40.027  27.634  28.895  1.00  0.00     0.049 A 
ATOM     39  N   UNL A   1      40.939  28.588  31.558  1.00  0.00    -0.248 NA
ATOM     40  C   UNL A   1      40.603  30.696  30.635  1.00  0.00     0.031 C 
ATOM     41  C   UNL A   1      39.541  27.012  27.668  1.00  0.00     0.029 A 
ATOM     42  N   UNL A   1      41.154  26.920  29.219  1.00  0.00    -0.354 N 
ATOM     43  C   UNL A   1      41.453  29.547  32.413  1.00  0.00     0.074 A 
ATOM     44  C   UNL A   1      41.258  30.824  31.786  1.00  0.00     0.031 C 
ATOM     45  C   UNL A   1      40.387  26.026  27.323  1.00  0.00     0.029 A 
ATOM     46  C   UNL A   1      41.451  25.930  28.324  1.00  0.00     0.049 A 
ATOM     47  H   UNL A   1      41.697  27.105  30.019  1.00  0.00     0.167 HD
ATOM     48  C   UNL A   1      42.012  29.355  33.625  1.00  0.00     0.034 A 
ATOM     49  C   UNL A   1      42.462  25.040  28.324  1.00  0.00     0.034 A 
ATOM     50  C   UNL A   1      42.750  28.170  33.945  1.00  0.00     0.049 A 
ATOM     51  C   UNL A   1      43.411  24.967  29.488  1.00  0.00     0.074 A 
ATOM     52  C   UNL A   1      43.459  27.867  35.092  1.00  0.00     0.029 A 
ATOM     53  N   UNL A   1      43.061  27.204  33.005  1.00  0.00    -0.354 N 
ATOM     54  N   UNL A   1      43.358  25.599  30.636  1.00  0.00    -0.248 NA
ATOM     55  C   UNL A   1      44.538  24.028  29.376  1.00  0.00     0.031 C 
ATOM     56  C   UNL A   1      44.317  26.798  34.785  1.00  0.00     0.029 A 
ATOM     57  C   UNL A   1      44.085  26.411  33.473  1.00  0.00     0.049 A 
ATOM     58  H   UNL A   1      42.618  27.100  32.133  1.00  0.00     0.167 HD
ATOM     59  C   UNL A   1      44.417  25.109  31.396  1.00  0.00     0.074 A 
ATOM     60  C   UNL A   1      45.105  24.137  30.573  1.00  0.00     0.031 C 
ATOM     61  C   UNL A   1      44.769  25.431  32.667  1.00  0.00     0.034 A 
BRANCH  48  62
ATOM     62  C   UNL A   1      41.842  30.408  34.673  1.00  0.00     0.023 A 
ATOM     63  C   UNL A   1      42.992  31.160  35.005  1.00  0.00     0.012 A 
ATOM     64  C   UNL A   1      40.601  30.769  35.214  1.00  0.00     0.148 A 
ATOM     65  C   UNL A   1      42.907  32.265  35.849  1.00  0.00     0.002 A 
ATOM     66  C   UNL A   1      40.522  31.874  36.057  1.00  0.00     0.091 A 
ATOM     67  F   UNL A   1      39.528  30.036  34.886  1.00  0.00    -0.205 F 
ATOM     68  C   UNL A   1      41.670  32.626  36.369  1.00  0.00     0.022 A 
BRANCH  66  69
ATOM     69  S   UNL A   1      38.980  32.433  36.787  1.00  0.00     0.127 S 
ATOM     70  O   UNL A   1      39.437  33.537  37.631  1.00  0.00    -0.237 OA
ATOM     71  O   UNL A   1      38.215  32.840  35.610  1.00  0.00    -0.237 OA
ATOM     72  O   UNL A   1      38.446  31.290  37.515  1.00  0.00    -0.744 OA
ENDBRANCH  66  69
ENDBRANCH  48  62
BRANCH  49  73
ATOM     73  C   UNL A   1      42.556  24.100  27.181  1.00  0.00     0.023 A 
ATOM     74  C   UNL A   1      43.330  24.451  26.062  1.00  0.00     0.012 A 
ATOM     75  C   UNL A   1      41.982  22.816  27.262  1.00  0.00     0.148 A 
ATOM     76  C   UNL A   1      43.538  23.530  25.038  1.00  0.00     0.002 A 
ATOM     77  C   UNL A   1      42.225  21.893  26.256  1.00  0.00     0.091 A 
ATOM     78  F   UNL A   1      41.248  22.518  28.343  1.00  0.00    -0.205 F 
ATOM     79  C   UNL A   1      42.999  22.249  25.139  1.00  0.00     0.022 A 
BRANCH  77  80
ATOM     80  S   UNL A   1      41.665  20.189  26.352  1.00  0.00     0.127 S 
ATOM     81  O   UNL A   1      42.126  19.799  27.682  1.00  0.00    -0.237 OA
ATOM     82  O   UNL A   1      40.217  20.343  26.219  1.00  0.00    -0.237 OA
ATOM     83  O   UNL A   1      42.305  19.498  25.240  1.00  0.00    -0.744 OA
ENDBRANCH  77  80
ENDBRANCH  49  73
BRANCH  61  84
ATOM     84  C   UNL A   1      45.966  24.769  33.289  1.00  0.00     0.023 A 
ATOM     85  C   UNL A   1      47.202  25.444  33.314  1.00  0.00     0.012 A 
ATOM     86  C   UNL A   1      45.814  23.569  34.010  1.00  0.00     0.148 A 
ATOM     87  C   UNL A   1      48.269  24.933  34.054  1.00  0.00     0.002 A 
ATOM     88  C   UNL A   1      46.865  23.091  34.781  1.00  0.00     0.091 A 
ATOM     89  F   UNL A   1      44.630  22.941  33.957  1.00  0.00    -0.205 F 
ATOM     90  C   UNL A   1      48.095  23.770  34.802  1.00  0.00     0.022 A 
BRANCH  88  91
ATOM     91  S   UNL A   1      46.693  21.667  35.861  1.00  0.00     0.127 S 
ATOM     92  O   UNL A   1      48.051  21.522  36.383  1.00  0.00    -0.237 OA
ATOM     93  O   UNL A   1      45.710  22.135  36.839  1.00  0.00    -0.237 OA
ATOM     94  O   UNL A   1      46.231  20.573  35.016  1.00  0.00    -0.744 OA
ENDBRANCH  88  91
ENDBRANCH  61  84
ENDBRANCH  35  36
ENDBRANCH  28  30
ENDBRANCH  27  28
ENDBRANCH   1  27
TORSDOF 16
ENDMDL
MODEL 2
REMARK VINA RESULT:     -12.4      4.998     10.236
REMARK SMILES O=C(CN1C(=O)/C(=C\c2c(F)cccc2Cl)Oc2ccccc21)OCCOC(=O)c1ccc(-c2c3nc(c(-c4cccc(S(=O)(=O)[O-])c4F)c4ccc([nH]4)c(-c4cccc(S(=O)(=O)[O-])c4F)c4nc(c(-c5cccc(S(=O)(=O)[O-])c5F)c5ccc2[nH]5)C=C4)C=C3)cc1
REMARK SMILES IDX 26 1 25 2 24 3 2 4 1 5 3 6 4 7 5 8 23 9 6 10 7 11 18 12
REMARK SMILES IDX 22 13 8 14 17 15 19 16 21 17 20 18 9 19 10 20 15 21 11 22
REMARK SMILES IDX 12 23 14 24 16 25 13 26 27 27 28 28 29 29 30 30 31 31 92 32
REMARK SMILES IDX 32 33 91 34 33 35 34 36 35 37 85 38 36 39 90 40 84 41 86 42
REMARK SMILES IDX 37 43 89 44 83 45 82 46 38 48 70 49 50 50 69 51 51 52 54 53
REMARK SMILES IDX 68 54 87 55 52 56 53 57 67 59 88 60 55 61 39 62 40 63 48 64
REMARK SMILES IDX 41 65 43 66 49 67 42 68 44 69 45 70 46 71 47 72 71 73 72 74
REMARK SMILES IDX 80 75 73 76 75 77 81 78 74 79 76 80 77 81 78 82 79 83 56 84
REMARK SMILES IDX 57 85 65 86 58 87 60 88 66 89 59 90 61 91 62 92 63 93 64 94
REMARK H PARENT 86 47 54 58
REMARK Flexibility Score: inf
ROOT
ATOM      1  C   UNL A   1      38.706  20.291  25.311  1.00  0.00     0.275 C 
ENDROOT
BRANCH   1   2
ATOM      2  C   UNL A   1      37.390  20.898  24.813  1.00  0.00     0.274 C 
BRANCH   2   3
ATOM      3  O   UNL A   1      36.718  21.668  25.818  1.00  0.00    -0.461 OA
BRANCH   3   4
ATOM      4  C   UNL A   1      36.113  22.853  25.535  1.00  0.00     0.326 C 
ATOM      5  O   UNL A   1      36.813  23.816  25.237  1.00  0.00    -0.250 OA
BRANCH   4   6
ATOM      6  C   UNL A   1      34.588  22.936  25.709  1.00  0.00     0.248 C 
BRANCH   6   7
ATOM      7  N   UNL A   1      33.739  22.470  24.627  1.00  0.00    -0.291 N 
ATOM      8  C   UNL A   1      33.259  23.450  23.770  1.00  0.00     0.294 C 
ATOM      9  C   UNL A   1      33.289  21.122  24.478  1.00  0.00     0.088 A 
ATOM     10  O   UNL A   1      33.742  24.568  23.658  1.00  0.00    -0.265 OA
ATOM     11  C   UNL A   1      31.985  23.047  23.107  1.00  0.00     0.193 C 
ATOM     12  C   UNL A   1      32.484  20.802  23.368  1.00  0.00     0.151 A 
ATOM     13  C   UNL A   1      33.619  20.085  25.354  1.00  0.00     0.030 A 
ATOM     14  C   UNL A   1      30.876  23.789  23.279  1.00  0.00     0.065 C 
ATOM     15  O   UNL A   1      31.914  21.774  22.572  1.00  0.00    -0.449 OA
ATOM     16  C   UNL A   1      32.153  19.481  23.063  1.00  0.00     0.049 A 
ATOM     17  C   UNL A   1      33.286  18.758  25.057  1.00  0.00     0.002 A 
ATOM     18  C   UNL A   1      32.579  18.454  23.897  1.00  0.00     0.004 A 
BRANCH  14  19
ATOM     19  C   UNL A   1      30.868  25.015  24.094  1.00  0.00     0.033 A 
ATOM     20  C   UNL A   1      31.030  26.252  23.456  1.00  0.00     0.132 A 
ATOM     21  C   UNL A   1      30.846  24.981  25.498  1.00  0.00     0.051 A 
ATOM     22  F   UNL A   1      31.068  26.316  22.117  1.00  0.00    -0.206 F 
ATOM     23  C   UNL A   1      31.220  27.418  24.179  1.00  0.00     0.040 A 
ATOM     24  C   UNL A   1      30.999  26.157  26.231  1.00  0.00     0.021 A 
ATOM     25  Cl  UNL A   1      30.690  23.497  26.377  1.00  0.00    -0.084 Cl
ATOM     26  C   UNL A   1      31.208  27.366  25.565  1.00  0.00     0.005 A 
ENDBRANCH  14  19
ENDBRANCH   6   7
ENDBRANCH   4   6
ENDBRANCH   3   4
ENDBRANCH   2   3
ENDBRANCH   1   2
BRANCH   1  27
ATOM     27  O   UNL A   1      39.219  20.952  26.486  1.00  0.00    -0.458 OA
BRANCH  27  28
ATOM     28  C   UNL A   1      40.505  21.383  26.384  1.00  0.00     0.338 C 
ATOM     29  O   UNL A   1      41.374  20.859  25.702  1.00  0.00    -0.246 OA
BRANCH  28  30
ATOM     30  C   UNL A   1      40.713  22.673  27.096  1.00  0.00     0.060 A 
ATOM     31  C   UNL A   1      41.644  22.839  28.123  1.00  0.00     0.016 A 
ATOM     32  C   UNL A   1      39.971  23.778  26.666  1.00  0.00     0.016 A 
ATOM     33  C   UNL A   1      41.864  24.121  28.663  1.00  0.00     0.010 A 
ATOM     34  C   UNL A   1      40.211  25.056  27.193  1.00  0.00     0.010 A 
ATOM     35  C   UNL A   1      41.182  25.259  28.177  1.00  0.00    -0.014 A 
BRANCH  35  36
ATOM     36  C   UNL A   1      41.622  26.622  28.598  1.00  0.00     0.031 A 
ATOM     37  C   UNL A   1      43.025  27.132  28.534  1.00  0.00     0.074 A 
ATOM     38  C   UNL A   1      40.758  27.491  29.153  1.00  0.00     0.049 A 
ATOM     39  N   UNL A   1      43.420  28.309  28.115  1.00  0.00    -0.248 NA
ATOM     40  C   UNL A   1      44.113  26.281  29.019  1.00  0.00     0.031 C 
ATOM     41  C   UNL A   1      39.382  27.203  29.545  1.00  0.00     0.029 A 
ATOM     42  N   UNL A   1      40.954  28.798  29.522  1.00  0.00    -0.354 N 
ATOM     43  C   UNL A   1      44.802  28.243  28.081  1.00  0.00     0.074 A 
ATOM     44  C   UNL A   1      45.183  26.995  28.681  1.00  0.00     0.031 C 
ATOM     45  C   UNL A   1      38.867  28.296  30.133  1.00  0.00     0.029 A 
ATOM     46  C   UNL A   1      39.866  29.367  30.125  1.00  0.00     0.049 A 
ATOM     47  H   UNL A   1      41.799  29.280  29.369  1.00  0.00     0.167 HD
ATOM     48  C   UNL A   1      45.656  29.148  27.563  1.00  0.00     0.034 A 
ATOM     49  C   UNL A   1      39.696  30.614  30.603  1.00  0.00     0.034 A 
ATOM     50  C   UNL A   1      45.374  30.552  27.565  1.00  0.00     0.049 A 
ATOM     51  C   UNL A   1      40.764  31.655  30.409  1.00  0.00     0.074 A 
ATOM     52  C   UNL A   1      46.177  31.604  27.168  1.00  0.00     0.029 A 
ATOM     53  N   UNL A   1      44.280  31.095  28.214  1.00  0.00    -0.354 N 
ATOM     54  N   UNL A   1      41.872  31.579  29.712  1.00  0.00    -0.248 NA
ATOM     55  C   UNL A   1      40.541  32.968  31.033  1.00  0.00     0.031 C 
ATOM     56  C   UNL A   1      45.635  32.777  27.718  1.00  0.00     0.029 A 
ATOM     57  C   UNL A   1      44.470  32.447  28.394  1.00  0.00     0.049 A 
ATOM     58  H   UNL A   1      43.487  30.591  28.503  1.00  0.00     0.167 HD
ATOM     59  C   UNL A   1      42.459  32.840  29.779  1.00  0.00     0.074 A 
ATOM     60  C   UNL A   1      41.590  33.659  30.599  1.00  0.00     0.031 C 
ATOM     61  C   UNL A   1      43.605  33.275  29.198  1.00  0.00     0.034 A 
BRANCH  48  62
ATOM     62  C   UNL A   1      46.934  28.667  26.953  1.00  0.00     0.023 A 
ATOM     63  C   UNL A   1      48.040  28.539  27.823  1.00  0.00     0.012 A 
ATOM     64  C   UNL A   1      47.038  28.210  25.632  1.00  0.00     0.148 A 
ATOM     65  C   UNL A   1      49.228  27.951  27.392  1.00  0.00     0.002 A 
ATOM     66  C   UNL A   1      48.227  27.624  25.206  1.00  0.00     0.091 A 
ATOM     67  F   UNL A   1      45.976  28.348  24.827  1.00  0.00    -0.205 F 
ATOM     68  C   UNL A   1      49.318  27.487  26.085  1.00  0.00     0.022 A 
BRANCH  66  69
ATOM     69  S   UNL A   1      48.458  26.990  23.543  1.00  0.00     0.127 S 
ATOM     70  O   UNL A   1      47.880  25.650  23.656  1.00  0.00    -0.237 OA
ATOM     71  O   UNL A   1      47.673  27.930  22.745  1.00  0.00    -0.237 OA
ATOM     72  O   UNL A   1      49.895  27.014  23.303  1.00  0.00    -0.744 OA
ENDBRANCH  66  69
ENDBRANCH  48  62
BRANCH  49  73
ATOM     73  C   UNL A   1      38.404  30.934  31.255  1.00  0.00     0.023 A 
ATOM     74  C   UNL A   1      38.256  30.722  32.636  1.00  0.00     0.012 A 
ATOM     75  C   UNL A   1      37.373  31.563  30.528  1.00  0.00     0.148 A 
ATOM     76  C   UNL A   1      37.099  31.140  33.289  1.00  0.00     0.002 A 
ATOM     77  C   UNL A   1      36.240  32.009  31.192  1.00  0.00     0.091 A 
ATOM     78  F   UNL A   1      37.548  31.746  29.212  1.00  0.00    -0.205 F 
ATOM     79  C   UNL A   1      36.098  31.794  32.573  1.00  0.00     0.022 A 
BRANCH  77  80
ATOM     80  S   UNL A   1      34.951  32.956  30.376  1.00  0.00     0.127 S 
ATOM     81  O   UNL A   1      34.447  31.993  29.400  1.00  0.00    -0.237 OA
ATOM     82  O   UNL A   1      34.043  33.243  31.487  1.00  0.00    -0.237 OA
ATOM     83  O   UNL A   1      35.612  34.127  29.815  1.00  0.00    -0.744 OA
ENDBRANCH  77  80
ENDBRANCH  49  73
BRANCH  61  84
ATOM     84  C   UNL A   1      44.049  34.693  29.416  1.00  0.00     0.023 A 
ATOM     85  C   UNL A   1      45.002  34.980  30.413  1.00  0.00     0.012 A 
ATOM     86  C   UNL A   1      43.664  35.701  28.511  1.00  0.00     0.148 A 
ATOM     87  C   UNL A   1      45.569  36.252  30.501  1.00  0.00     0.002 A 
ATOM     88  C   UNL A   1      44.267  36.951  28.575  1.00  0.00     0.091 A 
ATOM     89  F   UNL A   1      42.745  35.404  27.581  1.00  0.00    -0.205 F 
ATOM     90  C   UNL A   1      45.217  37.230  29.572  1.00  0.00     0.022 A 
BRANCH  88  91
ATOM     91  S   UNL A   1      43.957  38.229  27.352  1.00  0.00     0.127 S 
ATOM     92  O   UNL A   1      43.760  39.407  28.196  1.00  0.00    -0.237 OA
ATOM     93  O   UNL A   1      45.201  38.231  26.582  1.00  0.00    -0.237 OA
ATOM     94  O   UNL A   1      42.784  37.796  26.605  1.00  0.00    -0.744 OA
ENDBRANCH  88  91
ENDBRANCH  61  84
ENDBRANCH  35  36
ENDBRANCH  28  30
ENDBRANCH  27  28
ENDBRANCH   1  27
TORSDOF 16
ENDMDL
MODEL 3
REMARK VINA RESULT:     -12.3      1.309      2.985
REMARK SMILES O=C(CN1C(=O)/C(=C\c2c(F)cccc2Cl)Oc2ccccc21)OCCOC(=O)c1ccc(-c2c3nc(c(-c4cccc(S(=O)(=O)[O-])c4F)c4ccc([nH]4)c(-c4cccc(S(=O)(=O)[O-])c4F)c4nc(c(-c5cccc(S(=O)(=O)[O-])c5F)c5ccc2[nH]5)C=C4)C=C3)cc1
REMARK SMILES IDX 26 1 25 2 24 3 2 4 1 5 3 6 4 7 5 8 23 9 6 10 7 11 18 12
REMARK SMILES IDX 22 13 8 14 17 15 19 16 21 17 20 18 9 19 10 20 15 21 11 22
REMARK SMILES IDX 12 23 14 24 16 25 13 26 27 27 28 28 29 29 30 30 31 31 92 32
REMARK SMILES IDX 32 33 91 34 33 35 34 36 35 37 85 38 36 39 90 40 84 41 86 42
REMARK SMILES IDX 37 43 89 44 83 45 82 46 38 48 70 49 50 50 69 51 51 52 54 53
REMARK SMILES IDX 68 54 87 55 52 56 53 57 67 59 88 60 55 61 39 62 40 63 48 64
REMARK SMILES IDX 41 65 43 66 49 67 42 68 44 69 45 70 46 71 47 72 71 73 72 74
REMARK SMILES IDX 80 75 73 76 75 77 81 78 74 79 76 80 77 81 78 82 79 83 56 84
REMARK SMILES IDX 57 85 65 86 58 87 60 88 66 89 59 90 61 91 62 92 63 93 64 94
REMARK H PARENT 86 47 54 58
REMARK Flexibility Score: inf
ROOT
ATOM      1  C   UNL A   1      32.531  28.769  27.285  1.00  0.00     0.275 C 
ENDROOT
BRANCH   1   2
ATOM      2  C   UNL A   1      31.915  27.684  26.394  1.00  0.00     0.274 C 
BRANCH   2   3
ATOM      3  O   UNL A   1      31.277  26.645  27.145  1.00  0.00    -0.461 OA
BRANCH   3   4
ATOM      4  C   UNL A   1      31.307  25.345  26.748  1.00  0.00     0.326 C 
ATOM      5  O   UNL A   1      30.255  24.713  26.717  1.00  0.00    -0.250 OA
BRANCH   4   6
ATOM      6  C   UNL A   1      32.680  24.716  26.461  1.00  0.00     0.248 C 
BRANCH   6   7
ATOM      7  N   UNL A   1      32.954  24.227  25.121  1.00  0.00    -0.291 N 
ATOM      8  C   UNL A   1      33.379  25.180  24.206  1.00  0.00     0.294 C 
ATOM      9  C   UNL A   1      32.701  22.891  24.682  1.00  0.00     0.088 A 
ATOM     10  O   UNL A   1      33.840  26.271  24.507  1.00  0.00    -0.265 OA
ATOM     11  C   UNL A   1      33.065  24.792  22.800  1.00  0.00     0.193 C 
ATOM     12  C   UNL A   1      33.034  22.546  23.358  1.00  0.00     0.151 A 
ATOM     13  C   UNL A   1      32.164  21.889  25.494  1.00  0.00     0.030 A 
ATOM     14  C   UNL A   1      32.281  25.583  22.045  1.00  0.00     0.065 C 
ATOM     15  O   UNL A   1      33.355  23.497  22.411  1.00  0.00    -0.449 OA
ATOM     16  C   UNL A   1      32.979  21.225  22.912  1.00  0.00     0.049 A 
ATOM     17  C   UNL A   1      32.101  20.562  25.051  1.00  0.00     0.002 A 
ATOM     18  C   UNL A   1      32.536  20.226  23.772  1.00  0.00     0.004 A 
BRANCH  14  19
ATOM     19  C   UNL A   1      31.723  26.848  22.549  1.00  0.00     0.033 A 
ATOM     20  C   UNL A   1      30.421  26.856  23.065  1.00  0.00     0.132 A 
ATOM     21  C   UNL A   1      32.395  28.074  22.402  1.00  0.00     0.051 A 
ATOM     22  F   UNL A   1      29.749  25.704  23.205  1.00  0.00    -0.206 F 
ATOM     23  C   UNL A   1      29.775  28.041  23.378  1.00  0.00     0.040 A 
ATOM     24  C   UNL A   1      31.763  29.266  22.751  1.00  0.00     0.021 A 
ATOM     25  Cl  UNL A   1      33.991  28.171  21.738  1.00  0.00    -0.084 Cl
ATOM     26  C   UNL A   1      30.446  29.243  23.216  1.00  0.00     0.005 A 
ENDBRANCH  14  19
ENDBRANCH   6   7
ENDBRANCH   4   6
ENDBRANCH   3   4
ENDBRANCH   2   3
ENDBRANCH   1   2
BRANCH   1  27
ATOM     27  O   UNL A   1      33.849  29.168  26.851  1.00  0.00    -0.458 OA
BRANCH  27  28
ATOM     28  C   UNL A   1      34.341  30.276  27.467  1.00  0.00     0.338 C 
ATOM     29  O   UNL A   1      33.736  31.327  27.620  1.00  0.00    -0.246 OA
BRANCH  28  30
ATOM     30  C   UNL A   1      35.677  30.024  28.070  1.00  0.00     0.060 A 
ATOM     31  C   UNL A   1      35.860  29.686  29.412  1.00  0.00     0.016 A 
ATOM     32  C   UNL A   1      36.791  30.079  27.225  1.00  0.00     0.016 A 
ATOM     33  C   UNL A   1      37.145  29.346  29.877  1.00  0.00     0.010 A 
ATOM     34  C   UNL A   1      38.065  29.717  27.689  1.00  0.00     0.010 A 
ATOM     35  C   UNL A   1      38.263  29.314  29.012  1.00  0.00    -0.014 A 
BRANCH  35  36
ATOM     36  C   UNL A   1      39.545  28.710  29.482  1.00  0.00     0.031 A 
ATOM     37  C   UNL A   1      40.396  29.246  30.588  1.00  0.00     0.074 A 
ATOM     38  C   UNL A   1      40.076  27.640  28.865  1.00  0.00     0.049 A 
ATOM     39  N   UNL A   1      40.972  28.562  31.545  1.00  0.00    -0.248 NA
ATOM     40  C   UNL A   1      40.683  30.681  30.631  1.00  0.00     0.031 C 
ATOM     41  C   UNL A   1      39.594  27.033  27.628  1.00  0.00     0.029 A 
ATOM     42  N   UNL A   1      41.187  26.905  29.198  1.00  0.00    -0.354 N 
ATOM     43  C   UNL A   1      41.492  29.507  32.412  1.00  0.00     0.074 A 
ATOM     44  C   UNL A   1      41.326  30.791  31.790  1.00  0.00     0.031 C 
ATOM     45  C   UNL A   1      40.427  26.036  27.287  1.00  0.00     0.029 A 
ATOM     46  C   UNL A   1      41.477  25.915  28.301  1.00  0.00     0.049 A 
ATOM     47  H   UNL A   1      41.723  27.075  30.005  1.00  0.00     0.167 HD
ATOM     48  C   UNL A   1      42.033  29.297  33.628  1.00  0.00     0.034 A 
ATOM     49  C   UNL A   1      42.473  25.008  28.306  1.00  0.00     0.034 A 
ATOM     50  C   UNL A   1      42.747  28.098  33.950  1.00  0.00     0.049 A 
ATOM     51  C   UNL A   1      43.407  24.912  29.481  1.00  0.00     0.074 A 
ATOM     52  C   UNL A   1      43.437  27.776  35.103  1.00  0.00     0.029 A 
ATOM     53  N   UNL A   1      43.053  27.133  33.008  1.00  0.00    -0.354 N 
ATOM     54  N   UNL A   1      43.351  25.538  30.632  1.00  0.00    -0.248 NA
ATOM     55  C   UNL A   1      44.519  23.955  29.376  1.00  0.00     0.031 C 
ATOM     56  C   UNL A   1      44.281  26.695  34.800  1.00  0.00     0.029 A 
ATOM     57  C   UNL A   1      44.058  26.320  33.483  1.00  0.00     0.049 A 
ATOM     58  H   UNL A   1      42.618  27.042  32.130  1.00  0.00     0.167 HD
ATOM     59  C   UNL A   1      44.392  25.025  31.402  1.00  0.00     0.074 A 
ATOM     60  C   UNL A   1      45.073  24.046  30.581  1.00  0.00     0.031 C 
ATOM     61  C   UNL A   1      44.735  25.334  32.679  1.00  0.00     0.034 A 
BRANCH  48  62
ATOM     62  C   UNL A   1      41.869  30.347  34.681  1.00  0.00     0.023 A 
ATOM     63  C   UNL A   1      43.033  31.058  35.051  1.00  0.00     0.012 A 
ATOM     64  C   UNL A   1      40.626  30.745  35.191  1.00  0.00     0.148 A 
ATOM     65  C   UNL A   1      42.960  32.159  35.903  1.00  0.00     0.002 A 
ATOM     66  C   UNL A   1      40.559  31.844  36.042  1.00  0.00     0.091 A 
ATOM     67  F   UNL A   1      39.539  30.050  34.827  1.00  0.00    -0.205 F 
ATOM     68  C   UNL A   1      41.722  32.556  36.392  1.00  0.00     0.022 A 
BRANCH  66  69
ATOM     69  S   UNL A   1      39.017  32.447  36.734  1.00  0.00     0.127 S 
ATOM     70  O   UNL A   1      38.506  31.251  37.403  1.00  0.00    -0.237 OA
ATOM     71  O   UNL A   1      39.477  33.502  37.635  1.00  0.00    -0.237 OA
ATOM     72  O   UNL A   1      38.220  32.897  35.600  1.00  0.00    -0.744 OA
ENDBRANCH  66  69
ENDBRANCH  48  62
BRANCH  49  73
ATOM     73  C   UNL A   1      42.565  24.074  27.159  1.00  0.00     0.023 A 
ATOM     74  C   UNL A   1      43.319  24.439  26.031  1.00  0.00     0.012 A 
ATOM     75  C   UNL A   1      42.010  22.782  27.243  1.00  0.00     0.148 A 
ATOM     76  C   UNL A   1      43.526  23.525  25.000  1.00  0.00     0.002 A 
ATOM     77  C   UNL A   1      42.252  21.865  26.231  1.00  0.00     0.091 A 
ATOM     78  F   UNL A   1      41.294  22.470  28.332  1.00  0.00    -0.205 F 
ATOM     79  C   UNL A   1      43.006  22.236  25.105  1.00  0.00     0.022 A 
BRANCH  77  80
ATOM     80  S   UNL A   1      41.717  20.153  26.327  1.00  0.00     0.127 S 
ATOM     81  O   UNL A   1      40.267  20.289  26.220  1.00  0.00    -0.237 OA
ATOM     82  O   UNL A   1      42.371  19.569  25.156  1.00  0.00    -0.237 OA
ATOM     83  O   UNL A   1      42.207  19.656  27.606  1.00  0.00    -0.744 OA
ENDBRANCH  77  80
ENDBRANCH  49  73
BRANCH  61  84
ATOM     84  C   UNL A   1      45.912  24.647  33.311  1.00  0.00     0.023 A 
ATOM     85  C   UNL A   1      47.168  25.286  33.322  1.00  0.00     0.012 A 
ATOM     86  C   UNL A   1      45.726  23.465  34.053  1.00  0.00     0.148 A 
ATOM     87  C   UNL A   1      48.220  24.757  34.070  1.00  0.00     0.002 A 
ATOM     88  C   UNL A   1      46.764  22.970  34.831  1.00  0.00     0.091 A 
ATOM     89  F   UNL A   1      44.524  22.871  34.012  1.00  0.00    -0.205 F 
ATOM     90  C   UNL A   1      48.014  23.612  34.838  1.00  0.00     0.022 A 
BRANCH  88  91
ATOM     91  S   UNL A   1      46.552  21.570  35.936  1.00  0.00     0.127 S 
ATOM     92  O   UNL A   1      45.667  22.129  36.958  1.00  0.00    -0.237 OA
ATOM     93  O   UNL A   1      45.926  20.576  35.063  1.00  0.00    -0.237 OA
ATOM     94  O   UNL A   1      47.887  21.214  36.397  1.00  0.00    -0.744 OA
ENDBRANCH  88  91
ENDBRANCH  61  84
ENDBRANCH  35  36
ENDBRANCH  28  30
ENDBRANCH  27  28
ENDBRANCH   1  27
TORSDOF 16
ENDMDL
