MODEL 1
REMARK VINA RESULT:     -12.5      0.000      0.000
REMARK SMILES CCc1cc(N2CCC[C@H](C(=O)OCCOC(=O)c3ccc(-c4c5nc(c(-c6cccc(S(=O)(=O)[O-])c6F)c6ccc([nH]6)c(-c6cccc(S(=O)(=O)[O-])c6F)c6nc(c(-c7cccc(S(=O)(=O)[O-])c7F)c7ccc4[nH]7)C=C6)C=C5)cc3)C2)nc(-c2ccc(Cl)cc2)n1
REMARK SMILES IDX 15 1 14 2 13 3 11 4 12 5 10 6 6 7 7 8 82 9 8 10 9 11 5 12
REMARK SMILES IDX 3 13 4 14 92 15 84 16 83 17 2 18 1 19 85 20 86 21 91 22
REMARK SMILES IDX 87 23 90 24 88 25 89 26 16 27 17 28 18 29 19 30 20 31 81 32
REMARK SMILES IDX 21 33 80 34 22 35 23 36 24 37 74 38 25 39 79 40 73 41 75 42
REMARK SMILES IDX 26 43 78 44 72 45 71 46 27 48 59 49 39 50 58 51 40 52 43 53
REMARK SMILES IDX 57 54 76 55 41 56 42 57 56 59 77 60 44 61 28 62 29 63 37 64
REMARK SMILES IDX 30 65 32 66 38 67 31 68 33 69 34 70 35 71 36 72 60 73 61 74
REMARK SMILES IDX 69 75 62 76 64 77 70 78 63 79 65 80 66 81 67 82 68 83 45 84
REMARK SMILES IDX 46 85 54 86 47 87 49 88 55 89 48 90 50 91 51 92 52 93 53 94
REMARK H PARENT 75 47 43 58
REMARK Flexibility Score: inf
ROOT
ATOM      1  C   UNL A   1      31.652  29.917  26.331  1.00  0.00     0.275 C 
ENDROOT
BRANCH   1   2
ATOM      2  C   UNL A   1      31.695  28.435  26.698  1.00  0.00     0.274 C 
BRANCH   2   3
ATOM      3  O   UNL A   1      31.637  27.617  25.519  1.00  0.00    -0.462 OA
BRANCH   3   4
ATOM      4  C   UNL A   1      30.823  26.533  25.539  1.00  0.00     0.310 C 
ATOM      5  O   UNL A   1      30.754  25.726  26.459  1.00  0.00    -0.252 OA
BRANCH   4   6
ATOM      6  C   UNL A   1      29.973  26.411  24.283  1.00  0.00     0.118 C 
ATOM      7  N   UNL A   1      31.443  24.913  23.029  1.00  0.00    -0.356 N 
ATOM      8  C   UNL A   1      31.777  25.890  22.002  1.00  0.00     0.118 C 
ATOM      9  C   UNL A   1      30.148  25.017  23.693  1.00  0.00     0.133 C 
ATOM     10  C   UNL A   1      31.520  27.322  22.464  1.00  0.00     0.022 C 
ATOM     11  C   UNL A   1      30.192  27.483  23.210  1.00  0.00     0.019 C 
BRANCH   7  12
ATOM     12  C   UNL A   1      32.426  24.136  23.619  1.00  0.00     0.132 A 
ATOM     13  C   UNL A   1      34.480  24.003  24.802  1.00  0.00     0.046 A 
ATOM     14  C   UNL A   1      33.531  24.771  24.164  1.00  0.00     0.070 A 
ATOM     15  N   UNL A   1      34.378  22.666  24.852  1.00  0.00    -0.233 NA
ATOM     16  C   UNL A   1      33.307  22.121  24.247  1.00  0.00     0.161 A 
ATOM     17  N   UNL A   1      32.301  22.799  23.658  1.00  0.00    -0.211 NA
BRANCH  13  18
ATOM     18  C   UNL A   1      35.700  24.619  25.434  1.00  0.00     0.053 C 
ATOM     19  C   UNL A   1      36.921  23.708  25.442  1.00  0.00     0.011 C 
ENDBRANCH  13  18
BRANCH  16  20
ATOM     20  C   UNL A   1      33.302  20.658  24.170  1.00  0.00     0.019 A 
ATOM     21  C   UNL A   1      34.323  19.899  24.764  1.00  0.00     0.013 A 
ATOM     22  C   UNL A   1      32.324  19.980  23.421  1.00  0.00     0.013 A 
ATOM     23  C   UNL A   1      34.360  18.507  24.626  1.00  0.00     0.021 A 
ATOM     24  C   UNL A   1      32.356  18.589  23.279  1.00  0.00     0.021 A 
ATOM     25  C   UNL A   1      33.375  17.859  23.884  1.00  0.00     0.041 A 
ATOM     26  Cl  UNL A   1      33.433  16.149  23.697  1.00  0.00    -0.084 Cl
ENDBRANCH  16  20
ENDBRANCH   7  12
ENDBRANCH   4   6
ENDBRANCH   3   4
ENDBRANCH   2   3
ENDBRANCH   1   2
BRANCH   1  27
ATOM     27  O   UNL A   1      32.976  30.437  26.153  1.00  0.00    -0.458 OA
BRANCH  27  28
ATOM     28  C   UNL A   1      33.304  31.443  26.997  1.00  0.00     0.338 C 
ATOM     29  O   UNL A   1      32.616  32.390  27.335  1.00  0.00    -0.246 OA
BRANCH  28  30
ATOM     30  C   UNL A   1      34.610  31.151  27.596  1.00  0.00     0.060 A 
ATOM     31  C   UNL A   1      34.879  29.833  27.967  1.00  0.00     0.016 A 
ATOM     32  C   UNL A   1      35.525  32.171  27.853  1.00  0.00     0.016 A 
ATOM     33  C   UNL A   1      36.064  29.520  28.618  1.00  0.00     0.010 A 
ATOM     34  C   UNL A   1      36.716  31.858  28.508  1.00  0.00     0.010 A 
ATOM     35  C   UNL A   1      36.981  30.536  28.910  1.00  0.00    -0.014 A 
BRANCH  35  36
ATOM     36  C   UNL A   1      38.192  30.228  29.699  1.00  0.00     0.031 A 
ATOM     37  C   UNL A   1      39.201  29.263  29.152  1.00  0.00     0.074 A 
ATOM     38  C   UNL A   1      38.360  30.789  30.908  1.00  0.00     0.049 A 
ATOM     39  N   UNL A   1      40.272  28.779  29.721  1.00  0.00    -0.248 NA
ATOM     40  C   UNL A   1      38.966  28.770  27.785  1.00  0.00     0.031 C 
ATOM     41  C   UNL A   1      37.437  31.738  31.532  1.00  0.00     0.029 A 
ATOM     42  N   UNL A   1      39.347  30.615  31.842  1.00  0.00    -0.354 N 
ATOM     43  C   UNL A   1      40.810  27.882  28.807  1.00  0.00     0.074 A 
ATOM     44  C   UNL A   1      39.952  27.896  27.642  1.00  0.00     0.031 C 
ATOM     45  C   UNL A   1      37.883  32.035  32.762  1.00  0.00     0.029 A 
ATOM     46  C   UNL A   1      39.100  31.272  33.024  1.00  0.00     0.049 A 
ATOM     47  H   UNL A   1      40.153  30.072  31.682  1.00  0.00     0.167 HD
ATOM     48  C   UNL A   1      41.924  27.124  28.929  1.00  0.00     0.034 A 
ATOM     49  C   UNL A   1      39.762  31.233  34.196  1.00  0.00     0.034 A 
ATOM     50  C   UNL A   1      42.792  27.153  30.075  1.00  0.00     0.049 A 
ATOM     51  C   UNL A   1      41.009  30.398  34.300  1.00  0.00     0.074 A 
ATOM     52  C   UNL A   1      43.986  26.483  30.269  1.00  0.00     0.029 A 
ATOM     53  N   UNL A   1      42.553  27.887  31.227  1.00  0.00    -0.354 N 
ATOM     54  N   UNL A   1      41.575  29.646  33.386  1.00  0.00    -0.248 NA
ATOM     55  C   UNL A   1      41.723  30.426  35.584  1.00  0.00     0.031 C 
ATOM     56  C   UNL A   1      44.460  26.800  31.547  1.00  0.00     0.029 A 
ATOM     57  C   UNL A   1      43.569  27.679  32.143  1.00  0.00     0.049 A 
ATOM     58  H   UNL A   1      41.774  28.472  31.373  1.00  0.00     0.167 HD
ATOM     59  C   UNL A   1      42.722  29.128  33.975  1.00  0.00     0.074 A 
ATOM     60  C   UNL A   1      42.782  29.672  35.317  1.00  0.00     0.031 C 
ATOM     61  C   UNL A   1      43.634  28.266  33.458  1.00  0.00     0.034 A 
BRANCH  48  62
ATOM     62  C   UNL A   1      42.271  26.214  27.782  1.00  0.00     0.023 A 
ATOM     63  C   UNL A   1      43.084  26.688  26.733  1.00  0.00     0.012 A 
ATOM     64  C   UNL A   1      41.809  24.884  27.752  1.00  0.00     0.148 A 
ATOM     65  C   UNL A   1      43.405  25.864  25.655  1.00  0.00     0.002 A 
ATOM     66  C   UNL A   1      42.164  24.057  26.692  1.00  0.00     0.091 A 
ATOM     67  F   UNL A   1      41.009  24.459  28.740  1.00  0.00    -0.205 F 
ATOM     68  C   UNL A   1      42.952  24.547  25.638  1.00  0.00     0.022 A 
BRANCH  66  69
ATOM     69  S   UNL A   1      41.681  22.328  26.629  1.00  0.00     0.127 S 
ATOM     70  O   UNL A   1      40.223  22.428  26.596  1.00  0.00    -0.237 OA
ATOM     71  O   UNL A   1      42.289  21.877  25.376  1.00  0.00    -0.237 OA
ATOM     72  O   UNL A   1      42.248  21.718  27.823  1.00  0.00    -0.744 OA
ENDBRANCH  66  69
ENDBRANCH  48  62
BRANCH  49  73
ATOM     73  C   UNL A   1      39.259  32.038  35.342  1.00  0.00     0.023 A 
ATOM     74  C   UNL A   1      38.379  31.452  36.269  1.00  0.00     0.012 A 
ATOM     75  C   UNL A   1      39.716  33.353  35.563  1.00  0.00     0.148 A 
ATOM     76  C   UNL A   1      37.953  32.163  37.392  1.00  0.00     0.002 A 
ATOM     77  C   UNL A   1      39.332  34.036  36.710  1.00  0.00     0.091 A 
ATOM     78  F   UNL A   1      40.542  33.898  34.658  1.00  0.00    -0.205 F 
ATOM     79  C   UNL A   1      38.440  33.447  37.619  1.00  0.00     0.022 A 
BRANCH  77  80
ATOM     80  S   UNL A   1      40.018  35.636  37.157  1.00  0.00     0.127 S 
ATOM     81  O   UNL A   1      39.651  36.451  36.003  1.00  0.00    -0.237 OA
ATOM     82  O   UNL A   1      39.287  35.943  38.387  1.00  0.00    -0.237 OA
ATOM     83  O   UNL A   1      41.444  35.414  37.347  1.00  0.00    -0.744 OA
ENDBRANCH  77  80
ENDBRANCH  49  73
BRANCH  61  84
ATOM     84  C   UNL A   1      44.785  27.863  34.340  1.00  0.00     0.023 A 
ATOM     85  C   UNL A   1      45.951  28.651  34.363  1.00  0.00     0.012 A 
ATOM     86  C   UNL A   1      44.678  26.756  35.205  1.00  0.00     0.148 A 
ATOM     87  C   UNL A   1      47.006  28.330  35.216  1.00  0.00     0.002 A 
ATOM     88  C   UNL A   1      45.716  26.467  36.084  1.00  0.00     0.091 A 
ATOM     89  F   UNL A   1      43.568  26.006  35.152  1.00  0.00    -0.205 F 
ATOM     90  C   UNL A   1      46.883  27.248  36.084  1.00  0.00     0.022 A 
BRANCH  88  91
ATOM     91  S   UNL A   1      45.600  25.149  37.299  1.00  0.00     0.127 S 
ATOM     92  O   UNL A   1      46.882  25.267  37.991  1.00  0.00    -0.237 OA
ATOM     93  O   UNL A   1      44.439  25.552  38.092  1.00  0.00    -0.237 OA
ATOM     94  O   UNL A   1      45.408  23.923  36.535  1.00  0.00    -0.744 OA
ENDBRANCH  88  91
ENDBRANCH  61  84
ENDBRANCH  35  36
ENDBRANCH  28  30
ENDBRANCH  27  28
ENDBRANCH   1  27
TORSDOF 17
ENDMDL
MODEL 2
REMARK VINA RESULT:     -12.3      5.151     10.127
REMARK SMILES CCc1cc(N2CCC[C@H](C(=O)OCCOC(=O)c3ccc(-c4c5nc(c(-c6cccc(S(=O)(=O)[O-])c6F)c6ccc([nH]6)c(-c6cccc(S(=O)(=O)[O-])c6F)c6nc(c(-c7cccc(S(=O)(=O)[O-])c7F)c7ccc4[nH]7)C=C6)C=C5)cc3)C2)nc(-c2ccc(Cl)cc2)n1
REMARK SMILES IDX 15 1 14 2 13 3 11 4 12 5 10 6 6 7 7 8 82 9 8 10 9 11 5 12
REMARK SMILES IDX 3 13 4 14 92 15 84 16 83 17 2 18 1 19 85 20 86 21 91 22
REMARK SMILES IDX 87 23 90 24 88 25 89 26 16 27 17 28 18 29 19 30 20 31 81 32
REMARK SMILES IDX 21 33 80 34 22 35 23 36 24 37 74 38 25 39 79 40 73 41 75 42
REMARK SMILES IDX 26 43 78 44 72 45 71 46 27 48 59 49 39 50 58 51 40 52 43 53
REMARK SMILES IDX 57 54 76 55 41 56 42 57 56 59 77 60 44 61 28 62 29 63 37 64
REMARK SMILES IDX 30 65 32 66 38 67 31 68 33 69 34 70 35 71 36 72 60 73 61 74
REMARK SMILES IDX 69 75 62 76 64 77 70 78 63 79 65 80 66 81 67 82 68 83 45 84
REMARK SMILES IDX 46 85 54 86 47 87 49 88 55 89 48 90 50 91 51 92 52 93 53 94
REMARK H PARENT 75 47 43 58
REMARK Flexibility Score: inf
ROOT
ATOM      1  C   UNL A   1      37.050  21.505  24.287  1.00  0.00     0.275 C 
ENDROOT
BRANCH   1   2
ATOM      2  C   UNL A   1      36.101  22.622  23.859  1.00  0.00     0.274 C 
BRANCH   2   3
ATOM      3  O   UNL A   1      34.735  22.250  24.101  1.00  0.00    -0.462 OA
BRANCH   3   4
ATOM      4  C   UNL A   1      33.789  22.724  23.255  1.00  0.00     0.310 C 
ATOM      5  O   UNL A   1      33.922  23.708  22.535  1.00  0.00    -0.252 OA
BRANCH   4   6
ATOM      6  C   UNL A   1      32.512  21.896  23.273  1.00  0.00     0.118 C 
ATOM      7  N   UNL A   1      31.071  23.530  24.382  1.00  0.00    -0.356 N 
ATOM      8  C   UNL A   1      30.902  22.748  25.598  1.00  0.00     0.118 C 
ATOM      9  C   UNL A   1      31.312  22.823  23.129  1.00  0.00     0.133 C 
ATOM     10  C   UNL A   1      32.001  21.704  25.770  1.00  0.00     0.022 C 
ATOM     11  C   UNL A   1      32.330  20.960  24.472  1.00  0.00     0.019 C 
BRANCH   7  12
ATOM     12  C   UNL A   1      31.354  24.884  24.439  1.00  0.00     0.132 A 
ATOM     13  C   UNL A   1      32.674  26.653  25.314  1.00  0.00     0.046 A 
ATOM     14  C   UNL A   1      32.353  25.313  25.299  1.00  0.00     0.070 A 
ATOM     15  N   UNL A   1      32.005  27.541  24.561  1.00  0.00    -0.233 NA
ATOM     16  C   UNL A   1      31.008  27.053  23.799  1.00  0.00     0.161 A 
ATOM     17  N   UNL A   1      30.671  25.754  23.675  1.00  0.00    -0.211 NA
BRANCH  13  18
ATOM     18  C   UNL A   1      33.759  27.195  26.206  1.00  0.00     0.053 C 
ATOM     19  C   UNL A   1      34.001  28.692  26.049  1.00  0.00     0.011 C 
ENDBRANCH  13  18
BRANCH  16  20
ATOM     20  C   UNL A   1      30.187  28.056  23.117  1.00  0.00     0.019 A 
ATOM     21  C   UNL A   1      30.777  29.093  22.377  1.00  0.00     0.013 A 
ATOM     22  C   UNL A   1      28.788  28.060  23.261  1.00  0.00     0.013 A 
ATOM     23  C   UNL A   1      29.996  30.094  21.789  1.00  0.00     0.021 A 
ATOM     24  C   UNL A   1      28.003  29.057  22.676  1.00  0.00     0.021 A 
ATOM     25  C   UNL A   1      28.612  30.071  21.942  1.00  0.00     0.041 A 
ATOM     26  Cl  UNL A   1      27.653  31.314  21.236  1.00  0.00    -0.084 Cl
ENDBRANCH  16  20
ENDBRANCH   7  12
ENDBRANCH   4   6
ENDBRANCH   3   4
ENDBRANCH   2   3
ENDBRANCH   1   2
BRANCH   1  27
ATOM     27  O   UNL A   1      37.369  21.614  25.681  1.00  0.00    -0.458 OA
BRANCH  27  28
ATOM     28  C   UNL A   1      38.654  21.321  25.989  1.00  0.00     0.338 C 
ATOM     29  O   UNL A   1      39.260  20.289  25.762  1.00  0.00    -0.246 OA
BRANCH  28  30
ATOM     30  C   UNL A   1      39.297  22.523  26.528  1.00  0.00     0.060 A 
ATOM     31  C   UNL A   1      38.826  23.765  26.097  1.00  0.00     0.016 A 
ATOM     32  C   UNL A   1      40.392  22.428  27.386  1.00  0.00     0.016 A 
ATOM     33  C   UNL A   1      39.458  24.931  26.509  1.00  0.00     0.010 A 
ATOM     34  C   UNL A   1      41.027  23.599  27.800  1.00  0.00     0.010 A 
ATOM     35  C   UNL A   1      40.575  24.852  27.347  1.00  0.00    -0.014 A 
BRANCH  35  36
ATOM     36  C   UNL A   1      41.317  26.081  27.698  1.00  0.00     0.031 A 
ATOM     37  C   UNL A   1      40.634  27.149  28.500  1.00  0.00     0.074 A 
ATOM     38  C   UNL A   1      42.581  26.241  27.273  1.00  0.00     0.049 A 
ATOM     39  N   UNL A   1      41.065  28.338  28.825  1.00  0.00    -0.248 NA
ATOM     40  C   UNL A   1      39.280  26.840  28.989  1.00  0.00     0.031 C 
ATOM     41  C   UNL A   1      43.335  25.264  26.487  1.00  0.00     0.029 A 
ATOM     42  N   UNL A   1      43.440  27.300  27.410  1.00  0.00    -0.354 N 
ATOM     43  C   UNL A   1      40.018  28.942  29.509  1.00  0.00     0.074 A 
ATOM     44  C   UNL A   1      38.934  27.985  29.559  1.00  0.00     0.031 C 
ATOM     45  C   UNL A   1      44.533  25.783  26.179  1.00  0.00     0.029 A 
ATOM     46  C   UNL A   1      44.616  27.139  26.716  1.00  0.00     0.049 A 
ATOM     47  H   UNL A   1      43.235  28.096  27.951  1.00  0.00     0.167 HD
ATOM     48  C   UNL A   1      39.972  30.181  30.052  1.00  0.00     0.034 A 
ATOM     49  C   UNL A   1      45.628  28.003  26.507  1.00  0.00     0.034 A 
ATOM     50  C   UNL A   1      41.073  31.105  30.033  1.00  0.00     0.049 A 
ATOM     51  C   UNL A   1      45.562  29.367  27.137  1.00  0.00     0.074 A 
ATOM     52  C   UNL A   1      41.159  32.355  30.619  1.00  0.00     0.029 A 
ATOM     53  N   UNL A   1      42.279  30.883  29.385  1.00  0.00    -0.354 N 
ATOM     54  N   UNL A   1      44.616  29.883  27.885  1.00  0.00    -0.248 NA
ATOM     55  C   UNL A   1      46.712  30.255  26.922  1.00  0.00     0.031 C 
ATOM     56  C   UNL A   1      42.412  32.895  30.310  1.00  0.00     0.029 A 
ATOM     57  C   UNL A   1      43.113  31.975  29.545  1.00  0.00     0.049 A 
ATOM     58  H   UNL A   1      42.509  30.067  28.885  1.00  0.00     0.167 HD
ATOM     59  C   UNL A   1      45.063  31.148  28.246  1.00  0.00     0.074 A 
ATOM     60  C   UNL A   1      46.377  31.309  27.655  1.00  0.00     0.031 C 
ATOM     61  C   UNL A   1      44.436  32.098  28.986  1.00  0.00     0.034 A 
BRANCH  48  62
ATOM     62  C   UNL A   1      38.692  30.594  30.727  1.00  0.00     0.023 A 
ATOM     63  C   UNL A   1      38.501  30.317  32.095  1.00  0.00     0.012 A 
ATOM     64  C   UNL A   1      37.687  31.273  30.012  1.00  0.00     0.148 A 
ATOM     65  C   UNL A   1      37.316  30.680  32.734  1.00  0.00     0.002 A 
ATOM     66  C   UNL A   1      36.524  31.665  30.665  1.00  0.00     0.091 A 
ATOM     67  F   UNL A   1      37.870  31.499  28.703  1.00  0.00    -0.205 F 
ATOM     68  C   UNL A   1      36.331  31.361  32.022  1.00  0.00     0.022 A 
BRANCH  66  69
ATOM     69  S   UNL A   1      35.237  32.607  29.837  1.00  0.00     0.127 S 
ATOM     70  O   UNL A   1      34.768  31.652  28.836  1.00  0.00    -0.237 OA
ATOM     71  O   UNL A   1      34.290  32.865  30.923  1.00  0.00    -0.237 OA
ATOM     72  O   UNL A   1      35.894  33.798  29.319  1.00  0.00    -0.744 OA
ENDBRANCH  66  69
ENDBRANCH  48  62
BRANCH  49  73
ATOM     73  C   UNL A   1      46.792  27.573  25.685  1.00  0.00     0.023 A 
ATOM     74  C   UNL A   1      46.781  27.797  24.297  1.00  0.00     0.012 A 
ATOM     75  C   UNL A   1      47.942  27.022  26.285  1.00  0.00     0.148 A 
ATOM     76  C   UNL A   1      47.892  27.472  23.516  1.00  0.00     0.002 A 
ATOM     77  C   UNL A   1      49.064  26.752  25.512  1.00  0.00     0.091 A 
ATOM     78  F   UNL A   1      47.924  26.803  27.608  1.00  0.00    -0.205 F 
ATOM     79  C   UNL A   1      49.036  26.963  24.125  1.00  0.00     0.022 A 
BRANCH  77  80
ATOM     80  S   UNL A   1      50.627  26.228  26.229  1.00  0.00     0.127 S 
ATOM     81  O   UNL A   1      50.283  24.919  26.774  1.00  0.00    -0.237 OA
ATOM     82  O   UNL A   1      51.501  26.198  25.055  1.00  0.00    -0.237 OA
ATOM     83  O   UNL A   1      50.973  27.250  27.207  1.00  0.00    -0.744 OA
ENDBRANCH  77  80
ENDBRANCH  49  73
BRANCH  61  84
ATOM     84  C   UNL A   1      45.165  33.396  29.210  1.00  0.00     0.023 A 
ATOM     85  C   UNL A   1      45.993  33.541  30.340  1.00  0.00     0.012 A 
ATOM     86  C   UNL A   1      45.096  34.436  28.262  1.00  0.00     0.148 A 
ATOM     87  C   UNL A   1      46.723  34.712  30.536  1.00  0.00     0.002 A 
ATOM     88  C   UNL A   1      45.861  35.582  28.441  1.00  0.00     0.091 A 
ATOM     89  F   UNL A   1      44.285  34.286  27.204  1.00  0.00    -0.205 F 
ATOM     90  C   UNL A   1      46.667  35.726  29.582  1.00  0.00     0.022 A 
BRANCH  88  91
ATOM     91  S   UNL A   1      45.918  36.895  27.216  1.00  0.00     0.127 S 
ATOM     92  O   UNL A   1      46.402  36.180  26.036  1.00  0.00    -0.237 OA
ATOM     93  O   UNL A   1      44.520  37.318  27.142  1.00  0.00    -0.237 OA
ATOM     94  O   UNL A   1      46.822  37.902  27.756  1.00  0.00    -0.744 OA
ENDBRANCH  88  91
ENDBRANCH  61  84
ENDBRANCH  35  36
ENDBRANCH  28  30
ENDBRANCH  27  28
ENDBRANCH   1  27
TORSDOF 17
ENDMDL
MODEL 3
REMARK VINA RESULT:     -12.0      2.164      7.924
REMARK SMILES CCc1cc(N2CCC[C@H](C(=O)OCCOC(=O)c3ccc(-c4c5nc(c(-c6cccc(S(=O)(=O)[O-])c6F)c6ccc([nH]6)c(-c6cccc(S(=O)(=O)[O-])c6F)c6nc(c(-c7cccc(S(=O)(=O)[O-])c7F)c7ccc4[nH]7)C=C6)C=C5)cc3)C2)nc(-c2ccc(Cl)cc2)n1
REMARK SMILES IDX 15 1 14 2 13 3 11 4 12 5 10 6 6 7 7 8 82 9 8 10 9 11 5 12
REMARK SMILES IDX 3 13 4 14 92 15 84 16 83 17 2 18 1 19 85 20 86 21 91 22
REMARK SMILES IDX 87 23 90 24 88 25 89 26 16 27 17 28 18 29 19 30 20 31 81 32
REMARK SMILES IDX 21 33 80 34 22 35 23 36 24 37 74 38 25 39 79 40 73 41 75 42
REMARK SMILES IDX 26 43 78 44 72 45 71 46 27 48 59 49 39 50 58 51 40 52 43 53
REMARK SMILES IDX 57 54 76 55 41 56 42 57 56 59 77 60 44 61 28 62 29 63 37 64
REMARK SMILES IDX 30 65 32 66 38 67 31 68 33 69 34 70 35 71 36 72 60 73 61 74
REMARK SMILES IDX 69 75 62 76 64 77 70 78 63 79 65 80 66 81 67 82 68 83 45 84
REMARK SMILES IDX 46 85 54 86 47 87 49 88 55 89 48 90 50 91 51 92 52 93 53 94
REMARK H PARENT 75 47 43 58
REMARK Flexibility Score: inf
ROOT
ATOM      1  C   UNL A   1      32.966  29.312  26.334  1.00  0.00     0.275 C 
ENDROOT
BRANCH   1   2
ATOM      2  C   UNL A   1      32.574  27.842  26.461  1.00  0.00     0.274 C 
BRANCH   2   3
ATOM      3  O   UNL A   1      31.181  27.658  26.164  1.00  0.00    -0.462 OA
BRANCH   3   4
ATOM      4  C   UNL A   1      30.757  26.407  25.859  1.00  0.00     0.310 C 
ATOM      5  O   UNL A   1      30.987  25.407  26.529  1.00  0.00    -0.252 OA
BRANCH   4   6
ATOM      6  C   UNL A   1      29.939  26.358  24.577  1.00  0.00     0.118 C 
ATOM      7  N   UNL A   1      31.490  25.019  23.243  1.00  0.00    -0.356 N 
ATOM      8  C   UNL A   1      31.810  26.087  22.307  1.00  0.00     0.118 C 
ATOM      9  C   UNL A   1      30.178  25.024  23.881  1.00  0.00     0.133 C 
ATOM     10  C   UNL A   1      31.491  27.467  22.875  1.00  0.00     0.022 C 
ATOM     11  C   UNL A   1      30.142  27.520  23.599  1.00  0.00     0.019 C 
BRANCH   7  12
ATOM     12  C   UNL A   1      32.487  24.231  23.793  1.00  0.00     0.132 A 
ATOM     13  C   UNL A   1      34.568  24.077  24.926  1.00  0.00     0.046 A 
ATOM     14  C   UNL A   1      33.603  24.857  24.327  1.00  0.00     0.070 A 
ATOM     15  N   UNL A   1      34.471  22.738  24.948  1.00  0.00    -0.233 NA
ATOM     16  C   UNL A   1      33.387  22.204  24.354  1.00  0.00     0.161 A 
ATOM     17  N   UNL A   1      32.367  22.893  23.804  1.00  0.00    -0.211 NA
BRANCH  13  18
ATOM     18  C   UNL A   1      35.800  24.681  25.546  1.00  0.00     0.053 C 
ATOM     19  C   UNL A   1      36.864  23.661  25.932  1.00  0.00     0.011 C 
ENDBRANCH  13  18
BRANCH  16  20
ATOM     20  C   UNL A   1      33.384  20.744  24.242  1.00  0.00     0.019 A 
ATOM     21  C   UNL A   1      34.419  19.974  24.797  1.00  0.00     0.013 A 
ATOM     22  C   UNL A   1      32.392  20.080  23.499  1.00  0.00     0.013 A 
ATOM     23  C   UNL A   1      34.456  18.586  24.625  1.00  0.00     0.021 A 
ATOM     24  C   UNL A   1      32.424  18.694  23.324  1.00  0.00     0.021 A 
ATOM     25  C   UNL A   1      33.458  17.952  23.889  1.00  0.00     0.041 A 
ATOM     26  Cl  UNL A   1      33.515  16.247  23.661  1.00  0.00    -0.084 Cl
ENDBRANCH  16  20
ENDBRANCH   7  12
ENDBRANCH   4   6
ENDBRANCH   3   4
ENDBRANCH   2   3
ENDBRANCH   1   2
BRANCH   1  27
ATOM     27  O   UNL A   1      34.366  29.490  26.590  1.00  0.00    -0.458 OA
BRANCH  27  28
ATOM     28  C   UNL A   1      34.649  30.361  27.586  1.00  0.00     0.338 C 
ATOM     29  O   UNL A   1      33.930  31.229  28.047  1.00  0.00    -0.246 OA
BRANCH  28  30
ATOM     30  C   UNL A   1      35.950  30.011  28.165  1.00  0.00     0.060 A 
ATOM     31  C   UNL A   1      37.077  30.115  27.349  1.00  0.00     0.016 A 
ATOM     32  C   UNL A   1      36.046  29.518  29.465  1.00  0.00     0.016 A 
ATOM     33  C   UNL A   1      38.319  29.711  27.821  1.00  0.00     0.010 A 
ATOM     34  C   UNL A   1      37.293  29.112  29.941  1.00  0.00     0.010 A 
ATOM     35  C   UNL A   1      38.429  29.188  29.114  1.00  0.00    -0.014 A 
BRANCH  35  36
ATOM     36  C   UNL A   1      39.726  28.655  29.582  1.00  0.00     0.031 A 
ATOM     37  C   UNL A   1      40.454  29.358  30.688  1.00  0.00     0.074 A 
ATOM     38  C   UNL A   1      40.251  27.568  28.992  1.00  0.00     0.049 A 
ATOM     39  N   UNL A   1      41.642  29.120  31.175  1.00  0.00    -0.248 NA
ATOM     40  C   UNL A   1      39.755  30.487  31.323  1.00  0.00     0.031 C 
ATOM     41  C   UNL A   1      39.624  26.813  27.907  1.00  0.00     0.029 A 
ATOM     42  N   UNL A   1      41.447  26.933  29.199  1.00  0.00    -0.354 N 
ATOM     43  C   UNL A   1      41.859  30.100  32.133  1.00  0.00     0.074 A 
ATOM     44  C   UNL A   1      40.676  30.932  32.166  1.00  0.00     0.031 C 
ATOM     45  C   UNL A   1      40.458  25.837  27.518  1.00  0.00     0.029 A 
ATOM     46  C   UNL A   1      41.688  25.921  28.300  1.00  0.00     0.049 A 
ATOM     47  H   UNL A   1      42.072  27.177  29.920  1.00  0.00     0.167 HD
ATOM     48  C   UNL A   1      42.945  30.283  32.920  1.00  0.00     0.034 A 
ATOM     49  C   UNL A   1      42.791  25.173  28.107  1.00  0.00     0.034 A 
ATOM     50  C   UNL A   1      44.096  29.422  32.908  1.00  0.00     0.049 A 
ATOM     51  C   UNL A   1      43.978  25.381  29.007  1.00  0.00     0.074 A 
ATOM     52  C   UNL A   1      45.218  29.471  33.717  1.00  0.00     0.029 A 
ATOM     53  N   UNL A   1      44.277  28.359  32.036  1.00  0.00    -0.354 N 
ATOM     54  N   UNL A   1      44.125  26.234  29.992  1.00  0.00    -0.248 NA
ATOM     55  C   UNL A   1      45.139  24.507  28.790  1.00  0.00     0.031 C 
ATOM     56  C   UNL A   1      46.085  28.447  33.320  1.00  0.00     0.029 A 
ATOM     57  C   UNL A   1      45.497  27.749  32.276  1.00  0.00     0.049 A 
ATOM     58  H   UNL A   1      43.633  28.078  31.347  1.00  0.00     0.167 HD
ATOM     59  C   UNL A   1      45.383  25.989  30.527  1.00  0.00     0.074 A 
ATOM     60  C   UNL A   1      45.948  24.889  29.770  1.00  0.00     0.031 C 
ATOM     61  C   UNL A   1      46.022  26.627  31.540  1.00  0.00     0.034 A 
BRANCH  48  62
ATOM     62  C   UNL A   1      42.924  31.449  33.870  1.00  0.00     0.023 A 
ATOM     63  C   UNL A   1      43.476  32.684  33.474  1.00  0.00     0.012 A 
ATOM     64  C   UNL A   1      42.340  31.330  35.146  1.00  0.00     0.148 A 
ATOM     65  C   UNL A   1      43.478  33.773  34.347  1.00  0.00     0.002 A 
ATOM     66  C   UNL A   1      42.312  32.430  35.995  1.00  0.00     0.091 A 
ATOM     67  F   UNL A   1      41.850  30.139  35.519  1.00  0.00    -0.205 F 
ATOM     68  C   UNL A   1      42.889  33.649  35.602  1.00  0.00     0.022 A 
BRANCH  66  69
ATOM     69  S   UNL A   1      41.512  32.374  37.603  1.00  0.00     0.127 S 
ATOM     70  O   UNL A   1      42.340  31.403  38.313  1.00  0.00    -0.237 OA
ATOM     71  O   UNL A   1      41.652  33.753  38.072  1.00  0.00    -0.237 OA
ATOM     72  O   UNL A   1      40.138  31.967  37.343  1.00  0.00    -0.744 OA
ENDBRANCH  66  69
ENDBRANCH  48  62
BRANCH  49  73
ATOM     73  C   UNL A   1      42.792  24.144  27.032  1.00  0.00     0.023 A 
ATOM     74  C   UNL A   1      43.506  24.384  25.844  1.00  0.00     0.012 A 
ATOM     75  C   UNL A   1      42.161  22.898  27.217  1.00  0.00     0.148 A 
ATOM     76  C   UNL A   1      43.584  23.404  24.852  1.00  0.00     0.002 A 
ATOM     77  C   UNL A   1      42.288  21.907  26.251  1.00  0.00     0.091 A 
ATOM     78  F   UNL A   1      41.473  22.697  28.350  1.00  0.00    -0.205 F 
ATOM     79  C   UNL A   1      42.987  22.163  25.062  1.00  0.00     0.022 A 
BRANCH  77  80
ATOM     80  S   UNL A   1      41.675  20.236  26.495  1.00  0.00     0.127 S 
ATOM     81  O   UNL A   1      42.222  19.543  25.333  1.00  0.00    -0.237 OA
ATOM     82  O   UNL A   1      42.287  19.875  27.775  1.00  0.00    -0.237 OA
ATOM     83  O   UNL A   1      40.223  20.351  26.537  1.00  0.00    -0.744 OA
ENDBRANCH  77  80
ENDBRANCH  49  73
BRANCH  61  84
ATOM     84  C   UNL A   1      47.402  26.147  31.901  1.00  0.00     0.023 A 
ATOM     85  C   UNL A   1      48.517  26.648  31.203  1.00  0.00     0.012 A 
ATOM     86  C   UNL A   1      47.600  25.267  32.984  1.00  0.00     0.148 A 
ATOM     87  C   UNL A   1      49.808  26.263  31.560  1.00  0.00     0.002 A 
ATOM     88  C   UNL A   1      48.892  24.922  33.363  1.00  0.00     0.091 A 
ATOM     89  F   UNL A   1      46.524  24.784  33.623  1.00  0.00    -0.205 F 
ATOM     90  C   UNL A   1      49.996  25.411  32.646  1.00  0.00     0.022 A 
BRANCH  88  91
ATOM     91  S   UNL A   1      49.226  23.906  34.806  1.00  0.00     0.127 S 
ATOM     92  O   UNL A   1      48.606  24.690  35.873  1.00  0.00    -0.237 OA
ATOM     93  O   UNL A   1      48.531  22.660  34.482  1.00  0.00    -0.237 OA
ATOM     94  O   UNL A   1      50.676  23.782  34.876  1.00  0.00    -0.744 OA
ENDBRANCH  88  91
ENDBRANCH  61  84
ENDBRANCH  35  36
ENDBRANCH  28  30
ENDBRANCH  27  28
ENDBRANCH   1  27
TORSDOF 17
ENDMDL
