MODEL 1
REMARK VINA RESULT:     -11.4      0.000      0.000
REMARK SMILES O=C(OCCOC(=O)[C@H]1C[C@@H]2CCCC[C@H]2N1C(=O)CN1CSCC1=O)c1ccc(-c2c3nc(c(-c4cccc(S(=O)(=O)[O-])c4F)c4ccc([nH]4)c(-c4cccc(S(=O)(=O)[O-])c4F)c4nc(c(-c5cccc(S(=O)(=O)[O-])c5F)c5ccc2[nH]5)C=C4)C=C3)cc1
REMARK SMILES IDX 4 1 3 2 2 3 1 4 27 5 28 6 89 7 29 8 88 9 30 10 31 11 32 12
REMARK SMILES IDX 82 13 33 14 87 15 81 16 83 17 34 18 86 19 80 20 79 21 35 23
REMARK SMILES IDX 67 24 47 25 66 26 48 27 51 28 65 29 84 30 49 31 50 32 64 34
REMARK SMILES IDX 85 35 52 36 36 37 37 38 45 39 38 40 40 41 46 42 39 43 41 44
REMARK SMILES IDX 42 45 43 46 44 47 68 48 69 49 77 50 70 51 72 52 78 53 71 54
REMARK SMILES IDX 73 55 74 56 75 57 76 58 53 59 54 60 62 61 55 62 57 63 63 64
REMARK SMILES IDX 56 65 58 66 59 67 60 68 61 69 5 70 6 71 7 72 8 73 9 74 10 75
REMARK SMILES IDX 17 76 11 77 16 78 12 79 15 80 13 81 14 82 18 83 19 84 20 85
REMARK SMILES IDX 21 86 22 87 25 88 23 89 24 90 26 91
REMARK H PARENT 83 22 51 33
REMARK Flexibility Score: inf
ROOT
ATOM      1  C   UNL A   1      36.259  22.447  23.703  1.00  0.00     0.275 C 
ENDROOT
BRANCH   1   2
ATOM      2  O   UNL A   1      36.641  22.150  25.047  1.00  0.00    -0.458 OA
BRANCH   2   3
ATOM      3  C   UNL A   1      37.858  21.798  25.512  1.00  0.00     0.338 C 
ATOM      4  O   UNL A   1      38.230  20.642  25.305  1.00  0.00    -0.246 OA
BRANCH   3   5
ATOM      5  C   UNL A   1      38.769  22.698  26.310  1.00  0.00     0.060 A 
ATOM      6  C   UNL A   1      39.851  22.352  27.136  1.00  0.00     0.016 A 
ATOM      7  C   UNL A   1      38.535  24.060  26.135  1.00  0.00     0.016 A 
ATOM      8  C   UNL A   1      40.718  23.310  27.699  1.00  0.00     0.010 A 
ATOM      9  C   UNL A   1      39.430  25.006  26.641  1.00  0.00     0.010 A 
ATOM     10  C   UNL A   1      40.546  24.656  27.429  1.00  0.00    -0.014 A 
BRANCH  10  11
ATOM     11  C   UNL A   1      41.430  25.750  27.958  1.00  0.00     0.031 A 
ATOM     12  C   UNL A   1      40.726  26.912  28.609  1.00  0.00     0.074 A 
ATOM     13  C   UNL A   1      42.764  25.835  27.717  1.00  0.00     0.049 A 
ATOM     14  N   UNL A   1      41.144  28.128  28.814  1.00  0.00    -0.248 NA
ATOM     15  C   UNL A   1      39.322  26.683  29.015  1.00  0.00     0.031 C 
ATOM     16  C   UNL A   1      43.618  24.798  27.127  1.00  0.00     0.029 A 
ATOM     17  N   UNL A   1      43.625  26.913  27.830  1.00  0.00    -0.354 N 
ATOM     18  C   UNL A   1      40.052  28.792  29.352  1.00  0.00     0.074 A 
ATOM     19  C   UNL A   1      38.909  27.921  29.221  1.00  0.00     0.031 C 
ATOM     20  C   UNL A   1      44.824  25.322  26.832  1.00  0.00     0.029 A 
ATOM     21  C   UNL A   1      44.840  26.731  27.186  1.00  0.00     0.049 A 
ATOM     22  H   UNL A   1      43.394  27.735  28.321  1.00  0.00     0.167 HD
ATOM     23  C   UNL A   1      40.027  29.947  30.052  1.00  0.00     0.034 A 
ATOM     24  C   UNL A   1      45.836  27.603  26.897  1.00  0.00     0.034 A 
ATOM     25  C   UNL A   1      41.201  30.725  30.297  1.00  0.00     0.049 A 
ATOM     26  C   UNL A   1      45.766  28.951  27.549  1.00  0.00     0.074 A 
ATOM     27  C   UNL A   1      41.366  31.802  31.143  1.00  0.00     0.029 A 
ATOM     28  N   UNL A   1      42.426  30.488  29.690  1.00  0.00    -0.354 N 
ATOM     29  N   UNL A   1      44.776  29.493  28.215  1.00  0.00    -0.248 NA
ATOM     30  C   UNL A   1      47.009  29.735  27.557  1.00  0.00     0.031 C 
ATOM     31  C   UNL A   1      42.691  32.235  31.029  1.00  0.00     0.029 A 
ATOM     32  C   UNL A   1      43.355  31.405  30.138  1.00  0.00     0.049 A 
ATOM     33  H   UNL A   1      42.605  29.773  29.038  1.00  0.00     0.167 HD
ATOM     34  C   UNL A   1      45.314  30.613  28.832  1.00  0.00     0.074 A 
ATOM     35  C   UNL A   1      46.695  30.708  28.401  1.00  0.00     0.031 C 
ATOM     36  C   UNL A   1      44.732  31.448  29.724  1.00  0.00     0.034 A 
BRANCH  23  37
ATOM     37  C   UNL A   1      38.720  30.318  30.697  1.00  0.00     0.023 A 
ATOM     38  C   UNL A   1      38.402  29.799  31.974  1.00  0.00     0.012 A 
ATOM     39  C   UNL A   1      37.785  31.124  30.030  1.00  0.00     0.148 A 
ATOM     40  C   UNL A   1      37.142  29.998  32.534  1.00  0.00     0.002 A 
ATOM     41  C   UNL A   1      36.553  31.372  30.623  1.00  0.00     0.091 A 
ATOM     42  F   UNL A   1      38.099  31.599  28.817  1.00  0.00    -0.205 F 
ATOM     43  C   UNL A   1      36.220  30.788  31.858  1.00  0.00     0.022 A 
BRANCH  41  44
ATOM     44  S   UNL A   1      35.320  32.442  29.881  1.00  0.00     0.127 S 
ATOM     45  O   UNL A   1      34.853  31.624  28.763  1.00  0.00    -0.237 OA
ATOM     46  O   UNL A   1      34.357  32.592  30.972  1.00  0.00    -0.237 OA
ATOM     47  O   UNL A   1      36.018  33.664  29.508  1.00  0.00    -0.744 OA
ENDBRANCH  41  44
ENDBRANCH  23  37
BRANCH  24  48
ATOM     48  C   UNL A   1      47.084  27.214  26.159  1.00  0.00     0.023 A 
ATOM     49  C   UNL A   1      47.134  27.421  24.767  1.00  0.00     0.012 A 
ATOM     50  C   UNL A   1      48.172  26.557  26.778  1.00  0.00     0.148 A 
ATOM     51  C   UNL A   1      48.246  27.025  24.018  1.00  0.00     0.002 A 
ATOM     52  C   UNL A   1      49.318  26.248  26.041  1.00  0.00     0.091 A 
ATOM     53  F   UNL A   1      48.057  26.201  28.066  1.00  0.00    -0.205 F 
ATOM     54  C   UNL A   1      49.348  26.463  24.656  1.00  0.00     0.022 A 
BRANCH  52  55
ATOM     55  S   UNL A   1      50.831  25.625  26.792  1.00  0.00     0.127 S 
ATOM     56  O   UNL A   1      50.383  24.391  27.440  1.00  0.00    -0.237 OA
ATOM     57  O   UNL A   1      51.679  25.420  25.617  1.00  0.00    -0.237 OA
ATOM     58  O   UNL A   1      51.278  26.660  27.713  1.00  0.00    -0.744 OA
ENDBRANCH  52  55
ENDBRANCH  24  48
BRANCH  36  59
ATOM     59  C   UNL A   1      45.605  32.478  30.377  1.00  0.00     0.023 A 
ATOM     60  C   UNL A   1      45.709  33.770  29.835  1.00  0.00     0.012 A 
ATOM     61  C   UNL A   1      46.245  32.170  31.594  1.00  0.00     0.148 A 
ATOM     62  C   UNL A   1      46.458  34.744  30.492  1.00  0.00     0.002 A 
ATOM     63  C   UNL A   1      46.933  33.163  32.274  1.00  0.00     0.091 A 
ATOM     64  F   UNL A   1      46.154  30.920  32.069  1.00  0.00    -0.205 F 
ATOM     65  C   UNL A   1      47.051  34.446  31.718  1.00  0.00     0.022 A 
BRANCH  63  66
ATOM     66  S   UNL A   1      47.613  32.904  33.914  1.00  0.00     0.127 S 
ATOM     67  O   UNL A   1      48.311  34.167  34.151  1.00  0.00    -0.237 OA
ATOM     68  O   UNL A   1      46.407  32.711  34.718  1.00  0.00    -0.237 OA
ATOM     69  O   UNL A   1      48.470  31.730  33.818  1.00  0.00    -0.744 OA
ENDBRANCH  63  66
ENDBRANCH  36  59
ENDBRANCH  10  11
ENDBRANCH   3   5
ENDBRANCH   2   3
ENDBRANCH   1   2
BRANCH   1  70
ATOM     70  C   UNL A   1      34.759  22.711  23.516  1.00  0.00     0.274 C 
BRANCH  70  71
ATOM     71  O   UNL A   1      34.409  23.604  22.435  1.00  0.00    -0.461 OA
BRANCH  71  72
ATOM     72  C   UNL A   1      33.898  24.806  22.820  1.00  0.00     0.329 C 
ATOM     73  O   UNL A   1      33.756  25.753  22.047  1.00  0.00    -0.250 OA
BRANCH  72  74
ATOM     74  C   UNL A   1      33.513  24.928  24.313  1.00  0.00     0.195 C 
ATOM     75  C   UNL A   1      34.422  25.949  25.043  1.00  0.00     0.043 C 
ATOM     76  N   UNL A   1      32.149  25.204  24.808  1.00  0.00    -0.324 N 
ATOM     77  C   UNL A   1      33.441  26.979  25.573  1.00  0.00     0.014 C 
ATOM     78  C   UNL A   1      32.212  26.153  25.933  1.00  0.00     0.089 C 
ATOM     79  C   UNL A   1      33.874  27.927  26.686  1.00  0.00     0.006 C 
ATOM     80  C   UNL A   1      31.094  27.153  26.166  1.00  0.00     0.025 C 
ATOM     81  C   UNL A   1      32.715  28.835  27.133  1.00  0.00     0.000 C 
ATOM     82  C   UNL A   1      31.408  28.071  27.348  1.00  0.00     0.002 C 
BRANCH  76  83
ATOM     83  C   UNL A   1      31.201  24.222  24.565  1.00  0.00     0.243 C 
ATOM     84  O   UNL A   1      30.662  24.131  23.454  1.00  0.00    -0.273 OA
BRANCH  83  85
ATOM     85  C   UNL A   1      30.832  23.211  25.650  1.00  0.00     0.220 C 
BRANCH  85  86
ATOM     86  N   UNL A   1      31.858  22.206  25.870  1.00  0.00    -0.323 N 
ATOM     87  C   UNL A   1      31.936  21.049  25.032  1.00  0.00     0.190 C 
ATOM     88  C   UNL A   1      32.703  22.257  26.956  1.00  0.00     0.233 C 
ATOM     89  S   UNL A   1      33.355  20.084  25.553  1.00  0.00    -0.130 SA
ATOM     90  C   UNL A   1      33.745  21.172  26.951  1.00  0.00     0.171 C 
ATOM     91  O   UNL A   1      32.666  23.165  27.779  1.00  0.00    -0.274 OA
ENDBRANCH  85  86
ENDBRANCH  83  85
ENDBRANCH  76  83
ENDBRANCH  72  74
ENDBRANCH  71  72
ENDBRANCH  70  71
ENDBRANCH   1  70
TORSDOF 17
ENDMDL
MODEL 2
REMARK VINA RESULT:     -11.2      4.642      7.068
REMARK SMILES O=C(OCCOC(=O)[C@H]1C[C@@H]2CCCC[C@H]2N1C(=O)CN1CSCC1=O)c1ccc(-c2c3nc(c(-c4cccc(S(=O)(=O)[O-])c4F)c4ccc([nH]4)c(-c4cccc(S(=O)(=O)[O-])c4F)c4nc(c(-c5cccc(S(=O)(=O)[O-])c5F)c5ccc2[nH]5)C=C4)C=C3)cc1
REMARK SMILES IDX 4 1 3 2 2 3 1 4 27 5 28 6 89 7 29 8 88 9 30 10 31 11 32 12
REMARK SMILES IDX 82 13 33 14 87 15 81 16 83 17 34 18 86 19 80 20 79 21 35 23
REMARK SMILES IDX 67 24 47 25 66 26 48 27 51 28 65 29 84 30 49 31 50 32 64 34
REMARK SMILES IDX 85 35 52 36 36 37 37 38 45 39 38 40 40 41 46 42 39 43 41 44
REMARK SMILES IDX 42 45 43 46 44 47 68 48 69 49 77 50 70 51 72 52 78 53 71 54
REMARK SMILES IDX 73 55 74 56 75 57 76 58 53 59 54 60 62 61 55 62 57 63 63 64
REMARK SMILES IDX 56 65 58 66 59 67 60 68 61 69 5 70 6 71 7 72 8 73 9 74 10 75
REMARK SMILES IDX 17 76 11 77 16 78 12 79 15 80 13 81 14 82 18 83 19 84 20 85
REMARK SMILES IDX 21 86 22 87 25 88 23 89 24 90 26 91
REMARK H PARENT 83 22 51 33
REMARK Flexibility Score: inf
ROOT
ATOM      1  C   UNL A   1      31.713  31.576  26.348  1.00  0.00     0.275 C 
ENDROOT
BRANCH   1   2
ATOM      2  O   UNL A   1      32.662  31.432  27.406  1.00  0.00    -0.458 OA
BRANCH   2   3
ATOM      3  C   UNL A   1      33.776  32.159  27.635  1.00  0.00     0.338 C 
ATOM      4  O   UNL A   1      33.716  33.369  27.416  1.00  0.00    -0.246 OA
BRANCH   3   5
ATOM      5  C   UNL A   1      35.098  31.589  28.087  1.00  0.00     0.060 A 
ATOM      6  C   UNL A   1      36.352  32.218  28.161  1.00  0.00     0.016 A 
ATOM      7  C   UNL A   1      35.033  30.279  28.558  1.00  0.00     0.016 A 
ATOM      8  C   UNL A   1      37.476  31.609  28.754  1.00  0.00     0.010 A 
ATOM      9  C   UNL A   1      36.130  29.700  29.200  1.00  0.00     0.010 A 
ATOM     10  C   UNL A   1      37.375  30.350  29.321  1.00  0.00    -0.014 A 
BRANCH  10  11
ATOM     11  C   UNL A   1      38.506  29.629  29.999  1.00  0.00     0.031 A 
ATOM     12  C   UNL A   1      39.040  30.270  31.253  1.00  0.00     0.074 A 
ATOM     13  C   UNL A   1      39.172  28.576  29.458  1.00  0.00     0.049 A 
ATOM     14  N   UNL A   1      40.195  30.121  31.835  1.00  0.00    -0.248 NA
ATOM     15  C   UNL A   1      38.171  31.281  31.893  1.00  0.00     0.031 C 
ATOM     16  C   UNL A   1      38.785  27.810  28.268  1.00  0.00     0.029 A 
ATOM     17  N   UNL A   1      40.407  28.041  29.779  1.00  0.00    -0.354 N 
ATOM     18  C   UNL A   1      40.181  31.025  32.886  1.00  0.00     0.074 A 
ATOM     19  C   UNL A   1      39.022  31.867  32.717  1.00  0.00     0.031 C 
ATOM     20  C   UNL A   1      39.799  27.000  27.905  1.00  0.00     0.029 A 
ATOM     21  C   UNL A   1      40.920  27.191  28.810  1.00  0.00     0.049 A 
ATOM     22  H   UNL A   1      40.879  28.247  30.618  1.00  0.00     0.167 HD
ATOM     23  C   UNL A   1      40.959  31.048  33.991  1.00  0.00     0.034 A 
ATOM     24  C   UNL A   1      42.153  26.650  28.660  1.00  0.00     0.034 A 
ATOM     25  C   UNL A   1      42.015  30.110  34.210  1.00  0.00     0.049 A 
ATOM     26  C   UNL A   1      43.095  26.780  29.819  1.00  0.00     0.074 A 
ATOM     27  C   UNL A   1      42.753  29.887  35.353  1.00  0.00     0.029 A 
ATOM     28  N   UNL A   1      42.472  29.222  33.246  1.00  0.00    -0.354 N 
ATOM     29  N   UNL A   1      42.976  27.512  30.898  1.00  0.00    -0.248 NA
ATOM     30  C   UNL A   1      44.257  25.879  29.817  1.00  0.00     0.031 C 
ATOM     31  C   UNL A   1      43.679  28.876  35.074  1.00  0.00     0.029 A 
ATOM     32  C   UNL A   1      43.491  28.451  33.766  1.00  0.00     0.049 A 
ATOM     33  H   UNL A   1      42.122  29.153  32.329  1.00  0.00     0.167 HD
ATOM     34  C   UNL A   1      43.967  27.066  31.760  1.00  0.00     0.074 A 
ATOM     35  C   UNL A   1      44.719  26.051  31.047  1.00  0.00     0.031 C 
ATOM     36  C   UNL A   1      44.191  27.420  33.048  1.00  0.00     0.034 A 
BRANCH  23  37
ATOM     37  C   UNL A   1      40.574  32.026  35.067  1.00  0.00     0.023 A 
ATOM     38  C   UNL A   1      41.369  33.176  35.280  1.00  0.00     0.012 A 
ATOM     39  C   UNL A   1      39.471  31.788  35.902  1.00  0.00     0.148 A 
ATOM     40  C   UNL A   1      41.131  34.021  36.361  1.00  0.00     0.002 A 
ATOM     41  C   UNL A   1      39.200  32.671  36.940  1.00  0.00     0.091 A 
ATOM     42  F   UNL A   1      38.734  30.689  35.692  1.00  0.00    -0.205 F 
ATOM     43  C   UNL A   1      40.043  33.769  37.189  1.00  0.00     0.022 A 
BRANCH  41  44
ATOM     44  S   UNL A   1      37.778  32.490  38.017  1.00  0.00     0.127 S 
ATOM     45  O   UNL A   1      38.112  33.409  39.105  1.00  0.00    -0.237 OA
ATOM     46  O   UNL A   1      36.687  32.939  37.152  1.00  0.00    -0.237 OA
ATOM     47  O   UNL A   1      37.727  31.083  38.387  1.00  0.00    -0.744 OA
ENDBRANCH  41  44
ENDBRANCH  23  37
BRANCH  24  48
ATOM     48  C   UNL A   1      42.528  25.758  27.512  1.00  0.00     0.023 A 
ATOM     49  C   UNL A   1      43.251  26.312  26.438  1.00  0.00     0.012 A 
ATOM     50  C   UNL A   1      42.102  24.414  27.410  1.00  0.00     0.148 A 
ATOM     51  C   UNL A   1      43.577  25.545  25.316  1.00  0.00     0.002 A 
ATOM     52  C   UNL A   1      42.510  23.628  26.330  1.00  0.00     0.091 A 
ATOM     53  F   UNL A   1      41.268  23.933  28.344  1.00  0.00    -0.205 F 
ATOM     54  C   UNL A   1      43.231  24.198  25.272  1.00  0.00     0.022 A 
BRANCH  52  55
ATOM     55  S   UNL A   1      42.209  21.855  26.236  1.00  0.00     0.127 S 
ATOM     56  O   UNL A   1      43.066  21.442  25.124  1.00  0.00    -0.237 OA
ATOM     57  O   UNL A   1      42.667  21.410  27.553  1.00  0.00    -0.237 OA
ATOM     58  O   UNL A   1      40.782  21.702  25.986  1.00  0.00    -0.744 OA
ENDBRANCH  52  55
ENDBRANCH  24  48
BRANCH  36  59
ATOM     59  C   UNL A   1      45.222  26.642  33.808  1.00  0.00     0.023 A 
ATOM     60  C   UNL A   1      46.566  27.053  33.809  1.00  0.00     0.012 A 
ATOM     61  C   UNL A   1      44.818  25.551  34.603  1.00  0.00     0.148 A 
ATOM     62  C   UNL A   1      47.503  26.372  34.582  1.00  0.00     0.002 A 
ATOM     63  C   UNL A   1      45.744  24.922  35.420  1.00  0.00     0.091 A 
ATOM     64  F   UNL A   1      43.536  25.164  34.556  1.00  0.00    -0.205 F 
ATOM     65  C   UNL A   1      47.089  25.322  35.401  1.00  0.00     0.022 A 
BRANCH  63  66
ATOM     66  S   UNL A   1      45.273  23.653  36.598  1.00  0.00     0.127 S 
ATOM     67  O   UNL A   1      44.353  24.381  37.470  1.00  0.00    -0.237 OA
ATOM     68  O   UNL A   1      44.640  22.655  35.737  1.00  0.00    -0.237 OA
ATOM     69  O   UNL A   1      46.508  23.208  37.231  1.00  0.00    -0.744 OA
ENDBRANCH  63  66
ENDBRANCH  36  59
ENDBRANCH  10  11
ENDBRANCH   3   5
ENDBRANCH   2   3
ENDBRANCH   1   2
BRANCH   1  70
ATOM     70  C   UNL A   1      31.407  30.277  25.592  1.00  0.00     0.274 C 
BRANCH  70  71
ATOM     71  O   UNL A   1      32.555  29.480  25.223  1.00  0.00    -0.461 OA
BRANCH  71  72
ATOM     72  C   UNL A   1      32.411  28.138  25.406  1.00  0.00     0.329 C 
ATOM     73  O   UNL A   1      31.473  27.644  26.031  1.00  0.00    -0.250 OA
BRANCH  72  74
ATOM     74  C   UNL A   1      33.519  27.251  24.793  1.00  0.00     0.195 C 
ATOM     75  C   UNL A   1      34.218  26.395  25.880  1.00  0.00     0.043 C 
ATOM     76  N   UNL A   1      33.324  26.335  23.649  1.00  0.00    -0.324 N 
ATOM     77  C   UNL A   1      33.985  24.970  25.413  1.00  0.00     0.014 C 
ATOM     78  C   UNL A   1      34.048  25.076  23.893  1.00  0.00     0.089 C 
ATOM     79  C   UNL A   1      34.847  23.845  25.972  1.00  0.00     0.006 C 
ATOM     80  C   UNL A   1      33.512  23.759  23.362  1.00  0.00     0.025 C 
ATOM     81  C   UNL A   1      34.506  22.496  25.314  1.00  0.00     0.000 C 
ATOM     82  C   UNL A   1      34.395  22.587  23.791  1.00  0.00     0.002 C 
BRANCH  76  83
ATOM     83  C   UNL A   1      33.021  26.931  22.435  1.00  0.00     0.243 C 
ATOM     84  O   UNL A   1      33.856  27.643  21.860  1.00  0.00    -0.273 OA
BRANCH  83  85
ATOM     85  C   UNL A   1      31.668  26.693  21.768  1.00  0.00     0.220 C 
BRANCH  85  86
ATOM     86  N   UNL A   1      30.598  27.492  22.339  1.00  0.00    -0.323 N 
ATOM     87  C   UNL A   1      30.527  28.899  22.091  1.00  0.00     0.190 C 
ATOM     88  C   UNL A   1      29.696  26.964  23.235  1.00  0.00     0.233 C 
ATOM     89  S   UNL A   1      29.049  29.528  22.889  1.00  0.00    -0.130 SA
ATOM     90  C   UNL A   1      28.620  27.933  23.639  1.00  0.00     0.171 C 
ATOM     91  O   UNL A   1      29.719  25.786  23.576  1.00  0.00    -0.274 OA
ENDBRANCH  85  86
ENDBRANCH  83  85
ENDBRANCH  76  83
ENDBRANCH  72  74
ENDBRANCH  71  72
ENDBRANCH  70  71
ENDBRANCH   1  70
TORSDOF 17
ENDMDL
MODEL 3
REMARK VINA RESULT:     -11.1      2.686      3.418
REMARK SMILES O=C(OCCOC(=O)[C@H]1C[C@@H]2CCCC[C@H]2N1C(=O)CN1CSCC1=O)c1ccc(-c2c3nc(c(-c4cccc(S(=O)(=O)[O-])c4F)c4ccc([nH]4)c(-c4cccc(S(=O)(=O)[O-])c4F)c4nc(c(-c5cccc(S(=O)(=O)[O-])c5F)c5ccc2[nH]5)C=C4)C=C3)cc1
REMARK SMILES IDX 4 1 3 2 2 3 1 4 27 5 28 6 89 7 29 8 88 9 30 10 31 11 32 12
REMARK SMILES IDX 82 13 33 14 87 15 81 16 83 17 34 18 86 19 80 20 79 21 35 23
REMARK SMILES IDX 67 24 47 25 66 26 48 27 51 28 65 29 84 30 49 31 50 32 64 34
REMARK SMILES IDX 85 35 52 36 36 37 37 38 45 39 38 40 40 41 46 42 39 43 41 44
REMARK SMILES IDX 42 45 43 46 44 47 68 48 69 49 77 50 70 51 72 52 78 53 71 54
REMARK SMILES IDX 73 55 74 56 75 57 76 58 53 59 54 60 62 61 55 62 57 63 63 64
REMARK SMILES IDX 56 65 58 66 59 67 60 68 61 69 5 70 6 71 7 72 8 73 9 74 10 75
REMARK SMILES IDX 17 76 11 77 16 78 12 79 15 80 13 81 14 82 18 83 19 84 20 85
REMARK SMILES IDX 21 86 22 87 25 88 23 89 24 90 26 91
REMARK H PARENT 83 22 51 33
REMARK Flexibility Score: inf
ROOT
ATOM      1  C   UNL A   1      35.631  22.442  24.602  1.00  0.00     0.275 C 
ENDROOT
BRANCH   1   2
ATOM      2  O   UNL A   1      36.387  21.686  25.549  1.00  0.00    -0.458 OA
BRANCH   2   3
ATOM      3  C   UNL A   1      37.726  21.533  25.620  1.00  0.00     0.338 C 
ATOM      4  O   UNL A   1      38.208  20.520  25.113  1.00  0.00    -0.246 OA
BRANCH   3   5
ATOM      5  C   UNL A   1      38.664  22.486  26.320  1.00  0.00     0.060 A 
ATOM      6  C   UNL A   1      39.806  22.197  27.086  1.00  0.00     0.016 A 
ATOM      7  C   UNL A   1      38.386  23.834  26.107  1.00  0.00     0.016 A 
ATOM      8  C   UNL A   1      40.684  23.196  27.552  1.00  0.00     0.010 A 
ATOM      9  C   UNL A   1      39.288  24.819  26.515  1.00  0.00     0.010 A 
ATOM     10  C   UNL A   1      40.461  24.526  27.242  1.00  0.00    -0.014 A 
BRANCH  10  11
ATOM     11  C   UNL A   1      41.351  25.660  27.667  1.00  0.00     0.031 A 
ATOM     12  C   UNL A   1      40.664  26.828  28.324  1.00  0.00     0.074 A 
ATOM     13  C   UNL A   1      42.663  25.767  27.329  1.00  0.00     0.049 A 
ATOM     14  N   UNL A   1      41.063  28.061  28.456  1.00  0.00    -0.248 NA
ATOM     15  C   UNL A   1      39.298  26.581  28.836  1.00  0.00     0.031 C 
ATOM     16  C   UNL A   1      43.500  24.730  26.718  1.00  0.00     0.029 A 
ATOM     17  N   UNL A   1      43.500  26.869  27.343  1.00  0.00    -0.354 N 
ATOM     18  C   UNL A   1      39.994  28.718  29.046  1.00  0.00     0.074 A 
ATOM     19  C   UNL A   1      38.868  27.816  29.026  1.00  0.00     0.031 C 
ATOM     20  C   UNL A   1      44.669  25.270  26.321  1.00  0.00     0.029 A 
ATOM     21  C   UNL A   1      44.672  26.692  26.622  1.00  0.00     0.049 A 
ATOM     22  H   UNL A   1      43.283  27.703  27.820  1.00  0.00     0.167 HD
ATOM     23  C   UNL A   1      39.987  29.898  29.704  1.00  0.00     0.034 A 
ATOM     24  C   UNL A   1      45.623  27.576  26.233  1.00  0.00     0.034 A 
ATOM     25  C   UNL A   1      41.155  30.712  29.838  1.00  0.00     0.049 A 
ATOM     26  C   UNL A   1      45.563  28.946  26.839  1.00  0.00     0.074 A 
ATOM     27  C   UNL A   1      41.350  31.824  30.630  1.00  0.00     0.029 A 
ATOM     28  N   UNL A   1      42.340  30.482  29.155  1.00  0.00    -0.354 N 
ATOM     29  N   UNL A   1      44.608  29.488  27.554  1.00  0.00    -0.248 NA
ATOM     30  C   UNL A   1      46.782  29.759  26.732  1.00  0.00     0.031 C 
ATOM     31  C   UNL A   1      42.652  32.284  30.408  1.00  0.00     0.029 A 
ATOM     32  C   UNL A   1      43.274  31.436  29.502  1.00  0.00     0.049 A 
ATOM     33  H   UNL A   1      42.493  29.747  28.518  1.00  0.00     0.167 HD
ATOM     34  C   UNL A   1      45.157  30.643  28.091  1.00  0.00     0.074 A 
ATOM     35  C   UNL A   1      46.502  30.755  27.561  1.00  0.00     0.031 C 
ATOM     36  C   UNL A   1      44.617  31.497  28.992  1.00  0.00     0.034 A 
BRANCH  23  37
ATOM     37  C   UNL A   1      38.719  30.261  30.425  1.00  0.00     0.023 A 
ATOM     38  C   UNL A   1      38.378  29.583  31.620  1.00  0.00     0.012 A 
ATOM     39  C   UNL A   1      37.839  31.223  29.906  1.00  0.00     0.148 A 
ATOM     40  C   UNL A   1      37.144  29.785  32.230  1.00  0.00     0.002 A 
ATOM     41  C   UNL A   1      36.636  31.467  30.557  1.00  0.00     0.091 A 
ATOM     42  F   UNL A   1      38.173  31.849  28.769  1.00  0.00    -0.205 F 
ATOM     43  C   UNL A   1      36.274  30.731  31.700  1.00  0.00     0.022 A 
BRANCH  41  44
ATOM     44  S   UNL A   1      35.477  32.721  30.009  1.00  0.00     0.127 S 
ATOM     45  O   UNL A   1      34.395  32.570  30.982  1.00  0.00    -0.237 OA
ATOM     46  O   UNL A   1      36.265  33.945  30.159  1.00  0.00    -0.237 OA
ATOM     47  O   UNL A   1      35.130  32.380  28.637  1.00  0.00    -0.744 OA
ENDBRANCH  41  44
ENDBRANCH  23  37
BRANCH  24  48
ATOM     48  C   UNL A   1      46.826  27.189  25.423  1.00  0.00     0.023 A 
ATOM     49  C   UNL A   1      47.814  26.387  26.028  1.00  0.00     0.012 A 
ATOM     50  C   UNL A   1      47.064  27.674  24.117  1.00  0.00     0.148 A 
ATOM     51  C   UNL A   1      48.983  26.044  25.343  1.00  0.00     0.002 A 
ATOM     52  C   UNL A   1      48.190  27.252  23.405  1.00  0.00     0.091 A 
ATOM     53  F   UNL A   1      46.214  28.575  23.603  1.00  0.00    -0.205 F 
ATOM     54  C   UNL A   1      49.160  26.453  24.025  1.00  0.00     0.022 A 
BRANCH  52  55
ATOM     55  S   UNL A   1      48.452  27.634  21.665  1.00  0.00     0.127 S 
ATOM     56  O   UNL A   1      48.717  26.318  21.084  1.00  0.00    -0.237 OA
ATOM     57  O   UNL A   1      47.160  28.212  21.294  1.00  0.00    -0.237 OA
ATOM     58  O   UNL A   1      49.582  28.551  21.621  1.00  0.00    -0.744 OA
ENDBRANCH  52  55
ENDBRANCH  24  48
BRANCH  36  59
ATOM     59  C   UNL A   1      45.506  32.570  29.544  1.00  0.00     0.023 A 
ATOM     60  C   UNL A   1      46.296  32.327  30.680  1.00  0.00     0.012 A 
ATOM     61  C   UNL A   1      45.620  33.796  28.856  1.00  0.00     0.148 A 
ATOM     62  C   UNL A   1      47.179  33.301  31.138  1.00  0.00     0.002 A 
ATOM     63  C   UNL A   1      46.548  34.733  29.280  1.00  0.00     0.091 A 
ATOM     64  F   UNL A   1      44.830  34.010  27.795  1.00  0.00    -0.205 F 
ATOM     65  C   UNL A   1      47.319  34.493  30.428  1.00  0.00     0.022 A 
BRANCH  63  66
ATOM     66  S   UNL A   1      46.886  36.232  28.353  1.00  0.00     0.127 S 
ATOM     67  O   UNL A   1      47.247  35.697  27.041  1.00  0.00    -0.237 OA
ATOM     68  O   UNL A   1      45.596  36.918  28.401  1.00  0.00    -0.237 OA
ATOM     69  O   UNL A   1      47.961  36.914  29.062  1.00  0.00    -0.744 OA
ENDBRANCH  63  66
ENDBRANCH  36  59
ENDBRANCH  10  11
ENDBRANCH   3   5
ENDBRANCH   2   3
ENDBRANCH   1   2
BRANCH   1  70
ATOM     70  C   UNL A   1      34.407  23.154  25.194  1.00  0.00     0.274 C 
BRANCH  70  71
ATOM     71  O   UNL A   1      33.412  23.588  24.240  1.00  0.00    -0.461 OA
BRANCH  71  72
ATOM     72  C   UNL A   1      33.312  24.937  24.082  1.00  0.00     0.329 C 
ATOM     73  O   UNL A   1      33.606  25.513  23.035  1.00  0.00    -0.250 OA
BRANCH  72  74
ATOM     74  C   UNL A   1      32.818  25.726  25.317  1.00  0.00     0.195 C 
ATOM     75  C   UNL A   1      33.976  26.519  25.975  1.00  0.00     0.043 C 
ATOM     76  N   UNL A   1      31.668  26.655  25.314  1.00  0.00    -0.324 N 
ATOM     77  C   UNL A   1      33.499  27.959  25.912  1.00  0.00     0.014 C 
ATOM     78  C   UNL A   1      31.992  27.847  26.116  1.00  0.00     0.089 C 
ATOM     79  C   UNL A   1      34.150  29.006  26.808  1.00  0.00     0.006 C 
ATOM     80  C   UNL A   1      31.422  29.205  25.749  1.00  0.00     0.025 C 
ATOM     81  C   UNL A   1      33.472  30.379  26.650  1.00  0.00     0.000 C 
ATOM     82  C   UNL A   1      31.945  30.298  26.683  1.00  0.00     0.002 C 
BRANCH  76  83
ATOM     83  C   UNL A   1      30.425  26.086  25.084  1.00  0.00     0.243 C 
ATOM     84  O   UNL A   1      29.779  25.590  26.016  1.00  0.00    -0.273 OA
BRANCH  83  85
ATOM     85  C   UNL A   1      29.815  26.094  23.683  1.00  0.00     0.220 C 
BRANCH  85  86
ATOM     86  N   UNL A   1      29.333  27.402  23.275  1.00  0.00    -0.323 N 
ATOM     87  C   UNL A   1      27.966  27.771  23.478  1.00  0.00     0.190 C 
ATOM     88  C   UNL A   1      30.124  28.280  22.568  1.00  0.00     0.233 C 
ATOM     89  S   UNL A   1      27.762  29.464  22.924  1.00  0.00    -0.130 SA
ATOM     90  C   UNL A   1      29.466  29.609  22.319  1.00  0.00     0.171 C 
ATOM     91  O   UNL A   1      31.287  28.027  22.273  1.00  0.00    -0.274 OA
ENDBRANCH  85  86
ENDBRANCH  83  85
ENDBRANCH  76  83
ENDBRANCH  72  74
ENDBRANCH  71  72
ENDBRANCH  70  71
ENDBRANCH   1  70
TORSDOF 17
ENDMDL
