MODEL 1
REMARK VINA RESULT:     -10.7      0.000      0.000
REMARK SMILES CCNC(=O)NC(=O)[C@@H](C)[NH2+][C@](C)(CC)C(=O)OCCOC(=O)c1ccc(-c2c3nc(c(-c4cccc(S(=O)(=O)[O-])c4F)c4ccc([nH]4)c(-c4cccc(S(=O)(=O)[O-])c4F)c4nc(c(-c5cccc(S(=O)(=O)[O-])c5F)c5ccc2[nH]5)C=C4)C=C3)cc1
REMARK SMILES IDX 19 1 18 2 16 3 17 4 12 5 13 6 11 7 9 10 10 11 7 12 3 13 4 14
REMARK SMILES IDX 5 16 6 17 8 19 2 20 1 21 14 22 15 23 20 24 21 25 22 26 23 27
REMARK SMILES IDX 24 28 25 29 86 30 26 31 85 32 27 33 28 34 29 35 79 36 30 37
REMARK SMILES IDX 84 38 78 39 80 40 31 41 83 42 77 43 76 44 32 46 64 47 44 48
REMARK SMILES IDX 63 49 45 50 48 51 62 52 81 53 46 54 47 55 61 57 82 58 49 59
REMARK SMILES IDX 33 60 34 61 42 62 35 63 37 64 43 65 36 66 38 67 39 68 40 69
REMARK SMILES IDX 41 70 65 71 66 72 74 73 67 74 69 75 75 76 68 77 70 78 71 79
REMARK SMILES IDX 72 80 73 81 50 82 51 83 59 84 52 85 54 86 60 87 53 88 55 89
REMARK SMILES IDX 56 90 57 91 58 92
REMARK H PARENT 11 8 11 9 3 15 6 18 80 45 48 56
REMARK Flexibility Score: inf
ROOT
ATOM      1  C   UNL A   1      32.634  29.267  24.774  1.00  0.00     0.274 C 
ENDROOT
BRANCH   1   2
ATOM      2  O   UNL A   1      31.985  28.004  24.516  1.00  0.00    -0.457 OA
BRANCH   2   3
ATOM      3  C   UNL A   1      32.775  27.024  23.986  1.00  0.00     0.367 C 
ATOM      4  O   UNL A   1      33.564  27.230  23.068  1.00  0.00    -0.245 OA
BRANCH   3   5
ATOM      5  C   UNL A   1      32.475  25.601  24.566  1.00  0.00     0.191 C 
ATOM      6  C   UNL A   1      33.338  25.317  25.811  1.00  0.00     0.092 C 
BRANCH   5   7
ATOM      7  N   UNL A   1      32.714  24.617  23.450  1.00  0.00    -0.322 N 
ATOM      8  H   UNL A   1      31.810  24.213  23.207  1.00  0.00     0.347 HD
ATOM      9  H   UNL A   1      33.171  25.170  22.724  1.00  0.00     0.347 HD
BRANCH   7  10
ATOM     10  C   UNL A   1      33.648  23.488  23.685  1.00  0.00     0.270 C 
ATOM     11  C   UNL A   1      34.998  23.347  22.972  1.00  0.00     0.086 C 
BRANCH  10  12
ATOM     12  C   UNL A   1      32.915  22.153  23.504  1.00  0.00     0.285 C 
ATOM     13  N   UNL A   1      34.959  20.665  25.788  1.00  0.00    -0.338 N 
ATOM     14  C   UNL A   1      34.107  20.223  24.868  1.00  0.00     0.321 C 
ATOM     15  H   UNL A   1      35.580  19.962  26.089  1.00  0.00     0.165 HD
ATOM     16  O   UNL A   1      34.117  19.003  24.656  1.00  0.00    -0.248 OA
ATOM     17  N   UNL A   1      33.214  20.959  24.145  1.00  0.00    -0.273 N 
ATOM     18  H   UNL A   1      32.426  20.383  24.023  1.00  0.00     0.175 HD
ATOM     19  O   UNL A   1      31.966  22.097  22.705  1.00  0.00    -0.268 OA
BRANCH  13  20
ATOM     20  C   UNL A   1      35.194  21.918  26.450  1.00  0.00     0.114 C 
ATOM     21  C   UNL A   1      36.468  22.602  25.997  1.00  0.00     0.027 C 
ENDBRANCH  13  20
ENDBRANCH  10  12
ENDBRANCH   7  10
ENDBRANCH   5   7
BRANCH   5  22
ATOM     22  C   UNL A   1      30.974  25.438  24.972  1.00  0.00     0.077 C 
ATOM     23  C   UNL A   1      29.952  25.431  23.832  1.00  0.00     0.011 C 
ENDBRANCH   5  22
ENDBRANCH   3   5
ENDBRANCH   2   3
ENDBRANCH   1   2
BRANCH   1  24
ATOM     24  C   UNL A   1      31.778  30.209  25.612  1.00  0.00     0.275 C 
BRANCH  24  25
ATOM     25  O   UNL A   1      32.327  30.312  26.932  1.00  0.00    -0.458 OA
BRANCH  25  26
ATOM     26  C   UNL A   1      32.996  31.456  27.196  1.00  0.00     0.338 C 
ATOM     27  O   UNL A   1      32.553  32.590  27.171  1.00  0.00    -0.246 OA
BRANCH  26  28
ATOM     28  C   UNL A   1      34.380  31.141  27.589  1.00  0.00     0.060 A 
ATOM     29  C   UNL A   1      34.744  29.817  27.829  1.00  0.00     0.016 A 
ATOM     30  C   UNL A   1      35.268  32.173  27.876  1.00  0.00     0.016 A 
ATOM     31  C   UNL A   1      35.948  29.519  28.457  1.00  0.00     0.010 A 
ATOM     32  C   UNL A   1      36.513  31.869  28.431  1.00  0.00     0.010 A 
ATOM     33  C   UNL A   1      36.838  30.546  28.781  1.00  0.00    -0.014 A 
BRANCH  33  34
ATOM     34  C   UNL A   1      38.047  30.261  29.595  1.00  0.00     0.031 A 
ATOM     35  C   UNL A   1      39.135  29.398  29.011  1.00  0.00     0.074 A 
ATOM     36  C   UNL A   1      38.185  30.775  30.831  1.00  0.00     0.049 A 
ATOM     37  N   UNL A   1      40.174  28.867  29.598  1.00  0.00    -0.248 NA
ATOM     38  C   UNL A   1      39.027  29.077  27.577  1.00  0.00     0.031 C 
ATOM     39  C   UNL A   1      37.232  31.667  31.490  1.00  0.00     0.029 A 
ATOM     40  N   UNL A   1      39.186  30.616  31.757  1.00  0.00    -0.354 N 
ATOM     41  C   UNL A   1      40.783  28.070  28.636  1.00  0.00     0.074 A 
ATOM     42  C   UNL A   1      40.016  28.209  27.418  1.00  0.00     0.031 C 
ATOM     43  C   UNL A   1      37.700  31.993  32.705  1.00  0.00     0.029 A 
ATOM     44  C   UNL A   1      38.949  31.276  32.941  1.00  0.00     0.049 A 
ATOM     45  H   UNL A   1      39.995  30.080  31.591  1.00  0.00     0.167 HD
ATOM     46  C   UNL A   1      41.885  27.293  28.757  1.00  0.00     0.034 A 
ATOM     47  C   UNL A   1      39.642  31.272  34.096  1.00  0.00     0.034 A 
ATOM     48  C   UNL A   1      42.700  27.239  29.939  1.00  0.00     0.049 A 
ATOM     49  C   UNL A   1      40.883  30.428  34.195  1.00  0.00     0.074 A 
ATOM     50  C   UNL A   1      43.863  26.523  30.154  1.00  0.00     0.029 A 
ATOM     51  N   UNL A   1      42.447  27.951  31.102  1.00  0.00    -0.354 N 
ATOM     52  N   UNL A   1      41.456  29.692  33.273  1.00  0.00    -0.248 NA
ATOM     53  C   UNL A   1      41.571  30.413  35.494  1.00  0.00     0.031 C 
ATOM     54  C   UNL A   1      44.315  26.803  31.449  1.00  0.00     0.029 A 
ATOM     55  C   UNL A   1      43.432  27.695  32.040  1.00  0.00     0.049 A 
ATOM     56  H   UNL A   1      41.678  28.550  31.242  1.00  0.00     0.167 HD
ATOM     57  C   UNL A   1      42.578  29.134  33.875  1.00  0.00     0.074 A 
ATOM     58  C   UNL A   1      42.621  29.645  35.231  1.00  0.00     0.031 C 
ATOM     59  C   UNL A   1      43.476  28.255  33.366  1.00  0.00     0.034 A 
BRANCH  46  60
ATOM     60  C   UNL A   1      42.277  26.453  27.572  1.00  0.00     0.023 A 
ATOM     61  C   UNL A   1      43.031  27.018  26.525  1.00  0.00     0.012 A 
ATOM     62  C   UNL A   1      41.915  25.093  27.508  1.00  0.00     0.148 A 
ATOM     63  C   UNL A   1      43.392  26.250  25.418  1.00  0.00     0.002 A 
ATOM     64  C   UNL A   1      42.310  24.324  26.418  1.00  0.00     0.091 A 
ATOM     65  F   UNL A   1      41.168  24.579  28.495  1.00  0.00    -0.205 F 
ATOM     66  C   UNL A   1      43.042  24.903  25.368  1.00  0.00     0.022 A 
BRANCH  64  67
ATOM     67  S   UNL A   1      41.953  22.567  26.313  1.00  0.00     0.127 S 
ATOM     68  O   UNL A   1      40.492  22.563  26.259  1.00  0.00    -0.237 OA
ATOM     69  O   UNL A   1      42.609  22.185  25.061  1.00  0.00    -0.237 OA
ATOM     70  O   UNL A   1      42.548  21.976  27.504  1.00  0.00    -0.744 OA
ENDBRANCH  64  67
ENDBRANCH  46  60
BRANCH  47  71
ATOM     71  C   UNL A   1      39.188  32.120  35.235  1.00  0.00     0.023 A 
ATOM     72  C   UNL A   1      38.310  31.573  36.189  1.00  0.00     0.012 A 
ATOM     73  C   UNL A   1      39.662  33.434  35.415  1.00  0.00     0.148 A 
ATOM     74  C   UNL A   1      37.905  32.321  37.296  1.00  0.00     0.002 A 
ATOM     75  C   UNL A   1      39.304  34.152  36.551  1.00  0.00     0.091 A 
ATOM     76  F   UNL A   1      40.473  33.952  34.480  1.00  0.00    -0.205 F 
ATOM     77  C   UNL A   1      38.414  33.602  37.485  1.00  0.00     0.022 A 
BRANCH  75  78
ATOM     78  S   UNL A   1      40.039  35.745  36.939  1.00  0.00     0.127 S 
ATOM     79  O   UNL A   1      41.459  35.413  37.006  1.00  0.00    -0.237 OA
ATOM     80  O   UNL A   1      39.649  36.555  35.783  1.00  0.00    -0.237 OA
ATOM     81  O   UNL A   1      39.418  36.159  38.191  1.00  0.00    -0.744 OA
ENDBRANCH  75  78
ENDBRANCH  47  71
BRANCH  59  82
ATOM     82  C   UNL A   1      44.580  27.796  34.277  1.00  0.00     0.023 A 
ATOM     83  C   UNL A   1      45.781  28.529  34.328  1.00  0.00     0.012 A 
ATOM     84  C   UNL A   1      44.410  26.681  35.119  1.00  0.00     0.148 A 
ATOM     85  C   UNL A   1      46.809  28.142  35.186  1.00  0.00     0.002 A 
ATOM     86  C   UNL A   1      45.425  26.325  36.001  1.00  0.00     0.091 A 
ATOM     87  F   UNL A   1      43.269  25.980  35.039  1.00  0.00    -0.205 F 
ATOM     88  C   UNL A   1      46.628  27.048  36.029  1.00  0.00     0.022 A 
BRANCH  86  89
ATOM     89  S   UNL A   1      45.221  24.978  37.171  1.00  0.00     0.127 S 
ATOM     90  O   UNL A   1      43.997  25.368  37.869  1.00  0.00    -0.237 OA
ATOM     91  O   UNL A   1      45.079  23.812  36.298  1.00  0.00    -0.237 OA
ATOM     92  O   UNL A   1      46.438  24.976  37.974  1.00  0.00    -0.744 OA
ENDBRANCH  86  89
ENDBRANCH  59  82
ENDBRANCH  33  34
ENDBRANCH  26  28
ENDBRANCH  25  26
ENDBRANCH  24  25
ENDBRANCH   1  24
TORSDOF 19
ENDMDL
MODEL 2
REMARK VINA RESULT:     -10.7      5.137      7.747
REMARK SMILES CCNC(=O)NC(=O)[C@@H](C)[NH2+][C@](C)(CC)C(=O)OCCOC(=O)c1ccc(-c2c3nc(c(-c4cccc(S(=O)(=O)[O-])c4F)c4ccc([nH]4)c(-c4cccc(S(=O)(=O)[O-])c4F)c4nc(c(-c5cccc(S(=O)(=O)[O-])c5F)c5ccc2[nH]5)C=C4)C=C3)cc1
REMARK SMILES IDX 19 1 18 2 16 3 17 4 12 5 13 6 11 7 9 10 10 11 7 12 3 13 4 14
REMARK SMILES IDX 5 16 6 17 8 19 2 20 1 21 14 22 15 23 20 24 21 25 22 26 23 27
REMARK SMILES IDX 24 28 25 29 86 30 26 31 85 32 27 33 28 34 29 35 79 36 30 37
REMARK SMILES IDX 84 38 78 39 80 40 31 41 83 42 77 43 76 44 32 46 64 47 44 48
REMARK SMILES IDX 63 49 45 50 48 51 62 52 81 53 46 54 47 55 61 57 82 58 49 59
REMARK SMILES IDX 33 60 34 61 42 62 35 63 37 64 43 65 36 66 38 67 39 68 40 69
REMARK SMILES IDX 41 70 65 71 66 72 74 73 67 74 69 75 75 76 68 77 70 78 71 79
REMARK SMILES IDX 72 80 73 81 50 82 51 83 59 84 52 85 54 86 60 87 53 88 55 89
REMARK SMILES IDX 56 90 57 91 58 92
REMARK H PARENT 11 8 11 9 3 15 6 18 80 45 48 56
REMARK Flexibility Score: inf
ROOT
ATOM      1  C   UNL A   1      36.989  20.681  24.706  1.00  0.00     0.274 C 
ENDROOT
BRANCH   1   2
ATOM      2  O   UNL A   1      36.921  22.124  24.717  1.00  0.00    -0.457 OA
BRANCH   2   3
ATOM      3  C   UNL A   1      36.214  22.696  23.699  1.00  0.00     0.367 C 
ATOM      4  O   UNL A   1      36.605  22.697  22.535  1.00  0.00    -0.245 OA
BRANCH   3   5
ATOM      5  C   UNL A   1      34.936  23.462  24.181  1.00  0.00     0.191 C 
ATOM      6  C   UNL A   1      35.225  24.270  25.462  1.00  0.00     0.092 C 
BRANCH   5   7
ATOM      7  N   UNL A   1      33.855  22.429  24.369  1.00  0.00    -0.322 N 
ATOM      8  H   UNL A   1      33.034  22.757  23.860  1.00  0.00     0.347 HD
ATOM      9  H   UNL A   1      34.277  21.563  24.034  1.00  0.00     0.347 HD
BRANCH   7  10
ATOM     10  C   UNL A   1      33.414  22.105  25.748  1.00  0.00     0.270 C 
ATOM     11  C   UNL A   1      34.240  21.255  26.721  1.00  0.00     0.086 C 
BRANCH  10  12
ATOM     12  C   UNL A   1      32.006  21.496  25.720  1.00  0.00     0.285 C 
ATOM     13  N   UNL A   1      30.689  24.359  27.017  1.00  0.00    -0.338 N 
ATOM     14  C   UNL A   1      30.249  23.114  26.863  1.00  0.00     0.321 C 
ATOM     15  H   UNL A   1      30.152  24.865  27.669  1.00  0.00     0.165 HD
ATOM     16  O   UNL A   1      29.178  22.840  27.419  1.00  0.00    -0.248 OA
ATOM     17  N   UNL A   1      30.838  22.111  26.149  1.00  0.00    -0.273 N 
ATOM     18  H   UNL A   1      30.100  21.585  25.765  1.00  0.00     0.175 HD
ATOM     19  O   UNL A   1      31.865  20.340  25.290  1.00  0.00    -0.268 OA
BRANCH  13  20
ATOM     20  C   UNL A   1      31.757  25.146  26.463  1.00  0.00     0.114 C 
ATOM     21  C   UNL A   1      31.294  26.106  25.386  1.00  0.00     0.027 C 
ENDBRANCH  13  20
ENDBRANCH  10  12
ENDBRANCH   7  10
ENDBRANCH   5   7
BRANCH   5  22
ATOM     22  C   UNL A   1      34.403  24.453  23.095  1.00  0.00     0.077 C 
ATOM     23  C   UNL A   1      32.918  24.345  22.738  1.00  0.00     0.011 C 
ENDBRANCH   5  22
ENDBRANCH   3   5
ENDBRANCH   2   3
ENDBRANCH   1   2
BRANCH   1  24
ATOM     24  C   UNL A   1      38.402  20.156  24.931  1.00  0.00     0.275 C 
BRANCH  24  25
ATOM     25  O   UNL A   1      38.791  20.389  26.290  1.00  0.00    -0.458 OA
BRANCH  25  26
ATOM     26  C   UNL A   1      40.110  20.607  26.489  1.00  0.00     0.338 C 
ATOM     27  O   UNL A   1      41.029  19.855  26.220  1.00  0.00    -0.246 OA
BRANCH  26  28
ATOM     28  C   UNL A   1      40.310  21.954  27.049  1.00  0.00     0.060 A 
ATOM     29  C   UNL A   1      39.547  23.020  26.573  1.00  0.00     0.016 A 
ATOM     30  C   UNL A   1      41.364  22.187  27.927  1.00  0.00     0.016 A 
ATOM     31  C   UNL A   1      39.895  24.330  26.879  1.00  0.00     0.010 A 
ATOM     32  C   UNL A   1      41.664  23.498  28.302  1.00  0.00     0.010 A 
ATOM     33  C   UNL A   1      40.971  24.583  27.734  1.00  0.00    -0.014 A 
BRANCH  33  34
ATOM     34  C   UNL A   1      41.455  25.973  27.939  1.00  0.00     0.031 A 
ATOM     35  C   UNL A   1      42.801  26.367  27.388  1.00  0.00     0.074 A 
ATOM     36  C   UNL A   1      40.703  26.877  28.592  1.00  0.00     0.049 A 
ATOM     37  N   UNL A   1      43.500  27.448  27.608  1.00  0.00    -0.248 NA
ATOM     38  C   UNL A   1      43.453  25.405  26.483  1.00  0.00     0.031 C 
ATOM     39  C   UNL A   1      39.362  26.638  29.126  1.00  0.00     0.029 A 
ATOM     40  N   UNL A   1      40.964  28.184  28.920  1.00  0.00    -0.354 N 
ATOM     41  C   UNL A   1      44.711  27.252  26.955  1.00  0.00     0.074 A 
ATOM     42  C   UNL A   1      44.642  25.963  26.305  1.00  0.00     0.031 C 
ATOM     43  C   UNL A   1      38.909  27.765  29.697  1.00  0.00     0.029 A 
ATOM     44  C   UNL A   1      39.953  28.782  29.637  1.00  0.00     0.049 A 
ATOM     45  H   UNL A   1      41.794  28.649  28.669  1.00  0.00     0.167 HD
ATOM     46  C   UNL A   1      45.783  28.077  26.900  1.00  0.00     0.034 A 
ATOM     47  C   UNL A   1      39.892  30.000  30.210  1.00  0.00     0.034 A 
ATOM     48  C   UNL A   1      45.806  29.399  27.462  1.00  0.00     0.049 A 
ATOM     49  C   UNL A   1      41.083  30.911  30.106  1.00  0.00     0.074 A 
ATOM     50  C   UNL A   1      46.822  30.336  27.423  1.00  0.00     0.029 A 
ATOM     51  N   UNL A   1      44.750  29.981  28.147  1.00  0.00    -0.354 N 
ATOM     52  N   UNL A   1      42.215  30.720  29.472  1.00  0.00    -0.248 NA
ATOM     53  C   UNL A   1      40.990  32.205  30.797  1.00  0.00     0.031 C 
ATOM     54  C   UNL A   1      46.379  31.487  28.085  1.00  0.00     0.029 A 
ATOM     55  C   UNL A   1      45.085  31.266  28.535  1.00  0.00     0.049 A 
ATOM     56  H   UNL A   1      43.887  29.543  28.331  1.00  0.00     0.167 HD
ATOM     57  C   UNL A   1      42.966  31.872  29.678  1.00  0.00     0.074 A 
ATOM     58  C   UNL A   1      42.144  32.769  30.467  1.00  0.00     0.031 C 
ATOM     59  C   UNL A   1      44.231  32.154  29.278  1.00  0.00     0.034 A 
BRANCH  46  60
ATOM     60  C   UNL A   1      47.012  27.572  26.194  1.00  0.00     0.023 A 
ATOM     61  C   UNL A   1      47.970  26.816  26.897  1.00  0.00     0.012 A 
ATOM     62  C   UNL A   1      47.207  27.830  24.822  1.00  0.00     0.148 A 
ATOM     63  C   UNL A   1      49.117  26.350  26.255  1.00  0.00     0.002 A 
ATOM     64  C   UNL A   1      48.336  27.332  24.180  1.00  0.00     0.091 A 
ATOM     65  F   UNL A   1      46.305  28.582  24.175  1.00  0.00    -0.205 F 
ATOM     66  C   UNL A   1      49.296  26.599  24.896  1.00  0.00     0.022 A 
BRANCH  64  67
ATOM     67  S   UNL A   1      48.604  27.555  22.417  1.00  0.00     0.127 S 
ATOM     68  O   UNL A   1      49.879  28.268  22.398  1.00  0.00    -0.237 OA
ATOM     69  O   UNL A   1      48.670  26.176  21.931  1.00  0.00    -0.237 OA
ATOM     70  O   UNL A   1      47.448  28.302  21.938  1.00  0.00    -0.744 OA
ENDBRANCH  64  67
ENDBRANCH  46  60
BRANCH  47  71
ATOM     71  C   UNL A   1      38.646  30.430  30.906  1.00  0.00     0.023 A 
ATOM     72  C   UNL A   1      38.532  30.231  32.295  1.00  0.00     0.012 A 
ATOM     73  C   UNL A   1      37.603  31.084  30.221  1.00  0.00     0.148 A 
ATOM     74  C   UNL A   1      37.401  30.667  32.987  1.00  0.00     0.002 A 
ATOM     75  C   UNL A   1      36.508  31.571  30.925  1.00  0.00     0.091 A 
ATOM     76  F   UNL A   1      37.711  31.238  28.893  1.00  0.00    -0.205 F 
ATOM     77  C   UNL A   1      36.398  31.351  32.306  1.00  0.00     0.022 A 
BRANCH  75  78
ATOM     78  S   UNL A   1      35.254  32.594  30.144  1.00  0.00     0.127 S 
ATOM     79  O   UNL A   1      34.334  32.840  31.249  1.00  0.00    -0.237 OA
ATOM     80  O   UNL A   1      36.030  33.759  29.714  1.00  0.00    -0.237 OA
ATOM     81  O   UNL A   1      34.734  31.790  29.044  1.00  0.00    -0.744 OA
ENDBRANCH  75  78
ENDBRANCH  47  71
BRANCH  59  82
ATOM     82  C   UNL A   1      44.798  33.485  29.685  1.00  0.00     0.023 A 
ATOM     83  C   UNL A   1      45.502  33.592  30.901  1.00  0.00     0.012 A 
ATOM     84  C   UNL A   1      44.687  34.610  28.846  1.00  0.00     0.148 A 
ATOM     85  C   UNL A   1      46.064  34.806  31.288  1.00  0.00     0.002 A 
ATOM     86  C   UNL A   1      45.285  35.809  29.222  1.00  0.00     0.091 A 
ATOM     87  F   UNL A   1      43.993  34.497  27.704  1.00  0.00    -0.205 F 
ATOM     88  C   UNL A   1      45.965  35.911  30.446  1.00  0.00     0.022 A 
BRANCH  86  89
ATOM     89  S   UNL A   1      45.266  37.244  28.142  1.00  0.00     0.127 S 
ATOM     90  O   UNL A   1      43.834  37.516  28.029  1.00  0.00    -0.237 OA
ATOM     91  O   UNL A   1      46.016  38.236  28.914  1.00  0.00    -0.237 OA
ATOM     92  O   UNL A   1      45.931  36.815  26.918  1.00  0.00    -0.744 OA
ENDBRANCH  86  89
ENDBRANCH  59  82
ENDBRANCH  33  34
ENDBRANCH  26  28
ENDBRANCH  25  26
ENDBRANCH  24  25
ENDBRANCH   1  24
TORSDOF 19
ENDMDL
MODEL 3
REMARK VINA RESULT:     -10.5      1.645      2.259
REMARK SMILES CCNC(=O)NC(=O)[C@@H](C)[NH2+][C@](C)(CC)C(=O)OCCOC(=O)c1ccc(-c2c3nc(c(-c4cccc(S(=O)(=O)[O-])c4F)c4ccc([nH]4)c(-c4cccc(S(=O)(=O)[O-])c4F)c4nc(c(-c5cccc(S(=O)(=O)[O-])c5F)c5ccc2[nH]5)C=C4)C=C3)cc1
REMARK SMILES IDX 19 1 18 2 16 3 17 4 12 5 13 6 11 7 9 10 10 11 7 12 3 13 4 14
REMARK SMILES IDX 5 16 6 17 8 19 2 20 1 21 14 22 15 23 20 24 21 25 22 26 23 27
REMARK SMILES IDX 24 28 25 29 86 30 26 31 85 32 27 33 28 34 29 35 79 36 30 37
REMARK SMILES IDX 84 38 78 39 80 40 31 41 83 42 77 43 76 44 32 46 64 47 44 48
REMARK SMILES IDX 63 49 45 50 48 51 62 52 81 53 46 54 47 55 61 57 82 58 49 59
REMARK SMILES IDX 33 60 34 61 42 62 35 63 37 64 43 65 36 66 38 67 39 68 40 69
REMARK SMILES IDX 41 70 65 71 66 72 74 73 67 74 69 75 75 76 68 77 70 78 71 79
REMARK SMILES IDX 72 80 73 81 50 82 51 83 59 84 52 85 54 86 60 87 53 88 55 89
REMARK SMILES IDX 56 90 57 91 58 92
REMARK H PARENT 11 8 11 9 3 15 6 18 80 45 48 56
REMARK Flexibility Score: inf
ROOT
ATOM      1  C   UNL A   1      31.176  30.625  25.411  1.00  0.00     0.274 C 
ENDROOT
BRANCH   1   2
ATOM      2  O   UNL A   1      31.912  29.383  25.457  1.00  0.00    -0.457 OA
BRANCH   2   3
ATOM      3  C   UNL A   1      31.947  28.666  24.295  1.00  0.00     0.367 C 
ATOM      4  O   UNL A   1      31.561  29.121  23.222  1.00  0.00    -0.245 OA
BRANCH   3   5
ATOM      5  C   UNL A   1      32.394  27.179  24.494  1.00  0.00     0.191 C 
ATOM      6  C   UNL A   1      33.197  26.675  23.279  1.00  0.00     0.092 C 
BRANCH   5   7
ATOM      7  N   UNL A   1      31.142  26.378  24.744  1.00  0.00    -0.322 N 
ATOM      8  H   UNL A   1      30.986  26.371  25.751  1.00  0.00     0.347 HD
ATOM      9  H   UNL A   1      30.431  26.846  24.180  1.00  0.00     0.347 HD
BRANCH   7  10
ATOM     10  C   UNL A   1      31.096  24.969  24.283  1.00  0.00     0.270 C 
ATOM     11  C   UNL A   1      30.134  24.464  23.202  1.00  0.00     0.086 C 
BRANCH  10  12
ATOM     12  C   UNL A   1      30.938  24.028  25.485  1.00  0.00     0.285 C 
ATOM     13  N   UNL A   1      32.996  21.738  24.026  1.00  0.00    -0.338 N 
ATOM     14  C   UNL A   1      32.138  21.711  25.042  1.00  0.00     0.321 C 
ATOM     15  H   UNL A   1      33.223  20.834  23.706  1.00  0.00     0.165 HD
ATOM     16  O   UNL A   1      31.889  20.595  25.516  1.00  0.00    -0.248 OA
ATOM     17  N   UNL A   1      31.515  22.775  25.627  1.00  0.00    -0.273 N 
ATOM     18  H   UNL A   1      31.443  22.551  26.583  1.00  0.00     0.175 HD
ATOM     19  O   UNL A   1      30.220  24.387  26.432  1.00  0.00    -0.268 OA
BRANCH  13  20
ATOM     20  C   UNL A   1      33.673  22.764  23.283  1.00  0.00     0.114 C 
ATOM     21  C   UNL A   1      33.117  22.955  21.887  1.00  0.00     0.027 C 
ENDBRANCH  13  20
ENDBRANCH  10  12
ENDBRANCH   7  10
ENDBRANCH   5   7
BRANCH   5  22
ATOM     22  C   UNL A   1      33.282  27.001  25.768  1.00  0.00     0.077 C 
ATOM     23  C   UNL A   1      34.214  25.786  25.790  1.00  0.00     0.011 C 
ENDBRANCH   5  22
ENDBRANCH   3   5
ENDBRANCH   2   3
ENDBRANCH   1   2
BRANCH   1  24
ATOM     24  C   UNL A   1      31.531  31.562  26.559  1.00  0.00     0.275 C 
BRANCH  24  25
ATOM     25  O   UNL A   1      32.783  31.167  27.134  1.00  0.00    -0.458 OA
BRANCH  25  26
ATOM     26  C   UNL A   1      33.542  32.172  27.624  1.00  0.00     0.338 C 
ATOM     27  O   UNL A   1      33.201  33.326  27.816  1.00  0.00    -0.246 OA
BRANCH  26  28
ATOM     28  C   UNL A   1      34.882  31.662  27.961  1.00  0.00     0.060 A 
ATOM     29  C   UNL A   1      35.039  30.327  28.330  1.00  0.00     0.016 A 
ATOM     30  C   UNL A   1      35.951  32.547  28.066  1.00  0.00     0.016 A 
ATOM     31  C   UNL A   1      36.224  29.890  28.909  1.00  0.00     0.010 A 
ATOM     32  C   UNL A   1      37.170  32.089  28.571  1.00  0.00     0.010 A 
ATOM     33  C   UNL A   1      37.297  30.773  29.053  1.00  0.00    -0.014 A 
BRANCH  33  34
ATOM     34  C   UNL A   1      38.506  30.367  29.815  1.00  0.00     0.031 A 
ATOM     35  C   UNL A   1      39.486  29.417  29.179  1.00  0.00     0.074 A 
ATOM     36  C   UNL A   1      38.739  30.849  31.050  1.00  0.00     0.049 A 
ATOM     37  N   UNL A   1      40.493  28.784  29.718  1.00  0.00    -0.248 NA
ATOM     38  C   UNL A   1      39.293  29.126  27.747  1.00  0.00     0.031 C 
ATOM     39  C   UNL A   1      37.898  31.816  31.756  1.00  0.00     0.029 A 
ATOM     40  N   UNL A   1      39.756  30.586  31.933  1.00  0.00    -0.354 N 
ATOM     41  C   UNL A   1      40.988  27.948  28.724  1.00  0.00     0.074 A 
ATOM     42  C   UNL A   1      40.191  28.174  27.540  1.00  0.00     0.031 C 
ATOM     43  C   UNL A   1      38.441  32.080  32.953  1.00  0.00     0.029 A 
ATOM     44  C   UNL A   1      39.627  31.248  33.132  1.00  0.00     0.049 A 
ATOM     45  H   UNL A   1      40.505  29.980  31.729  1.00  0.00     0.167 HD
ATOM     46  C   UNL A   1      42.018  27.072  28.793  1.00  0.00     0.034 A 
ATOM     47  C   UNL A   1      40.361  31.165  34.258  1.00  0.00     0.034 A 
ATOM     48  C   UNL A   1      42.870  26.927  29.941  1.00  0.00     0.049 A 
ATOM     49  C   UNL A   1      41.521  30.210  34.299  1.00  0.00     0.074 A 
ATOM     50  C   UNL A   1      43.970  26.104  30.102  1.00  0.00     0.029 A 
ATOM     51  N   UNL A   1      42.729  27.642  31.121  1.00  0.00    -0.354 N 
ATOM     52  N   UNL A   1      41.988  29.437  33.347  1.00  0.00    -0.248 NA
ATOM     53  C   UNL A   1      42.255  30.113  35.569  1.00  0.00     0.031 C 
ATOM     54  C   UNL A   1      44.495  26.324  31.381  1.00  0.00     0.029 A 
ATOM     55  C   UNL A   1      43.722  27.285  32.015  1.00  0.00     0.049 A 
ATOM     56  H   UNL A   1      42.024  28.307  31.297  1.00  0.00     0.167 HD
ATOM     57  C   UNL A   1      43.076  28.770  33.898  1.00  0.00     0.074 A 
ATOM     58  C   UNL A   1      43.219  29.256  35.256  1.00  0.00     0.031 C 
ATOM     59  C   UNL A   1      43.869  27.819  33.344  1.00  0.00     0.034 A 
BRANCH  46  60
ATOM     60  C   UNL A   1      42.284  26.216  27.585  1.00  0.00     0.023 A 
ATOM     61  C   UNL A   1      42.954  26.757  26.470  1.00  0.00     0.012 A 
ATOM     62  C   UNL A   1      41.889  24.864  27.564  1.00  0.00     0.148 A 
ATOM     63  C   UNL A   1      43.198  25.975  25.342  1.00  0.00     0.002 A 
ATOM     64  C   UNL A   1      42.168  24.080  26.450  1.00  0.00     0.091 A 
ATOM     65  F   UNL A   1      41.221  24.373  28.618  1.00  0.00    -0.205 F 
ATOM     66  C   UNL A   1      42.816  24.635  25.334  1.00  0.00     0.022 A 
BRANCH  64  67
ATOM     67  S   UNL A   1      41.765  22.330  26.391  1.00  0.00     0.127 S 
ATOM     68  O   UNL A   1      42.453  21.907  25.173  1.00  0.00    -0.237 OA
ATOM     69  O   UNL A   1      42.358  21.828  27.632  1.00  0.00    -0.237 OA
ATOM     70  O   UNL A   1      40.310  22.266  26.356  1.00  0.00    -0.744 OA
ENDBRANCH  64  67
ENDBRANCH  46  60
BRANCH  47  71
ATOM     71  C   UNL A   1      40.032  32.035  35.423  1.00  0.00     0.023 A 
ATOM     72  C   UNL A   1      40.683  33.276  35.558  1.00  0.00     0.012 A 
ATOM     73  C   UNL A   1      39.043  31.676  36.359  1.00  0.00     0.148 A 
ATOM     74  C   UNL A   1      40.362  34.138  36.607  1.00  0.00     0.002 A 
ATOM     75  C   UNL A   1      38.685  32.565  37.367  1.00  0.00     0.091 A 
ATOM     76  F   UNL A   1      38.455  30.476  36.237  1.00  0.00    -0.205 F 
ATOM     77  C   UNL A   1      39.353  33.791  37.501  1.00  0.00     0.022 A 
BRANCH  75  78
ATOM     78  S   UNL A   1      37.292  32.252  38.458  1.00  0.00     0.127 S 
ATOM     79  O   UNL A   1      36.220  32.988  37.797  1.00  0.00    -0.237 OA
ATOM     80  O   UNL A   1      37.171  30.794  38.394  1.00  0.00    -0.237 OA
ATOM     81  O   UNL A   1      37.706  32.756  39.762  1.00  0.00    -0.744 OA
ENDBRANCH  75  78
ENDBRANCH  47  71
BRANCH  59  82
ATOM     82  C   UNL A   1      44.960  27.248  34.206  1.00  0.00     0.023 A 
ATOM     83  C   UNL A   1      46.183  27.938  34.317  1.00  0.00     0.012 A 
ATOM     84  C   UNL A   1      44.759  26.068  34.945  1.00  0.00     0.148 A 
ATOM     85  C   UNL A   1      47.200  27.447  35.133  1.00  0.00     0.002 A 
ATOM     86  C   UNL A   1      45.765  25.604  35.787  1.00  0.00     0.091 A 
ATOM     87  F   UNL A   1      43.598  25.410  34.808  1.00  0.00    -0.205 F 
ATOM     88  C   UNL A   1      46.988  26.287  35.875  1.00  0.00     0.022 A 
BRANCH  86  89
ATOM     89  S   UNL A   1      45.523  24.165  36.833  1.00  0.00     0.127 S 
ATOM     90  O   UNL A   1      46.897  23.813  37.184  1.00  0.00    -0.237 OA
ATOM     91  O   UNL A   1      44.730  24.701  37.940  1.00  0.00    -0.237 OA
ATOM     92  O   UNL A   1      44.811  23.200  36.003  1.00  0.00    -0.744 OA
ENDBRANCH  86  89
ENDBRANCH  59  82
ENDBRANCH  33  34
ENDBRANCH  26  28
ENDBRANCH  25  26
ENDBRANCH  24  25
ENDBRANCH   1  24
TORSDOF 19
ENDMDL
