MODEL 1
REMARK VINA RESULT:     -10.8      0.000      0.000
REMARK SMILES C=CCNC(=O)C[NH2+][C@](C)(C(=O)OCCOC(=O)c1ccc(-c2c3nc(c(-c4cccc(S(=O)(=O)[O-])c4F)c4ccc([nH]4)c(-c4cccc(S(=O)(=O)[O-])c4F)c4nc(c(-c5cccc(S(=O)(=O)[O-])c5F)c5ccc2[nH]5)C=C4)C=C3)cc1)C(F)(F)F
REMARK SMILES IDX 14 1 13 2 11 3 12 4 9 5 10 6 8 7 7 10 5 11 4 12 6 14 3 15
REMARK SMILES IDX 2 16 1 17 82 18 83 19 84 20 85 21 15 22 16 23 17 24 18 25
REMARK SMILES IDX 19 26 20 27 81 28 21 29 80 30 22 31 23 32 24 33 74 34 25 35
REMARK SMILES IDX 79 36 73 37 75 38 26 39 78 40 72 41 71 42 27 44 59 45 39 46
REMARK SMILES IDX 58 47 40 48 43 49 57 50 76 51 41 52 42 53 56 55 77 56 44 57
REMARK SMILES IDX 28 58 29 59 37 60 30 61 32 62 38 63 31 64 33 65 34 66 35 67
REMARK SMILES IDX 36 68 60 69 61 70 69 71 62 72 64 73 70 74 63 75 65 76 66 77
REMARK SMILES IDX 67 78 68 79 45 80 46 81 54 82 47 83 49 84 55 85 48 86 50 87
REMARK SMILES IDX 51 88 52 89 53 90
REMARK H PARENT 8 8 8 9 4 13 75 43 43 54
REMARK Flexibility Score: inf
ROOT
ATOM      1  C   UNL A   1      34.955  20.714  25.153  1.00  0.00     0.274 C 
ENDROOT
BRANCH   1   2
ATOM      2  O   UNL A   1      34.776  22.144  25.050  1.00  0.00    -0.457 OA
BRANCH   2   3
ATOM      3  C   UNL A   1      33.693  22.577  24.344  1.00  0.00     0.377 C 
ATOM      4  O   UNL A   1      33.224  21.976  23.385  1.00  0.00    -0.244 OA
BRANCH   3   5
ATOM      5  C   UNL A   1      33.178  23.945  24.820  1.00  0.00     0.287 C 
ATOM      6  C   UNL A   1      34.323  24.868  25.281  1.00  0.00     0.103 C 
BRANCH   5   7
ATOM      7  N   UNL A   1      32.549  24.679  23.658  1.00  0.00    -0.317 N 
ATOM      8  H   UNL A   1      32.247  23.987  22.972  1.00  0.00     0.347 HD
ATOM      9  H   UNL A   1      31.779  25.225  24.047  1.00  0.00     0.347 HD
BRANCH   7  10
ATOM     10  C   UNL A   1      33.440  25.640  22.978  1.00  0.00     0.363 C 
BRANCH  10  11
ATOM     11  C   UNL A   1      32.807  26.049  21.643  1.00  0.00     0.275 C 
ATOM     12  N   UNL A   1      31.860  27.037  21.638  1.00  0.00    -0.348 N 
ATOM     13  H   UNL A   1      31.406  27.196  20.780  1.00  0.00     0.163 HD
ATOM     14  O   UNL A   1      33.136  25.525  20.578  1.00  0.00    -0.268 OA
BRANCH  12  15
ATOM     15  C   UNL A   1      31.445  27.875  22.740  1.00  0.00     0.143 C 
BRANCH  15  16
ATOM     16  C   UNL A   1      30.040  27.492  23.084  1.00  0.00    -0.014 C 
ATOM     17  C   UNL A   1      28.997  28.332  23.075  1.00  0.00     0.006 C 
ENDBRANCH  15  16
ENDBRANCH  12  15
ENDBRANCH  10  11
ENDBRANCH   7  10
ENDBRANCH   5   7
BRANCH   5  18
ATOM     18  C   UNL A   1      32.307  23.646  26.060  1.00  0.00     0.455 C 
ATOM     19  F   UNL A   1      31.625  22.487  25.920  1.00  0.00    -0.164 F 
ATOM     20  F   UNL A   1      33.075  23.518  27.171  1.00  0.00    -0.164 F 
ATOM     21  F   UNL A   1      31.407  24.618  26.323  1.00  0.00    -0.164 F 
ENDBRANCH   5  18
ENDBRANCH   3   5
ENDBRANCH   2   3
ENDBRANCH   1   2
BRANCH   1  22
ATOM     22  C   UNL A   1      36.427  20.348  25.002  1.00  0.00     0.275 C 
BRANCH  22  23
ATOM     23  O   UNL A   1      37.222  21.440  25.488  1.00  0.00    -0.458 OA
BRANCH  23  24
ATOM     24  C   UNL A   1      38.503  21.147  25.808  1.00  0.00     0.338 C 
ATOM     25  O   UNL A   1      39.088  20.095  25.613  1.00  0.00    -0.246 OA
BRANCH  24  26
ATOM     26  C   UNL A   1      39.131  22.331  26.426  1.00  0.00     0.060 A 
ATOM     27  C   UNL A   1      38.645  23.606  26.141  1.00  0.00     0.016 A 
ATOM     28  C   UNL A   1      40.274  22.181  27.208  1.00  0.00     0.016 A 
ATOM     29  C   UNL A   1      39.360  24.733  26.536  1.00  0.00     0.010 A 
ATOM     30  C   UNL A   1      40.920  23.317  27.707  1.00  0.00     0.010 A 
ATOM     31  C   UNL A   1      40.499  24.609  27.343  1.00  0.00    -0.014 A 
BRANCH  31  32
ATOM     32  C   UNL A   1      41.263  25.815  27.780  1.00  0.00     0.031 A 
ATOM     33  C   UNL A   1      40.597  26.862  28.638  1.00  0.00     0.074 A 
ATOM     34  C   UNL A   1      42.544  25.996  27.397  1.00  0.00     0.049 A 
ATOM     35  N   UNL A   1      41.000  28.071  28.928  1.00  0.00    -0.248 NA
ATOM     36  C   UNL A   1      39.293  26.511  29.229  1.00  0.00     0.031 C 
ATOM     37  C   UNL A   1      43.328  25.067  26.580  1.00  0.00     0.029 A 
ATOM     38  N   UNL A   1      43.414  27.034  27.636  1.00  0.00    -0.354 N 
ATOM     39  C   UNL A   1      39.963  28.659  29.643  1.00  0.00     0.074 A 
ATOM     40  C   UNL A   1      38.921  27.664  29.772  1.00  0.00     0.031 C 
ATOM     41  C   UNL A   1      44.564  25.559  26.410  1.00  0.00     0.029 A 
ATOM     42  C   UNL A   1      44.638  26.879  27.027  1.00  0.00     0.049 A 
ATOM     43  H   UNL A   1      43.182  27.815  28.190  1.00  0.00     0.167 HD
ATOM     44  C   UNL A   1      39.887  29.912  30.151  1.00  0.00     0.034 A 
ATOM     45  C   UNL A   1      45.691  27.715  26.930  1.00  0.00     0.034 A 
ATOM     46  C   UNL A   1      40.967  30.862  30.125  1.00  0.00     0.049 A 
ATOM     47  C   UNL A   1      45.603  29.078  27.557  1.00  0.00     0.074 A 
ATOM     48  C   UNL A   1      41.001  32.138  30.659  1.00  0.00     0.029 A 
ATOM     49  N   UNL A   1      42.211  30.631  29.562  1.00  0.00    -0.354 N 
ATOM     50  N   UNL A   1      44.623  29.604  28.251  1.00  0.00    -0.248 NA
ATOM     51  C   UNL A   1      46.765  29.963  27.391  1.00  0.00     0.031 C 
ATOM     52  C   UNL A   1      42.269  32.677  30.424  1.00  0.00     0.029 A 
ATOM     53  C   UNL A   1      43.025  31.735  29.744  1.00  0.00     0.049 A 
ATOM     54  H   UNL A   1      42.477  29.802  29.100  1.00  0.00     0.167 HD
ATOM     55  C   UNL A   1      45.052  30.876  28.610  1.00  0.00     0.074 A 
ATOM     56  C   UNL A   1      46.396  31.027  28.091  1.00  0.00     0.031 C 
ATOM     57  C   UNL A   1      44.381  31.846  29.277  1.00  0.00     0.034 A 
BRANCH  44  58
ATOM     58  C   UNL A   1      38.603  30.331  30.814  1.00  0.00     0.023 A 
ATOM     59  C   UNL A   1      38.400  30.062  32.180  1.00  0.00     0.012 A 
ATOM     60  C   UNL A   1      37.637  31.070  30.100  1.00  0.00     0.148 A 
ATOM     61  C   UNL A   1      37.247  30.507  32.825  1.00  0.00     0.002 A 
ATOM     62  C   UNL A   1      36.508  31.542  30.758  1.00  0.00     0.091 A 
ATOM     63  F   UNL A   1      37.841  31.295  28.794  1.00  0.00    -0.205 F 
ATOM     64  C   UNL A   1      36.308  31.257  32.119  1.00  0.00     0.022 A 
BRANCH  62  65
ATOM     65  S   UNL A   1      35.279  32.576  29.951  1.00  0.00     0.127 S 
ATOM     66  O   UNL A   1      34.756  31.671  28.930  1.00  0.00    -0.237 OA
ATOM     67  O   UNL A   1      34.349  32.864  31.045  1.00  0.00    -0.237 OA
ATOM     68  O   UNL A   1      36.000  33.737  29.450  1.00  0.00    -0.744 OA
ENDBRANCH  62  65
ENDBRANCH  44  58
BRANCH  45  69
ATOM     69  C   UNL A   1      46.923  27.279  26.214  1.00  0.00     0.023 A 
ATOM     70  C   UNL A   1      47.823  26.407  26.855  1.00  0.00     0.012 A 
ATOM     71  C   UNL A   1      47.186  27.679  24.889  1.00  0.00     0.148 A 
ATOM     72  C   UNL A   1      48.969  25.957  26.196  1.00  0.00     0.002 A 
ATOM     73  C   UNL A   1      48.293  27.175  24.217  1.00  0.00     0.091 A 
ATOM     74  F   UNL A   1      46.339  28.536  24.299  1.00  0.00    -0.205 F 
ATOM     75  C   UNL A   1      49.196  26.327  24.872  1.00  0.00     0.022 A 
BRANCH  73  76
ATOM     76  S   UNL A   1      48.534  27.490  22.465  1.00  0.00     0.127 S 
ATOM     77  O   UNL A   1      47.353  28.281  22.132  1.00  0.00    -0.237 OA
ATOM     78  O   UNL A   1      49.796  28.232  22.444  1.00  0.00    -0.237 OA
ATOM     79  O   UNL A   1      48.619  26.166  21.861  1.00  0.00    -0.744 OA
ENDBRANCH  73  76
ENDBRANCH  45  69
BRANCH  57  80
ATOM     80  C   UNL A   1      45.090  33.152  29.498  1.00  0.00     0.023 A 
ATOM     81  C   UNL A   1      45.836  33.339  30.677  1.00  0.00     0.012 A 
ATOM     82  C   UNL A   1      45.080  34.161  28.515  1.00  0.00     0.148 A 
ATOM     83  C   UNL A   1      46.544  34.522  30.887  1.00  0.00     0.002 A 
ATOM     84  C   UNL A   1      45.818  35.322  28.716  1.00  0.00     0.091 A 
ATOM     85  F   UNL A   1      44.344  33.973  27.410  1.00  0.00    -0.205 F 
ATOM     86  C   UNL A   1      46.543  35.507  29.902  1.00  0.00     0.022 A 
BRANCH  84  87
ATOM     87  S   UNL A   1      45.932  36.601  27.460  1.00  0.00     0.127 S 
ATOM     88  O   UNL A   1      44.680  37.329  27.658  1.00  0.00    -0.237 OA
ATOM     89  O   UNL A   1      47.132  37.336  27.863  1.00  0.00    -0.237 OA
ATOM     90  O   UNL A   1      46.061  35.897  26.191  1.00  0.00    -0.744 OA
ENDBRANCH  84  87
ENDBRANCH  57  80
ENDBRANCH  31  32
ENDBRANCH  24  26
ENDBRANCH  23  24
ENDBRANCH  22  23
ENDBRANCH   1  22
TORSDOF 20
ENDMDL
MODEL 2
REMARK VINA RESULT:     -10.7      1.829      3.199
REMARK SMILES C=CCNC(=O)C[NH2+][C@](C)(C(=O)OCCOC(=O)c1ccc(-c2c3nc(c(-c4cccc(S(=O)(=O)[O-])c4F)c4ccc([nH]4)c(-c4cccc(S(=O)(=O)[O-])c4F)c4nc(c(-c5cccc(S(=O)(=O)[O-])c5F)c5ccc2[nH]5)C=C4)C=C3)cc1)C(F)(F)F
REMARK SMILES IDX 14 1 13 2 11 3 12 4 9 5 10 6 8 7 7 10 5 11 4 12 6 14 3 15
REMARK SMILES IDX 2 16 1 17 82 18 83 19 84 20 85 21 15 22 16 23 17 24 18 25
REMARK SMILES IDX 19 26 20 27 81 28 21 29 80 30 22 31 23 32 24 33 74 34 25 35
REMARK SMILES IDX 79 36 73 37 75 38 26 39 78 40 72 41 71 42 27 44 59 45 39 46
REMARK SMILES IDX 58 47 40 48 43 49 57 50 76 51 41 52 42 53 56 55 77 56 44 57
REMARK SMILES IDX 28 58 29 59 37 60 30 61 32 62 38 63 31 64 33 65 34 66 35 67
REMARK SMILES IDX 36 68 60 69 61 70 69 71 62 72 64 73 70 74 63 75 65 76 66 77
REMARK SMILES IDX 67 78 68 79 45 80 46 81 54 82 47 83 49 84 55 85 48 86 50 87
REMARK SMILES IDX 51 88 52 89 53 90
REMARK H PARENT 8 8 8 9 4 13 75 43 43 54
REMARK Flexibility Score: inf
ROOT
ATOM      1  C   UNL A   1      36.302  22.626  23.479  1.00  0.00     0.274 C 
ENDROOT
BRANCH   1   2
ATOM      2  O   UNL A   1      35.322  23.605  23.891  1.00  0.00    -0.457 OA
BRANCH   2   3
ATOM      3  C   UNL A   1      34.157  23.641  23.184  1.00  0.00     0.377 C 
ATOM      4  O   UNL A   1      34.107  23.744  21.964  1.00  0.00    -0.244 OA
BRANCH   3   5
ATOM      5  C   UNL A   1      32.911  23.635  24.085  1.00  0.00     0.287 C 
ATOM      6  C   UNL A   1      31.874  22.588  23.634  1.00  0.00     0.103 C 
BRANCH   5   7
ATOM      7  N   UNL A   1      33.300  23.201  25.479  1.00  0.00    -0.317 N 
ATOM      8  H   UNL A   1      34.271  22.888  25.455  1.00  0.00     0.347 HD
ATOM      9  H   UNL A   1      33.152  24.011  26.083  1.00  0.00     0.347 HD
BRANCH   7  10
ATOM     10  C   UNL A   1      32.479  22.109  26.039  1.00  0.00     0.363 C 
BRANCH  10  11
ATOM     11  C   UNL A   1      33.395  21.120  26.770  1.00  0.00     0.275 C 
ATOM     12  N   UNL A   1      33.383  19.806  26.388  1.00  0.00    -0.348 N 
ATOM     13  H   UNL A   1      33.904  19.188  26.949  1.00  0.00     0.163 HD
ATOM     14  O   UNL A   1      34.148  21.476  27.678  1.00  0.00    -0.268 OA
BRANCH  12  15
ATOM     15  C   UNL A   1      32.697  19.215  25.263  1.00  0.00     0.143 C 
BRANCH  15  16
ATOM     16  C   UNL A   1      33.351  17.897  24.985  1.00  0.00    -0.014 C 
ATOM     17  C   UNL A   1      34.161  17.651  23.948  1.00  0.00     0.006 C 
ENDBRANCH  15  16
ENDBRANCH  12  15
ENDBRANCH  10  11
ENDBRANCH   7  10
ENDBRANCH   5   7
BRANCH   5  18
ATOM     18  C   UNL A   1      32.265  25.025  23.900  1.00  0.00     0.455 C 
ATOM     19  F   UNL A   1      33.199  25.990  23.739  1.00  0.00    -0.164 F 
ATOM     20  F   UNL A   1      31.480  25.050  22.793  1.00  0.00    -0.164 F 
ATOM     21  F   UNL A   1      31.481  25.388  24.937  1.00  0.00    -0.164 F 
ENDBRANCH   5  18
ENDBRANCH   3   5
ENDBRANCH   2   3
ENDBRANCH   1   2
BRANCH   1  22
ATOM     22  C   UNL A   1      36.242  21.398  24.380  1.00  0.00     0.275 C 
BRANCH  22  23
ATOM     23  O   UNL A   1      36.847  21.726  25.640  1.00  0.00    -0.458 OA
BRANCH  23  24
ATOM     24  C   UNL A   1      38.168  21.454  25.754  1.00  0.00     0.338 C 
ATOM     25  O   UNL A   1      38.745  20.446  25.386  1.00  0.00    -0.246 OA
BRANCH  24  26
ATOM     26  C   UNL A   1      38.845  22.602  26.389  1.00  0.00     0.060 A 
ATOM     27  C   UNL A   1      38.374  23.895  26.174  1.00  0.00     0.016 A 
ATOM     28  C   UNL A   1      40.017  22.400  27.114  1.00  0.00     0.016 A 
ATOM     29  C   UNL A   1      39.128  24.993  26.580  1.00  0.00     0.010 A 
ATOM     30  C   UNL A   1      40.707  23.504  27.627  1.00  0.00     0.010 A 
ATOM     31  C   UNL A   1      40.298  24.817  27.330  1.00  0.00    -0.014 A 
BRANCH  31  32
ATOM     32  C   UNL A   1      41.104  25.990  27.779  1.00  0.00     0.031 A 
ATOM     33  C   UNL A   1      40.480  27.043  28.661  1.00  0.00     0.074 A 
ATOM     34  C   UNL A   1      42.386  26.137  27.386  1.00  0.00     0.049 A 
ATOM     35  N   UNL A   1      40.925  28.235  28.966  1.00  0.00    -0.248 NA
ATOM     36  C   UNL A   1      39.171  26.725  29.260  1.00  0.00     0.031 C 
ATOM     37  C   UNL A   1      43.132  25.197  26.546  1.00  0.00     0.029 A 
ATOM     38  N   UNL A   1      43.291  27.143  27.633  1.00  0.00    -0.354 N 
ATOM     39  C   UNL A   1      39.914  28.843  29.702  1.00  0.00     0.074 A 
ATOM     40  C   UNL A   1      38.842  27.879  29.825  1.00  0.00     0.031 C 
ATOM     41  C   UNL A   1      44.381  25.653  26.371  1.00  0.00     0.029 A 
ATOM     42  C   UNL A   1      44.504  26.959  27.008  1.00  0.00     0.049 A 
ATOM     43  H   UNL A   1      43.090  27.921  28.201  1.00  0.00     0.167 HD
ATOM     44  C   UNL A   1      39.883  30.089  30.230  1.00  0.00     0.034 A 
ATOM     45  C   UNL A   1      45.581  27.763  26.914  1.00  0.00     0.034 A 
ATOM     46  C   UNL A   1      40.992  31.004  30.209  1.00  0.00     0.049 A 
ATOM     47  C   UNL A   1      45.543  29.117  27.564  1.00  0.00     0.074 A 
ATOM     48  C   UNL A   1      41.073  32.270  30.763  1.00  0.00     0.029 A 
ATOM     49  N   UNL A   1      42.223  30.743  29.629  1.00  0.00    -0.354 N 
ATOM     50  N   UNL A   1      44.587  29.662  28.276  1.00  0.00    -0.248 NA
ATOM     51  C   UNL A   1      46.731  29.967  27.400  1.00  0.00     0.031 C 
ATOM     52  C   UNL A   1      42.355  32.772  30.523  1.00  0.00     0.029 A 
ATOM     53  C   UNL A   1      43.073  31.818  29.820  1.00  0.00     0.049 A 
ATOM     54  H   UNL A   1      42.458  29.915  29.151  1.00  0.00     0.167 HD
ATOM     55  C   UNL A   1      45.060  30.914  28.651  1.00  0.00     0.074 A 
ATOM     56  C   UNL A   1      46.403  31.031  28.121  1.00  0.00     0.031 C 
ATOM     57  C   UNL A   1      44.427  31.894  29.340  1.00  0.00     0.034 A 
BRANCH  44  58
ATOM     58  C   UNL A   1      38.620  30.538  30.914  1.00  0.00     0.023 A 
ATOM     59  C   UNL A   1      38.471  30.356  32.301  1.00  0.00     0.012 A 
ATOM     60  C   UNL A   1      37.619  31.219  30.191  1.00  0.00     0.148 A 
ATOM     61  C   UNL A   1      37.338  30.831  32.960  1.00  0.00     0.002 A 
ATOM     62  C   UNL A   1      36.509  31.721  30.860  1.00  0.00     0.091 A 
ATOM     63  F   UNL A   1      37.771  31.361  28.867  1.00  0.00    -0.205 F 
ATOM     64  C   UNL A   1      36.364  31.524  32.243  1.00  0.00     0.022 A 
BRANCH  62  65
ATOM     65  S   UNL A   1      35.238  32.689  30.036  1.00  0.00     0.127 S 
ATOM     66  O   UNL A   1      36.020  33.794  29.485  1.00  0.00    -0.237 OA
ATOM     67  O   UNL A   1      34.728  31.747  29.039  1.00  0.00    -0.237 OA
ATOM     68  O   UNL A   1      34.280  33.054  31.070  1.00  0.00    -0.744 OA
ENDBRANCH  62  65
ENDBRANCH  44  58
BRANCH  45  69
ATOM     69  C   UNL A   1      46.791  27.299  26.177  1.00  0.00     0.023 A 
ATOM     70  C   UNL A   1      46.928  27.605  24.810  1.00  0.00     0.012 A 
ATOM     71  C   UNL A   1      47.829  26.603  26.828  1.00  0.00     0.148 A 
ATOM     72  C   UNL A   1      48.066  27.212  24.103  1.00  0.00     0.002 A 
ATOM     73  C   UNL A   1      48.986  26.272  26.134  1.00  0.00     0.091 A 
ATOM     74  F   UNL A   1      47.674  26.287  28.123  1.00  0.00    -0.205 F 
ATOM     75  C   UNL A   1      49.103  26.560  24.768  1.00  0.00     0.022 A 
BRANCH  73  76
ATOM     76  S   UNL A   1      50.411  25.585  26.987  1.00  0.00     0.127 S 
ATOM     77  O   UNL A   1      49.877  24.331  27.511  1.00  0.00    -0.237 OA
ATOM     78  O   UNL A   1      51.387  25.433  25.906  1.00  0.00    -0.237 OA
ATOM     79  O   UNL A   1      50.774  26.597  27.971  1.00  0.00    -0.744 OA
ENDBRANCH  73  76
ENDBRANCH  45  69
BRANCH  57  80
ATOM     80  C   UNL A   1      45.180  33.173  29.575  1.00  0.00     0.023 A 
ATOM     81  C   UNL A   1      45.979  33.300  30.727  1.00  0.00     0.012 A 
ATOM     82  C   UNL A   1      45.156  34.215  28.629  1.00  0.00     0.148 A 
ATOM     83  C   UNL A   1      46.727  34.456  30.947  1.00  0.00     0.002 A 
ATOM     84  C   UNL A   1      45.932  35.350  28.837  1.00  0.00     0.091 A 
ATOM     85  F   UNL A   1      44.370  34.085  27.550  1.00  0.00    -0.205 F 
ATOM     86  C   UNL A   1      46.712  35.474  29.997  1.00  0.00     0.022 A 
BRANCH  84  87
ATOM     87  S   UNL A   1      46.028  36.669  27.621  1.00  0.00     0.127 S 
ATOM     88  O   UNL A   1      47.038  37.546  28.210  1.00  0.00    -0.237 OA
ATOM     89  O   UNL A   1      46.465  35.960  26.417  1.00  0.00    -0.237 OA
ATOM     90  O   UNL A   1      44.683  37.222  27.534  1.00  0.00    -0.744 OA
ENDBRANCH  84  87
ENDBRANCH  57  80
ENDBRANCH  31  32
ENDBRANCH  24  26
ENDBRANCH  23  24
ENDBRANCH  22  23
ENDBRANCH   1  22
TORSDOF 20
ENDMDL
MODEL 3
REMARK VINA RESULT:     -10.5      5.292     10.074
REMARK SMILES C=CCNC(=O)C[NH2+][C@](C)(C(=O)OCCOC(=O)c1ccc(-c2c3nc(c(-c4cccc(S(=O)(=O)[O-])c4F)c4ccc([nH]4)c(-c4cccc(S(=O)(=O)[O-])c4F)c4nc(c(-c5cccc(S(=O)(=O)[O-])c5F)c5ccc2[nH]5)C=C4)C=C3)cc1)C(F)(F)F
REMARK SMILES IDX 14 1 13 2 11 3 12 4 9 5 10 6 8 7 7 10 5 11 4 12 6 14 3 15
REMARK SMILES IDX 2 16 1 17 82 18 83 19 84 20 85 21 15 22 16 23 17 24 18 25
REMARK SMILES IDX 19 26 20 27 81 28 21 29 80 30 22 31 23 32 24 33 74 34 25 35
REMARK SMILES IDX 79 36 73 37 75 38 26 39 78 40 72 41 71 42 27 44 59 45 39 46
REMARK SMILES IDX 58 47 40 48 43 49 57 50 76 51 41 52 42 53 56 55 77 56 44 57
REMARK SMILES IDX 28 58 29 59 37 60 30 61 32 62 38 63 31 64 33 65 34 66 35 67
REMARK SMILES IDX 36 68 60 69 61 70 69 71 62 72 64 73 70 74 63 75 65 76 66 77
REMARK SMILES IDX 67 78 68 79 45 80 46 81 54 82 47 83 49 84 55 85 48 86 50 87
REMARK SMILES IDX 51 88 52 89 53 90
REMARK H PARENT 8 8 8 9 4 13 75 43 43 54
REMARK Flexibility Score: inf
ROOT
ATOM      1  C   UNL A   1      31.332  28.963  24.426  1.00  0.00     0.274 C 
ENDROOT
BRANCH   1   2
ATOM      2  O   UNL A   1      31.858  27.772  25.053  1.00  0.00    -0.457 OA
BRANCH   2   3
ATOM      3  C   UNL A   1      32.747  27.038  24.325  1.00  0.00     0.377 C 
ATOM      4  O   UNL A   1      33.584  27.531  23.579  1.00  0.00    -0.244 OA
BRANCH   3   5
ATOM      5  C   UNL A   1      32.527  25.523  24.467  1.00  0.00     0.287 C 
ATOM      6  C   UNL A   1      33.784  24.716  24.088  1.00  0.00     0.103 C 
BRANCH   5   7
ATOM      7  N   UNL A   1      32.286  25.182  25.919  1.00  0.00    -0.317 N 
ATOM      8  H   UNL A   1      32.499  26.009  26.478  1.00  0.00     0.347 HD
ATOM      9  H   UNL A   1      31.310  24.890  25.987  1.00  0.00     0.347 HD
BRANCH   7  10
ATOM     10  C   UNL A   1      33.094  24.059  26.434  1.00  0.00     0.363 C 
BRANCH  10  11
ATOM     11  C   UNL A   1      32.164  22.887  26.770  1.00  0.00     0.275 C 
ATOM     12  N   UNL A   1      32.581  21.614  26.488  1.00  0.00    -0.348 N 
ATOM     13  H   UNL A   1      31.916  20.902  26.621  1.00  0.00     0.163 HD
ATOM     14  O   UNL A   1      31.064  23.057  27.297  1.00  0.00    -0.268 OA
BRANCH  12  15
ATOM     15  C   UNL A   1      33.879  21.189  26.017  1.00  0.00     0.143 C 
BRANCH  15  16
ATOM     16  C   UNL A   1      33.693  20.638  24.638  1.00  0.00    -0.014 C 
ATOM     17  C   UNL A   1      32.511  20.316  24.098  1.00  0.00     0.006 C 
ENDBRANCH  15  16
ENDBRANCH  12  15
ENDBRANCH  10  11
ENDBRANCH   7  10
ENDBRANCH   5   7
BRANCH   5  18
ATOM     18  C   UNL A   1      31.432  25.170  23.436  1.00  0.00     0.455 C 
ATOM     19  F   UNL A   1      30.195  25.248  23.979  1.00  0.00    -0.164 F 
ATOM     20  F   UNL A   1      31.456  26.034  22.390  1.00  0.00    -0.164 F 
ATOM     21  F   UNL A   1      31.571  23.932  22.917  1.00  0.00    -0.164 F 
ENDBRANCH   5  18
ENDBRANCH   3   5
ENDBRANCH   2   3
ENDBRANCH   1   2
BRANCH   1  22
ATOM     22  C   UNL A   1      31.414  30.149  25.379  1.00  0.00     0.275 C 
BRANCH  22  23
ATOM     23  O   UNL A   1      32.784  30.329  25.768  1.00  0.00    -0.458 OA
BRANCH  23  24
ATOM     24  C   UNL A   1      33.003  31.174  26.802  1.00  0.00     0.338 C 
ATOM     25  O   UNL A   1      32.241  32.021  27.233  1.00  0.00    -0.246 OA
BRANCH  24  26
ATOM     26  C   UNL A   1      34.335  30.902  27.376  1.00  0.00     0.060 A 
ATOM     27  C   UNL A   1      34.738  29.589  27.611  1.00  0.00     0.016 A 
ATOM     28  C   UNL A   1      35.145  31.961  27.780  1.00  0.00     0.016 A 
ATOM     29  C   UNL A   1      35.888  29.330  28.351  1.00  0.00     0.010 A 
ATOM     30  C   UNL A   1      36.363  31.692  28.415  1.00  0.00     0.010 A 
ATOM     31  C   UNL A   1      36.731  30.376  28.749  1.00  0.00    -0.014 A 
BRANCH  31  32
ATOM     32  C   UNL A   1      37.973  30.104  29.532  1.00  0.00     0.031 A 
ATOM     33  C   UNL A   1      39.067  29.249  28.940  1.00  0.00     0.074 A 
ATOM     34  C   UNL A   1      38.123  30.595  30.779  1.00  0.00     0.049 A 
ATOM     35  N   UNL A   1      40.102  28.710  29.529  1.00  0.00    -0.248 NA
ATOM     36  C   UNL A   1      38.971  28.941  27.502  1.00  0.00     0.031 C 
ATOM     37  C   UNL A   1      37.161  31.448  31.480  1.00  0.00     0.029 A 
ATOM     38  N   UNL A   1      39.143  30.438  31.689  1.00  0.00    -0.354 N 
ATOM     39  C   UNL A   1      40.720  27.920  28.566  1.00  0.00     0.074 A 
ATOM     40  C   UNL A   1      39.963  28.073  27.343  1.00  0.00     0.031 C 
ATOM     41  C   UNL A   1      37.644  31.761  32.691  1.00  0.00     0.029 A 
ATOM     42  C   UNL A   1      38.908  31.062  32.893  1.00  0.00     0.049 A 
ATOM     43  H   UNL A   1      39.963  29.928  31.496  1.00  0.00     0.167 HD
ATOM     44  C   UNL A   1      41.822  27.142  28.688  1.00  0.00     0.034 A 
ATOM     45  C   UNL A   1      39.600  31.042  34.049  1.00  0.00     0.034 A 
ATOM     46  C   UNL A   1      42.642  27.081  29.868  1.00  0.00     0.049 A 
ATOM     47  C   UNL A   1      40.855  30.218  34.137  1.00  0.00     0.074 A 
ATOM     48  C   UNL A   1      43.807  26.360  30.068  1.00  0.00     0.029 A 
ATOM     49  N   UNL A   1      42.404  27.787  31.036  1.00  0.00    -0.354 N 
ATOM     50  N   UNL A   1      41.435  29.499  33.208  1.00  0.00    -0.248 NA
ATOM     51  C   UNL A   1      41.551  30.204  35.432  1.00  0.00     0.031 C 
ATOM     52  C   UNL A   1      44.276  26.635  31.356  1.00  0.00     0.029 A 
ATOM     53  C   UNL A   1      43.404  27.528  31.957  1.00  0.00     0.049 A 
ATOM     54  H   UNL A   1      41.636  28.385  31.187  1.00  0.00     0.167 HD
ATOM     55  C   UNL A   1      42.567  28.954  33.801  1.00  0.00     0.074 A 
ATOM     56  C   UNL A   1      42.612  29.457  35.159  1.00  0.00     0.031 C 
ATOM     57  C   UNL A   1      43.468  28.085  33.282  1.00  0.00     0.034 A 
BRANCH  44  58
ATOM     58  C   UNL A   1      42.237  26.311  27.505  1.00  0.00     0.023 A 
ATOM     59  C   UNL A   1      43.077  26.863  26.520  1.00  0.00     0.012 A 
ATOM     60  C   UNL A   1      41.862  24.954  27.417  1.00  0.00     0.148 A 
ATOM     61  C   UNL A   1      43.528  26.084  25.456  1.00  0.00     0.002 A 
ATOM     62  C   UNL A   1      42.344  24.174  26.373  1.00  0.00     0.091 A 
ATOM     63  F   UNL A   1      41.042  24.455  28.353  1.00  0.00    -0.205 F 
ATOM     64  C   UNL A   1      43.172  24.738  25.389  1.00  0.00     0.022 A 
BRANCH  62  65
ATOM     65  S   UNL A   1      42.001  22.414  26.241  1.00  0.00     0.127 S 
ATOM     66  O   UNL A   1      42.573  21.908  27.487  1.00  0.00    -0.237 OA
ATOM     67  O   UNL A   1      40.538  22.387  26.186  1.00  0.00    -0.237 OA
ATOM     68  O   UNL A   1      42.659  21.968  25.021  1.00  0.00    -0.744 OA
ENDBRANCH  62  65
ENDBRANCH  44  58
BRANCH  45  69
ATOM     69  C   UNL A   1      39.121  31.836  35.216  1.00  0.00     0.023 A 
ATOM     70  C   UNL A   1      38.223  31.251  36.129  1.00  0.00     0.012 A 
ATOM     71  C   UNL A   1      39.583  33.145  35.456  1.00  0.00     0.148 A 
ATOM     72  C   UNL A   1      37.783  31.961  37.248  1.00  0.00     0.002 A 
ATOM     73  C   UNL A   1      39.192  33.821  36.605  1.00  0.00     0.091 A 
ATOM     74  F   UNL A   1      40.412  33.706  34.563  1.00  0.00    -0.205 F 
ATOM     75  C   UNL A   1      38.279  33.239  37.496  1.00  0.00     0.022 A 
BRANCH  73  76
ATOM     76  S   UNL A   1      39.933  35.396  37.049  1.00  0.00     0.127 S 
ATOM     77  O   UNL A   1      41.348  35.051  37.142  1.00  0.00    -0.237 OA
ATOM     78  O   UNL A   1      39.581  36.247  35.911  1.00  0.00    -0.237 OA
ATOM     79  O   UNL A   1      39.274  35.775  38.294  1.00  0.00    -0.744 OA
ENDBRANCH  73  76
ENDBRANCH  45  69
BRANCH  57  80
ATOM     80  C   UNL A   1      44.588  27.632  34.175  1.00  0.00     0.023 A 
ATOM     81  C   UNL A   1      45.760  28.408  34.257  1.00  0.00     0.012 A 
ATOM     82  C   UNL A   1      44.455  26.487  34.984  1.00  0.00     0.148 A 
ATOM     83  C   UNL A   1      46.796  28.039  35.114  1.00  0.00     0.002 A 
ATOM     84  C   UNL A   1      45.477  26.145  35.863  1.00  0.00     0.091 A 
ATOM     85  F   UNL A   1      43.342  25.749  34.874  1.00  0.00    -0.205 F 
ATOM     86  C   UNL A   1      46.649  26.915  35.924  1.00  0.00     0.022 A 
BRANCH  84  87
ATOM     87  S   UNL A   1      45.329  24.759  36.995  1.00  0.00     0.127 S 
ATOM     88  O   UNL A   1      44.423  25.295  38.009  1.00  0.00    -0.237 OA
ATOM     89  O   UNL A   1      44.746  23.717  36.148  1.00  0.00    -0.237 OA
ATOM     90  O   UNL A   1      46.684  24.472  37.446  1.00  0.00    -0.744 OA
ENDBRANCH  84  87
ENDBRANCH  57  80
ENDBRANCH  31  32
ENDBRANCH  24  26
ENDBRANCH  23  24
ENDBRANCH  22  23
ENDBRANCH   1  22
TORSDOF 20
ENDMDL
