MODEL 1
REMARK VINA RESULT:     -10.7      0.000      0.000
REMARK SMILES C[C@@H](C(=O)[C@H](C)[C@@H](C)C(=O)OCCOC(=O)c1ccc(-c2c3nc(c(-c4cccc(S(=O)(=O)[O-])c4F)c4ccc([nH]4)c(-c4cccc(S(=O)(=O)[O-])c4F)c4nc(c(-c5cccc(S(=O)(=O)[O-])c5F)c5ccc2[nH]5)C=C4)C=C3)cc1)c1ccccc1
REMARK SMILES IDX 12 1 11 2 9 3 10 4 7 5 8 6 5 7 6 8 3 9 4 10 2 11 1 12 80 13
REMARK SMILES IDX 81 14 85 15 82 16 84 17 83 18 13 19 14 20 15 21 16 22 17 23
REMARK SMILES IDX 18 24 79 25 19 26 78 27 20 28 21 29 22 30 72 31 23 32 77 33
REMARK SMILES IDX 71 34 73 35 24 36 76 37 70 38 69 39 25 41 57 42 37 43 56 44
REMARK SMILES IDX 38 45 41 46 55 47 74 48 39 49 40 50 54 52 75 53 42 54 26 55
REMARK SMILES IDX 27 56 35 57 28 58 30 59 36 60 29 61 31 62 32 63 33 64 34 65
REMARK SMILES IDX 58 66 59 67 67 68 60 69 62 70 68 71 61 72 63 73 64 74 65 75
REMARK SMILES IDX 66 76 43 77 44 78 52 79 45 80 47 81 53 82 46 83 48 84 49 85
REMARK SMILES IDX 50 86 51 87
REMARK H PARENT 73 40 41 51
REMARK Flexibility Score: inf
ROOT
ATOM      1  C   UNL A   1      31.074  29.568  24.382  1.00  0.00     0.274 C 
ENDROOT
BRANCH   1   2
ATOM      2  O   UNL A   1      32.011  28.765  23.629  1.00  0.00    -0.462 OA
BRANCH   2   3
ATOM      3  C   UNL A   1      31.451  27.848  22.799  1.00  0.00     0.309 C 
ATOM      4  O   UNL A   1      30.535  28.096  22.021  1.00  0.00    -0.252 OA
BRANCH   3   5
ATOM      5  C   UNL A   1      31.985  26.431  22.981  1.00  0.00     0.106 C 
ATOM      6  C   UNL A   1      32.117  25.833  21.576  1.00  0.00     0.021 C 
BRANCH   5   7
ATOM      7  C   UNL A   1      31.196  25.532  23.976  1.00  0.00     0.067 C 
ATOM      8  C   UNL A   1      30.793  24.191  23.344  1.00  0.00     0.017 C 
BRANCH   7   9
ATOM      9  C   UNL A   1      32.067  25.175  25.199  1.00  0.00     0.143 C 
ATOM     10  O   UNL A   1      32.387  26.105  25.945  1.00  0.00    -0.299 OA
BRANCH   9  11
ATOM     11  C   UNL A   1      32.688  23.748  25.281  1.00  0.00     0.083 C 
ATOM     12  C   UNL A   1      32.387  23.039  26.616  1.00  0.00     0.021 C 
BRANCH  11  13
ATOM     13  C   UNL A   1      34.178  23.558  24.922  1.00  0.00    -0.038 A 
ATOM     14  C   UNL A   1      34.658  23.193  23.654  1.00  0.00     0.004 A 
ATOM     15  C   UNL A   1      35.147  23.776  25.926  1.00  0.00     0.004 A 
ATOM     16  C   UNL A   1      36.029  23.057  23.399  1.00  0.00     0.000 A 
ATOM     17  C   UNL A   1      36.517  23.664  25.668  1.00  0.00     0.000 A 
ATOM     18  C   UNL A   1      36.959  23.300  24.403  1.00  0.00     0.000 A 
ENDBRANCH  11  13
ENDBRANCH   9  11
ENDBRANCH   7   9
ENDBRANCH   5   7
ENDBRANCH   3   5
ENDBRANCH   2   3
ENDBRANCH   1   2
BRANCH   1  19
ATOM     19  C   UNL A   1      31.547  29.866  25.808  1.00  0.00     0.275 C 
BRANCH  19  20
ATOM     20  O   UNL A   1      32.946  30.193  25.867  1.00  0.00    -0.458 OA
BRANCH  20  21
ATOM     21  C   UNL A   1      33.247  31.085  26.838  1.00  0.00     0.338 C 
ATOM     22  O   UNL A   1      32.546  32.007  27.208  1.00  0.00    -0.246 OA
BRANCH  21  23
ATOM     23  C   UNL A   1      34.542  30.812  27.455  1.00  0.00     0.060 A 
ATOM     24  C   UNL A   1      34.784  29.546  27.995  1.00  0.00     0.016 A 
ATOM     25  C   UNL A   1      35.432  31.864  27.657  1.00  0.00     0.016 A 
ATOM     26  C   UNL A   1      35.928  29.328  28.753  1.00  0.00     0.010 A 
ATOM     27  C   UNL A   1      36.595  31.636  28.388  1.00  0.00     0.010 A 
ATOM     28  C   UNL A   1      36.846  30.370  28.943  1.00  0.00    -0.014 A 
BRANCH  28  29
ATOM     29  C   UNL A   1      38.123  30.126  29.642  1.00  0.00     0.031 A 
ATOM     30  C   UNL A   1      39.128  29.164  29.088  1.00  0.00     0.074 A 
ATOM     31  C   UNL A   1      38.306  30.712  30.838  1.00  0.00     0.049 A 
ATOM     32  N   UNL A   1      40.214  28.701  29.646  1.00  0.00    -0.248 NA
ATOM     33  C   UNL A   1      38.872  28.643  27.735  1.00  0.00     0.031 C 
ATOM     34  C   UNL A   1      37.367  31.645  31.465  1.00  0.00     0.029 A 
ATOM     35  N   UNL A   1      39.310  30.575  31.759  1.00  0.00    -0.354 N 
ATOM     36  C   UNL A   1      40.754  27.802  28.736  1.00  0.00     0.074 A 
ATOM     37  C   UNL A   1      39.877  27.791  27.583  1.00  0.00     0.031 C 
ATOM     38  C   UNL A   1      37.820  31.966  32.685  1.00  0.00     0.029 A 
ATOM     39  C   UNL A   1      39.055  31.234  32.938  1.00  0.00     0.049 A 
ATOM     40  H   UNL A   1      40.132  30.058  31.594  1.00  0.00     0.167 HD
ATOM     41  C   UNL A   1      41.884  27.065  28.855  1.00  0.00     0.034 A 
ATOM     42  C   UNL A   1      39.722  31.219  34.107  1.00  0.00     0.034 A 
ATOM     43  C   UNL A   1      42.760  27.120  29.998  1.00  0.00     0.049 A 
ATOM     44  C   UNL A   1      40.982  30.413  34.205  1.00  0.00     0.074 A 
ATOM     45  C   UNL A   1      43.962  26.465  30.195  1.00  0.00     0.029 A 
ATOM     46  N   UNL A   1      42.523  27.874  31.139  1.00  0.00    -0.354 N 
ATOM     47  N   UNL A   1      41.543  29.653  33.294  1.00  0.00    -0.248 NA
ATOM     48  C   UNL A   1      41.718  30.483  35.472  1.00  0.00     0.031 C 
ATOM     49  C   UNL A   1      44.447  26.818  31.461  1.00  0.00     0.029 A 
ATOM     50  C   UNL A   1      43.551  27.697  32.048  1.00  0.00     0.049 A 
ATOM     51  H   UNL A   1      41.737  28.451  31.281  1.00  0.00     0.167 HD
ATOM     52  C   UNL A   1      42.709  29.167  33.869  1.00  0.00     0.074 A 
ATOM     53  C   UNL A   1      42.784  29.738  35.200  1.00  0.00     0.031 C 
ATOM     54  C   UNL A   1      43.625  28.312  33.350  1.00  0.00     0.034 A 
BRANCH  41  55
ATOM     55  C   UNL A   1      42.259  26.169  27.705  1.00  0.00     0.023 A 
ATOM     56  C   UNL A   1      43.054  26.680  26.660  1.00  0.00     0.012 A 
ATOM     57  C   UNL A   1      41.870  24.815  27.677  1.00  0.00     0.148 A 
ATOM     58  C   UNL A   1      43.435  25.866  25.593  1.00  0.00     0.002 A 
ATOM     59  C   UNL A   1      42.280  24.001  26.625  1.00  0.00     0.091 A 
ATOM     60  F   UNL A   1      41.089  24.350  28.662  1.00  0.00    -0.205 F 
ATOM     61  C   UNL A   1      43.057  24.526  25.579  1.00  0.00     0.022 A 
BRANCH  59  62
ATOM     62  S   UNL A   1      41.884  22.249  26.568  1.00  0.00     0.127 S 
ATOM     63  O   UNL A   1      42.421  21.782  27.845  1.00  0.00    -0.237 OA
ATOM     64  O   UNL A   1      40.422  22.255  26.488  1.00  0.00    -0.237 OA
ATOM     65  O   UNL A   1      42.546  21.739  25.375  1.00  0.00    -0.744 OA
ENDBRANCH  59  62
ENDBRANCH  41  55
BRANCH  42  66
ATOM     66  C   UNL A   1      39.211  32.043  35.235  1.00  0.00     0.023 A 
ATOM     67  C   UNL A   1      38.349  31.456  36.179  1.00  0.00     0.012 A 
ATOM     68  C   UNL A   1      39.672  33.359  35.446  1.00  0.00     0.148 A 
ATOM     69  C   UNL A   1      37.950  32.165  37.312  1.00  0.00     0.002 A 
ATOM     70  C   UNL A   1      39.314  34.040  36.603  1.00  0.00     0.091 A 
ATOM     71  F   UNL A   1      40.482  33.904  34.527  1.00  0.00    -0.205 F 
ATOM     72  C   UNL A   1      38.444  33.448  37.532  1.00  0.00     0.022 A 
BRANCH  70  73
ATOM     73  S   UNL A   1      40.024  35.633  37.037  1.00  0.00     0.127 S 
ATOM     74  O   UNL A   1      39.652  36.451  35.886  1.00  0.00    -0.237 OA
ATOM     75  O   UNL A   1      39.318  35.958  38.277  1.00  0.00    -0.237 OA
ATOM     76  O   UNL A   1      41.450  35.390  37.210  1.00  0.00    -0.744 OA
ENDBRANCH  70  73
ENDBRANCH  42  66
BRANCH  54  77
ATOM     77  C   UNL A   1      44.790  27.945  34.226  1.00  0.00     0.023 A 
ATOM     78  C   UNL A   1      45.950  28.745  34.201  1.00  0.00     0.012 A 
ATOM     79  C   UNL A   1      44.717  26.856  35.114  1.00  0.00     0.148 A 
ATOM     80  C   UNL A   1      47.029  28.452  35.033  1.00  0.00     0.002 A 
ATOM     81  C   UNL A   1      45.782  26.591  35.967  1.00  0.00     0.091 A 
ATOM     82  F   UNL A   1      43.614  26.091  35.103  1.00  0.00    -0.205 F 
ATOM     83  C   UNL A   1      46.940  27.384  35.923  1.00  0.00     0.022 A 
BRANCH  81  84
ATOM     84  S   UNL A   1      45.712  25.283  37.196  1.00  0.00     0.127 S 
ATOM     85  O   UNL A   1      45.580  24.093  36.358  1.00  0.00    -0.237 OA
ATOM     86  O   UNL A   1      47.004  25.412  37.871  1.00  0.00    -0.237 OA
ATOM     87  O   UNL A   1      44.565  25.595  38.037  1.00  0.00    -0.744 OA
ENDBRANCH  81  84
ENDBRANCH  54  77
ENDBRANCH  28  29
ENDBRANCH  21  23
ENDBRANCH  20  21
ENDBRANCH  19  20
ENDBRANCH   1  19
TORSDOF 18
ENDMDL
MODEL 2
REMARK VINA RESULT:     -10.7      5.126      9.281
REMARK SMILES C[C@@H](C(=O)[C@H](C)[C@@H](C)C(=O)OCCOC(=O)c1ccc(-c2c3nc(c(-c4cccc(S(=O)(=O)[O-])c4F)c4ccc([nH]4)c(-c4cccc(S(=O)(=O)[O-])c4F)c4nc(c(-c5cccc(S(=O)(=O)[O-])c5F)c5ccc2[nH]5)C=C4)C=C3)cc1)c1ccccc1
REMARK SMILES IDX 12 1 11 2 9 3 10 4 7 5 8 6 5 7 6 8 3 9 4 10 2 11 1 12 80 13
REMARK SMILES IDX 81 14 85 15 82 16 84 17 83 18 13 19 14 20 15 21 16 22 17 23
REMARK SMILES IDX 18 24 79 25 19 26 78 27 20 28 21 29 22 30 72 31 23 32 77 33
REMARK SMILES IDX 71 34 73 35 24 36 76 37 70 38 69 39 25 41 57 42 37 43 56 44
REMARK SMILES IDX 38 45 41 46 55 47 74 48 39 49 40 50 54 52 75 53 42 54 26 55
REMARK SMILES IDX 27 56 35 57 28 58 30 59 36 60 29 61 31 62 32 63 33 64 34 65
REMARK SMILES IDX 58 66 59 67 67 68 60 69 62 70 68 71 61 72 63 73 64 74 65 75
REMARK SMILES IDX 66 76 43 77 44 78 52 79 45 80 47 81 53 82 46 83 48 84 49 85
REMARK SMILES IDX 50 86 51 87
REMARK H PARENT 73 40 41 51
REMARK Flexibility Score: inf
ROOT
ATOM      1  C   UNL A   1      40.779  19.551  26.175  1.00  0.00     0.274 C 
ENDROOT
BRANCH   1   2
ATOM      2  O   UNL A   1      42.061  20.174  25.936  1.00  0.00    -0.462 OA
BRANCH   2   3
ATOM      3  C   UNL A   1      43.092  19.315  25.730  1.00  0.00     0.309 C 
ATOM      4  O   UNL A   1      43.184  18.214  26.264  1.00  0.00    -0.252 OA
BRANCH   3   5
ATOM      5  C   UNL A   1      44.204  19.871  24.847  1.00  0.00     0.106 C 
ATOM      6  C   UNL A   1      45.239  18.751  24.695  1.00  0.00     0.021 C 
BRANCH   5   7
ATOM      7  C   UNL A   1      44.810  21.231  25.298  1.00  0.00     0.067 C 
ATOM      8  C   UNL A   1      46.292  21.357  24.913  1.00  0.00     0.017 C 
BRANCH   7   9
ATOM      9  C   UNL A   1      44.093  22.407  24.601  1.00  0.00     0.143 C 
ATOM     10  O   UNL A   1      44.161  22.447  23.368  1.00  0.00    -0.299 OA
BRANCH   9  11
ATOM     11  C   UNL A   1      43.557  23.579  25.476  1.00  0.00     0.083 C 
ATOM     12  C   UNL A   1      44.009  24.963  24.968  1.00  0.00     0.021 C 
BRANCH  11  13
ATOM     13  C   UNL A   1      43.733  23.510  27.008  1.00  0.00    -0.038 A 
ATOM     14  C   UNL A   1      44.899  23.874  27.700  1.00  0.00     0.004 A 
ATOM     15  C   UNL A   1      42.646  23.064  27.792  1.00  0.00     0.004 A 
ATOM     16  C   UNL A   1      44.977  23.801  29.097  1.00  0.00     0.000 A 
ATOM     17  C   UNL A   1      42.713  23.013  29.189  1.00  0.00     0.000 A 
ATOM     18  C   UNL A   1      43.883  23.378  29.842  1.00  0.00     0.000 A 
ENDBRANCH  11  13
ENDBRANCH   9  11
ENDBRANCH   7   9
ENDBRANCH   5   7
ENDBRANCH   3   5
ENDBRANCH   2   3
ENDBRANCH   1   2
BRANCH   1  19
ATOM     19  C   UNL A   1      39.603  20.526  26.055  1.00  0.00     0.275 C 
BRANCH  19  20
ATOM     20  O   UNL A   1      39.960  21.867  26.433  1.00  0.00    -0.458 OA
BRANCH  20  21
ATOM     21  C   UNL A   1      38.929  22.739  26.349  1.00  0.00     0.338 C 
ATOM     22  O   UNL A   1      37.794  22.476  26.003  1.00  0.00    -0.246 OA
BRANCH  21  23
ATOM     23  C   UNL A   1      39.313  24.086  26.761  1.00  0.00     0.060 A 
ATOM     24  C   UNL A   1      39.969  24.915  25.848  1.00  0.00     0.016 A 
ATOM     25  C   UNL A   1      39.185  24.447  28.100  1.00  0.00     0.016 A 
ATOM     26  C   UNL A   1      40.511  26.121  26.278  1.00  0.00     0.010 A 
ATOM     27  C   UNL A   1      39.698  25.671  28.523  1.00  0.00     0.010 A 
ATOM     28  C   UNL A   1      40.367  26.510  27.616  1.00  0.00    -0.014 A 
BRANCH  28  29
ATOM     29  C   UNL A   1      40.828  27.839  28.065  1.00  0.00     0.031 A 
ATOM     30  C   UNL A   1      42.288  28.132  28.216  1.00  0.00     0.074 A 
ATOM     31  C   UNL A   1      39.895  28.736  28.432  1.00  0.00     0.049 A 
ATOM     32  N   UNL A   1      42.863  29.173  28.755  1.00  0.00    -0.248 NA
ATOM     33  C   UNL A   1      43.225  27.118  27.707  1.00  0.00     0.031 C 
ATOM     34  C   UNL A   1      38.449  28.523  28.340  1.00  0.00     0.029 A 
ATOM     35  N   UNL A   1      40.019  29.976  28.998  1.00  0.00    -0.354 N 
ATOM     36  C   UNL A   1      44.228  28.927  28.693  1.00  0.00     0.074 A 
ATOM     37  C   UNL A   1      44.396  27.637  28.054  1.00  0.00     0.031 C 
ATOM     38  C   UNL A   1      37.818  29.581  28.870  1.00  0.00     0.029 A 
ATOM     39  C   UNL A   1      38.814  30.521  29.370  1.00  0.00     0.049 A 
ATOM     40  H   UNL A   1      40.883  30.432  29.126  1.00  0.00     0.167 HD
ATOM     41  C   UNL A   1      45.244  29.714  29.122  1.00  0.00     0.034 A 
ATOM     42  C   UNL A   1      38.542  31.637  30.072  1.00  0.00     0.034 A 
ATOM     43  C   UNL A   1      45.053  31.010  29.723  1.00  0.00     0.049 A 
ATOM     44  C   UNL A   1      39.682  32.503  30.516  1.00  0.00     0.074 A 
ATOM     45  C   UNL A   1      46.011  31.918  30.136  1.00  0.00     0.029 A 
ATOM     46  N   UNL A   1      43.817  31.579  29.999  1.00  0.00    -0.354 N 
ATOM     47  N   UNL A   1      40.970  32.313  30.351  1.00  0.00    -0.248 NA
ATOM     48  C   UNL A   1      39.340  33.748  31.213  1.00  0.00     0.031 C 
ATOM     49  C   UNL A   1      45.353  33.034  30.669  1.00  0.00     0.029 A 
ATOM     50  C   UNL A   1      43.986  32.823  30.582  1.00  0.00     0.049 A 
ATOM     51  H   UNL A   1      42.948  31.159  29.807  1.00  0.00     0.167 HD
ATOM     52  C   UNL A   1      41.594  33.421  30.905  1.00  0.00     0.074 A 
ATOM     53  C   UNL A   1      40.539  34.290  31.392  1.00  0.00     0.031 C 
ATOM     54  C   UNL A   1      42.918  33.688  31.018  1.00  0.00     0.034 A 
BRANCH  41  55
ATOM     55  C   UNL A   1      46.649  29.215  28.920  1.00  0.00     0.023 A 
ATOM     56  C   UNL A   1      47.369  29.618  27.778  1.00  0.00     0.012 A 
ATOM     57  C   UNL A   1      47.275  28.391  29.876  1.00  0.00     0.148 A 
ATOM     58  C   UNL A   1      48.681  29.189  27.576  1.00  0.00     0.002 A 
ATOM     59  C   UNL A   1      48.596  27.992  29.683  1.00  0.00     0.091 A 
ATOM     60  F   UNL A   1      46.569  27.990  30.942  1.00  0.00    -0.205 F 
ATOM     61  C   UNL A   1      49.297  28.385  28.532  1.00  0.00     0.022 A 
BRANCH  59  62
ATOM     62  S   UNL A   1      49.478  27.005  30.899  1.00  0.00     0.127 S 
ATOM     63  O   UNL A   1      50.857  27.120  30.431  1.00  0.00    -0.237 OA
ATOM     64  O   UNL A   1      49.198  27.715  32.149  1.00  0.00    -0.237 OA
ATOM     65  O   UNL A   1      48.888  25.675  30.822  1.00  0.00    -0.744 OA
ENDBRANCH  59  62
ENDBRANCH  41  55
BRANCH  42  66
ATOM     66  C   UNL A   1      37.121  31.993  30.332  1.00  0.00     0.023 A 
ATOM     67  C   UNL A   1      36.568  31.732  31.599  1.00  0.00     0.012 A 
ATOM     68  C   UNL A   1      36.358  32.699  29.380  1.00  0.00     0.148 A 
ATOM     69  C   UNL A   1      35.280  32.162  31.913  1.00  0.00     0.002 A 
ATOM     70  C   UNL A   1      35.096  33.172  29.717  1.00  0.00     0.091 A 
ATOM     71  F   UNL A   1      36.899  32.927  28.173  1.00  0.00    -0.205 F 
ATOM     72  C   UNL A   1      34.550  32.895  30.980  1.00  0.00     0.022 A 
BRANCH  70  73
ATOM     73  S   UNL A   1      34.154  34.251  28.631  1.00  0.00     0.127 S 
ATOM     74  O   UNL A   1      33.975  33.409  27.452  1.00  0.00    -0.237 OA
ATOM     75  O   UNL A   1      32.937  34.485  29.409  1.00  0.00    -0.237 OA
ATOM     76  O   UNL A   1      34.980  35.437  28.447  1.00  0.00    -0.744 OA
ENDBRANCH  70  73
ENDBRANCH  42  66
BRANCH  54  77
ATOM     77  C   UNL A   1      43.301  34.976  31.693  1.00  0.00     0.023 A 
ATOM     78  C   UNL A   1      43.458  35.001  33.093  1.00  0.00     0.012 A 
ATOM     79  C   UNL A   1      43.564  36.138  30.943  1.00  0.00     0.148 A 
ATOM     80  C   UNL A   1      43.853  36.171  33.739  1.00  0.00     0.002 A 
ATOM     81  C   UNL A   1      43.993  37.291  31.591  1.00  0.00     0.091 A 
ATOM     82  F   UNL A   1      43.382  36.100  29.614  1.00  0.00    -0.205 F 
ATOM     83  C   UNL A   1      44.131  37.311  32.988  1.00  0.00     0.022 A 
BRANCH  81  84
ATOM     84  S   UNL A   1      44.447  38.775  30.686  1.00  0.00     0.127 S 
ATOM     85  O   UNL A   1      45.607  38.317  29.924  1.00  0.00    -0.237 OA
ATOM     86  O   UNL A   1      43.252  39.034  29.881  1.00  0.00    -0.237 OA
ATOM     87  O   UNL A   1      44.715  39.786  31.700  1.00  0.00    -0.744 OA
ENDBRANCH  81  84
ENDBRANCH  54  77
ENDBRANCH  28  29
ENDBRANCH  21  23
ENDBRANCH  20  21
ENDBRANCH  19  20
ENDBRANCH   1  19
TORSDOF 18
ENDMDL
MODEL 3
REMARK VINA RESULT:     -10.6      5.431     10.820
REMARK SMILES C[C@@H](C(=O)[C@H](C)[C@@H](C)C(=O)OCCOC(=O)c1ccc(-c2c3nc(c(-c4cccc(S(=O)(=O)[O-])c4F)c4ccc([nH]4)c(-c4cccc(S(=O)(=O)[O-])c4F)c4nc(c(-c5cccc(S(=O)(=O)[O-])c5F)c5ccc2[nH]5)C=C4)C=C3)cc1)c1ccccc1
REMARK SMILES IDX 12 1 11 2 9 3 10 4 7 5 8 6 5 7 6 8 3 9 4 10 2 11 1 12 80 13
REMARK SMILES IDX 81 14 85 15 82 16 84 17 83 18 13 19 14 20 15 21 16 22 17 23
REMARK SMILES IDX 18 24 79 25 19 26 78 27 20 28 21 29 22 30 72 31 23 32 77 33
REMARK SMILES IDX 71 34 73 35 24 36 76 37 70 38 69 39 25 41 57 42 37 43 56 44
REMARK SMILES IDX 38 45 41 46 55 47 74 48 39 49 40 50 54 52 75 53 42 54 26 55
REMARK SMILES IDX 27 56 35 57 28 58 30 59 36 60 29 61 31 62 32 63 33 64 34 65
REMARK SMILES IDX 58 66 59 67 67 68 60 69 62 70 68 71 61 72 63 73 64 74 65 75
REMARK SMILES IDX 66 76 43 77 44 78 52 79 45 80 47 81 53 82 46 83 48 84 49 85
REMARK SMILES IDX 50 86 51 87
REMARK H PARENT 73 40 41 51
REMARK Flexibility Score: inf
ROOT
ATOM      1  C   UNL A   1      40.692  19.801  26.715  1.00  0.00     0.274 C 
ENDROOT
BRANCH   1   2
ATOM      2  O   UNL A   1      42.062  20.204  26.498  1.00  0.00    -0.462 OA
BRANCH   2   3
ATOM      3  C   UNL A   1      42.819  19.325  25.791  1.00  0.00     0.309 C 
ATOM      4  O   UNL A   1      42.755  18.106  25.922  1.00  0.00    -0.252 OA
BRANCH   3   5
ATOM      5  C   UNL A   1      43.848  19.979  24.876  1.00  0.00     0.106 C 
ATOM      6  C   UNL A   1      44.871  18.892  24.525  1.00  0.00     0.021 C 
BRANCH   5   7
ATOM      7  C   UNL A   1      44.486  21.295  25.406  1.00  0.00     0.067 C 
ATOM      8  C   UNL A   1      45.990  21.368  25.104  1.00  0.00     0.017 C 
BRANCH   7   9
ATOM      9  C   UNL A   1      43.858  22.524  24.713  1.00  0.00     0.143 C 
ATOM     10  O   UNL A   1      43.946  22.573  23.482  1.00  0.00    -0.299 OA
BRANCH   9  11
ATOM     11  C   UNL A   1      43.388  23.718  25.596  1.00  0.00     0.083 C 
ATOM     12  C   UNL A   1      43.830  25.087  25.039  1.00  0.00     0.021 C 
BRANCH  11  13
ATOM     13  C   UNL A   1      43.648  23.673  27.117  1.00  0.00    -0.038 A 
ATOM     14  C   UNL A   1      42.709  23.274  28.081  1.00  0.00     0.004 A 
ATOM     15  C   UNL A   1      44.925  24.044  27.594  1.00  0.00     0.004 A 
ATOM     16  C   UNL A   1      43.025  23.242  29.445  1.00  0.00     0.000 A 
ATOM     17  C   UNL A   1      45.250  23.990  28.954  1.00  0.00     0.000 A 
ATOM     18  C   UNL A   1      44.297  23.593  29.882  1.00  0.00     0.000 A 
ENDBRANCH  11  13
ENDBRANCH   9  11
ENDBRANCH   7   9
ENDBRANCH   5   7
ENDBRANCH   3   5
ENDBRANCH   2   3
ENDBRANCH   1   2
BRANCH   1  19
ATOM     19  C   UNL A   1      39.675  20.767  26.099  1.00  0.00     0.275 C 
BRANCH  19  20
ATOM     20  O   UNL A   1      40.062  22.144  26.250  1.00  0.00    -0.458 OA
BRANCH  20  21
ATOM     21  C   UNL A   1      39.011  22.991  26.323  1.00  0.00     0.338 C 
ATOM     22  O   UNL A   1      37.866  22.744  25.995  1.00  0.00    -0.246 OA
BRANCH  21  23
ATOM     23  C   UNL A   1      39.384  24.285  26.886  1.00  0.00     0.060 A 
ATOM     24  C   UNL A   1      40.024  25.222  26.071  1.00  0.00     0.016 A 
ATOM     25  C   UNL A   1      39.264  24.486  28.259  1.00  0.00     0.016 A 
ATOM     26  C   UNL A   1      40.557  26.376  26.635  1.00  0.00     0.010 A 
ATOM     27  C   UNL A   1      39.768  25.658  28.818  1.00  0.00     0.010 A 
ATOM     28  C   UNL A   1      40.421  26.604  28.011  1.00  0.00    -0.014 A 
BRANCH  28  29
ATOM     29  C   UNL A   1      40.872  27.877  28.608  1.00  0.00     0.031 A 
ATOM     30  C   UNL A   1      39.883  28.905  29.060  1.00  0.00     0.074 A 
ATOM     31  C   UNL A   1      42.194  28.123  28.633  1.00  0.00     0.049 A 
ATOM     32  N   UNL A   1      40.096  30.135  29.443  1.00  0.00    -0.248 NA
ATOM     33  C   UNL A   1      38.467  28.504  29.069  1.00  0.00     0.031 C 
ATOM     34  C   UNL A   1      43.229  27.187  28.190  1.00  0.00     0.029 A 
ATOM     35  N   UNL A   1      42.889  29.245  28.999  1.00  0.00    -0.354 N 
ATOM     36  C   UNL A   1      38.843  30.674  29.701  1.00  0.00     0.074 A 
ATOM     37  C   UNL A   1      37.872  29.631  29.436  1.00  0.00     0.031 C 
ATOM     38  C   UNL A   1      44.425  27.786  28.272  1.00  0.00     0.029 A 
ATOM     39  C   UNL A   1      44.235  29.155  28.734  1.00  0.00     0.049 A 
ATOM     40  H   UNL A   1      42.469  30.035  29.410  1.00  0.00     0.167 HD
ATOM     41  C   UNL A   1      38.538  31.923  30.129  1.00  0.00     0.034 A 
ATOM     42  C   UNL A   1      45.203  30.087  28.818  1.00  0.00     0.034 A 
ATOM     43  C   UNL A   1      39.524  32.932  30.419  1.00  0.00     0.049 A 
ATOM     44  C   UNL A   1      44.844  31.454  29.316  1.00  0.00     0.074 A 
ATOM     45  C   UNL A   1      39.331  34.208  30.917  1.00  0.00     0.029 A 
ATOM     46  N   UNL A   1      40.891  32.778  30.233  1.00  0.00    -0.354 N 
ATOM     47  N   UNL A   1      43.667  31.918  29.664  1.00  0.00    -0.248 NA
ATOM     48  C   UNL A   1      45.942  32.417  29.463  1.00  0.00     0.031 C 
ATOM     49  C   UNL A   1      40.583  34.828  31.025  1.00  0.00     0.029 A 
ATOM     50  C   UNL A   1      41.555  33.936  30.600  1.00  0.00     0.049 A 
ATOM     51  H   UNL A   1      41.325  31.964  29.890  1.00  0.00     0.167 HD
ATOM     52  C   UNL A   1      43.882  33.221  30.091  1.00  0.00     0.074 A 
ATOM     53  C   UNL A   1      45.308  33.465  29.978  1.00  0.00     0.031 C 
ATOM     54  C   UNL A   1      42.981  34.139  30.519  1.00  0.00     0.034 A 
BRANCH  41  55
ATOM     55  C   UNL A   1      37.086  32.253  30.347  1.00  0.00     0.023 A 
ATOM     56  C   UNL A   1      36.483  31.940  31.582  1.00  0.00     0.012 A 
ATOM     57  C   UNL A   1      36.330  32.912  29.357  1.00  0.00     0.148 A 
ATOM     58  C   UNL A   1      35.145  32.255  31.820  1.00  0.00     0.002 A 
ATOM     59  C   UNL A   1      35.004  33.250  29.614  1.00  0.00     0.091 A 
ATOM     60  F   UNL A   1      36.907  33.176  28.176  1.00  0.00    -0.205 F 
ATOM     61  C   UNL A   1      34.409  32.918  30.842  1.00  0.00     0.022 A 
BRANCH  59  62
ATOM     62  S   UNL A   1      34.008  34.159  28.425  1.00  0.00     0.127 S 
ATOM     63  O   UNL A   1      33.940  33.216  27.311  1.00  0.00    -0.237 OA
ATOM     64  O   UNL A   1      32.746  34.345  29.143  1.00  0.00    -0.237 OA
ATOM     65  O   UNL A   1      34.738  35.394  28.170  1.00  0.00    -0.744 OA
ENDBRANCH  59  62
ENDBRANCH  41  55
BRANCH  42  66
ATOM     66  C   UNL A   1      46.597  29.706  28.466  1.00  0.00     0.023 A 
ATOM     67  C   UNL A   1      47.097  30.033  27.192  1.00  0.00     0.012 A 
ATOM     68  C   UNL A   1      47.465  29.139  29.421  1.00  0.00     0.148 A 
ATOM     69  C   UNL A   1      48.434  29.799  26.873  1.00  0.00     0.002 A 
ATOM     70  C   UNL A   1      48.808  28.957  29.116  1.00  0.00     0.091 A 
ATOM     71  F   UNL A   1      46.965  28.822  30.626  1.00  0.00    -0.205 F 
ATOM     72  C   UNL A   1      49.293  29.278  27.838  1.00  0.00     0.022 A 
BRANCH  70  73
ATOM     73  S   UNL A   1      50.010  28.435  30.346  1.00  0.00     0.127 S 
ATOM     74  O   UNL A   1      49.578  27.069  30.626  1.00  0.00    -0.237 OA
ATOM     75  O   UNL A   1      51.270  28.543  29.610  1.00  0.00    -0.237 OA
ATOM     76  O   UNL A   1      49.879  29.382  31.445  1.00  0.00    -0.744 OA
ENDBRANCH  70  73
ENDBRANCH  42  66
BRANCH  54  77
ATOM     77  C   UNL A   1      43.512  35.492  30.901  1.00  0.00     0.023 A 
ATOM     78  C   UNL A   1      44.016  35.693  32.202  1.00  0.00     0.012 A 
ATOM     79  C   UNL A   1      43.571  36.540  29.964  1.00  0.00     0.148 A 
ATOM     80  C   UNL A   1      44.553  36.925  32.569  1.00  0.00     0.002 A 
ATOM     81  C   UNL A   1      44.141  37.755  30.326  1.00  0.00     0.091 A 
ATOM     82  F   UNL A   1      43.061  36.336  28.739  1.00  0.00    -0.205 F 
ATOM     83  C   UNL A   1      44.626  37.951  31.629  1.00  0.00     0.022 A 
BRANCH  81  84
ATOM     84  S   UNL A   1      44.344  39.097  29.149  1.00  0.00     0.127 S 
ATOM     85  O   UNL A   1      45.311  39.952  29.835  1.00  0.00    -0.237 OA
ATOM     86  O   UNL A   1      44.869  38.408  27.969  1.00  0.00    -0.237 OA
ATOM     87  O   UNL A   1      43.014  39.664  28.967  1.00  0.00    -0.744 OA
ENDBRANCH  81  84
ENDBRANCH  54  77
ENDBRANCH  28  29
ENDBRANCH  21  23
ENDBRANCH  20  21
ENDBRANCH  19  20
ENDBRANCH   1  19
TORSDOF 18
ENDMDL
