MODEL 1
REMARK VINA RESULT:     -12.3      0.000      0.000
REMARK SMILES Cc1cc(OC(F)(F)F)cc2c1O[C@H](C(F)(F)F)C(C(=O)OCCOC(=O)c1ccc(-c3c4nc(c(-c5cccc(S(=O)(=O)[O-])c5F)c5ccc([nH]5)c(-c5cccc(S(=O)(=O)[O-])c5F)c5nc(c(-c6cccc(S(=O)(=O)[O-])c6F)c6ccc3[nH]6)C=C5)C=C4)cc1)=C2
REMARK SMILES IDX 24 1 23 2 22 3 20 4 21 5 19 6 1 7 2 8 3 9 12 10 4 11 11 12
REMARK SMILES IDX 13 13 10 14 91 15 14 16 5 17 6 18 7 19 8 20 9 21 15 22 16 23
REMARK SMILES IDX 17 24 18 25 25 26 26 27 27 28 28 29 29 30 90 31 30 32 89 33
REMARK SMILES IDX 31 34 32 35 33 36 83 37 34 38 88 39 82 40 84 41 35 42 87 43
REMARK SMILES IDX 81 44 80 45 36 47 68 48 48 49 67 50 49 51 52 52 66 53 85 54
REMARK SMILES IDX 50 55 51 56 65 58 86 59 53 60 37 61 38 62 46 63 39 64 41 65
REMARK SMILES IDX 47 66 40 67 42 68 43 69 44 70 45 71 69 72 70 73 78 74 71 75
REMARK SMILES IDX 73 76 79 77 72 78 74 79 75 80 76 81 77 82 54 83 55 84 63 85
REMARK SMILES IDX 56 86 58 87 64 88 57 89 59 90 60 91 61 92 62 93
REMARK H PARENT 84 46 52 57
REMARK Flexibility Score: inf
ROOT
ATOM      1  C   UNL A   1      37.604  20.194  24.836  1.00  0.00     0.275 C 
ENDROOT
BRANCH   1   2
ATOM      2  C   UNL A   1      36.104  20.275  25.143  1.00  0.00     0.275 C 
BRANCH   2   3
ATOM      3  O   UNL A   1      35.779  21.446  25.921  1.00  0.00    -0.459 OA
BRANCH   3   4
ATOM      4  C   UNL A   1      34.459  21.700  26.095  1.00  0.00     0.338 C 
ATOM      5  O   UNL A   1      33.697  21.088  26.827  1.00  0.00    -0.246 OA
BRANCH   4   6
ATOM      6  C   UNL A   1      34.061  22.901  25.323  1.00  0.00     0.087 C 
ATOM      7  C   UNL A   1      33.066  26.416  21.703  1.00  0.00     0.048 C 
ATOM      8  C   UNL A   1      33.350  26.433  23.181  1.00  0.00    -0.005 A 
ATOM      9  C   UNL A   1      33.356  27.659  23.871  1.00  0.00     0.054 A 
ATOM     10  C   UNL A   1      33.556  25.239  23.890  1.00  0.00     0.131 A 
ATOM     11  C   UNL A   1      33.571  27.700  25.249  1.00  0.00     0.130 A 
ATOM     12  C   UNL A   1      33.715  25.270  25.275  1.00  0.00     0.021 A 
ATOM     13  O   UNL A   1      33.603  24.082  23.163  1.00  0.00    -0.475 OA
ATOM     14  C   UNL A   1      33.738  26.499  25.945  1.00  0.00     0.058 A 
ATOM     15  C   UNL A   1      33.903  24.035  26.016  1.00  0.00     0.027 C 
ATOM     16  C   UNL A   1      33.888  22.821  23.832  1.00  0.00     0.316 C 
BRANCH  11  17
ATOM     17  O   UNL A   1      33.645  28.817  26.030  1.00  0.00    -0.406 OA
BRANCH  17  18
ATOM     18  C   UNL A   1      32.470  29.247  26.694  1.00  0.00     0.573 C 
ATOM     19  F   UNL A   1      31.380  29.101  25.910  1.00  0.00    -0.132 F 
ATOM     20  F   UNL A   1      32.287  28.556  27.841  1.00  0.00    -0.132 F 
ATOM     21  F   UNL A   1      32.592  30.554  27.007  1.00  0.00    -0.132 F 
ENDBRANCH  17  18
ENDBRANCH  11  17
BRANCH  16  22
ATOM     22  C   UNL A   1      32.757  21.849  23.458  1.00  0.00     0.430 C 
ATOM     23  F   UNL A   1      33.166  20.559  23.554  1.00  0.00    -0.167 F 
ATOM     24  F   UNL A   1      31.679  21.970  24.270  1.00  0.00    -0.167 F 
ATOM     25  F   UNL A   1      32.325  22.037  22.189  1.00  0.00    -0.167 F 
ENDBRANCH  16  22
ENDBRANCH   4   6
ENDBRANCH   3   4
ENDBRANCH   2   3
ENDBRANCH   1   2
BRANCH   1  26
ATOM     26  O   UNL A   1      38.320  21.333  25.346  1.00  0.00    -0.458 OA
BRANCH  26  27
ATOM     27  C   UNL A   1      39.367  21.035  26.151  1.00  0.00     0.338 C 
ATOM     28  O   UNL A   1      39.882  19.937  26.303  1.00  0.00    -0.246 OA
BRANCH  27  29
ATOM     29  C   UNL A   1      39.947  22.277  26.692  1.00  0.00     0.060 A 
ATOM     30  C   UNL A   1      39.544  23.472  26.093  1.00  0.00     0.016 A 
ATOM     31  C   UNL A   1      40.883  22.289  27.727  1.00  0.00     0.016 A 
ATOM     32  C   UNL A   1      40.022  24.693  26.551  1.00  0.00     0.010 A 
ATOM     33  C   UNL A   1      41.414  23.513  28.150  1.00  0.00     0.010 A 
ATOM     34  C   UNL A   1      40.984  24.717  27.564  1.00  0.00    -0.014 A 
BRANCH  34  35
ATOM     35  C   UNL A   1      41.620  26.001  27.918  1.00  0.00     0.031 A 
ATOM     36  C   UNL A   1      40.816  27.029  28.658  1.00  0.00     0.074 A 
ATOM     37  C   UNL A   1      42.906  26.231  27.602  1.00  0.00     0.049 A 
ATOM     38  N   UNL A   1      41.144  28.250  28.984  1.00  0.00    -0.248 NA
ATOM     39  C   UNL A   1      39.470  26.626  29.103  1.00  0.00     0.031 C 
ATOM     40  C   UNL A   1      43.800  25.271  26.956  1.00  0.00     0.029 A 
ATOM     41  N   UNL A   1      43.674  27.355  27.764  1.00  0.00    -0.354 N 
ATOM     42  C   UNL A   1      40.042  28.771  29.646  1.00  0.00     0.074 A 
ATOM     43  C   UNL A   1      39.040  27.730  29.698  1.00  0.00     0.031 C 
ATOM     44  C   UNL A   1      44.987  25.863  26.736  1.00  0.00     0.029 A 
ATOM     45  C   UNL A   1      44.921  27.249  27.195  1.00  0.00     0.049 A 
ATOM     46  H   UNL A   1      43.364  28.159  28.240  1.00  0.00     0.167 HD
ATOM     47  C   UNL A   1      39.881  30.011  30.159  1.00  0.00     0.034 A 
ATOM     48  C   UNL A   1      45.883  28.178  27.031  1.00  0.00     0.034 A 
ATOM     49  C   UNL A   1      40.880  31.042  30.099  1.00  0.00     0.049 A 
ATOM     50  C   UNL A   1      45.655  29.570  27.553  1.00  0.00     0.074 A 
ATOM     51  C   UNL A   1      40.804  32.338  30.576  1.00  0.00     0.029 A 
ATOM     52  N   UNL A   1      42.130  30.896  29.521  1.00  0.00    -0.354 N 
ATOM     53  N   UNL A   1      44.614  30.047  28.190  1.00  0.00    -0.248 NA
ATOM     54  C   UNL A   1      46.738  30.545  27.353  1.00  0.00     0.031 C 
ATOM     55  C   UNL A   1      42.006  32.982  30.273  1.00  0.00     0.029 A 
ATOM     56  C   UNL A   1      42.839  32.078  29.633  1.00  0.00     0.049 A 
ATOM     57  H   UNL A   1      42.464  30.074  29.095  1.00  0.00     0.167 HD
ATOM     58  C   UNL A   1      44.928  31.365  28.501  1.00  0.00     0.074 A 
ATOM     59  C   UNL A   1      46.257  31.611  27.980  1.00  0.00     0.031 C 
ATOM     60  C   UNL A   1      44.181  32.286  29.155  1.00  0.00     0.034 A 
BRANCH  47  61
ATOM     61  C   UNL A   1      38.584  30.334  30.840  1.00  0.00     0.023 A 
ATOM     62  C   UNL A   1      38.400  29.973  32.188  1.00  0.00     0.012 A 
ATOM     63  C   UNL A   1      37.595  31.087  30.177  1.00  0.00     0.148 A 
ATOM     64  C   UNL A   1      37.247  30.360  32.871  1.00  0.00     0.002 A 
ATOM     65  C   UNL A   1      36.464  31.495  30.872  1.00  0.00     0.091 A 
ATOM     66  F   UNL A   1      37.791  31.399  28.889  1.00  0.00    -0.205 F 
ATOM     67  C   UNL A   1      36.287  31.130  32.217  1.00  0.00     0.022 A 
BRANCH  65  68
ATOM     68  S   UNL A   1      35.196  32.533  30.140  1.00  0.00     0.127 S 
ATOM     69  O   UNL A   1      34.720  31.690  29.043  1.00  0.00    -0.237 OA
ATOM     70  O   UNL A   1      34.251  32.687  31.246  1.00  0.00    -0.237 OA
ATOM     71  O   UNL A   1      35.863  33.759  29.726  1.00  0.00    -0.744 OA
ENDBRANCH  65  68
ENDBRANCH  47  61
BRANCH  48  72
ATOM     72  C   UNL A   1      47.154  27.803  26.353  1.00  0.00     0.023 A 
ATOM     73  C   UNL A   1      48.200  27.239  27.104  1.00  0.00     0.012 A 
ATOM     74  C   UNL A   1      47.302  27.952  24.960  1.00  0.00     0.148 A 
ATOM     75  C   UNL A   1      49.379  26.832  26.481  1.00  0.00     0.002 A 
ATOM     76  C   UNL A   1      48.463  27.506  24.339  1.00  0.00     0.091 A 
ATOM     77  F   UNL A   1      46.294  28.502  24.271  1.00  0.00    -0.205 F 
ATOM     78  C   UNL A   1      49.507  26.955  25.099  1.00  0.00     0.022 A 
BRANCH  76  79
ATOM     79  S   UNL A   1      48.682  27.535  22.556  1.00  0.00     0.127 S 
ATOM     80  O   UNL A   1      49.986  28.183  22.426  1.00  0.00    -0.237 OA
ATOM     81  O   UNL A   1      48.667  26.110  22.232  1.00  0.00    -0.237 OA
ATOM     82  O   UNL A   1      47.554  28.290  22.029  1.00  0.00    -0.744 OA
ENDBRANCH  76  79
ENDBRANCH  48  72
BRANCH  60  83
ATOM     83  C   UNL A   1      44.784  33.640  29.404  1.00  0.00     0.023 A 
ATOM     84  C   UNL A   1      45.488  33.885  30.597  1.00  0.00     0.012 A 
ATOM     85  C   UNL A   1      44.755  34.623  28.396  1.00  0.00     0.148 A 
ATOM     86  C   UNL A   1      46.147  35.099  30.789  1.00  0.00     0.002 A 
ATOM     87  C   UNL A   1      45.444  35.815  28.579  1.00  0.00     0.091 A 
ATOM     88  F   UNL A   1      44.068  34.366  27.273  1.00  0.00    -0.205 F 
ATOM     89  C   UNL A   1      46.136  36.058  29.776  1.00  0.00     0.022 A 
BRANCH  87  90
ATOM     90  S   UNL A   1      45.550  37.073  27.301  1.00  0.00     0.127 S 
ATOM     91  O   UNL A   1      46.122  36.318  26.188  1.00  0.00    -0.237 OA
ATOM     92  O   UNL A   1      44.148  37.454  27.124  1.00  0.00    -0.237 OA
ATOM     93  O   UNL A   1      46.401  38.126  27.839  1.00  0.00    -0.744 OA
ENDBRANCH  87  90
ENDBRANCH  60  83
ENDBRANCH  34  35
ENDBRANCH  27  29
ENDBRANCH  26  27
ENDBRANCH   1  26
TORSDOF 17
ENDMDL
MODEL 2
REMARK VINA RESULT:     -12.2      5.024     10.143
REMARK SMILES Cc1cc(OC(F)(F)F)cc2c1O[C@H](C(F)(F)F)C(C(=O)OCCOC(=O)c1ccc(-c3c4nc(c(-c5cccc(S(=O)(=O)[O-])c5F)c5ccc([nH]5)c(-c5cccc(S(=O)(=O)[O-])c5F)c5nc(c(-c6cccc(S(=O)(=O)[O-])c6F)c6ccc3[nH]6)C=C5)C=C4)cc1)=C2
REMARK SMILES IDX 24 1 23 2 22 3 20 4 21 5 19 6 1 7 2 8 3 9 12 10 4 11 11 12
REMARK SMILES IDX 13 13 10 14 91 15 14 16 5 17 6 18 7 19 8 20 9 21 15 22 16 23
REMARK SMILES IDX 17 24 18 25 25 26 26 27 27 28 28 29 29 30 90 31 30 32 89 33
REMARK SMILES IDX 31 34 32 35 33 36 83 37 34 38 88 39 82 40 84 41 35 42 87 43
REMARK SMILES IDX 81 44 80 45 36 47 68 48 48 49 67 50 49 51 52 52 66 53 85 54
REMARK SMILES IDX 50 55 51 56 65 58 86 59 53 60 37 61 38 62 46 63 39 64 41 65
REMARK SMILES IDX 47 66 40 67 42 68 43 69 44 70 45 71 69 72 70 73 78 74 71 75
REMARK SMILES IDX 73 76 79 77 72 78 74 79 75 80 76 81 77 82 54 83 55 84 63 85
REMARK SMILES IDX 56 86 58 87 64 88 57 89 59 90 60 91 61 92 62 93
REMARK H PARENT 84 46 52 57
REMARK Flexibility Score: inf
ROOT
ATOM      1  C   UNL A   1      31.404  30.499  25.735  1.00  0.00     0.275 C 
ENDROOT
BRANCH   1   2
ATOM      2  C   UNL A   1      31.341  29.321  24.755  1.00  0.00     0.275 C 
BRANCH   2   3
ATOM      3  O   UNL A   1      32.058  28.171  25.253  1.00  0.00    -0.459 OA
BRANCH   3   4
ATOM      4  C   UNL A   1      33.206  27.856  24.605  1.00  0.00     0.338 C 
ATOM      5  O   UNL A   1      34.145  28.608  24.395  1.00  0.00    -0.246 OA
BRANCH   4   6
ATOM      6  C   UNL A   1      33.213  26.419  24.243  1.00  0.00     0.087 C 
ATOM      7  C   UNL A   1      32.076  21.637  22.731  1.00  0.00     0.048 C 
ATOM      8  C   UNL A   1      33.103  22.274  23.627  1.00  0.00    -0.005 A 
ATOM      9  C   UNL A   1      34.068  21.468  24.259  1.00  0.00     0.054 A 
ATOM     10  C   UNL A   1      33.146  23.667  23.799  1.00  0.00     0.131 A 
ATOM     11  C   UNL A   1      35.060  22.037  25.058  1.00  0.00     0.130 A 
ATOM     12  C   UNL A   1      34.168  24.245  24.551  1.00  0.00     0.021 A 
ATOM     13  O   UNL A   1      32.149  24.399  23.214  1.00  0.00    -0.475 OA
ATOM     14  C   UNL A   1      35.109  23.428  25.189  1.00  0.00     0.058 A 
ATOM     15  C   UNL A   1      34.231  25.688  24.710  1.00  0.00     0.027 C 
ATOM     16  C   UNL A   1      32.097  25.839  23.420  1.00  0.00     0.316 C 
BRANCH  11  17
ATOM     17  O   UNL A   1      36.023  21.371  25.760  1.00  0.00    -0.406 OA
BRANCH  17  18
ATOM     18  C   UNL A   1      37.121  20.836  25.043  1.00  0.00     0.573 C 
ATOM     19  F   UNL A   1      36.978  19.508  24.842  1.00  0.00    -0.132 F 
ATOM     20  F   UNL A   1      37.260  21.452  23.847  1.00  0.00    -0.132 F 
ATOM     21  F   UNL A   1      38.252  21.037  25.751  1.00  0.00    -0.132 F 
ENDBRANCH  17  18
ENDBRANCH  11  17
BRANCH  16  22
ATOM     22  C   UNL A   1      32.043  26.488  22.027  1.00  0.00     0.430 C 
ATOM     23  F   UNL A   1      33.270  26.912  21.634  1.00  0.00    -0.167 F 
ATOM     24  F   UNL A   1      31.609  25.632  21.071  1.00  0.00    -0.167 F 
ATOM     25  F   UNL A   1      31.222  27.565  22.001  1.00  0.00    -0.167 F 
ENDBRANCH  16  22
ENDBRANCH   4   6
ENDBRANCH   3   4
ENDBRANCH   2   3
ENDBRANCH   1   2
BRANCH   1  26
ATOM     26  O   UNL A   1      32.495  30.369  26.663  1.00  0.00    -0.458 OA
BRANCH  26  27
ATOM     27  C   UNL A   1      33.042  31.540  27.068  1.00  0.00     0.338 C 
ATOM     28  O   UNL A   1      32.500  32.635  27.077  1.00  0.00    -0.246 OA
BRANCH  27  29
ATOM     29  C   UNL A   1      34.352  31.287  27.693  1.00  0.00     0.060 A 
ATOM     30  C   UNL A   1      34.647  29.961  28.018  1.00  0.00     0.016 A 
ATOM     31  C   UNL A   1      35.260  32.303  27.992  1.00  0.00     0.016 A 
ATOM     32  C   UNL A   1      35.868  29.625  28.590  1.00  0.00     0.010 A 
ATOM     33  C   UNL A   1      36.464  31.977  28.625  1.00  0.00     0.010 A 
ATOM     34  C   UNL A   1      36.770  30.637  28.925  1.00  0.00    -0.014 A 
BRANCH  34  35
ATOM     35  C   UNL A   1      37.981  30.292  29.697  1.00  0.00     0.031 A 
ATOM     36  C   UNL A   1      38.985  29.357  29.091  1.00  0.00     0.074 A 
ATOM     37  C   UNL A   1      38.185  30.828  30.912  1.00  0.00     0.049 A 
ATOM     38  N   UNL A   1      40.063  28.850  29.625  1.00  0.00    -0.248 NA
ATOM     39  C   UNL A   1      38.756  28.949  27.694  1.00  0.00     0.031 C 
ATOM     40  C   UNL A   1      37.314  31.808  31.560  1.00  0.00     0.029 A 
ATOM     41  N   UNL A   1      39.183  30.604  31.826  1.00  0.00    -0.354 N 
ATOM     42  C   UNL A   1      40.626  28.045  28.645  1.00  0.00     0.074 A 
ATOM     43  C   UNL A   1      39.786  28.145  27.473  1.00  0.00     0.031 C 
ATOM     44  C   UNL A   1      37.793  32.070  32.788  1.00  0.00     0.029 A 
ATOM     45  C   UNL A   1      38.982  31.252  33.022  1.00  0.00     0.049 A 
ATOM     46  H   UNL A   1      39.966  30.037  31.644  1.00  0.00     0.167 HD
ATOM     47  C   UNL A   1      41.742  27.288  28.723  1.00  0.00     0.034 A 
ATOM     48  C   UNL A   1      39.660  31.163  34.183  1.00  0.00     0.034 A 
ATOM     49  C   UNL A   1      42.569  27.190  29.894  1.00  0.00     0.049 A 
ATOM     50  C   UNL A   1      40.861  30.262  34.264  1.00  0.00     0.074 A 
ATOM     51  C   UNL A   1      43.713  26.434  30.075  1.00  0.00     0.029 A 
ATOM     52  N   UNL A   1      42.337  27.864  31.081  1.00  0.00    -0.354 N 
ATOM     53  N   UNL A   1      41.392  29.516  33.326  1.00  0.00    -0.248 NA
ATOM     54  C   UNL A   1      41.568  30.204  35.551  1.00  0.00     0.031 C 
ATOM     55  C   UNL A   1      44.165  26.639  31.380  1.00  0.00     0.029 A 
ATOM     56  C   UNL A   1      43.319  27.544  32.000  1.00  0.00     0.049 A 
ATOM     57  H   UNL A   1      41.586  28.478  31.246  1.00  0.00     0.167 HD
ATOM     58  C   UNL A   1      42.515  28.928  33.896  1.00  0.00     0.074 A 
ATOM     59  C   UNL A   1      42.588  29.405  35.262  1.00  0.00     0.031 C 
ATOM     60  C   UNL A   1      43.403  28.071  33.338  1.00  0.00     0.034 A 
BRANCH  47  61
ATOM     61  C   UNL A   1      42.150  26.501  27.511  1.00  0.00     0.023 A 
ATOM     62  C   UNL A   1      42.892  27.131  26.495  1.00  0.00     0.012 A 
ATOM     63  C   UNL A   1      41.891  25.119  27.434  1.00  0.00     0.148 A 
ATOM     64  C   UNL A   1      43.376  26.393  25.415  1.00  0.00     0.002 A 
ATOM     65  C   UNL A   1      42.401  24.385  26.371  1.00  0.00     0.091 A 
ATOM     66  F   UNL A   1      41.166  24.553  28.408  1.00  0.00    -0.205 F 
ATOM     67  C   UNL A   1      43.141  25.021  25.360  1.00  0.00     0.022 A 
BRANCH  65  68
ATOM     68  S   UNL A   1      42.202  22.607  26.234  1.00  0.00     0.127 S 
ATOM     69  O   UNL A   1      40.748  22.479  26.130  1.00  0.00    -0.237 OA
ATOM     70  O   UNL A   1      42.931  22.311  25.001  1.00  0.00    -0.237 OA
ATOM     71  O   UNL A   1      42.783  22.039  27.443  1.00  0.00    -0.744 OA
ENDBRANCH  65  68
ENDBRANCH  47  61
BRANCH  48  72
ATOM     72  C   UNL A   1      39.215  31.968  35.353  1.00  0.00     0.023 A 
ATOM     73  C   UNL A   1      38.352  31.392  36.302  1.00  0.00     0.012 A 
ATOM     74  C   UNL A   1      39.691  33.279  35.554  1.00  0.00     0.148 A 
ATOM     75  C   UNL A   1      37.965  32.109  37.434  1.00  0.00     0.002 A 
ATOM     76  C   UNL A   1      39.334  33.973  36.703  1.00  0.00     0.091 A 
ATOM     77  F   UNL A   1      40.502  33.806  34.627  1.00  0.00    -0.205 F 
ATOM     78  C   UNL A   1      38.463  33.394  37.640  1.00  0.00     0.022 A 
BRANCH  76  79
ATOM     79  S   UNL A   1      39.998  35.593  37.103  1.00  0.00     0.127 S 
ATOM     80  O   UNL A   1      39.313  35.896  38.358  1.00  0.00    -0.237 OA
ATOM     81  O   UNL A   1      41.426  35.305  37.235  1.00  0.00    -0.237 OA
ATOM     82  O   UNL A   1      39.653  36.453  35.980  1.00  0.00    -0.744 OA
ENDBRANCH  76  79
ENDBRANCH  48  72
BRANCH  60  83
ATOM     83  C   UNL A   1      44.570  27.618  34.170  1.00  0.00     0.023 A 
ATOM     84  C   UNL A   1      45.724  28.418  34.253  1.00  0.00     0.012 A 
ATOM     85  C   UNL A   1      44.464  26.461  34.966  1.00  0.00     0.148 A 
ATOM     86  C   UNL A   1      46.766  28.065  35.109  1.00  0.00     0.002 A 
ATOM     87  C   UNL A   1      45.490  26.135  35.844  1.00  0.00     0.091 A 
ATOM     88  F   UNL A   1      43.356  25.712  34.860  1.00  0.00    -0.205 F 
ATOM     89  C   UNL A   1      46.644  26.932  35.913  1.00  0.00     0.022 A 
BRANCH  87  90
ATOM     90  S   UNL A   1      45.386  24.741  36.972  1.00  0.00     0.127 S 
ATOM     91  O   UNL A   1      46.673  24.821  37.661  1.00  0.00    -0.237 OA
ATOM     92  O   UNL A   1      44.229  25.094  37.795  1.00  0.00    -0.237 OA
ATOM     93  O   UNL A   1      45.200  23.560  36.140  1.00  0.00    -0.744 OA
ENDBRANCH  87  90
ENDBRANCH  60  83
ENDBRANCH  34  35
ENDBRANCH  27  29
ENDBRANCH  26  27
ENDBRANCH   1  26
TORSDOF 17
ENDMDL
MODEL 3
REMARK VINA RESULT:     -12.2      1.444      1.724
REMARK SMILES Cc1cc(OC(F)(F)F)cc2c1O[C@H](C(F)(F)F)C(C(=O)OCCOC(=O)c1ccc(-c3c4nc(c(-c5cccc(S(=O)(=O)[O-])c5F)c5ccc([nH]5)c(-c5cccc(S(=O)(=O)[O-])c5F)c5nc(c(-c6cccc(S(=O)(=O)[O-])c6F)c6ccc3[nH]6)C=C5)C=C4)cc1)=C2
REMARK SMILES IDX 24 1 23 2 22 3 20 4 21 5 19 6 1 7 2 8 3 9 12 10 4 11 11 12
REMARK SMILES IDX 13 13 10 14 91 15 14 16 5 17 6 18 7 19 8 20 9 21 15 22 16 23
REMARK SMILES IDX 17 24 18 25 25 26 26 27 27 28 28 29 29 30 90 31 30 32 89 33
REMARK SMILES IDX 31 34 32 35 33 36 83 37 34 38 88 39 82 40 84 41 35 42 87 43
REMARK SMILES IDX 81 44 80 45 36 47 68 48 48 49 67 50 49 51 52 52 66 53 85 54
REMARK SMILES IDX 50 55 51 56 65 58 86 59 53 60 37 61 38 62 46 63 39 64 41 65
REMARK SMILES IDX 47 66 40 67 42 68 43 69 44 70 45 71 69 72 70 73 78 74 71 75
REMARK SMILES IDX 73 76 79 77 72 78 74 79 75 80 76 81 77 82 54 83 55 84 63 85
REMARK SMILES IDX 56 86 58 87 64 88 57 89 59 90 60 91 61 92 62 93
REMARK H PARENT 84 46 52 57
REMARK Flexibility Score: inf
ROOT
ATOM      1  C   UNL A   1      36.768  20.297  24.991  1.00  0.00     0.275 C 
ENDROOT
BRANCH   1   2
ATOM      2  C   UNL A   1      35.324  20.744  25.248  1.00  0.00     0.275 C 
BRANCH   2   3
ATOM      3  O   UNL A   1      35.249  22.144  25.591  1.00  0.00    -0.459 OA
BRANCH   3   4
ATOM      4  C   UNL A   1      34.008  22.637  25.820  1.00  0.00     0.338 C 
ATOM      5  O   UNL A   1      33.156  22.139  26.539  1.00  0.00    -0.246 OA
BRANCH   4   6
ATOM      6  C   UNL A   1      33.837  23.938  25.132  1.00  0.00     0.087 C 
ATOM      7  C   UNL A   1      33.840  27.901  21.853  1.00  0.00     0.048 C 
ATOM      8  C   UNL A   1      33.746  27.729  23.346  1.00  0.00    -0.005 A 
ATOM      9  C   UNL A   1      33.601  28.863  24.165  1.00  0.00     0.054 A 
ATOM     10  C   UNL A   1      33.747  26.451  23.927  1.00  0.00     0.131 A 
ATOM     11  C   UNL A   1      33.466  28.731  25.548  1.00  0.00     0.130 A 
ATOM     12  C   UNL A   1      33.556  26.311  25.301  1.00  0.00     0.021 A 
ATOM     13  O   UNL A   1      33.954  25.387  23.093  1.00  0.00    -0.475 OA
ATOM     14  C   UNL A   1      33.433  27.450  26.105  1.00  0.00     0.058 A 
ATOM     15  C   UNL A   1      33.531  24.989  25.903  1.00  0.00     0.027 C 
ATOM     16  C   UNL A   1      34.041  24.044  23.647  1.00  0.00     0.316 C 
BRANCH  11  17
ATOM     17  O   UNL A   1      33.363  29.743  26.457  1.00  0.00    -0.406 OA
BRANCH  17  18
ATOM     18  C   UNL A   1      32.081  30.294  26.701  1.00  0.00     0.573 C 
ATOM     19  F   UNL A   1      31.370  30.412  25.558  1.00  0.00    -0.132 F 
ATOM     20  F   UNL A   1      31.389  29.530  27.576  1.00  0.00    -0.132 F 
ATOM     21  F   UNL A   1      32.222  31.523  27.239  1.00  0.00    -0.132 F 
ENDBRANCH  17  18
ENDBRANCH  11  17
BRANCH  16  22
ATOM     22  C   UNL A   1      33.021  23.179  22.887  1.00  0.00     0.430 C 
ATOM     23  F   UNL A   1      31.761  23.388  23.345  1.00  0.00    -0.167 F 
ATOM     24  F   UNL A   1      32.996  23.451  21.561  1.00  0.00    -0.167 F 
ATOM     25  F   UNL A   1      33.280  21.856  23.019  1.00  0.00    -0.167 F 
ENDBRANCH  16  22
ENDBRANCH   4   6
ENDBRANCH   3   4
ENDBRANCH   2   3
ENDBRANCH   1   2
BRANCH   1  26
ATOM     26  O   UNL A   1      37.711  21.355  25.241  1.00  0.00    -0.458 OA
BRANCH  26  27
ATOM     27  C   UNL A   1      38.833  20.975  25.897  1.00  0.00     0.338 C 
ATOM     28  O   UNL A   1      39.329  19.859  25.911  1.00  0.00    -0.246 OA
BRANCH  27  29
ATOM     29  C   UNL A   1      39.506  22.161  26.457  1.00  0.00     0.060 A 
ATOM     30  C   UNL A   1      39.074  23.405  25.994  1.00  0.00     0.016 A 
ATOM     31  C   UNL A   1      40.551  22.077  27.378  1.00  0.00     0.016 A 
ATOM     32  C   UNL A   1      39.636  24.579  26.482  1.00  0.00     0.010 A 
ATOM     33  C   UNL A   1      41.161  23.254  27.824  1.00  0.00     0.010 A 
ATOM     34  C   UNL A   1      40.704  24.507  27.378  1.00  0.00    -0.014 A 
BRANCH  34  35
ATOM     35  C   UNL A   1      41.414  25.747  27.749  1.00  0.00     0.031 A 
ATOM     36  C   UNL A   1      40.673  26.807  28.509  1.00  0.00     0.074 A 
ATOM     37  C   UNL A   1      42.709  25.909  27.429  1.00  0.00     0.049 A 
ATOM     38  N   UNL A   1      41.071  28.002  28.853  1.00  0.00    -0.248 NA
ATOM     39  C   UNL A   1      39.309  26.474  28.956  1.00  0.00     0.031 C 
ATOM     40  C   UNL A   1      43.545  24.910  26.763  1.00  0.00     0.029 A 
ATOM     41  N   UNL A   1      43.541  26.985  27.605  1.00  0.00    -0.354 N 
ATOM     42  C   UNL A   1      40.003  28.573  29.529  1.00  0.00     0.074 A 
ATOM     43  C   UNL A   1      38.944  27.590  29.571  1.00  0.00     0.031 C 
ATOM     44  C   UNL A   1      44.762  25.438  26.546  1.00  0.00     0.029 A 
ATOM     45  C   UNL A   1      44.777  26.818  27.027  1.00  0.00     0.049 A 
ATOM     46  H   UNL A   1      43.279  27.797  28.095  1.00  0.00     0.167 HD
ATOM     47  C   UNL A   1      39.916  29.812  30.063  1.00  0.00     0.034 A 
ATOM     48  C   UNL A   1      45.790  27.694  26.873  1.00  0.00     0.034 A 
ATOM     49  C   UNL A   1      40.971  30.786  30.013  1.00  0.00     0.049 A 
ATOM     50  C   UNL A   1      45.643  29.088  27.418  1.00  0.00     0.074 A 
ATOM     51  C   UNL A   1      40.970  32.076  30.511  1.00  0.00     0.029 A 
ATOM     52  N   UNL A   1      42.208  30.579  29.426  1.00  0.00    -0.354 N 
ATOM     53  N   UNL A   1      44.634  29.613  28.069  1.00  0.00    -0.248 NA
ATOM     54  C   UNL A   1      46.778  30.003  27.227  1.00  0.00     0.031 C 
ATOM     55  C   UNL A   1      42.205  32.656  30.212  1.00  0.00     0.029 A 
ATOM     56  C   UNL A   1      42.982  31.717  29.553  1.00  0.00     0.049 A 
ATOM     57  H   UNL A   1      42.493  29.747  28.986  1.00  0.00     0.167 HD
ATOM     58  C   UNL A   1      45.023  30.906  28.398  1.00  0.00     0.074 A 
ATOM     59  C   UNL A   1      46.361  31.085  27.874  1.00  0.00     0.031 C 
ATOM     60  C   UNL A   1      44.332  31.857  29.071  1.00  0.00     0.034 A 
BRANCH  47  61
ATOM     61  C   UNL A   1      38.641  30.197  30.756  1.00  0.00     0.023 A 
ATOM     62  C   UNL A   1      38.477  29.896  32.121  1.00  0.00     0.012 A 
ATOM     63  C   UNL A   1      37.659  30.949  30.083  1.00  0.00     0.148 A 
ATOM     64  C   UNL A   1      37.350  30.341  32.811  1.00  0.00     0.002 A 
ATOM     65  C   UNL A   1      36.553  31.414  30.783  1.00  0.00     0.091 A 
ATOM     66  F   UNL A   1      37.835  31.203  28.779  1.00  0.00    -0.205 F 
ATOM     67  C   UNL A   1      36.396  31.109  32.146  1.00  0.00     0.022 A 
BRANCH  65  68
ATOM     68  S   UNL A   1      35.297  32.454  30.035  1.00  0.00     0.127 S 
ATOM     69  O   UNL A   1      34.819  31.604  28.944  1.00  0.00    -0.237 OA
ATOM     70  O   UNL A   1      34.349  32.628  31.135  1.00  0.00    -0.237 OA
ATOM     71  O   UNL A   1      35.977  33.671  29.611  1.00  0.00    -0.744 OA
ENDBRANCH  65  68
ENDBRANCH  47  61
BRANCH  48  72
ATOM     72  C   UNL A   1      47.033  27.259  26.181  1.00  0.00     0.023 A 
ATOM     73  C   UNL A   1      47.223  27.585  24.826  1.00  0.00     0.012 A 
ATOM     74  C   UNL A   1      48.050  26.577  26.879  1.00  0.00     0.148 A 
ATOM     75  C   UNL A   1      48.404  27.235  24.173  1.00  0.00     0.002 A 
ATOM     76  C   UNL A   1      49.241  26.267  26.233  1.00  0.00     0.091 A 
ATOM     77  F   UNL A   1      47.838  26.270  28.166  1.00  0.00    -0.205 F 
ATOM     78  C   UNL A   1      49.416  26.586  24.876  1.00  0.00     0.022 A 
BRANCH  76  79
ATOM     79  S   UNL A   1      50.637  25.518  27.080  1.00  0.00     0.127 S 
ATOM     80  O   UNL A   1      50.987  26.553  28.050  1.00  0.00    -0.237 OA
ATOM     81  O   UNL A   1      50.029  24.318  27.652  1.00  0.00    -0.237 OA
ATOM     82  O   UNL A   1      51.635  25.262  26.051  1.00  0.00    -0.744 OA
ENDBRANCH  76  79
ENDBRANCH  48  72
BRANCH  60  83
ATOM     83  C   UNL A   1      45.012  33.171  29.337  1.00  0.00     0.023 A 
ATOM     84  C   UNL A   1      45.777  33.339  30.506  1.00  0.00     0.012 A 
ATOM     85  C   UNL A   1      44.991  34.188  28.364  1.00  0.00     0.148 A 
ATOM     86  C   UNL A   1      46.503  34.512  30.710  1.00  0.00     0.002 A 
ATOM     87  C   UNL A   1      45.745  35.338  28.556  1.00  0.00     0.091 A 
ATOM     88  F   UNL A   1      44.246  34.004  27.264  1.00  0.00    -0.205 F 
ATOM     89  C   UNL A   1      46.497  35.505  29.730  1.00  0.00     0.022 A 
BRANCH  87  90
ATOM     90  S   UNL A   1      45.861  36.633  27.317  1.00  0.00     0.127 S 
ATOM     91  O   UNL A   1      44.471  37.072  27.215  1.00  0.00    -0.237 OA
ATOM     92  O   UNL A   1      46.760  37.596  27.957  1.00  0.00    -0.237 OA
ATOM     93  O   UNL A   1      46.403  36.002  26.121  1.00  0.00    -0.744 OA
ENDBRANCH  87  90
ENDBRANCH  60  83
ENDBRANCH  34  35
ENDBRANCH  27  29
ENDBRANCH  26  27
ENDBRANCH   1  26
TORSDOF 17
ENDMDL
