MODEL 1
REMARK VINA RESULT:     -12.3      0.000      0.000
REMARK SMILES COC(=O)c1c(NC(=O)[C@@H]2C[C@@H]2C(=O)OCCOC(=O)c2ccc(-c3c4nc(c(-c5cccc(S(=O)(=O)[O-])c5F)c5ccc([nH]5)c(-c5cccc(S(=O)(=O)[O-])c5F)c5nc(c(-c6cccc(S(=O)(=O)[O-])c6F)c6ccc3[nH]6)C=C5)C=C4)cc2)sc2c1CC[N@@H+](Cc1ccccc1)C2
REMARK SMILES IDX 16 1 15 2 13 3 14 4 12 5 10 6 11 7 8 8 7 9 9 11 6 12 5 13
REMARK SMILES IDX 86 14 84 15 85 16 87 17 97 18 88 19 89 20 3 22 4 23 2 24
REMARK SMILES IDX 1 25 90 26 91 27 92 28 96 29 93 30 95 31 94 32 17 33 18 34
REMARK SMILES IDX 19 35 20 36 21 37 22 38 83 39 23 40 82 41 24 42 25 43 26 44
REMARK SMILES IDX 76 45 27 46 81 47 75 48 77 49 28 50 80 51 74 52 73 53 29 55
REMARK SMILES IDX 61 56 41 57 60 58 42 59 45 60 59 61 78 62 43 63 44 64 58 66
REMARK SMILES IDX 79 67 46 68 30 69 31 70 39 71 32 72 34 73 40 74 33 75 35 76
REMARK SMILES IDX 36 77 37 78 38 79 62 80 63 81 71 82 64 83 66 84 72 85 65 86
REMARK SMILES IDX 67 87 68 88 69 89 70 90 47 91 48 92 56 93 49 94 51 95 57 96
REMARK SMILES IDX 50 97 52 98 53 99 54 100 55 101
REMARK H PARENT 7 10 89 21 77 54 45 65
REMARK Flexibility Score: inf
ROOT
ATOM      1  C   UNL A   1      38.783  20.664  25.856  1.00  0.00     0.274 C 
ENDROOT
BRANCH   1   2
ATOM      2  O   UNL A   1      37.792  20.955  24.852  1.00  0.00    -0.462 OA
BRANCH   2   3
ATOM      3  C   UNL A   1      37.143  22.125  25.065  1.00  0.00     0.309 C 
ATOM      4  O   UNL A   1      37.605  23.093  25.666  1.00  0.00    -0.252 OA
BRANCH   3   5
ATOM      5  C   UNL A   1      35.722  22.138  24.679  1.00  0.00     0.112 C 
ATOM      6  C   UNL A   1      34.372  22.430  25.285  1.00  0.00     0.094 C 
ATOM      7  C   UNL A   1      34.963  21.050  25.413  1.00  0.00     0.030 C 
BRANCH   6   8
ATOM      8  C   UNL A   1      33.911  23.050  26.529  1.00  0.00     0.229 C 
ATOM      9  N   UNL A   1      33.252  24.257  26.466  1.00  0.00    -0.317 N 
ATOM     10  H   UNL A   1      32.799  24.481  27.312  1.00  0.00     0.170 HD
ATOM     11  O   UNL A   1      34.159  22.534  27.614  1.00  0.00    -0.274 OA
BRANCH   9  12
ATOM     12  C   UNL A   1      33.070  25.235  25.495  1.00  0.00     0.110 A 
ATOM     13  C   UNL A   1      32.950  25.424  24.114  1.00  0.00     0.098 A 
ATOM     14  C   UNL A   1      32.734  26.839  23.814  1.00  0.00    -0.006 A 
ATOM     15  S   UNL A   1      33.077  26.753  26.331  1.00  0.00    -0.116 S 
ATOM     16  C   UNL A   1      32.703  27.630  24.938  1.00  0.00     0.065 A 
ATOM     17  C   UNL A   1      32.429  27.433  22.463  1.00  0.00     0.099 C 
ATOM     18  C   UNL A   1      32.349  29.092  24.957  1.00  0.00     0.310 C 
ATOM     19  C   UNL A   1      32.181  28.960  22.522  1.00  0.00     0.267 C 
ATOM     20  N   UNL A   1      31.591  29.500  23.756  1.00  0.00    -0.326 N 
ATOM     21  H   UNL A   1      31.705  30.511  23.683  1.00  0.00     0.348 HD
BRANCH  13  22
ATOM     22  C   UNL A   1      33.026  24.481  22.994  1.00  0.00     0.341 C 
ATOM     23  O   UNL A   1      33.903  24.519  22.139  1.00  0.00    -0.246 OA
BRANCH  22  24
ATOM     24  O   UNL A   1      31.939  23.691  22.890  1.00  0.00    -0.465 OA
ATOM     25  C   UNL A   1      30.673  24.208  23.305  1.00  0.00     0.282 C 
ENDBRANCH  22  24
ENDBRANCH  13  22
BRANCH  20  26
ATOM     26  C   UNL A   1      30.126  29.396  23.871  1.00  0.00     0.299 C 
BRANCH  26  27
ATOM     27  C   UNL A   1      29.292  30.369  23.068  1.00  0.00     0.006 A 
ATOM     28  C   UNL A   1      29.012  31.654  23.556  1.00  0.00     0.009 A 
ATOM     29  C   UNL A   1      28.825  30.023  21.793  1.00  0.00     0.009 A 
ATOM     30  C   UNL A   1      28.380  32.599  22.745  1.00  0.00     0.001 A 
ATOM     31  C   UNL A   1      28.222  30.974  20.972  1.00  0.00     0.001 A 
ATOM     32  C   UNL A   1      28.014  32.267  21.443  1.00  0.00     0.000 A 
ENDBRANCH  26  27
ENDBRANCH  20  26
ENDBRANCH   9  12
ENDBRANCH   6   8
ENDBRANCH   3   5
ENDBRANCH   2   3
ENDBRANCH   1   2
BRANCH   1  33
ATOM     33  C   UNL A   1      39.690  19.501  25.462  1.00  0.00     0.275 C 
BRANCH  33  34
ATOM     34  O   UNL A   1      40.762  19.278  26.381  1.00  0.00    -0.458 OA
BRANCH  34  35
ATOM     35  C   UNL A   1      41.958  19.667  25.893  1.00  0.00     0.338 C 
ATOM     36  O   UNL A   1      42.661  19.059  25.104  1.00  0.00    -0.246 OA
BRANCH  35  37
ATOM     37  C   UNL A   1      42.491  20.819  26.601  1.00  0.00     0.060 A 
ATOM     38  C   UNL A   1      42.102  20.957  27.938  1.00  0.00     0.016 A 
ATOM     39  C   UNL A   1      43.026  21.875  25.858  1.00  0.00     0.016 A 
ATOM     40  C   UNL A   1      42.107  22.211  28.492  1.00  0.00     0.010 A 
ATOM     41  C   UNL A   1      43.036  23.130  26.418  1.00  0.00     0.010 A 
ATOM     42  C   UNL A   1      42.517  23.294  27.702  1.00  0.00    -0.014 A 
BRANCH  42  43
ATOM     43  C   UNL A   1      42.594  24.585  28.355  1.00  0.00     0.031 A 
ATOM     44  C   UNL A   1      41.454  25.441  27.944  1.00  0.00     0.074 A 
ATOM     45  C   UNL A   1      43.527  24.873  29.284  1.00  0.00     0.049 A 
ATOM     46  N   UNL A   1      41.498  26.539  27.265  1.00  0.00    -0.248 NA
ATOM     47  C   UNL A   1      40.092  24.889  28.090  1.00  0.00     0.031 C 
ATOM     48  C   UNL A   1      44.489  23.928  29.867  1.00  0.00     0.029 A 
ATOM     49  N   UNL A   1      43.721  26.003  30.028  1.00  0.00    -0.354 N 
ATOM     50  C   UNL A   1      40.172  26.968  27.220  1.00  0.00     0.074 A 
ATOM     51  C   UNL A   1      39.357  25.817  27.476  1.00  0.00     0.031 C 
ATOM     52  C   UNL A   1      44.942  24.425  31.037  1.00  0.00     0.029 A 
ATOM     53  C   UNL A   1      44.410  25.762  31.217  1.00  0.00     0.049 A 
ATOM     54  H   UNL A   1      43.407  26.895  29.752  1.00  0.00     0.167 HD
ATOM     55  C   UNL A   1      39.901  28.284  27.432  1.00  0.00     0.034 A 
ATOM     56  C   UNL A   1      44.455  26.566  32.309  1.00  0.00     0.034 A 
ATOM     57  C   UNL A   1      41.069  29.088  27.191  1.00  0.00     0.049 A 
ATOM     58  C   UNL A   1      44.095  27.931  31.876  1.00  0.00     0.074 A 
ATOM     59  C   UNL A   1      41.820  29.482  26.106  1.00  0.00     0.029 A 
ATOM     60  N   UNL A   1      41.844  29.244  28.307  1.00  0.00    -0.354 N 
ATOM     61  N   UNL A   1      44.845  28.654  31.092  1.00  0.00    -0.248 NA
ATOM     62  C   UNL A   1      42.722  28.398  32.040  1.00  0.00     0.031 C 
ATOM     63  C   UNL A   1      43.121  29.782  26.611  1.00  0.00     0.029 A 
ATOM     64  C   UNL A   1      43.119  29.617  27.994  1.00  0.00     0.049 A 
ATOM     65  H   UNL A   1      41.521  29.105  29.226  1.00  0.00     0.167 HD
ATOM     66  C   UNL A   1      43.932  29.343  30.318  1.00  0.00     0.074 A 
ATOM     67  C   UNL A   1      42.683  29.312  31.069  1.00  0.00     0.031 C 
ATOM     68  C   UNL A   1      44.165  29.551  28.991  1.00  0.00     0.034 A 
BRANCH  55  69
ATOM     69  C   UNL A   1      38.828  28.773  28.399  1.00  0.00     0.023 A 
ATOM     70  C   UNL A   1      37.906  29.720  27.903  1.00  0.00     0.012 A 
ATOM     71  C   UNL A   1      38.861  28.604  29.805  1.00  0.00     0.148 A 
ATOM     72  C   UNL A   1      37.093  30.475  28.759  1.00  0.00     0.002 A 
ATOM     73  C   UNL A   1      37.995  29.293  30.645  1.00  0.00     0.091 A 
ATOM     74  F   UNL A   1      39.829  27.888  30.378  1.00  0.00    -0.205 F 
ATOM     75  C   UNL A   1      37.129  30.254  30.131  1.00  0.00     0.022 A 
BRANCH  73  76
ATOM     76  S   UNL A   1      37.986  29.010  32.422  1.00  0.00     0.127 S 
ATOM     77  O   UNL A   1      39.313  29.486  32.799  1.00  0.00    -0.237 OA
ATOM     78  O   UNL A   1      36.874  29.858  32.848  1.00  0.00    -0.237 OA
ATOM     79  O   UNL A   1      37.745  27.582  32.593  1.00  0.00    -0.744 OA
ENDBRANCH  73  76
ENDBRANCH  55  69
BRANCH  56  80
ATOM     80  C   UNL A   1      44.573  26.228  33.750  1.00  0.00     0.023 A 
ATOM     81  C   UNL A   1      45.838  26.287  34.373  1.00  0.00     0.012 A 
ATOM     82  C   UNL A   1      43.431  26.139  34.574  1.00  0.00     0.148 A 
ATOM     83  C   UNL A   1      45.958  26.310  35.767  1.00  0.00     0.002 A 
ATOM     84  C   UNL A   1      43.555  26.154  35.961  1.00  0.00     0.091 A 
ATOM     85  F   UNL A   1      42.220  26.133  34.003  1.00  0.00    -0.205 F 
ATOM     86  C   UNL A   1      44.816  26.257  36.561  1.00  0.00     0.022 A 
BRANCH  84  87
ATOM     87  S   UNL A   1      42.126  26.108  37.051  1.00  0.00     0.127 S 
ATOM     88  O   UNL A   1      42.750  26.211  38.370  1.00  0.00    -0.237 OA
ATOM     89  O   UNL A   1      41.385  27.293  36.630  1.00  0.00    -0.237 OA
ATOM     90  O   UNL A   1      41.473  24.829  36.798  1.00  0.00    -0.744 OA
ENDBRANCH  84  87
ENDBRANCH  56  80
BRANCH  68  91
ATOM     91  C   UNL A   1      45.590  29.575  28.531  1.00  0.00     0.023 A 
ATOM     92  C   UNL A   1      46.446  30.682  28.693  1.00  0.00     0.012 A 
ATOM     93  C   UNL A   1      46.095  28.398  27.958  1.00  0.00     0.148 A 
ATOM     94  C   UNL A   1      47.774  30.618  28.259  1.00  0.00     0.002 A 
ATOM     95  C   UNL A   1      47.424  28.322  27.572  1.00  0.00     0.091 A 
ATOM     96  F   UNL A   1      45.258  27.360  27.798  1.00  0.00    -0.205 F 
ATOM     97  C   UNL A   1      48.267  29.434  27.710  1.00  0.00     0.022 A 
BRANCH  95  98
ATOM     98  S   UNL A   1      48.116  26.788  26.959  1.00  0.00     0.127 S 
ATOM     99  O   UNL A   1      46.999  26.228  26.201  1.00  0.00    -0.237 OA
ATOM    100  O   UNL A   1      49.240  27.252  26.142  1.00  0.00    -0.237 OA
ATOM    101  O   UNL A   1      48.520  26.034  28.140  1.00  0.00    -0.744 OA
ENDBRANCH  95  98
ENDBRANCH  68  91
ENDBRANCH  42  43
ENDBRANCH  35  37
ENDBRANCH  34  35
ENDBRANCH  33  34
ENDBRANCH   1  33
TORSDOF 20
ENDMDL
MODEL 2
REMARK VINA RESULT:     -11.8      4.178      9.484
REMARK SMILES COC(=O)c1c(NC(=O)[C@@H]2C[C@@H]2C(=O)OCCOC(=O)c2ccc(-c3c4nc(c(-c5cccc(S(=O)(=O)[O-])c5F)c5ccc([nH]5)c(-c5cccc(S(=O)(=O)[O-])c5F)c5nc(c(-c6cccc(S(=O)(=O)[O-])c6F)c6ccc3[nH]6)C=C5)C=C4)cc2)sc2c1CC[N@@H+](Cc1ccccc1)C2
REMARK SMILES IDX 16 1 15 2 13 3 14 4 12 5 10 6 11 7 8 8 7 9 9 11 6 12 5 13
REMARK SMILES IDX 86 14 84 15 85 16 87 17 97 18 88 19 89 20 3 22 4 23 2 24
REMARK SMILES IDX 1 25 90 26 91 27 92 28 96 29 93 30 95 31 94 32 17 33 18 34
REMARK SMILES IDX 19 35 20 36 21 37 22 38 83 39 23 40 82 41 24 42 25 43 26 44
REMARK SMILES IDX 76 45 27 46 81 47 75 48 77 49 28 50 80 51 74 52 73 53 29 55
REMARK SMILES IDX 61 56 41 57 60 58 42 59 45 60 59 61 78 62 43 63 44 64 58 66
REMARK SMILES IDX 79 67 46 68 30 69 31 70 39 71 32 72 34 73 40 74 33 75 35 76
REMARK SMILES IDX 36 77 37 78 38 79 62 80 63 81 71 82 64 83 66 84 72 85 65 86
REMARK SMILES IDX 67 87 68 88 69 89 70 90 47 91 48 92 56 93 49 94 51 95 57 96
REMARK SMILES IDX 50 97 52 98 53 99 54 100 55 101
REMARK H PARENT 7 10 89 21 77 54 45 65
REMARK Flexibility Score: inf
ROOT
ATOM      1  C   UNL A   1      33.129  31.807  27.706  1.00  0.00     0.274 C 
ENDROOT
BRANCH   1   2
ATOM      2  O   UNL A   1      32.606  30.667  26.998  1.00  0.00    -0.462 OA
BRANCH   2   3
ATOM      3  C   UNL A   1      33.572  29.879  26.467  1.00  0.00     0.309 C 
ATOM      4  O   UNL A   1      34.780  30.101  26.524  1.00  0.00    -0.252 OA
BRANCH   3   5
ATOM      5  C   UNL A   1      33.090  28.773  25.623  1.00  0.00     0.112 C 
ATOM      6  C   UNL A   1      32.283  27.505  25.746  1.00  0.00     0.094 C 
ATOM      7  C   UNL A   1      33.765  27.473  26.013  1.00  0.00     0.030 C 
BRANCH   6   8
ATOM      8  C   UNL A   1      31.430  26.920  26.782  1.00  0.00     0.229 C 
ATOM      9  N   UNL A   1      31.193  25.563  26.761  1.00  0.00    -0.317 N 
ATOM     10  H   UNL A   1      30.797  25.239  27.603  1.00  0.00     0.170 HD
ATOM     11  O   UNL A   1      30.887  27.631  27.620  1.00  0.00    -0.274 OA
BRANCH   9  12
ATOM     12  C   UNL A   1      31.379  24.541  25.837  1.00  0.00     0.110 A 
ATOM     13  C   UNL A   1      31.538  24.291  24.470  1.00  0.00     0.098 A 
ATOM     14  C   UNL A   1      31.725  22.860  24.236  1.00  0.00    -0.006 A 
ATOM     15  S   UNL A   1      31.302  23.060  26.734  1.00  0.00    -0.116 S 
ATOM     16  C   UNL A   1      31.697  22.116  25.392  1.00  0.00     0.065 A 
ATOM     17  C   UNL A   1      32.058  22.203  22.922  1.00  0.00     0.099 C 
ATOM     18  C   UNL A   1      32.009  20.647  25.482  1.00  0.00     0.310 C 
ATOM     19  C   UNL A   1      32.261  20.673  23.051  1.00  0.00     0.267 C 
ATOM     20  N   UNL A   1      32.794  20.169  24.325  1.00  0.00    -0.326 N 
ATOM     21  H   UNL A   1      32.655  19.160  24.289  1.00  0.00     0.348 HD
BRANCH  13  22
ATOM     22  C   UNL A   1      31.526  25.189  23.311  1.00  0.00     0.341 C 
ATOM     23  O   UNL A   1      30.499  25.535  22.737  1.00  0.00    -0.246 OA
BRANCH  22  24
ATOM     24  O   UNL A   1      32.756  25.445  22.824  1.00  0.00    -0.465 OA
ATOM     25  C   UNL A   1      32.893  25.752  21.435  1.00  0.00     0.282 C 
ENDBRANCH  22  24
ENDBRANCH  13  22
BRANCH  20  26
ATOM     26  C   UNL A   1      34.257  20.240  24.486  1.00  0.00     0.299 C 
BRANCH  26  27
ATOM     27  C   UNL A   1      34.857  21.586  24.825  1.00  0.00     0.006 A 
ATOM     28  C   UNL A   1      35.027  21.984  26.160  1.00  0.00     0.009 A 
ATOM     29  C   UNL A   1      35.304  22.443  23.810  1.00  0.00     0.009 A 
ATOM     30  C   UNL A   1      35.725  23.155  26.468  1.00  0.00     0.001 A 
ATOM     31  C   UNL A   1      36.027  23.595  24.117  1.00  0.00     0.001 A 
ATOM     32  C   UNL A   1      36.251  23.942  25.446  1.00  0.00     0.000 A 
ENDBRANCH  26  27
ENDBRANCH  20  26
ENDBRANCH   9  12
ENDBRANCH   6   8
ENDBRANCH   3   5
ENDBRANCH   2   3
ENDBRANCH   1   2
BRANCH   1  33
ATOM     33  C   UNL A   1      32.360  33.089  27.400  1.00  0.00     0.275 C 
BRANCH  33  34
ATOM     34  O   UNL A   1      33.115  34.279  27.641  1.00  0.00    -0.458 OA
BRANCH  34  35
ATOM     35  C   UNL A   1      33.280  34.536  28.955  1.00  0.00     0.338 C 
ATOM     36  O   UNL A   1      32.500  35.114  29.693  1.00  0.00    -0.246 OA
BRANCH  35  37
ATOM     37  C   UNL A   1      34.638  34.271  29.399  1.00  0.00     0.060 A 
ATOM     38  C   UNL A   1      35.641  34.402  28.433  1.00  0.00     0.016 A 
ATOM     39  C   UNL A   1      34.828  33.572  30.595  1.00  0.00     0.016 A 
ATOM     40  C   UNL A   1      36.803  33.693  28.600  1.00  0.00     0.010 A 
ATOM     41  C   UNL A   1      35.997  32.867  30.762  1.00  0.00     0.010 A 
ATOM     42  C   UNL A   1      36.940  32.884  29.736  1.00  0.00    -0.014 A 
BRANCH  42  43
ATOM     43  C   UNL A   1      38.219  32.226  29.917  1.00  0.00     0.031 A 
ATOM     44  C   UNL A   1      38.113  30.787  29.571  1.00  0.00     0.074 A 
ATOM     45  C   UNL A   1      39.341  32.898  30.244  1.00  0.00     0.049 A 
ATOM     46  N   UNL A   1      38.244  29.774  30.362  1.00  0.00    -0.248 NA
ATOM     47  C   UNL A   1      37.554  30.437  28.250  1.00  0.00     0.031 C 
ATOM     48  C   UNL A   1      39.481  34.357  30.330  1.00  0.00     0.029 A 
ATOM     49  N   UNL A   1      40.624  32.458  30.408  1.00  0.00    -0.354 N 
ATOM     50  C   UNL A   1      38.123  28.666  29.526  1.00  0.00     0.074 A 
ATOM     51  C   UNL A   1      37.438  29.112  28.348  1.00  0.00     0.031 C 
ATOM     52  C   UNL A   1      40.788  34.682  30.237  1.00  0.00     0.029 A 
ATOM     53  C   UNL A   1      41.574  33.462  30.218  1.00  0.00     0.049 A 
ATOM     54  H   UNL A   1      40.854  31.527  30.636  1.00  0.00     0.167 HD
ATOM     55  C   UNL A   1      38.987  27.628  29.682  1.00  0.00     0.034 A 
ATOM     56  C   UNL A   1      42.896  33.295  29.966  1.00  0.00     0.034 A 
ATOM     57  C   UNL A   1      39.571  27.647  30.998  1.00  0.00     0.049 A 
ATOM     58  C   UNL A   1      43.270  31.939  30.414  1.00  0.00     0.074 A 
ATOM     59  C   UNL A   1      39.158  27.418  32.291  1.00  0.00     0.029 A 
ATOM     60  N   UNL A   1      40.718  28.388  31.056  1.00  0.00    -0.354 N 
ATOM     61  N   UNL A   1      43.282  31.578  31.666  1.00  0.00    -0.248 NA
ATOM     62  C   UNL A   1      43.320  30.850  29.444  1.00  0.00     0.031 C 
ATOM     63  C   UNL A   1      40.054  28.146  33.129  1.00  0.00     0.029 A 
ATOM     64  C   UNL A   1      41.021  28.757  32.335  1.00  0.00     0.049 A 
ATOM     65  H   UNL A   1      41.262  28.627  30.271  1.00  0.00     0.167 HD
ATOM     66  C   UNL A   1      42.856  30.264  31.626  1.00  0.00     0.074 A 
ATOM     67  C   UNL A   1      43.097  29.818  30.260  1.00  0.00     0.031 C 
ATOM     68  C   UNL A   1      42.017  29.777  32.584  1.00  0.00     0.034 A 
BRANCH  55  69
ATOM     69  C   UNL A   1      39.744  26.986  28.525  1.00  0.00     0.023 A 
ATOM     70  C   UNL A   1      39.778  25.575  28.488  1.00  0.00     0.012 A 
ATOM     71  C   UNL A   1      40.658  27.659  27.676  1.00  0.00     0.148 A 
ATOM     72  C   UNL A   1      40.689  24.879  27.682  1.00  0.00     0.002 A 
ATOM     73  C   UNL A   1      41.502  26.967  26.816  1.00  0.00     0.091 A 
ATOM     74  F   UNL A   1      40.841  28.974  27.787  1.00  0.00    -0.205 F 
ATOM     75  C   UNL A   1      41.545  25.575  26.837  1.00  0.00     0.022 A 
BRANCH  73  76
ATOM     76  S   UNL A   1      42.599  27.831  25.682  1.00  0.00     0.127 S 
ATOM     77  O   UNL A   1      43.704  28.191  26.564  1.00  0.00    -0.237 OA
ATOM     78  O   UNL A   1      42.896  26.782  24.706  1.00  0.00    -0.237 OA
ATOM     79  O   UNL A   1      41.820  28.940  25.145  1.00  0.00    -0.744 OA
ENDBRANCH  73  76
ENDBRANCH  55  69
BRANCH  56  80
ATOM     80  C   UNL A   1      43.837  34.123  29.170  1.00  0.00     0.023 A 
ATOM     81  C   UNL A   1      44.605  35.114  29.818  1.00  0.00     0.012 A 
ATOM     82  C   UNL A   1      44.200  33.757  27.856  1.00  0.00     0.148 A 
ATOM     83  C   UNL A   1      45.726  35.681  29.201  1.00  0.00     0.002 A 
ATOM     84  C   UNL A   1      45.311  34.328  27.243  1.00  0.00     0.091 A 
ATOM     85  F   UNL A   1      43.515  32.782  27.244  1.00  0.00    -0.205 F 
ATOM     86  C   UNL A   1      46.087  35.279  27.918  1.00  0.00     0.022 A 
BRANCH  84  87
ATOM     87  S   UNL A   1      45.851  33.846  25.597  1.00  0.00     0.127 S 
ATOM     88  O   UNL A   1      46.072  32.409  25.761  1.00  0.00    -0.237 OA
ATOM     89  O   UNL A   1      44.691  34.197  24.783  1.00  0.00    -0.237 OA
ATOM     90  O   UNL A   1      47.064  34.611  25.335  1.00  0.00    -0.744 OA
ENDBRANCH  84  87
ENDBRANCH  56  80
BRANCH  68  91
ATOM     91  C   UNL A   1      42.041  30.435  33.929  1.00  0.00     0.023 A 
ATOM     92  C   UNL A   1      43.007  30.163  34.917  1.00  0.00     0.012 A 
ATOM     93  C   UNL A   1      41.067  31.416  34.177  1.00  0.00     0.148 A 
ATOM     94  C   UNL A   1      42.978  30.839  36.140  1.00  0.00     0.002 A 
ATOM     95  C   UNL A   1      41.069  32.117  35.371  1.00  0.00     0.091 A 
ATOM     96  F   UNL A   1      40.145  31.648  33.228  1.00  0.00    -0.205 F 
ATOM     97  C   UNL A   1      42.016  31.825  36.363  1.00  0.00     0.022 A 
BRANCH  95  98
ATOM     98  S   UNL A   1      39.915  33.458  35.652  1.00  0.00     0.127 S 
ATOM     99  O   UNL A   1      38.629  32.762  35.645  1.00  0.00    -0.237 OA
ATOM    100  O   UNL A   1      40.331  33.965  36.961  1.00  0.00    -0.237 OA
ATOM    101  O   UNL A   1      40.129  34.401  34.560  1.00  0.00    -0.744 OA
ENDBRANCH  95  98
ENDBRANCH  68  91
ENDBRANCH  42  43
ENDBRANCH  35  37
ENDBRANCH  34  35
ENDBRANCH  33  34
ENDBRANCH   1  33
TORSDOF 20
ENDMDL
MODEL 3
REMARK VINA RESULT:     -11.7      3.035      8.220
REMARK SMILES COC(=O)c1c(NC(=O)[C@@H]2C[C@@H]2C(=O)OCCOC(=O)c2ccc(-c3c4nc(c(-c5cccc(S(=O)(=O)[O-])c5F)c5ccc([nH]5)c(-c5cccc(S(=O)(=O)[O-])c5F)c5nc(c(-c6cccc(S(=O)(=O)[O-])c6F)c6ccc3[nH]6)C=C5)C=C4)cc2)sc2c1CC[N@@H+](Cc1ccccc1)C2
REMARK SMILES IDX 16 1 15 2 13 3 14 4 12 5 10 6 11 7 8 8 7 9 9 11 6 12 5 13
REMARK SMILES IDX 86 14 84 15 85 16 87 17 97 18 88 19 89 20 3 22 4 23 2 24
REMARK SMILES IDX 1 25 90 26 91 27 92 28 96 29 93 30 95 31 94 32 17 33 18 34
REMARK SMILES IDX 19 35 20 36 21 37 22 38 83 39 23 40 82 41 24 42 25 43 26 44
REMARK SMILES IDX 76 45 27 46 81 47 75 48 77 49 28 50 80 51 74 52 73 53 29 55
REMARK SMILES IDX 61 56 41 57 60 58 42 59 45 60 59 61 78 62 43 63 44 64 58 66
REMARK SMILES IDX 79 67 46 68 30 69 31 70 39 71 32 72 34 73 40 74 33 75 35 76
REMARK SMILES IDX 36 77 37 78 38 79 62 80 63 81 71 82 64 83 66 84 72 85 65 86
REMARK SMILES IDX 67 87 68 88 69 89 70 90 47 91 48 92 56 93 49 94 51 95 57 96
REMARK SMILES IDX 50 97 52 98 53 99 54 100 55 101
REMARK H PARENT 7 10 89 21 77 54 45 65
REMARK Flexibility Score: inf
ROOT
ATOM      1  C   UNL A   1      34.040  32.549  28.166  1.00  0.00     0.274 C 
ENDROOT
BRANCH   1   2
ATOM      2  O   UNL A   1      33.903  31.125  27.994  1.00  0.00    -0.462 OA
BRANCH   2   3
ATOM      3  C   UNL A   1      32.949  30.785  27.094  1.00  0.00     0.309 C 
ATOM      4  O   UNL A   1      31.951  31.453  26.832  1.00  0.00    -0.252 OA
BRANCH   3   5
ATOM      5  C   UNL A   1      33.065  29.428  26.535  1.00  0.00     0.112 C 
ATOM      6  C   UNL A   1      32.332  28.511  25.589  1.00  0.00     0.094 C 
ATOM      7  C   UNL A   1      31.944  28.545  27.044  1.00  0.00     0.030 C 
BRANCH   6   8
ATOM      8  C   UNL A   1      31.239  28.678  24.628  1.00  0.00     0.229 C 
ATOM      9  N   UNL A   1      30.717  27.562  24.014  1.00  0.00    -0.317 N 
ATOM     10  H   UNL A   1      29.863  27.748  23.562  1.00  0.00     0.170 HD
ATOM     11  O   UNL A   1      30.835  29.797  24.330  1.00  0.00    -0.274 OA
BRANCH   9  12
ATOM     12  C   UNL A   1      31.106  26.234  23.880  1.00  0.00     0.110 A 
ATOM     13  C   UNL A   1      31.870  25.372  23.087  1.00  0.00     0.098 A 
ATOM     14  C   UNL A   1      31.819  24.012  23.623  1.00  0.00    -0.006 A 
ATOM     15  S   UNL A   1      30.256  25.356  25.110  1.00  0.00    -0.116 S 
ATOM     16  C   UNL A   1      31.047  23.908  24.756  1.00  0.00     0.065 A 
ATOM     17  C   UNL A   1      32.610  22.826  23.135  1.00  0.00     0.099 C 
ATOM     18  C   UNL A   1      30.930  22.676  25.611  1.00  0.00     0.310 C 
ATOM     19  C   UNL A   1      32.368  21.554  23.984  1.00  0.00     0.267 C 
ATOM     20  N   UNL A   1      32.058  21.744  25.409  1.00  0.00    -0.326 N 
ATOM     21  H   UNL A   1      31.731  20.833  25.732  1.00  0.00     0.348 HD
BRANCH  13  22
ATOM     22  C   UNL A   1      32.646  25.607  21.865  1.00  0.00     0.341 C 
ATOM     23  O   UNL A   1      33.823  25.950  21.870  1.00  0.00    -0.246 OA
BRANCH  22  24
ATOM     24  O   UNL A   1      31.894  25.595  20.747  1.00  0.00    -0.465 OA
ATOM     25  C   UNL A   1      32.552  25.548  19.479  1.00  0.00     0.282 C 
ENDBRANCH  22  24
ENDBRANCH  13  22
BRANCH  20  26
ATOM     26  C   UNL A   1      33.214  21.953  26.299  1.00  0.00     0.299 C 
BRANCH  26  27
ATOM     27  C   UNL A   1      34.564  22.163  25.651  1.00  0.00     0.006 A 
ATOM     28  C   UNL A   1      35.112  23.448  25.525  1.00  0.00     0.009 A 
ATOM     29  C   UNL A   1      35.320  21.069  25.209  1.00  0.00     0.009 A 
ATOM     30  C   UNL A   1      36.423  23.620  25.072  1.00  0.00     0.001 A 
ATOM     31  C   UNL A   1      36.638  21.237  24.786  1.00  0.00     0.001 A 
ATOM     32  C   UNL A   1      37.194  22.511  24.734  1.00  0.00     0.000 A 
ENDBRANCH  26  27
ENDBRANCH  20  26
ENDBRANCH   9  12
ENDBRANCH   6   8
ENDBRANCH   3   5
ENDBRANCH   2   3
ENDBRANCH   1   2
BRANCH   1  33
ATOM     33  C   UNL A   1      34.462  32.929  29.583  1.00  0.00     0.275 C 
BRANCH  33  34
ATOM     34  O   UNL A   1      35.873  32.847  29.799  1.00  0.00    -0.458 OA
BRANCH  34  35
ATOM     35  C   UNL A   1      36.239  31.713  30.429  1.00  0.00     0.338 C 
ATOM     36  O   UNL A   1      35.735  31.234  31.432  1.00  0.00    -0.246 OA
BRANCH  35  37
ATOM     37  C   UNL A   1      37.506  31.197  29.938  1.00  0.00     0.060 A 
ATOM     38  C   UNL A   1      37.587  29.811  29.772  1.00  0.00     0.016 A 
ATOM     39  C   UNL A   1      38.637  32.016  30.012  1.00  0.00     0.016 A 
ATOM     40  C   UNL A   1      38.822  29.217  29.834  1.00  0.00     0.010 A 
ATOM     41  C   UNL A   1      39.874  31.418  30.068  1.00  0.00     0.010 A 
ATOM     42  C   UNL A   1      39.946  30.026  30.043  1.00  0.00    -0.014 A 
BRANCH  42  43
ATOM     43  C   UNL A   1      41.238  29.368  30.010  1.00  0.00     0.031 A 
ATOM     44  C   UNL A   1      41.741  29.148  31.388  1.00  0.00     0.074 A 
ATOM     45  C   UNL A   1      41.802  28.936  28.864  1.00  0.00     0.049 A 
ATOM     46  N   UNL A   1      42.782  29.676  31.941  1.00  0.00    -0.248 NA
ATOM     47  C   UNL A   1      40.852  28.454  32.341  1.00  0.00     0.031 C 
ATOM     48  C   UNL A   1      41.172  28.932  27.537  1.00  0.00     0.029 A 
ATOM     49  N   UNL A   1      42.972  28.265  28.649  1.00  0.00    -0.354 N 
ATOM     50  C   UNL A   1      42.840  29.084  33.201  1.00  0.00     0.074 A 
ATOM     51  C   UNL A   1      41.525  28.589  33.485  1.00  0.00     0.031 C 
ATOM     52  C   UNL A   1      41.819  28.052  26.744  1.00  0.00     0.029 A 
ATOM     53  C   UNL A   1      42.973  27.537  27.458  1.00  0.00     0.049 A 
ATOM     54  H   UNL A   1      43.736  28.291  29.271  1.00  0.00     0.167 HD
ATOM     55  C   UNL A   1      44.043  28.659  33.672  1.00  0.00     0.034 A 
ATOM     56  C   UNL A   1      43.804  26.517  27.128  1.00  0.00     0.034 A 
ATOM     57  C   UNL A   1      45.119  29.330  32.991  1.00  0.00     0.049 A 
ATOM     58  C   UNL A   1      45.004  26.622  27.981  1.00  0.00     0.074 A 
ATOM     59  C   UNL A   1      45.654  30.598  32.946  1.00  0.00     0.029 A 
ATOM     60  N   UNL A   1      45.522  28.672  31.862  1.00  0.00    -0.354 N 
ATOM     61  N   UNL A   1      45.868  27.594  27.883  1.00  0.00    -0.248 NA
ATOM     62  C   UNL A   1      45.094  25.820  29.196  1.00  0.00     0.031 C 
ATOM     63  C   UNL A   1      46.311  30.707  31.683  1.00  0.00     0.029 A 
ATOM     64  C   UNL A   1      46.208  29.491  31.013  1.00  0.00     0.049 A 
ATOM     65  H   UNL A   1      45.339  27.721  31.683  1.00  0.00     0.167 HD
ATOM     66  C   UNL A   1      46.256  27.813  29.191  1.00  0.00     0.074 A 
ATOM     67  C   UNL A   1      45.924  26.587  29.905  1.00  0.00     0.031 C 
ATOM     68  C   UNL A   1      46.465  29.079  29.650  1.00  0.00     0.034 A 
BRANCH  55  69
ATOM     69  C   UNL A   1      44.268  27.276  34.271  1.00  0.00     0.023 A 
ATOM     70  C   UNL A   1      44.951  27.217  35.505  1.00  0.00     0.012 A 
ATOM     71  C   UNL A   1      44.134  26.053  33.569  1.00  0.00     0.148 A 
ATOM     72  C   UNL A   1      45.496  26.021  35.991  1.00  0.00     0.002 A 
ATOM     73  C   UNL A   1      44.601  24.854  34.092  1.00  0.00     0.091 A 
ATOM     74  F   UNL A   1      43.687  26.040  32.312  1.00  0.00    -0.205 F 
ATOM     75  C   UNL A   1      45.311  24.836  35.290  1.00  0.00     0.022 A 
BRANCH  73  76
ATOM     76  S   UNL A   1      44.352  23.293  33.232  1.00  0.00     0.127 S 
ATOM     77  O   UNL A   1      45.344  22.442  33.880  1.00  0.00    -0.237 OA
ATOM     78  O   UNL A   1      42.959  22.994  33.566  1.00  0.00    -0.237 OA
ATOM     79  O   UNL A   1      44.576  23.579  31.820  1.00  0.00    -0.744 OA
ENDBRANCH  73  76
ENDBRANCH  55  69
BRANCH  56  80
ATOM     80  C   UNL A   1      43.569  25.318  26.284  1.00  0.00     0.023 A 
ATOM     81  C   UNL A   1      44.425  25.062  25.192  1.00  0.00     0.012 A 
ATOM     82  C   UNL A   1      42.711  24.282  26.711  1.00  0.00     0.148 A 
ATOM     83  C   UNL A   1      44.463  23.803  24.581  1.00  0.00     0.002 A 
ATOM     84  C   UNL A   1      42.746  23.034  26.096  1.00  0.00     0.091 A 
ATOM     85  F   UNL A   1      41.928  24.489  27.778  1.00  0.00    -0.205 F 
ATOM     86  C   UNL A   1      43.633  22.785  25.042  1.00  0.00     0.022 A 
BRANCH  84  87
ATOM     87  S   UNL A   1      41.719  21.665  26.647  1.00  0.00     0.127 S 
ATOM     88  O   UNL A   1      42.132  20.594  25.740  1.00  0.00    -0.237 OA
ATOM     89  O   UNL A   1      42.155  21.497  28.030  1.00  0.00    -0.237 OA
ATOM     90  O   UNL A   1      40.341  22.103  26.465  1.00  0.00    -0.744 OA
ENDBRANCH  84  87
ENDBRANCH  56  80
BRANCH  68  91
ATOM     91  C   UNL A   1      46.849  30.127  28.650  1.00  0.00     0.023 A 
ATOM     92  C   UNL A   1      48.166  30.327  28.194  1.00  0.00     0.012 A 
ATOM     93  C   UNL A   1      45.812  30.904  28.111  1.00  0.00     0.148 A 
ATOM     94  C   UNL A   1      48.442  31.310  27.238  1.00  0.00     0.002 A 
ATOM     95  C   UNL A   1      46.081  31.845  27.130  1.00  0.00     0.091 A 
ATOM     96  F   UNL A   1      44.566  30.709  28.572  1.00  0.00    -0.205 F 
ATOM     97  C   UNL A   1      47.398  32.061  26.697  1.00  0.00     0.022 A 
BRANCH  95  98
ATOM     98  S   UNL A   1      44.756  32.755  26.341  1.00  0.00     0.127 S 
ATOM     99  O   UNL A   1      43.863  31.682  25.908  1.00  0.00    -0.237 OA
ATOM    100  O   UNL A   1      44.239  33.578  27.437  1.00  0.00    -0.237 OA
ATOM    101  O   UNL A   1      45.384  33.525  25.273  1.00  0.00    -0.744 OA
ENDBRANCH  95  98
ENDBRANCH  68  91
ENDBRANCH  42  43
ENDBRANCH  35  37
ENDBRANCH  34  35
ENDBRANCH  33  34
ENDBRANCH   1  33
TORSDOF 20
ENDMDL
