MODEL 1
REMARK VINA RESULT:     -12.8      0.000      0.000
REMARK SMILES O=C(OCCOC(=O)c1nccnc1C(=O)N1CCC(Cc2ccccc2)CC1)c1ccc(-c2c3nc(c(-c4cccc(S(=O)(=O)[O-])c4F)c4ccc([nH]4)c(-c4cccc(S(=O)(=O)[O-])c4F)c4nc(c(-c5cccc(S(=O)(=O)[O-])c5F)c5ccc2[nH]5)C=C4)C=C3)cc1
REMARK SMILES IDX 4 1 3 2 2 3 1 4 30 5 31 6 92 7 32 8 91 9 33 10 34 11 35 12
REMARK SMILES IDX 85 13 36 14 90 15 84 16 86 17 37 18 89 19 83 20 82 21 38 23
REMARK SMILES IDX 70 24 50 25 69 26 51 27 54 28 68 29 87 30 52 31 53 32 67 34
REMARK SMILES IDX 88 35 55 36 39 37 40 38 48 39 41 40 43 41 49 42 42 43 44 44
REMARK SMILES IDX 45 45 46 46 47 47 71 48 72 49 80 50 73 51 75 52 81 53 74 54
REMARK SMILES IDX 76 55 77 56 78 57 79 58 56 59 57 60 65 61 58 62 60 63 66 64
REMARK SMILES IDX 59 65 61 66 62 67 63 68 64 69 5 70 6 71 7 72 8 73 9 74 10 75
REMARK SMILES IDX 14 76 11 77 13 78 12 79 15 80 16 81 17 82 18 83 29 84 19 85
REMARK SMILES IDX 28 86 20 87 21 88 22 89 23 90 27 91 24 92 26 93 25 94
REMARK H PARENT 86 22 54 33
REMARK Flexibility Score: inf
ROOT
ATOM      1  C   UNL A   1      32.570  29.911  25.437  1.00  0.00     0.275 C 
ENDROOT
BRANCH   1   2
ATOM      2  O   UNL A   1      33.321  29.761  26.639  1.00  0.00    -0.458 OA
BRANCH   2   3
ATOM      3  C   UNL A   1      33.575  30.934  27.265  1.00  0.00     0.338 C 
ATOM      4  O   UNL A   1      33.005  31.989  27.053  1.00  0.00    -0.246 OA
BRANCH   3   5
ATOM      5  C   UNL A   1      34.858  30.797  27.986  1.00  0.00     0.060 A 
ATOM      6  C   UNL A   1      35.233  29.571  28.530  1.00  0.00     0.016 A 
ATOM      7  C   UNL A   1      35.770  31.856  27.941  1.00  0.00     0.016 A 
ATOM      8  C   UNL A   1      36.520  29.404  29.003  1.00  0.00     0.010 A 
ATOM      9  C   UNL A   1      37.072  31.689  28.380  1.00  0.00     0.010 A 
ATOM     10  C   UNL A   1      37.436  30.459  28.919  1.00  0.00    -0.014 A 
BRANCH  10  11
ATOM     11  C   UNL A   1      38.774  30.238  29.462  1.00  0.00     0.031 A 
ATOM     12  C   UNL A   1      39.105  30.863  30.771  1.00  0.00     0.074 A 
ATOM     13  C   UNL A   1      39.588  29.387  28.818  1.00  0.00     0.049 A 
ATOM     14  N   UNL A   1      40.010  30.506  31.633  1.00  0.00    -0.248 NA
ATOM     15  C   UNL A   1      38.292  32.022  31.182  1.00  0.00     0.031 C 
ATOM     16  C   UNL A   1      39.319  28.795  27.504  1.00  0.00     0.029 A 
ATOM     17  N   UNL A   1      40.785  28.850  29.192  1.00  0.00    -0.354 N 
ATOM     18  C   UNL A   1      39.855  31.370  32.708  1.00  0.00     0.074 A 
ATOM     19  C   UNL A   1      38.810  32.306  32.368  1.00  0.00     0.031 C 
ATOM     20  C   UNL A   1      40.325  27.968  27.182  1.00  0.00     0.029 A 
ATOM     21  C   UNL A   1      41.278  27.941  28.287  1.00  0.00     0.049 A 
ATOM     22  H   UNL A   1      41.249  29.090  30.025  1.00  0.00     0.167 HD
ATOM     23  C   UNL A   1      40.514  31.340  33.886  1.00  0.00     0.034 A 
ATOM     24  C   UNL A   1      42.351  27.136  28.386  1.00  0.00     0.034 A 
ATOM     25  C   UNL A   1      41.565  30.400  34.150  1.00  0.00     0.049 A 
ATOM     26  C   UNL A   1      43.062  27.111  29.713  1.00  0.00     0.074 A 
ATOM     27  C   UNL A   1      42.305  30.221  35.300  1.00  0.00     0.029 A 
ATOM     28  N   UNL A   1      42.039  29.486  33.214  1.00  0.00    -0.354 N 
ATOM     29  N   UNL A   1      42.791  27.792  30.803  1.00  0.00    -0.248 NA
ATOM     30  C   UNL A   1      44.171  26.162  29.851  1.00  0.00     0.031 C 
ATOM     31  C   UNL A   1      43.249  29.217  35.047  1.00  0.00     0.029 A 
ATOM     32  C   UNL A   1      43.076  28.752  33.749  1.00  0.00     0.049 A 
ATOM     33  H   UNL A   1      41.686  29.380  32.302  1.00  0.00     0.167 HD
ATOM     34  C   UNL A   1      43.666  27.327  31.774  1.00  0.00     0.074 A 
ATOM     35  C   UNL A   1      44.467  26.294  31.139  1.00  0.00     0.031 C 
ATOM     36  C   UNL A   1      43.810  27.712  33.068  1.00  0.00     0.034 A 
BRANCH  23  37
ATOM     37  C   UNL A   1      40.087  32.329  34.935  1.00  0.00     0.023 A 
ATOM     38  C   UNL A   1      40.738  33.579  35.020  1.00  0.00     0.012 A 
ATOM     39  C   UNL A   1      39.071  32.018  35.856  1.00  0.00     0.148 A 
ATOM     40  C   UNL A   1      40.412  34.486  36.029  1.00  0.00     0.002 A 
ATOM     41  C   UNL A   1      38.726  32.942  36.837  1.00  0.00     0.091 A 
ATOM     42  F   UNL A   1      38.488  30.814  35.781  1.00  0.00    -0.205 F 
ATOM     43  C   UNL A   1      39.402  34.169  36.933  1.00  0.00     0.022 A 
BRANCH  41  44
ATOM     44  S   UNL A   1      37.409  32.650  38.022  1.00  0.00     0.127 S 
ATOM     45  O   UNL A   1      36.254  33.211  37.323  1.00  0.00    -0.237 OA
ATOM     46  O   UNL A   1      37.408  31.190  38.125  1.00  0.00    -0.237 OA
ATOM     47  O   UNL A   1      37.802  33.345  39.239  1.00  0.00    -0.744 OA
ENDBRANCH  41  44
ENDBRANCH  23  37
BRANCH  24  48
ATOM     48  C   UNL A   1      42.699  26.222  27.265  1.00  0.00     0.023 A 
ATOM     49  C   UNL A   1      43.595  26.641  26.262  1.00  0.00     0.012 A 
ATOM     50  C   UNL A   1      42.201  24.904  27.228  1.00  0.00     0.148 A 
ATOM     51  C   UNL A   1      43.966  25.776  25.232  1.00  0.00     0.002 A 
ATOM     52  C   UNL A   1      42.609  24.033  26.225  1.00  0.00     0.091 A 
ATOM     53  F   UNL A   1      41.347  24.523  28.189  1.00  0.00    -0.205 F 
ATOM     54  C   UNL A   1      43.481  24.469  25.217  1.00  0.00     0.022 A 
BRANCH  52  55
ATOM     55  S   UNL A   1      42.130  22.300  26.217  1.00  0.00     0.127 S 
ATOM     56  O   UNL A   1      42.840  21.800  25.042  1.00  0.00    -0.237 OA
ATOM     57  O   UNL A   1      42.653  21.830  27.501  1.00  0.00    -0.237 OA
ATOM     58  O   UNL A   1      40.675  22.304  26.132  1.00  0.00    -0.744 OA
ENDBRANCH  52  55
ENDBRANCH  24  48
BRANCH  36  59
ATOM     59  C   UNL A   1      44.858  26.997  33.870  1.00  0.00     0.023 A 
ATOM     60  C   UNL A   1      46.189  27.454  33.841  1.00  0.00     0.012 A 
ATOM     61  C   UNL A   1      44.501  25.931  34.717  1.00  0.00     0.148 A 
ATOM     62  C   UNL A   1      47.161  26.836  34.622  1.00  0.00     0.002 A 
ATOM     63  C   UNL A   1      45.465  25.357  35.533  1.00  0.00     0.091 A 
ATOM     64  F   UNL A   1      43.231  25.500  34.706  1.00  0.00    -0.205 F 
ATOM     65  C   UNL A   1      46.797  25.799  35.479  1.00  0.00     0.022 A 
BRANCH  63  66
ATOM     66  S   UNL A   1      45.052  24.095  36.741  1.00  0.00     0.127 S 
ATOM     67  O   UNL A   1      44.031  24.771  37.540  1.00  0.00    -0.237 OA
ATOM     68  O   UNL A   1      44.549  23.009  35.899  1.00  0.00    -0.237 OA
ATOM     69  O   UNL A   1      46.295  23.788  37.435  1.00  0.00    -0.744 OA
ENDBRANCH  63  66
ENDBRANCH  36  59
ENDBRANCH  10  11
ENDBRANCH   3   5
ENDBRANCH   2   3
ENDBRANCH   1   2
BRANCH   1  70
ATOM     70  C   UNL A   1      33.063  28.995  24.297  1.00  0.00     0.275 C 
BRANCH  70  71
ATOM     71  O   UNL A   1      32.422  29.221  23.024  1.00  0.00    -0.457 OA
BRANCH  71  72
ATOM     72  C   UNL A   1      31.654  28.249  22.453  1.00  0.00     0.359 C 
ATOM     73  O   UNL A   1      32.059  27.214  21.951  1.00  0.00    -0.244 OA
BRANCH  72  74
ATOM     74  C   UNL A   1      30.244  28.731  22.460  1.00  0.00     0.179 A 
ATOM     75  N   UNL A   1      30.060  29.865  21.691  1.00  0.00    -0.245 NA
ATOM     76  C   UNL A   1      29.179  28.119  23.115  1.00  0.00     0.161 A 
ATOM     77  C   UNL A   1      28.800  30.345  21.592  1.00  0.00     0.132 A 
ATOM     78  N   UNL A   1      27.915  28.661  23.034  1.00  0.00    -0.247 NA
ATOM     79  C   UNL A   1      27.749  29.762  22.262  1.00  0.00     0.132 A 
BRANCH  76  80
ATOM     80  C   UNL A   1      29.175  26.826  23.880  1.00  0.00     0.274 C 
ATOM     81  O   UNL A   1      28.084  26.307  24.139  1.00  0.00    -0.267 OA
ATOM     82  N   UNL A   1      30.359  26.231  24.353  1.00  0.00    -0.337 N 
ATOM     83  C   UNL A   1      30.481  24.824  23.967  1.00  0.00     0.120 C 
ATOM     84  C   UNL A   1      30.726  26.476  25.753  1.00  0.00     0.120 C 
ATOM     85  C   UNL A   1      31.270  23.960  24.951  1.00  0.00     0.025 C 
ATOM     86  C   UNL A   1      32.140  25.985  26.123  1.00  0.00     0.025 C 
ATOM     87  C   UNL A   1      32.546  24.690  25.381  1.00  0.00    -0.003 C 
BRANCH  87  88
ATOM     88  C   UNL A   1      33.524  23.844  26.227  1.00  0.00     0.039 C 
BRANCH  88  89
ATOM     89  C   UNL A   1      34.820  23.507  25.525  1.00  0.00    -0.048 A 
ATOM     90  C   UNL A   1      36.027  23.551  26.241  1.00  0.00     0.004 A 
ATOM     91  C   UNL A   1      34.834  23.065  24.196  1.00  0.00     0.004 A 
ATOM     92  C   UNL A   1      37.219  23.138  25.649  1.00  0.00     0.000 A 
ATOM     93  C   UNL A   1      36.030  22.652  23.605  1.00  0.00     0.000 A 
ATOM     94  C   UNL A   1      37.220  22.682  24.333  1.00  0.00     0.000 A 
ENDBRANCH  88  89
ENDBRANCH  87  88
ENDBRANCH  76  80
ENDBRANCH  72  74
ENDBRANCH  71  72
ENDBRANCH  70  71
ENDBRANCH   1  70
TORSDOF 17
ENDMDL
MODEL 2
REMARK VINA RESULT:     -12.8      2.036      2.874
REMARK SMILES O=C(OCCOC(=O)c1nccnc1C(=O)N1CCC(Cc2ccccc2)CC1)c1ccc(-c2c3nc(c(-c4cccc(S(=O)(=O)[O-])c4F)c4ccc([nH]4)c(-c4cccc(S(=O)(=O)[O-])c4F)c4nc(c(-c5cccc(S(=O)(=O)[O-])c5F)c5ccc2[nH]5)C=C4)C=C3)cc1
REMARK SMILES IDX 4 1 3 2 2 3 1 4 30 5 31 6 92 7 32 8 91 9 33 10 34 11 35 12
REMARK SMILES IDX 85 13 36 14 90 15 84 16 86 17 37 18 89 19 83 20 82 21 38 23
REMARK SMILES IDX 70 24 50 25 69 26 51 27 54 28 68 29 87 30 52 31 53 32 67 34
REMARK SMILES IDX 88 35 55 36 39 37 40 38 48 39 41 40 43 41 49 42 42 43 44 44
REMARK SMILES IDX 45 45 46 46 47 47 71 48 72 49 80 50 73 51 75 52 81 53 74 54
REMARK SMILES IDX 76 55 77 56 78 57 79 58 56 59 57 60 65 61 58 62 60 63 66 64
REMARK SMILES IDX 59 65 61 66 62 67 63 68 64 69 5 70 6 71 7 72 8 73 9 74 10 75
REMARK SMILES IDX 14 76 11 77 13 78 12 79 15 80 16 81 17 82 18 83 29 84 19 85
REMARK SMILES IDX 28 86 20 87 21 88 22 89 23 90 27 91 24 92 26 93 25 94
REMARK H PARENT 86 22 54 33
REMARK Flexibility Score: inf
ROOT
ATOM      1  C   UNL A   1      31.914  29.401  26.809  1.00  0.00     0.275 C 
ENDROOT
BRANCH   1   2
ATOM      2  O   UNL A   1      33.168  30.040  26.588  1.00  0.00    -0.458 OA
BRANCH   2   3
ATOM      3  C   UNL A   1      33.334  31.169  27.314  1.00  0.00     0.338 C 
ATOM      4  O   UNL A   1      32.702  32.200  27.177  1.00  0.00    -0.246 OA
BRANCH   3   5
ATOM      5  C   UNL A   1      34.608  31.052  28.053  1.00  0.00     0.060 A 
ATOM      6  C   UNL A   1      34.980  29.840  28.632  1.00  0.00     0.016 A 
ATOM      7  C   UNL A   1      35.519  32.112  27.993  1.00  0.00     0.016 A 
ATOM      8  C   UNL A   1      36.262  29.688  29.124  1.00  0.00     0.010 A 
ATOM      9  C   UNL A   1      36.816  31.958  28.451  1.00  0.00     0.010 A 
ATOM     10  C   UNL A   1      37.177  30.743  29.024  1.00  0.00    -0.014 A 
BRANCH  10  11
ATOM     11  C   UNL A   1      38.508  30.537  29.588  1.00  0.00     0.031 A 
ATOM     12  C   UNL A   1      38.790  31.109  30.933  1.00  0.00     0.074 A 
ATOM     13  C   UNL A   1      39.364  29.744  28.923  1.00  0.00     0.049 A 
ATOM     14  N   UNL A   1      39.686  30.738  31.798  1.00  0.00    -0.248 NA
ATOM     15  C   UNL A   1      37.930  32.219  31.379  1.00  0.00     0.031 C 
ATOM     16  C   UNL A   1      39.143  29.209  27.577  1.00  0.00     0.029 A 
ATOM     17  N   UNL A   1      40.569  29.228  29.300  1.00  0.00    -0.354 N 
ATOM     18  C   UNL A   1      39.479  31.544  32.909  1.00  0.00     0.074 A 
ATOM     19  C   UNL A   1      38.413  32.462  32.589  1.00  0.00     0.031 C 
ATOM     20  C   UNL A   1      40.183  28.430  27.240  1.00  0.00     0.029 A 
ATOM     21  C   UNL A   1      41.111  28.380  28.365  1.00  0.00     0.049 A 
ATOM     22  H   UNL A   1      41.007  29.442  30.155  1.00  0.00     0.167 HD
ATOM     23  C   UNL A   1      40.112  31.478  34.100  1.00  0.00     0.034 A 
ATOM     24  C   UNL A   1      42.207  27.605  28.451  1.00  0.00     0.034 A 
ATOM     25  C   UNL A   1      41.187  30.559  34.344  1.00  0.00     0.049 A 
ATOM     26  C   UNL A   1      42.889  27.537  29.791  1.00  0.00     0.074 A 
ATOM     27  C   UNL A   1      41.907  30.348  35.501  1.00  0.00     0.029 A 
ATOM     28  N   UNL A   1      41.712  29.707  33.377  1.00  0.00    -0.354 N 
ATOM     29  N   UNL A   1      42.572  28.156  30.906  1.00  0.00    -0.248 NA
ATOM     30  C   UNL A   1      44.025  26.619  29.911  1.00  0.00     0.031 C 
ATOM     31  C   UNL A   1      42.888  29.387  35.223  1.00  0.00     0.029 A 
ATOM     32  C   UNL A   1      42.760  28.981  33.901  1.00  0.00     0.049 A 
ATOM     33  H   UNL A   1      41.383  29.634  32.452  1.00  0.00     0.167 HD
ATOM     34  C   UNL A   1      43.440  27.673  31.874  1.00  0.00     0.074 A 
ATOM     35  C   UNL A   1      44.287  26.697  31.210  1.00  0.00     0.031 C 
ATOM     36  C   UNL A   1      43.542  27.998  33.188  1.00  0.00     0.034 A 
BRANCH  23  37
ATOM     37  C   UNL A   1      39.630  32.401  35.184  1.00  0.00     0.023 A 
ATOM     38  C   UNL A   1      38.603  31.977  36.055  1.00  0.00     0.012 A 
ATOM     39  C   UNL A   1      40.164  33.694  35.326  1.00  0.00     0.148 A 
ATOM     40  C   UNL A   1      38.088  32.839  37.024  1.00  0.00     0.002 A 
ATOM     41  C   UNL A   1      39.669  34.536  36.318  1.00  0.00     0.091 A 
ATOM     42  F   UNL A   1      41.114  34.092  34.469  1.00  0.00    -0.205 F 
ATOM     43  C   UNL A   1      38.625  34.116  37.157  1.00  0.00     0.022 A 
BRANCH  41  44
ATOM     44  S   UNL A   1      40.323  36.184  36.603  1.00  0.00     0.127 S 
ATOM     45  O   UNL A   1      41.750  35.910  36.766  1.00  0.00    -0.237 OA
ATOM     46  O   UNL A   1      39.973  36.872  35.359  1.00  0.00    -0.237 OA
ATOM     47  O   UNL A   1      39.643  36.686  37.788  1.00  0.00    -0.744 OA
ENDBRANCH  41  44
ENDBRANCH  23  37
BRANCH  24  48
ATOM     48  C   UNL A   1      42.610  26.758  27.295  1.00  0.00     0.023 A 
ATOM     49  C   UNL A   1      43.445  27.282  26.290  1.00  0.00     0.012 A 
ATOM     50  C   UNL A   1      42.227  25.403  27.228  1.00  0.00     0.148 A 
ATOM     51  C   UNL A   1      43.868  26.483  25.227  1.00  0.00     0.002 A 
ATOM     52  C   UNL A   1      42.689  24.600  26.191  1.00  0.00     0.091 A 
ATOM     53  F   UNL A   1      41.430  24.920  28.192  1.00  0.00    -0.205 F 
ATOM     54  C   UNL A   1      43.499  25.141  25.181  1.00  0.00     0.022 A 
BRANCH  52  55
ATOM     55  S   UNL A   1      42.363  22.833  26.138  1.00  0.00     0.127 S 
ATOM     56  O   UNL A   1      40.904  22.797  26.192  1.00  0.00    -0.237 OA
ATOM     57  O   UNL A   1      42.943  22.452  24.850  1.00  0.00    -0.237 OA
ATOM     58  O   UNL A   1      43.060  22.280  27.292  1.00  0.00    -0.744 OA
ENDBRANCH  52  55
ENDBRANCH  24  48
BRANCH  36  59
ATOM     59  C   UNL A   1      44.595  27.278  33.980  1.00  0.00     0.023 A 
ATOM     60  C   UNL A   1      45.906  27.788  34.019  1.00  0.00     0.012 A 
ATOM     61  C   UNL A   1      44.257  26.151  34.752  1.00  0.00     0.148 A 
ATOM     62  C   UNL A   1      46.880  27.163  34.794  1.00  0.00     0.002 A 
ATOM     63  C   UNL A   1      45.219  25.568  35.564  1.00  0.00     0.091 A 
ATOM     64  F   UNL A   1      43.006  25.673  34.677  1.00  0.00    -0.205 F 
ATOM     65  C   UNL A   1      46.533  26.063  35.577  1.00  0.00     0.022 A 
BRANCH  63  66
ATOM     66  S   UNL A   1      44.823  24.222  36.683  1.00  0.00     0.127 S 
ATOM     67  O   UNL A   1      43.839  24.848  37.565  1.00  0.00    -0.237 OA
ATOM     68  O   UNL A   1      44.275  23.212  35.776  1.00  0.00    -0.237 OA
ATOM     69  O   UNL A   1      46.082  23.844  37.310  1.00  0.00    -0.744 OA
ENDBRANCH  63  66
ENDBRANCH  36  59
ENDBRANCH  10  11
ENDBRANCH   3   5
ENDBRANCH   2   3
ENDBRANCH   1   2
BRANCH   1  70
ATOM     70  C   UNL A   1      32.045  27.892  27.100  1.00  0.00     0.275 C 
BRANCH  70  71
ATOM     71  O   UNL A   1      30.809  27.152  27.010  1.00  0.00    -0.457 OA
BRANCH  71  72
ATOM     72  C   UNL A   1      30.720  26.046  26.217  1.00  0.00     0.359 C 
ATOM     73  O   UNL A   1      30.626  24.891  26.599  1.00  0.00    -0.244 OA
BRANCH  72  74
ATOM     74  C   UNL A   1      30.865  26.496  24.803  1.00  0.00     0.179 A 
ATOM     75  N   UNL A   1      29.726  27.105  24.314  1.00  0.00    -0.245 NA
ATOM     76  C   UNL A   1      32.016  26.379  24.028  1.00  0.00     0.161 A 
ATOM     77  C   UNL A   1      29.781  27.595  23.054  1.00  0.00     0.132 A 
ATOM     78  N   UNL A   1      32.024  26.845  22.731  1.00  0.00    -0.247 NA
ATOM     79  C   UNL A   1      30.906  27.455  22.274  1.00  0.00     0.132 A 
BRANCH  76  80
ATOM     80  C   UNL A   1      33.367  25.866  24.437  1.00  0.00     0.274 C 
ATOM     81  O   UNL A   1      34.275  26.686  24.603  1.00  0.00    -0.267 OA
ATOM     82  N   UNL A   1      33.636  24.491  24.575  1.00  0.00    -0.337 N 
ATOM     83  C   UNL A   1      34.248  24.159  25.863  1.00  0.00     0.120 C 
ATOM     84  C   UNL A   1      34.277  23.812  23.443  1.00  0.00     0.120 C 
ATOM     85  C   UNL A   1      35.177  22.945  25.832  1.00  0.00     0.025 C 
ATOM     86  C   UNL A   1      34.326  22.277  23.583  1.00  0.00     0.025 C 
ATOM     87  C   UNL A   1      34.524  21.806  25.043  1.00  0.00    -0.003 C 
BRANCH  87  88
ATOM     88  C   UNL A   1      35.280  20.461  25.100  1.00  0.00     0.039 C 
BRANCH  88  89
ATOM     89  C   UNL A   1      34.462  19.270  24.656  1.00  0.00    -0.048 A 
ATOM     90  C   UNL A   1      33.072  19.399  24.510  1.00  0.00     0.004 A 
ATOM     91  C   UNL A   1      35.073  18.061  24.298  1.00  0.00     0.004 A 
ATOM     92  C   UNL A   1      32.311  18.351  23.995  1.00  0.00     0.000 A 
ATOM     93  C   UNL A   1      34.309  17.012  23.783  1.00  0.00     0.000 A 
ATOM     94  C   UNL A   1      32.930  17.159  23.626  1.00  0.00     0.000 A 
ENDBRANCH  88  89
ENDBRANCH  87  88
ENDBRANCH  76  80
ENDBRANCH  72  74
ENDBRANCH  71  72
ENDBRANCH  70  71
ENDBRANCH   1  70
TORSDOF 17
ENDMDL
MODEL 3
REMARK VINA RESULT:     -12.3      5.108     10.209
REMARK SMILES O=C(OCCOC(=O)c1nccnc1C(=O)N1CCC(Cc2ccccc2)CC1)c1ccc(-c2c3nc(c(-c4cccc(S(=O)(=O)[O-])c4F)c4ccc([nH]4)c(-c4cccc(S(=O)(=O)[O-])c4F)c4nc(c(-c5cccc(S(=O)(=O)[O-])c5F)c5ccc2[nH]5)C=C4)C=C3)cc1
REMARK SMILES IDX 4 1 3 2 2 3 1 4 30 5 31 6 92 7 32 8 91 9 33 10 34 11 35 12
REMARK SMILES IDX 85 13 36 14 90 15 84 16 86 17 37 18 89 19 83 20 82 21 38 23
REMARK SMILES IDX 70 24 50 25 69 26 51 27 54 28 68 29 87 30 52 31 53 32 67 34
REMARK SMILES IDX 88 35 55 36 39 37 40 38 48 39 41 40 43 41 49 42 42 43 44 44
REMARK SMILES IDX 45 45 46 46 47 47 71 48 72 49 80 50 73 51 75 52 81 53 74 54
REMARK SMILES IDX 76 55 77 56 78 57 79 58 56 59 57 60 65 61 58 62 60 63 66 64
REMARK SMILES IDX 59 65 61 66 62 67 63 68 64 69 5 70 6 71 7 72 8 73 9 74 10 75
REMARK SMILES IDX 14 76 11 77 13 78 12 79 15 80 16 81 17 82 18 83 29 84 19 85
REMARK SMILES IDX 28 86 20 87 21 88 22 89 23 90 27 91 24 92 26 93 25 94
REMARK H PARENT 86 22 54 33
REMARK Flexibility Score: inf
ROOT
ATOM      1  C   UNL A   1      37.092  21.403  24.720  1.00  0.00     0.275 C 
ENDROOT
BRANCH   1   2
ATOM      2  O   UNL A   1      37.596  22.111  25.849  1.00  0.00    -0.458 OA
BRANCH   2   3
ATOM      3  C   UNL A   1      38.929  21.963  26.026  1.00  0.00     0.338 C 
ATOM      4  O   UNL A   1      39.562  20.942  25.832  1.00  0.00    -0.246 OA
BRANCH   3   5
ATOM      5  C   UNL A   1      39.417  23.125  26.799  1.00  0.00     0.060 A 
ATOM      6  C   UNL A   1      40.421  22.965  27.752  1.00  0.00     0.016 A 
ATOM      7  C   UNL A   1      39.000  24.405  26.424  1.00  0.00     0.016 A 
ATOM      8  C   UNL A   1      41.016  24.083  28.304  1.00  0.00     0.010 A 
ATOM      9  C   UNL A   1      39.614  25.531  26.944  1.00  0.00     0.010 A 
ATOM     10  C   UNL A   1      40.617  25.360  27.893  1.00  0.00    -0.014 A 
BRANCH  10  11
ATOM     11  C   UNL A   1      41.258  26.507  28.531  1.00  0.00     0.031 A 
ATOM     12  C   UNL A   1      42.713  26.712  28.293  1.00  0.00     0.074 A 
ATOM     13  C   UNL A   1      40.483  27.380  29.195  1.00  0.00     0.049 A 
ATOM     14  N   UNL A   1      43.400  27.812  28.381  1.00  0.00    -0.248 NA
ATOM     15  C   UNL A   1      43.492  25.536  27.867  1.00  0.00     0.031 C 
ATOM     16  C   UNL A   1      39.062  27.185  29.495  1.00  0.00     0.029 A 
ATOM     17  N   UNL A   1      40.772  28.611  29.706  1.00  0.00    -0.354 N 
ATOM     18  C   UNL A   1      44.687  27.473  27.988  1.00  0.00     0.074 A 
ATOM     19  C   UNL A   1      44.701  26.056  27.716  1.00  0.00     0.031 C 
ATOM     20  C   UNL A   1      38.598  28.268  30.137  1.00  0.00     0.029 A 
ATOM     21  C   UNL A   1      39.678  29.242  30.247  1.00  0.00     0.049 A 
ATOM     22  H   UNL A   1      41.672  29.007  29.690  1.00  0.00     0.167 HD
ATOM     23  C   UNL A   1      45.743  28.301  27.834  1.00  0.00     0.034 A 
ATOM     24  C   UNL A   1      39.565  30.497  30.719  1.00  0.00     0.034 A 
ATOM     25  C   UNL A   1      45.670  29.699  28.150  1.00  0.00     0.049 A 
ATOM     26  C   UNL A   1      40.750  31.405  30.525  1.00  0.00     0.074 A 
ATOM     27  C   UNL A   1      46.637  30.673  28.020  1.00  0.00     0.029 A 
ATOM     28  N   UNL A   1      44.544  30.313  28.693  1.00  0.00    -0.354 N 
ATOM     29  N   UNL A   1      41.910  31.136  29.970  1.00  0.00    -0.248 NA
ATOM     30  C   UNL A   1      40.593  32.799  30.951  1.00  0.00     0.031 C 
ATOM     31  C   UNL A   1      46.105  31.871  28.515  1.00  0.00     0.029 A 
ATOM     32  C   UNL A   1      44.796  31.648  28.924  1.00  0.00     0.049 A 
ATOM     33  H   UNL A   1      43.693  29.858  28.884  1.00  0.00     0.167 HD
ATOM     34  C   UNL A   1      42.609  32.333  29.938  1.00  0.00     0.074 A 
ATOM     35  C   UNL A   1      41.729  33.333  30.521  1.00  0.00     0.031 C 
ATOM     36  C   UNL A   1      43.859  32.596  29.479  1.00  0.00     0.034 A 
BRANCH  23  37
ATOM     37  C   UNL A   1      47.011  27.702  27.293  1.00  0.00     0.023 A 
ATOM     38  C   UNL A   1      48.016  27.274  28.187  1.00  0.00     0.012 A 
ATOM     39  C   UNL A   1      47.228  27.590  25.908  1.00  0.00     0.148 A 
ATOM     40  C   UNL A   1      49.231  26.780  27.712  1.00  0.00     0.002 A 
ATOM     41  C   UNL A   1      48.428  27.064  25.441  1.00  0.00     0.091 A 
ATOM     42  F   UNL A   1      46.277  28.033  25.074  1.00  0.00    -0.205 F 
ATOM     43  C   UNL A   1      49.434  26.671  26.339  1.00  0.00     0.022 A 
BRANCH  41  44
ATOM     44  S   UNL A   1      48.771  26.839  23.693  1.00  0.00     0.127 S 
ATOM     45  O   UNL A   1      50.217  26.623  23.702  1.00  0.00    -0.237 OA
ATOM     46  O   UNL A   1      47.980  25.649  23.377  1.00  0.00    -0.237 OA
ATOM     47  O   UNL A   1      48.325  28.058  23.036  1.00  0.00    -0.744 OA
ENDBRANCH  41  44
ENDBRANCH  23  37
BRANCH  24  48
ATOM     48  C   UNL A   1      38.265  30.970  31.266  1.00  0.00     0.023 A 
ATOM     49  C   UNL A   1      38.003  30.877  32.647  1.00  0.00     0.012 A 
ATOM     50  C   UNL A   1      37.312  31.585  30.430  1.00  0.00     0.148 A 
ATOM     51  C   UNL A   1      36.807  31.361  33.179  1.00  0.00     0.002 A 
ATOM     52  C   UNL A   1      36.143  32.106  30.971  1.00  0.00     0.091 A 
ATOM     53  F   UNL A   1      37.577  31.664  29.118  1.00  0.00    -0.205 F 
ATOM     54  C   UNL A   1      35.880  31.984  32.344  1.00  0.00     0.022 A 
BRANCH  52  55
ATOM     55  S   UNL A   1      34.966  33.037  29.981  1.00  0.00     0.127 S 
ATOM     56  O   UNL A   1      34.426  32.000  29.106  1.00  0.00    -0.237 OA
ATOM     57  O   UNL A   1      34.036  33.535  30.995  1.00  0.00    -0.237 OA
ATOM     58  O   UNL A   1      35.752  34.078  29.330  1.00  0.00    -0.744 OA
ENDBRANCH  52  55
ENDBRANCH  24  48
BRANCH  36  59
ATOM     59  C   UNL A   1      44.328  34.019  29.581  1.00  0.00     0.023 A 
ATOM     60  C   UNL A   1      45.032  34.439  30.725  1.00  0.00     0.012 A 
ATOM     61  C   UNL A   1      44.147  34.906  28.504  1.00  0.00     0.148 A 
ATOM     62  C   UNL A   1      45.521  35.740  30.809  1.00  0.00     0.002 A 
ATOM     63  C   UNL A   1      44.685  36.182  28.573  1.00  0.00     0.091 A 
ATOM     64  F   UNL A   1      43.452  34.485  27.436  1.00  0.00    -0.205 F 
ATOM     65  C   UNL A   1      45.362  36.606  29.728  1.00  0.00     0.022 A 
BRANCH  63  66
ATOM     66  S   UNL A   1      44.619  37.314  27.182  1.00  0.00     0.127 S 
ATOM     67  O   UNL A   1      45.669  36.781  26.315  1.00  0.00    -0.237 OA
ATOM     68  O   UNL A   1      43.257  37.118  26.684  1.00  0.00    -0.237 OA
ATOM     69  O   UNL A   1      44.870  38.638  27.735  1.00  0.00    -0.744 OA
ENDBRANCH  63  66
ENDBRANCH  36  59
ENDBRANCH  10  11
ENDBRANCH   3   5
ENDBRANCH   2   3
ENDBRANCH   1   2
BRANCH   1  70
ATOM     70  C   UNL A   1      35.733  20.724  24.987  1.00  0.00     0.275 C 
BRANCH  70  71
ATOM     71  O   UNL A   1      34.985  21.286  26.086  1.00  0.00    -0.457 OA
BRANCH  71  72
ATOM     72  C   UNL A   1      33.623  21.327  26.047  1.00  0.00     0.359 C 
ATOM     73  O   UNL A   1      32.911  22.149  26.600  1.00  0.00    -0.244 OA
BRANCH  72  74
ATOM     74  C   UNL A   1      33.159  20.125  25.297  1.00  0.00     0.179 A 
ATOM     75  N   UNL A   1      33.230  18.965  26.044  1.00  0.00    -0.245 NA
ATOM     76  C   UNL A   1      32.658  20.123  23.999  1.00  0.00     0.161 A 
ATOM     77  C   UNL A   1      32.778  17.830  25.465  1.00  0.00     0.132 A 
ATOM     78  N   UNL A   1      32.251  18.940  23.419  1.00  0.00    -0.247 NA
ATOM     79  C   UNL A   1      32.310  17.816  24.171  1.00  0.00     0.132 A 
BRANCH  76  80
ATOM     80  C   UNL A   1      32.394  21.296  23.098  1.00  0.00     0.274 C 
ATOM     81  O   UNL A   1      31.902  21.077  21.986  1.00  0.00    -0.267 OA
ATOM     82  N   UNL A   1      32.743  22.611  23.459  1.00  0.00    -0.337 N 
ATOM     83  C   UNL A   1      31.630  23.552  23.320  1.00  0.00     0.120 C 
ATOM     84  C   UNL A   1      34.010  23.139  22.942  1.00  0.00     0.120 C 
ATOM     85  C   UNL A   1      32.047  24.987  22.994  1.00  0.00     0.025 C 
ATOM     86  C   UNL A   1      34.426  24.487  23.564  1.00  0.00     0.025 C 
ATOM     87  C   UNL A   1      33.221  25.405  23.884  1.00  0.00    -0.003 C 
BRANCH  87  88
ATOM     88  C   UNL A   1      33.612  26.895  23.785  1.00  0.00     0.039 C 
BRANCH  88  89
ATOM     89  C   UNL A   1      33.078  27.753  24.910  1.00  0.00    -0.048 A 
ATOM     90  C   UNL A   1      33.476  27.493  26.230  1.00  0.00     0.004 A 
ATOM     91  C   UNL A   1      32.262  28.863  24.653  1.00  0.00     0.004 A 
ATOM     92  C   UNL A   1      33.087  28.336  27.269  1.00  0.00     0.000 A 
ATOM     93  C   UNL A   1      31.873  29.706  25.696  1.00  0.00     0.000 A 
ATOM     94  C   UNL A   1      32.290  29.447  27.002  1.00  0.00     0.000 A 
ENDBRANCH  88  89
ENDBRANCH  87  88
ENDBRANCH  76  80
ENDBRANCH  72  74
ENDBRANCH  71  72
ENDBRANCH  70  71
ENDBRANCH   1  70
TORSDOF 17
ENDMDL
