MODEL 1
REMARK VINA RESULT:     -12.0      0.000      0.000
REMARK SMILES O=C(CC[N@H+]1CCC[C@@H](C(=O)OCCOC(=O)c2ccc(-c3c4nc(c(-c5cccc(S(=O)(=O)[O-])c5F)c5ccc([nH]5)c(-c5cccc(S(=O)(=O)[O-])c5F)c5nc(c(-c6cccc(S(=O)(=O)[O-])c6F)c6ccc3[nH]6)C=C5)C=C4)cc2)C1)Nc1cccc(F)c1
REMARK SMILES IDX 13 1 12 2 10 3 11 4 9 5 5 6 6 7 81 8 7 10 8 11 4 12 3 13
REMARK SMILES IDX 2 14 1 15 82 16 83 18 84 19 89 20 85 21 87 22 86 23 88 24
REMARK SMILES IDX 14 25 15 26 16 27 17 28 18 29 19 30 80 31 20 32 79 33 21 34
REMARK SMILES IDX 22 35 23 36 73 37 24 38 78 39 72 40 74 41 25 42 77 43 71 44
REMARK SMILES IDX 70 45 26 47 58 48 38 49 57 50 39 51 42 52 56 53 75 54 40 55
REMARK SMILES IDX 41 56 55 58 76 59 43 60 27 61 28 62 36 63 29 64 31 65 37 66
REMARK SMILES IDX 30 67 32 68 33 69 34 70 35 71 59 72 60 73 68 74 61 75 63 76
REMARK SMILES IDX 69 77 62 78 64 79 65 80 66 81 67 82 44 83 45 84 53 85 46 86
REMARK SMILES IDX 48 87 54 88 47 89 49 90 50 91 51 92 52 93
REMARK H PARENT 5 9 82 17 74 46 42 57
REMARK Flexibility Score: inf
ROOT
ATOM      1  C   UNL A   1      31.060  29.291  24.312  1.00  0.00     0.274 C 
ENDROOT
BRANCH   1   2
ATOM      2  O   UNL A   1      30.593  27.937  24.513  1.00  0.00    -0.462 OA
BRANCH   2   3
ATOM      3  C   UNL A   1      30.678  27.116  23.433  1.00  0.00     0.314 C 
ATOM      4  O   UNL A   1      30.656  27.492  22.267  1.00  0.00    -0.252 OA
BRANCH   3   5
ATOM      5  C   UNL A   1      30.880  25.665  23.846  1.00  0.00     0.154 C 
ATOM      6  N   UNL A   1      32.765  24.161  24.625  1.00  0.00    -0.334 N 
ATOM      7  C   UNL A   1      32.332  24.377  26.020  1.00  0.00     0.262 C 
ATOM      8  C   UNL A   1      32.386  25.360  23.832  1.00  0.00     0.277 C 
ATOM      9  H   UNL A   1      32.306  23.313  24.292  1.00  0.00     0.348 HD
ATOM     10  C   UNL A   1      30.811  24.333  26.030  1.00  0.00     0.062 C 
ATOM     11  C   UNL A   1      30.248  25.488  25.226  1.00  0.00     0.027 C 
BRANCH   6  12
ATOM     12  C   UNL A   1      34.222  23.943  24.484  1.00  0.00     0.272 C 
BRANCH  12  13
ATOM     13  C   UNL A   1      34.742  22.506  24.508  1.00  0.00     0.161 C 
BRANCH  13  14
ATOM     14  C   UNL A   1      33.743  21.360  24.432  1.00  0.00     0.230 C 
ATOM     15  O   UNL A   1      32.800  21.431  23.644  1.00  0.00    -0.275 OA
ATOM     16  N   UNL A   1      34.062  20.258  25.192  1.00  0.00    -0.326 N 
ATOM     17  H   UNL A   1      34.605  20.420  25.997  1.00  0.00     0.169 HD
BRANCH  16  18
ATOM     18  C   UNL A   1      33.695  18.920  24.940  1.00  0.00     0.044 A 
ATOM     19  C   UNL A   1      32.841  18.295  25.860  1.00  0.00     0.026 A 
ATOM     20  C   UNL A   1      34.215  18.171  23.883  1.00  0.00     0.065 A 
ATOM     21  C   UNL A   1      32.515  16.940  25.728  1.00  0.00     0.005 A 
ATOM     22  C   UNL A   1      33.889  16.823  23.764  1.00  0.00     0.125 A 
ATOM     23  C   UNL A   1      33.047  16.200  24.676  1.00  0.00     0.039 A 
ATOM     24  F   UNL A   1      34.413  16.106  22.760  1.00  0.00    -0.207 F 
ENDBRANCH  16  18
ENDBRANCH  13  14
ENDBRANCH  12  13
ENDBRANCH   6  12
ENDBRANCH   3   5
ENDBRANCH   2   3
ENDBRANCH   1   2
BRANCH   1  25
ATOM     25  C   UNL A   1      32.443  29.440  24.938  1.00  0.00     0.275 C 
BRANCH  25  26
ATOM     26  O   UNL A   1      32.278  29.681  26.346  1.00  0.00    -0.458 OA
BRANCH  26  27
ATOM     27  C   UNL A   1      32.786  30.847  26.817  1.00  0.00     0.338 C 
ATOM     28  O   UNL A   1      32.203  31.917  26.878  1.00  0.00    -0.246 OA
BRANCH  27  29
ATOM     29  C   UNL A   1      34.164  30.636  27.326  1.00  0.00     0.060 A 
ATOM     30  C   UNL A   1      34.649  29.352  27.565  1.00  0.00     0.016 A 
ATOM     31  C   UNL A   1      34.946  31.730  27.691  1.00  0.00     0.016 A 
ATOM     32  C   UNL A   1      35.821  29.165  28.306  1.00  0.00     0.010 A 
ATOM     33  C   UNL A   1      36.195  31.532  28.299  1.00  0.00     0.010 A 
ATOM     34  C   UNL A   1      36.634  30.247  28.671  1.00  0.00    -0.014 A 
BRANCH  34  35
ATOM     35  C   UNL A   1      37.903  30.060  29.456  1.00  0.00     0.031 A 
ATOM     36  C   UNL A   1      39.046  29.252  28.880  1.00  0.00     0.074 A 
ATOM     37  C   UNL A   1      38.059  30.579  30.694  1.00  0.00     0.049 A 
ATOM     38  N   UNL A   1      40.072  28.715  29.491  1.00  0.00    -0.248 NA
ATOM     39  C   UNL A   1      39.017  28.986  27.431  1.00  0.00     0.031 C 
ATOM     40  C   UNL A   1      37.086  31.406  31.406  1.00  0.00     0.029 A 
ATOM     41  N   UNL A   1      39.107  30.478  31.584  1.00  0.00    -0.354 N 
ATOM     42  C   UNL A   1      40.732  27.948  28.535  1.00  0.00     0.074 A 
ATOM     43  C   UNL A   1      40.012  28.121  27.291  1.00  0.00     0.031 C 
ATOM     44  C   UNL A   1      37.596  31.782  32.587  1.00  0.00     0.029 A 
ATOM     45  C   UNL A   1      38.883  31.124  32.779  1.00  0.00     0.049 A 
ATOM     46  H   UNL A   1      39.938  29.990  31.383  1.00  0.00     0.167 HD
ATOM     47  C   UNL A   1      41.835  27.173  28.677  1.00  0.00     0.034 A 
ATOM     48  C   UNL A   1      39.586  31.145  33.930  1.00  0.00     0.034 A 
ATOM     49  C   UNL A   1      42.637  27.109  29.870  1.00  0.00     0.049 A 
ATOM     50  C   UNL A   1      40.841  30.327  34.047  1.00  0.00     0.074 A 
ATOM     51  C   UNL A   1      43.796  26.381  30.090  1.00  0.00     0.029 A 
ATOM     52  N   UNL A   1      42.395  27.828  31.029  1.00  0.00    -0.354 N 
ATOM     53  N   UNL A   1      41.427  29.583  33.143  1.00  0.00    -0.248 NA
ATOM     54  C   UNL A   1      41.526  30.344  35.350  1.00  0.00     0.031 C 
ATOM     55  C   UNL A   1      44.260  26.670  31.378  1.00  0.00     0.029 A 
ATOM     56  C   UNL A   1      43.390  27.578  31.959  1.00  0.00     0.049 A 
ATOM     57  H   UNL A   1      41.628  28.429  31.170  1.00  0.00     0.167 HD
ATOM     58  C   UNL A   1      42.550  29.046  33.763  1.00  0.00     0.074 A 
ATOM     59  C   UNL A   1      42.585  29.582  35.107  1.00  0.00     0.031 C 
ATOM     60  C   UNL A   1      43.449  28.159  33.273  1.00  0.00     0.034 A 
BRANCH  47  61
ATOM     61  C   UNL A   1      42.270  26.339  27.500  1.00  0.00     0.023 A 
ATOM     62  C   UNL A   1      43.092  26.901  26.505  1.00  0.00     0.012 A 
ATOM     63  C   UNL A   1      41.928  24.973  27.425  1.00  0.00     0.148 A 
ATOM     64  C   UNL A   1      43.547  26.123  25.439  1.00  0.00     0.002 A 
ATOM     65  C   UNL A   1      42.418  24.195  26.382  1.00  0.00     0.091 A 
ATOM     66  F   UNL A   1      41.125  24.461  28.369  1.00  0.00    -0.205 F 
ATOM     67  C   UNL A   1      43.221  24.770  25.385  1.00  0.00     0.022 A 
BRANCH  65  68
ATOM     68  S   UNL A   1      42.113  22.426  26.281  1.00  0.00     0.127 S 
ATOM     69  O   UNL A   1      42.708  21.952  27.529  1.00  0.00    -0.237 OA
ATOM     70  O   UNL A   1      40.651  22.362  26.241  1.00  0.00    -0.237 OA
ATOM     71  O   UNL A   1      42.766  21.982  25.058  1.00  0.00    -0.744 OA
ENDBRANCH  65  68
ENDBRANCH  47  61
BRANCH  48  72
ATOM     72  C   UNL A   1      39.105  31.973  35.075  1.00  0.00     0.023 A 
ATOM     73  C   UNL A   1      38.214  31.409  36.007  1.00  0.00     0.012 A 
ATOM     74  C   UNL A   1      39.572  33.285  35.282  1.00  0.00     0.148 A 
ATOM     75  C   UNL A   1      37.794  32.139  37.120  1.00  0.00     0.002 A 
ATOM     76  C   UNL A   1      39.209  33.978  36.431  1.00  0.00     0.091 A 
ATOM     77  F   UNL A   1      40.390  33.825  34.366  1.00  0.00    -0.205 F 
ATOM     78  C   UNL A   1      38.306  33.415  37.343  1.00  0.00     0.022 A 
BRANCH  76  79
ATOM     79  S   UNL A   1      39.981  35.541  36.866  1.00  0.00     0.127 S 
ATOM     80  O   UNL A   1      39.363  35.837  38.154  1.00  0.00    -0.237 OA
ATOM     81  O   UNL A   1      41.399  35.181  36.929  1.00  0.00    -0.237 OA
ATOM     82  O   UNL A   1      39.650  36.443  35.769  1.00  0.00    -0.744 OA
ENDBRANCH  76  79
ENDBRANCH  48  72
BRANCH  60  83
ATOM     83  C   UNL A   1      44.560  27.719  34.187  1.00  0.00     0.023 A 
ATOM     84  C   UNL A   1      45.707  28.528  34.318  1.00  0.00     0.012 A 
ATOM     85  C   UNL A   1      44.448  26.546  34.959  1.00  0.00     0.148 A 
ATOM     86  C   UNL A   1      46.737  28.163  35.185  1.00  0.00     0.002 A 
ATOM     87  C   UNL A   1      45.463  26.208  35.847  1.00  0.00     0.091 A 
ATOM     88  F   UNL A   1      43.360  25.777  34.802  1.00  0.00    -0.205 F 
ATOM     89  C   UNL A   1      46.610  27.010  35.956  1.00  0.00     0.022 A 
BRANCH  87  90
ATOM     90  S   UNL A   1      45.343  24.781  36.931  1.00  0.00     0.127 S 
ATOM     91  O   UNL A   1      45.227  23.684  35.971  1.00  0.00    -0.237 OA
ATOM     92  O   UNL A   1      46.616  24.825  37.655  1.00  0.00    -0.237 OA
ATOM     93  O   UNL A   1      44.173  25.016  37.766  1.00  0.00    -0.744 OA
ENDBRANCH  87  90
ENDBRANCH  60  83
ENDBRANCH  34  35
ENDBRANCH  27  29
ENDBRANCH  26  27
ENDBRANCH  25  26
ENDBRANCH   1  25
TORSDOF 18
ENDMDL
MODEL 2
REMARK VINA RESULT:     -11.7      1.846      2.419
REMARK SMILES O=C(CC[N@H+]1CCC[C@@H](C(=O)OCCOC(=O)c2ccc(-c3c4nc(c(-c5cccc(S(=O)(=O)[O-])c5F)c5ccc([nH]5)c(-c5cccc(S(=O)(=O)[O-])c5F)c5nc(c(-c6cccc(S(=O)(=O)[O-])c6F)c6ccc3[nH]6)C=C5)C=C4)cc2)C1)Nc1cccc(F)c1
REMARK SMILES IDX 13 1 12 2 10 3 11 4 9 5 5 6 6 7 81 8 7 10 8 11 4 12 3 13
REMARK SMILES IDX 2 14 1 15 82 16 83 18 84 19 89 20 85 21 87 22 86 23 88 24
REMARK SMILES IDX 14 25 15 26 16 27 17 28 18 29 19 30 80 31 20 32 79 33 21 34
REMARK SMILES IDX 22 35 23 36 73 37 24 38 78 39 72 40 74 41 25 42 77 43 71 44
REMARK SMILES IDX 70 45 26 47 58 48 38 49 57 50 39 51 42 52 56 53 75 54 40 55
REMARK SMILES IDX 41 56 55 58 76 59 43 60 27 61 28 62 36 63 29 64 31 65 37 66
REMARK SMILES IDX 30 67 32 68 33 69 34 70 35 71 59 72 60 73 68 74 61 75 63 76
REMARK SMILES IDX 69 77 62 78 64 79 65 80 66 81 67 82 44 83 45 84 53 85 46 86
REMARK SMILES IDX 48 87 54 88 47 89 49 90 50 91 51 92 52 93
REMARK H PARENT 5 9 82 17 74 46 42 57
REMARK Flexibility Score: inf
ROOT
ATOM      1  C   UNL A   1      31.168  29.872  24.409  1.00  0.00     0.274 C 
ENDROOT
BRANCH   1   2
ATOM      2  O   UNL A   1      31.628  28.503  24.490  1.00  0.00    -0.462 OA
BRANCH   2   3
ATOM      3  C   UNL A   1      32.678  28.184  23.688  1.00  0.00     0.314 C 
ATOM      4  O   UNL A   1      33.322  28.990  23.028  1.00  0.00    -0.252 OA
BRANCH   3   5
ATOM      5  C   UNL A   1      33.009  26.700  23.761  1.00  0.00     0.154 C 
ATOM      6  N   UNL A   1      31.858  24.531  24.391  1.00  0.00    -0.334 N 
ATOM      7  C   UNL A   1      31.591  24.282  22.960  1.00  0.00     0.262 C 
ATOM      8  C   UNL A   1      31.927  26.002  24.600  1.00  0.00     0.277 C 
ATOM      9  H   UNL A   1      32.735  24.064  24.622  1.00  0.00     0.348 HD
ATOM     10  C   UNL A   1      32.843  24.683  22.193  1.00  0.00     0.062 C 
ATOM     11  C   UNL A   1      33.085  26.174  22.328  1.00  0.00     0.027 C 
BRANCH   6  12
ATOM     12  C   UNL A   1      30.825  23.974  25.292  1.00  0.00     0.272 C 
BRANCH  12  13
ATOM     13  C   UNL A   1      30.968  22.520  25.742  1.00  0.00     0.161 C 
BRANCH  13  14
ATOM     14  C   UNL A   1      32.224  21.751  25.358  1.00  0.00     0.230 C 
ATOM     15  O   UNL A   1      32.159  20.883  24.489  1.00  0.00    -0.275 OA
ATOM     16  N   UNL A   1      33.382  22.193  25.954  1.00  0.00    -0.326 N 
ATOM     17  H   UNL A   1      33.288  22.627  26.833  1.00  0.00     0.169 HD
BRANCH  16  18
ATOM     18  C   UNL A   1      34.692  22.094  25.439  1.00  0.00     0.044 A 
ATOM     19  C   UNL A   1      35.190  23.184  24.711  1.00  0.00     0.026 A 
ATOM     20  C   UNL A   1      35.465  20.936  25.536  1.00  0.00     0.065 A 
ATOM     21  C   UNL A   1      36.441  23.117  24.086  1.00  0.00     0.005 A 
ATOM     22  C   UNL A   1      36.706  20.877  24.908  1.00  0.00     0.125 A 
ATOM     23  C   UNL A   1      37.200  21.954  24.182  1.00  0.00     0.039 A 
ATOM     24  F   UNL A   1      37.430  19.752  24.987  1.00  0.00    -0.207 F 
ENDBRANCH  16  18
ENDBRANCH  13  14
ENDBRANCH  12  13
ENDBRANCH   6  12
ENDBRANCH   3   5
ENDBRANCH   2   3
ENDBRANCH   1   2
BRANCH   1  25
ATOM     25  C   UNL A   1      31.313  30.529  25.778  1.00  0.00     0.275 C 
BRANCH  25  26
ATOM     26  O   UNL A   1      32.700  30.483  26.157  1.00  0.00    -0.458 OA
BRANCH  26  27
ATOM     27  C   UNL A   1      33.114  31.436  27.028  1.00  0.00     0.338 C 
ATOM     28  O   UNL A   1      32.461  32.386  27.424  1.00  0.00    -0.246 OA
BRANCH  27  29
ATOM     29  C   UNL A   1      34.485  31.128  27.509  1.00  0.00     0.060 A 
ATOM     30  C   UNL A   1      34.880  29.814  27.750  1.00  0.00     0.016 A 
ATOM     31  C   UNL A   1      35.352  32.166  27.845  1.00  0.00     0.016 A 
ATOM     32  C   UNL A   1      36.052  29.548  28.466  1.00  0.00     0.010 A 
ATOM     33  C   UNL A   1      36.598  31.882  28.427  1.00  0.00     0.010 A 
ATOM     34  C   UNL A   1      36.950  30.571  28.802  1.00  0.00    -0.014 A 
BRANCH  34  35
ATOM     35  C   UNL A   1      38.220  30.299  29.559  1.00  0.00     0.031 A 
ATOM     36  C   UNL A   1      39.297  29.421  28.957  1.00  0.00     0.074 A 
ATOM     37  C   UNL A   1      38.435  30.800  30.796  1.00  0.00     0.049 A 
ATOM     38  N   UNL A   1      40.298  28.816  29.545  1.00  0.00    -0.248 NA
ATOM     39  C   UNL A   1      39.220  29.165  27.508  1.00  0.00     0.031 C 
ATOM     40  C   UNL A   1      37.532  31.685  31.531  1.00  0.00     0.029 A 
ATOM     41  N   UNL A   1      39.492  30.627  31.664  1.00  0.00    -0.354 N 
ATOM     42  C   UNL A   1      40.887  28.013  28.573  1.00  0.00     0.074 A 
ATOM     43  C   UNL A   1      40.155  28.238  27.344  1.00  0.00     0.031 C 
ATOM     44  C   UNL A   1      38.089  32.021  32.703  1.00  0.00     0.029 A 
ATOM     45  C   UNL A   1      39.334  31.280  32.866  1.00  0.00     0.049 A 
ATOM     46  H   UNL A   1      40.285  30.087  31.444  1.00  0.00     0.167 HD
ATOM     47  C   UNL A   1      41.940  27.168  28.688  1.00  0.00     0.034 A 
ATOM     48  C   UNL A   1      40.061  31.249  34.002  1.00  0.00     0.034 A 
ATOM     49  C   UNL A   1      42.760  27.046  29.865  1.00  0.00     0.049 A 
ATOM     50  C   UNL A   1      41.262  30.351  34.090  1.00  0.00     0.074 A 
ATOM     51  C   UNL A   1      43.874  26.244  30.058  1.00  0.00     0.029 A 
ATOM     52  N   UNL A   1      42.589  27.773  31.031  1.00  0.00    -0.354 N 
ATOM     53  N   UNL A   1      41.781  29.576  33.171  1.00  0.00    -0.248 NA
ATOM     54  C   UNL A   1      41.973  30.318  35.378  1.00  0.00     0.031 C 
ATOM     55  C   UNL A   1      44.382  26.495  31.337  1.00  0.00     0.029 A 
ATOM     56  C   UNL A   1      43.584  27.454  31.939  1.00  0.00     0.049 A 
ATOM     57  H   UNL A   1      41.865  28.421  31.190  1.00  0.00     0.167 HD
ATOM     58  C   UNL A   1      42.878  28.964  33.766  1.00  0.00     0.074 A 
ATOM     59  C   UNL A   1      42.975  29.490  35.111  1.00  0.00     0.031 C 
ATOM     60  C   UNL A   1      43.708  28.024  33.254  1.00  0.00     0.034 A 
BRANCH  47  61
ATOM     61  C   UNL A   1      42.296  26.313  27.500  1.00  0.00     0.023 A 
ATOM     62  C   UNL A   1      43.094  26.842  26.467  1.00  0.00     0.012 A 
ATOM     63  C   UNL A   1      41.905  24.959  27.448  1.00  0.00     0.148 A 
ATOM     64  C   UNL A   1      43.477  26.043  25.388  1.00  0.00     0.002 A 
ATOM     65  C   UNL A   1      42.324  24.160  26.390  1.00  0.00     0.091 A 
ATOM     66  F   UNL A   1      41.127  24.480  28.429  1.00  0.00    -0.205 F 
ATOM     67  C   UNL A   1      43.103  24.701  25.356  1.00  0.00     0.022 A 
BRANCH  65  68
ATOM     68  S   UNL A   1      41.955  22.402  26.314  1.00  0.00     0.127 S 
ATOM     69  O   UNL A   1      42.434  21.943  27.616  1.00  0.00    -0.237 OA
ATOM     70  O   UNL A   1      40.499  22.393  26.164  1.00  0.00    -0.237 OA
ATOM     71  O   UNL A   1      42.681  21.896  25.157  1.00  0.00    -0.744 OA
ENDBRANCH  65  68
ENDBRANCH  47  61
BRANCH  48  72
ATOM     72  C   UNL A   1      39.658  32.101  35.159  1.00  0.00     0.023 A 
ATOM     73  C   UNL A   1      39.943  33.479  35.134  1.00  0.00     0.012 A 
ATOM     74  C   UNL A   1      38.941  31.571  36.250  1.00  0.00     0.148 A 
ATOM     75  C   UNL A   1      39.527  34.310  36.175  1.00  0.00     0.002 A 
ATOM     76  C   UNL A   1      38.465  32.416  37.245  1.00  0.00     0.091 A 
ATOM     77  F   UNL A   1      38.710  30.250  36.282  1.00  0.00    -0.205 F 
ATOM     78  C   UNL A   1      38.771  33.784  37.220  1.00  0.00     0.022 A 
BRANCH  76  79
ATOM     79  S   UNL A   1      37.331  31.830  38.509  1.00  0.00     0.127 S 
ATOM     80  O   UNL A   1      38.106  32.031  39.729  1.00  0.00    -0.237 OA
ATOM     81  O   UNL A   1      36.190  32.732  38.347  1.00  0.00    -0.237 OA
ATOM     82  O   UNL A   1      37.045  30.447  38.147  1.00  0.00    -0.744 OA
ENDBRANCH  76  79
ENDBRANCH  48  72
BRANCH  60  83
ATOM     83  C   UNL A   1      44.807  27.508  34.143  1.00  0.00     0.023 A 
ATOM     84  C   UNL A   1      46.044  28.181  34.171  1.00  0.00     0.012 A 
ATOM     85  C   UNL A   1      44.600  26.403  34.991  1.00  0.00     0.148 A 
ATOM     86  C   UNL A   1      47.068  27.747  35.013  1.00  0.00     0.002 A 
ATOM     87  C   UNL A   1      45.613  25.998  35.853  1.00  0.00     0.091 A 
ATOM     88  F   UNL A   1      43.424  25.760  34.932  1.00  0.00    -0.205 F 
ATOM     89  C   UNL A   1      46.849  26.664  35.860  1.00  0.00     0.022 A 
BRANCH  87  90
ATOM     90  S   UNL A   1      45.386  24.659  37.029  1.00  0.00     0.127 S 
ATOM     91  O   UNL A   1      46.666  24.662  37.736  1.00  0.00    -0.237 OA
ATOM     92  O   UNL A   1      44.249  25.126  37.825  1.00  0.00    -0.237 OA
ATOM     93  O   UNL A   1      45.109  23.474  36.228  1.00  0.00    -0.744 OA
ENDBRANCH  87  90
ENDBRANCH  60  83
ENDBRANCH  34  35
ENDBRANCH  27  29
ENDBRANCH  26  27
ENDBRANCH  25  26
ENDBRANCH   1  25
TORSDOF 18
ENDMDL
MODEL 3
REMARK VINA RESULT:     -11.6      5.518     10.430
REMARK SMILES O=C(CC[N@H+]1CCC[C@@H](C(=O)OCCOC(=O)c2ccc(-c3c4nc(c(-c5cccc(S(=O)(=O)[O-])c5F)c5ccc([nH]5)c(-c5cccc(S(=O)(=O)[O-])c5F)c5nc(c(-c6cccc(S(=O)(=O)[O-])c6F)c6ccc3[nH]6)C=C5)C=C4)cc2)C1)Nc1cccc(F)c1
REMARK SMILES IDX 13 1 12 2 10 3 11 4 9 5 5 6 6 7 81 8 7 10 8 11 4 12 3 13
REMARK SMILES IDX 2 14 1 15 82 16 83 18 84 19 89 20 85 21 87 22 86 23 88 24
REMARK SMILES IDX 14 25 15 26 16 27 17 28 18 29 19 30 80 31 20 32 79 33 21 34
REMARK SMILES IDX 22 35 23 36 73 37 24 38 78 39 72 40 74 41 25 42 77 43 71 44
REMARK SMILES IDX 70 45 26 47 58 48 38 49 57 50 39 51 42 52 56 53 75 54 40 55
REMARK SMILES IDX 41 56 55 58 76 59 43 60 27 61 28 62 36 63 29 64 31 65 37 66
REMARK SMILES IDX 30 67 32 68 33 69 34 70 35 71 59 72 60 73 68 74 61 75 63 76
REMARK SMILES IDX 69 77 62 78 64 79 65 80 66 81 67 82 44 83 45 84 53 85 46 86
REMARK SMILES IDX 48 87 54 88 47 89 49 90 50 91 51 92 52 93
REMARK H PARENT 5 9 82 17 74 46 42 57
REMARK Flexibility Score: inf
ROOT
ATOM      1  C   UNL A   1      34.265  21.297  25.591  1.00  0.00     0.274 C 
ENDROOT
BRANCH   1   2
ATOM      2  O   UNL A   1      33.365  21.978  24.687  1.00  0.00    -0.462 OA
BRANCH   2   3
ATOM      3  C   UNL A   1      32.090  22.136  25.128  1.00  0.00     0.314 C 
ATOM      4  O   UNL A   1      31.426  21.260  25.670  1.00  0.00    -0.252 OA
BRANCH   3   5
ATOM      5  C   UNL A   1      31.601  23.564  24.935  1.00  0.00     0.154 C 
ATOM      6  N   UNL A   1      32.531  25.798  24.182  1.00  0.00    -0.334 N 
ATOM      7  C   UNL A   1      31.979  25.551  22.836  1.00  0.00     0.262 C 
ATOM      8  C   UNL A   1      32.826  24.484  24.812  1.00  0.00     0.277 C 
ATOM      9  H   UNL A   1      31.834  26.331  24.703  1.00  0.00     0.348 HD
ATOM     10  C   UNL A   1      30.599  24.937  23.022  1.00  0.00     0.062 C 
ATOM     11  C   UNL A   1      30.714  23.582  23.691  1.00  0.00     0.027 C 
BRANCH   6  12
ATOM     12  C   UNL A   1      33.770  26.607  24.175  1.00  0.00     0.272 C 
BRANCH  12  13
ATOM     13  C   UNL A   1      33.658  28.102  24.474  1.00  0.00     0.161 C 
BRANCH  13  14
ATOM     14  C   UNL A   1      32.645  28.933  23.702  1.00  0.00     0.230 C 
ATOM     15  O   UNL A   1      32.788  29.088  22.489  1.00  0.00    -0.275 OA
ATOM     16  N   UNL A   1      31.556  29.352  24.432  1.00  0.00    -0.326 N 
ATOM     17  H   UNL A   1      31.694  29.471  25.400  1.00  0.00     0.169 HD
BRANCH  16  18
ATOM     18  C   UNL A   1      30.262  29.628  23.943  1.00  0.00     0.044 A 
ATOM     19  C   UNL A   1      29.557  28.576  23.341  1.00  0.00     0.026 A 
ATOM     20  C   UNL A   1      29.701  30.905  23.944  1.00  0.00     0.065 A 
ATOM     21  C   UNL A   1      28.310  28.799  22.745  1.00  0.00     0.005 A 
ATOM     22  C   UNL A   1      28.463  31.118  23.344  1.00  0.00     0.125 A 
ATOM     23  C   UNL A   1      27.764  30.079  22.743  1.00  0.00     0.039 A 
ATOM     24  F   UNL A   1      27.944  32.354  23.329  1.00  0.00    -0.207 F 
ENDBRANCH  16  18
ENDBRANCH  13  14
ENDBRANCH  12  13
ENDBRANCH   6  12
ENDBRANCH   3   5
ENDBRANCH   2   3
ENDBRANCH   1   2
BRANCH   1  25
ATOM     25  C   UNL A   1      35.655  21.244  24.966  1.00  0.00     0.275 C 
BRANCH  25  26
ATOM     26  O   UNL A   1      36.613  21.646  25.961  1.00  0.00    -0.458 OA
BRANCH  26  27
ATOM     27  C   UNL A   1      37.894  21.254  25.751  1.00  0.00     0.338 C 
ATOM     28  O   UNL A   1      38.259  20.163  25.347  1.00  0.00    -0.246 OA
BRANCH  27  29
ATOM     29  C   UNL A   1      38.824  22.379  26.022  1.00  0.00     0.060 A 
ATOM     30  C   UNL A   1      40.072  22.153  26.599  1.00  0.00     0.016 A 
ATOM     31  C   UNL A   1      38.405  23.692  25.816  1.00  0.00     0.016 A 
ATOM     32  C   UNL A   1      40.818  23.218  27.113  1.00  0.00     0.010 A 
ATOM     33  C   UNL A   1      39.229  24.762  26.198  1.00  0.00     0.010 A 
ATOM     34  C   UNL A   1      40.428  24.549  26.906  1.00  0.00    -0.014 A 
BRANCH  34  35
ATOM     35  C   UNL A   1      41.226  25.705  27.442  1.00  0.00     0.031 A 
ATOM     36  C   UNL A   1      40.589  26.702  28.387  1.00  0.00     0.074 A 
ATOM     37  C   UNL A   1      42.514  25.908  27.087  1.00  0.00     0.049 A 
ATOM     38  N   UNL A   1      40.983  27.908  28.708  1.00  0.00    -0.248 NA
ATOM     39  C   UNL A   1      39.327  26.301  29.033  1.00  0.00     0.031 C 
ATOM     40  C   UNL A   1      43.308  25.047  26.211  1.00  0.00     0.029 A 
ATOM     41  N   UNL A   1      43.388  26.921  27.420  1.00  0.00    -0.354 N 
ATOM     42  C   UNL A   1      39.963  28.453  29.482  1.00  0.00     0.074 A 
ATOM     43  C   UNL A   1      38.948  27.430  29.616  1.00  0.00     0.031 C 
ATOM     44  C   UNL A   1      44.556  25.528  26.120  1.00  0.00     0.029 A 
ATOM     45  C   UNL A   1      44.625  26.802  26.827  1.00  0.00     0.049 A 
ATOM     46  H   UNL A   1      43.150  27.659  28.025  1.00  0.00     0.167 HD
ATOM     47  C   UNL A   1      39.877  29.689  30.032  1.00  0.00     0.034 A 
ATOM     48  C   UNL A   1      45.683  27.638  26.790  1.00  0.00     0.034 A 
ATOM     49  C   UNL A   1      40.941  30.659  30.025  1.00  0.00     0.049 A 
ATOM     50  C   UNL A   1      45.592  28.980  27.460  1.00  0.00     0.074 A 
ATOM     51  C   UNL A   1      40.957  31.922  30.594  1.00  0.00     0.029 A 
ATOM     52  N   UNL A   1      42.190  30.462  29.460  1.00  0.00    -0.354 N 
ATOM     53  N   UNL A   1      44.606  29.488  28.156  1.00  0.00    -0.248 NA
ATOM     54  C   UNL A   1      46.757  29.868  27.329  1.00  0.00     0.031 C 
ATOM     55  C   UNL A   1      42.221  32.484  30.383  1.00  0.00     0.029 A 
ATOM     56  C   UNL A   1      42.991  31.570  29.682  1.00  0.00     0.049 A 
ATOM     57  H   UNL A   1      42.468  29.653  28.972  1.00  0.00     0.167 HD
ATOM     58  C   UNL A   1      45.031  30.752  28.549  1.00  0.00     0.074 A 
ATOM     59  C   UNL A   1      46.379  30.917  28.048  1.00  0.00     0.031 C 
ATOM     60  C   UNL A   1      44.350  31.704  29.231  1.00  0.00     0.034 A 
BRANCH  47  61
ATOM     61  C   UNL A   1      38.594  30.070  30.722  1.00  0.00     0.023 A 
ATOM     62  C   UNL A   1      38.382  29.708  32.066  1.00  0.00     0.012 A 
ATOM     63  C   UNL A   1      37.630  30.858  30.058  1.00  0.00     0.148 A 
ATOM     64  C   UNL A   1      37.221  30.103  32.733  1.00  0.00     0.002 A 
ATOM     65  C   UNL A   1      36.495  31.281  30.741  1.00  0.00     0.091 A 
ATOM     66  F   UNL A   1      37.837  31.173  28.772  1.00  0.00    -0.205 F 
ATOM     67  C   UNL A   1      36.285  30.898  32.075  1.00  0.00     0.022 A 
BRANCH  65  68
ATOM     68  S   UNL A   1      35.280  32.375  29.993  1.00  0.00     0.127 S 
ATOM     69  O   UNL A   1      34.370  32.614  31.112  1.00  0.00    -0.237 OA
ATOM     70  O   UNL A   1      36.092  33.531  29.611  1.00  0.00    -0.237 OA
ATOM     71  O   UNL A   1      34.722  31.636  28.869  1.00  0.00    -0.744 OA
ENDBRANCH  65  68
ENDBRANCH  47  61
BRANCH  48  72
ATOM     72  C   UNL A   1      46.928  27.223  26.079  1.00  0.00     0.023 A 
ATOM     73  C   UNL A   1      47.797  26.301  26.691  1.00  0.00     0.012 A 
ATOM     74  C   UNL A   1      47.223  27.683  24.781  1.00  0.00     0.148 A 
ATOM     75  C   UNL A   1      48.939  25.850  26.026  1.00  0.00     0.002 A 
ATOM     76  C   UNL A   1      48.320  27.173  24.096  1.00  0.00     0.091 A 
ATOM     77  F   UNL A   1      46.408  28.592  24.224  1.00  0.00    -0.205 F 
ATOM     78  C   UNL A   1      49.189  26.270  24.722  1.00  0.00     0.022 A 
BRANCH  76  79
ATOM     79  S   UNL A   1      48.585  27.529  22.355  1.00  0.00     0.127 S 
ATOM     80  O   UNL A   1      47.387  28.290  22.015  1.00  0.00    -0.237 OA
ATOM     81  O   UNL A   1      49.824  28.308  22.382  1.00  0.00    -0.237 OA
ATOM     82  O   UNL A   1      48.724  26.224  21.720  1.00  0.00    -0.744 OA
ENDBRANCH  76  79
ENDBRANCH  48  72
BRANCH  60  83
ATOM     83  C   UNL A   1      45.053  33.008  29.493  1.00  0.00     0.023 A 
ATOM     84  C   UNL A   1      45.856  33.140  30.644  1.00  0.00     0.012 A 
ATOM     85  C   UNL A   1      44.971  34.076  28.579  1.00  0.00     0.148 A 
ATOM     86  C   UNL A   1      46.547  34.325  30.893  1.00  0.00     0.002 A 
ATOM     87  C   UNL A   1      45.691  35.242  28.816  1.00  0.00     0.091 A 
ATOM     88  F   UNL A   1      44.181  33.940  27.503  1.00  0.00    -0.205 F 
ATOM     89  C   UNL A   1      46.473  35.370  29.975  1.00  0.00     0.022 A 
BRANCH  87  90
ATOM     90  S   UNL A   1      45.710  36.606  27.648  1.00  0.00     0.127 S 
ATOM     91  O   UNL A   1      46.312  35.982  26.470  1.00  0.00    -0.237 OA
ATOM     92  O   UNL A   1      44.288  36.924  27.509  1.00  0.00    -0.237 OA
ATOM     93  O   UNL A   1      46.499  37.655  28.279  1.00  0.00    -0.744 OA
ENDBRANCH  87  90
ENDBRANCH  60  83
ENDBRANCH  34  35
ENDBRANCH  27  29
ENDBRANCH  26  27
ENDBRANCH  25  26
ENDBRANCH   1  25
TORSDOF 18
ENDMDL
