MODEL 1
REMARK VINA RESULT:     -11.2      0.000      0.000
REMARK SMILES [NH3+]C1CC[NH+](CC(=O)N2CCO[C@H](CC(=O)OCCOC(=O)c3ccc(-c4c5nc(c(-c6cccc(S(=O)(=O)[O-])c6F)c6ccc([nH]6)c(-c6cccc(S(=O)(=O)[O-])c6F)c6nc(c(-c7cccc(S(=O)(=O)[O-])c7F)c7ccc4[nH]7)C=C6)C=C5)cc3)C2)CC1
REMARK SMILES IDX 18 1 17 2 15 3 16 4 14 5 13 6 9 7 10 8 86 9 11 10 12 11 7 12
REMARK SMILES IDX 8 13 6 14 5 15 2 16 3 17 88 18 4 19 87 20 1 22 19 26 20 27
REMARK SMILES IDX 21 28 22 29 23 30 24 31 85 32 25 33 84 34 26 35 27 36 28 37
REMARK SMILES IDX 78 38 29 39 83 40 77 41 79 42 30 43 82 44 76 45 75 46 31 48
REMARK SMILES IDX 63 49 43 50 62 51 44 52 47 53 61 54 80 55 45 56 46 57 60 59
REMARK SMILES IDX 81 60 48 61 32 62 33 63 41 64 34 65 36 66 42 67 35 68 37 69
REMARK SMILES IDX 38 70 39 71 40 72 64 73 65 74 73 75 66 76 68 77 74 78 67 79
REMARK SMILES IDX 69 80 70 81 71 82 72 83 49 84 50 85 58 86 51 87 53 88 59 89
REMARK SMILES IDX 52 90 54 91 55 92 56 93 57 94
REMARK H PARENT 5 21 1 23 1 24 1 25 79 47 47 58
REMARK Flexibility Score: inf
ROOT
ATOM      1  C   UNL A   1      31.175  29.693  24.515  1.00  0.00     0.274 C 
ENDROOT
BRANCH   1   2
ATOM      2  O   UNL A   1      30.616  28.410  24.186  1.00  0.00    -0.462 OA
BRANCH   2   3
ATOM      3  C   UNL A   1      30.823  27.991  22.916  1.00  0.00     0.308 C 
ATOM      4  O   UNL A   1      30.033  28.125  21.988  1.00  0.00    -0.252 OA
BRANCH   3   5
ATOM      5  C   UNL A   1      32.131  27.277  22.751  1.00  0.00     0.156 C 
BRANCH   5   6
ATOM      6  C   UNL A   1      32.194  25.896  23.424  1.00  0.00     0.148 C 
ATOM      7  N   UNL A   1      33.905  24.002  23.561  1.00  0.00    -0.333 N 
ATOM      8  C   UNL A   1      32.904  23.142  22.934  1.00  0.00     0.148 C 
ATOM      9  C   UNL A   1      33.661  25.429  23.416  1.00  0.00     0.152 C 
ATOM     10  C   UNL A   1      31.485  23.660  23.169  1.00  0.00     0.182 C 
ATOM     11  O   UNL A   1      31.359  24.997  22.665  1.00  0.00    -0.374 OA
BRANCH   7  12
ATOM     12  C   UNL A   1      35.203  23.498  23.706  1.00  0.00     0.277 C 
ATOM     13  O   UNL A   1      35.844  23.105  22.726  1.00  0.00    -0.268 OA
BRANCH  12  14
ATOM     14  C   UNL A   1      35.766  23.331  25.130  1.00  0.00     0.363 C 
BRANCH  14  15
ATOM     15  N   UNL A   1      35.317  22.165  25.896  1.00  0.00    -0.327 N 
ATOM     16  C   UNL A   1      33.021  20.326  25.616  1.00  0.00     0.192 C 
ATOM     17  C   UNL A   1      32.870  21.743  26.184  1.00  0.00     0.126 C 
ATOM     18  C   UNL A   1      34.251  20.250  24.715  1.00  0.00     0.126 C 
ATOM     19  C   UNL A   1      34.164  22.308  26.772  1.00  0.00     0.268 C 
ATOM     20  C   UNL A   1      35.510  20.836  25.351  1.00  0.00     0.268 C 
ATOM     21  H   UNL A   1      36.098  22.216  26.549  1.00  0.00     0.348 HD
BRANCH  16  22
ATOM     22  N   UNL A   1      33.065  19.304  26.664  1.00  0.00    -0.355 N 
ATOM     23  H   UNL A   1      33.012  19.753  27.579  1.00  0.00     0.344 HD
ATOM     24  H   UNL A   1      33.937  18.780  26.592  1.00  0.00     0.344 HD
ATOM     25  H   UNL A   1      32.276  18.668  26.551  1.00  0.00     0.344 HD
ENDBRANCH  16  22
ENDBRANCH  14  15
ENDBRANCH  12  14
ENDBRANCH   7  12
ENDBRANCH   5   6
ENDBRANCH   3   5
ENDBRANCH   2   3
ENDBRANCH   1   2
BRANCH   1  26
ATOM     26  C   UNL A   1      31.740  29.691  25.937  1.00  0.00     0.275 C 
BRANCH  26  27
ATOM     27  O   UNL A   1      33.072  30.236  25.998  1.00  0.00    -0.458 OA
BRANCH  27  28
ATOM     28  C   UNL A   1      33.292  31.192  26.930  1.00  0.00     0.338 C 
ATOM     29  O   UNL A   1      32.556  32.112  27.240  1.00  0.00    -0.246 OA
BRANCH  28  30
ATOM     30  C   UNL A   1      34.566  30.930  27.614  1.00  0.00     0.060 A 
ATOM     31  C   UNL A   1      35.449  31.992  27.833  1.00  0.00     0.016 A 
ATOM     32  C   UNL A   1      34.907  29.628  27.980  1.00  0.00     0.016 A 
ATOM     33  C   UNL A   1      36.681  31.751  28.444  1.00  0.00     0.010 A 
ATOM     34  C   UNL A   1      36.135  29.393  28.600  1.00  0.00     0.010 A 
ATOM     35  C   UNL A   1      37.029  30.451  28.841  1.00  0.00    -0.014 A 
BRANCH  35  36
ATOM     36  C   UNL A   1      38.290  30.180  29.575  1.00  0.00     0.031 A 
ATOM     37  C   UNL A   1      39.295  29.204  29.035  1.00  0.00     0.074 A 
ATOM     38  C   UNL A   1      38.474  30.739  30.786  1.00  0.00     0.049 A 
ATOM     39  N   UNL A   1      40.371  28.730  29.606  1.00  0.00    -0.248 NA
ATOM     40  C   UNL A   1      39.055  28.688  27.677  1.00  0.00     0.031 C 
ATOM     41  C   UNL A   1      37.555  31.682  31.425  1.00  0.00     0.029 A 
ATOM     42  N   UNL A   1      39.469  30.560  31.714  1.00  0.00    -0.354 N 
ATOM     43  C   UNL A   1      40.922  27.835  28.698  1.00  0.00     0.074 A 
ATOM     44  C   UNL A   1      40.059  27.831  27.535  1.00  0.00     0.031 C 
ATOM     45  C   UNL A   1      38.012  31.974  32.652  1.00  0.00     0.029 A 
ATOM     46  C   UNL A   1      39.229  31.208  32.902  1.00  0.00     0.049 A 
ATOM     47  H   UNL A   1      40.276  30.020  31.545  1.00  0.00     0.167 HD
ATOM     48  C   UNL A   1      42.051  27.097  28.818  1.00  0.00     0.034 A 
ATOM     49  C   UNL A   1      39.890  31.161  34.076  1.00  0.00     0.034 A 
ATOM     50  C   UNL A   1      42.923  27.127  29.963  1.00  0.00     0.049 A 
ATOM     51  C   UNL A   1      41.119  30.304  34.195  1.00  0.00     0.074 A 
ATOM     52  C   UNL A   1      44.132  26.479  30.141  1.00  0.00     0.029 A 
ATOM     53  N   UNL A   1      42.671  27.827  31.132  1.00  0.00    -0.354 N 
ATOM     54  N   UNL A   1      41.702  29.569  33.280  1.00  0.00    -0.248 NA
ATOM     55  C   UNL A   1      41.790  30.279  35.504  1.00  0.00     0.031 C 
ATOM     56  C   UNL A   1      44.602  26.770  31.426  1.00  0.00     0.029 A 
ATOM     57  C   UNL A   1      43.689  27.609  32.046  1.00  0.00     0.049 A 
ATOM     58  H   UNL A   1      41.883  28.397  31.291  1.00  0.00     0.167 HD
ATOM     59  C   UNL A   1      42.817  29.010  33.893  1.00  0.00     0.074 A 
ATOM     60  C   UNL A   1      42.842  29.511  35.252  1.00  0.00     0.031 C 
ATOM     61  C   UNL A   1      43.725  28.143  33.382  1.00  0.00     0.034 A 
BRANCH  48  62
ATOM     62  C   UNL A   1      42.442  26.218  27.659  1.00  0.00     0.023 A 
ATOM     63  C   UNL A   1      43.327  26.717  26.682  1.00  0.00     0.012 A 
ATOM     64  C   UNL A   1      41.996  24.885  27.574  1.00  0.00     0.148 A 
ATOM     65  C   UNL A   1      43.744  25.910  25.625  1.00  0.00     0.002 A 
ATOM     66  C   UNL A   1      42.443  24.075  26.535  1.00  0.00     0.091 A 
ATOM     67  F   UNL A   1      41.136  24.437  28.499  1.00  0.00    -0.205 F 
ATOM     68  C   UNL A   1      43.311  24.588  25.556  1.00  0.00     0.022 A 
BRANCH  66  69
ATOM     69  S   UNL A   1      41.991  22.342  26.401  1.00  0.00     0.127 S 
ATOM     70  O   UNL A   1      42.755  21.927  25.225  1.00  0.00    -0.237 OA
ATOM     71  O   UNL A   1      42.477  21.793  27.668  1.00  0.00    -0.237 OA
ATOM     72  O   UNL A   1      40.543  22.320  26.249  1.00  0.00    -0.744 OA
ENDBRANCH  66  69
ENDBRANCH  48  62
BRANCH  49  73
ATOM     73  C   UNL A   1      39.405  31.975  35.226  1.00  0.00     0.023 A 
ATOM     74  C   UNL A   1      38.516  31.395  36.151  1.00  0.00     0.012 A 
ATOM     75  C   UNL A   1      39.856  33.292  35.437  1.00  0.00     0.148 A 
ATOM     76  C   UNL A   1      38.072  32.119  37.258  1.00  0.00     0.002 A 
ATOM     77  C   UNL A   1      39.454  33.989  36.570  1.00  0.00     0.091 A 
ATOM     78  F   UNL A   1      40.684  33.834  34.532  1.00  0.00    -0.205 F 
ATOM     79  C   UNL A   1      38.551  33.409  37.475  1.00  0.00     0.022 A 
BRANCH  77  80
ATOM     80  S   UNL A   1      40.127  35.599  36.995  1.00  0.00     0.127 S 
ATOM     81  O   UNL A   1      39.581  36.441  35.934  1.00  0.00    -0.237 OA
ATOM     82  O   UNL A   1      39.554  35.830  38.322  1.00  0.00    -0.237 OA
ATOM     83  O   UNL A   1      41.574  35.429  36.992  1.00  0.00    -0.744 OA
ENDBRANCH  77  80
ENDBRANCH  49  73
BRANCH  61  84
ATOM     84  C   UNL A   1      44.829  27.673  34.293  1.00  0.00     0.023 A 
ATOM     85  C   UNL A   1      46.015  28.427  34.385  1.00  0.00     0.012 A 
ATOM     86  C   UNL A   1      44.663  26.539  35.113  1.00  0.00     0.148 A 
ATOM     87  C   UNL A   1      47.029  28.050  35.263  1.00  0.00     0.002 A 
ATOM     88  C   UNL A   1      45.662  26.192  36.016  1.00  0.00     0.091 A 
ATOM     89  F   UNL A   1      43.535  25.826  34.997  1.00  0.00    -0.205 F 
ATOM     90  C   UNL A   1      46.849  26.941  36.086  1.00  0.00     0.022 A 
BRANCH  88  91
ATOM     91  S   UNL A   1      45.488  24.830  37.175  1.00  0.00     0.127 S 
ATOM     92  O   UNL A   1      45.473  23.675  36.279  1.00  0.00    -0.237 OA
ATOM     93  O   UNL A   1      46.698  24.956  37.987  1.00  0.00    -0.237 OA
ATOM     94  O   UNL A   1      44.246  25.074  37.897  1.00  0.00    -0.744 OA
ENDBRANCH  88  91
ENDBRANCH  61  84
ENDBRANCH  35  36
ENDBRANCH  28  30
ENDBRANCH  27  28
ENDBRANCH  26  27
ENDBRANCH   1  26
TORSDOF 19
ENDMDL
MODEL 2
REMARK VINA RESULT:     -11.1      4.828     10.014
REMARK SMILES [NH3+]C1CC[NH+](CC(=O)N2CCO[C@H](CC(=O)OCCOC(=O)c3ccc(-c4c5nc(c(-c6cccc(S(=O)(=O)[O-])c6F)c6ccc([nH]6)c(-c6cccc(S(=O)(=O)[O-])c6F)c6nc(c(-c7cccc(S(=O)(=O)[O-])c7F)c7ccc4[nH]7)C=C6)C=C5)cc3)C2)CC1
REMARK SMILES IDX 18 1 17 2 15 3 16 4 14 5 13 6 9 7 10 8 86 9 11 10 12 11 7 12
REMARK SMILES IDX 8 13 6 14 5 15 2 16 3 17 88 18 4 19 87 20 1 22 19 26 20 27
REMARK SMILES IDX 21 28 22 29 23 30 24 31 85 32 25 33 84 34 26 35 27 36 28 37
REMARK SMILES IDX 78 38 29 39 83 40 77 41 79 42 30 43 82 44 76 45 75 46 31 48
REMARK SMILES IDX 63 49 43 50 62 51 44 52 47 53 61 54 80 55 45 56 46 57 60 59
REMARK SMILES IDX 81 60 48 61 32 62 33 63 41 64 34 65 36 66 42 67 35 68 37 69
REMARK SMILES IDX 38 70 39 71 40 72 64 73 65 74 73 75 66 76 68 77 74 78 67 79
REMARK SMILES IDX 69 80 70 81 71 82 72 83 49 84 50 85 58 86 51 87 53 88 59 89
REMARK SMILES IDX 52 90 54 91 55 92 56 93 57 94
REMARK H PARENT 5 21 1 23 1 24 1 25 79 47 47 58
REMARK Flexibility Score: inf
ROOT
ATOM      1  C   UNL A   1      34.743  21.018  24.636  1.00  0.00     0.274 C 
ENDROOT
BRANCH   1   2
ATOM      2  O   UNL A   1      33.748  21.120  25.668  1.00  0.00    -0.462 OA
BRANCH   2   3
ATOM      3  C   UNL A   1      32.499  20.736  25.314  1.00  0.00     0.308 C 
ATOM      4  O   UNL A   1      32.182  19.612  24.944  1.00  0.00    -0.252 OA
BRANCH   3   5
ATOM      5  C   UNL A   1      31.512  21.864  25.369  1.00  0.00     0.156 C 
BRANCH   5   6
ATOM      6  C   UNL A   1      31.994  23.167  24.712  1.00  0.00     0.148 C 
ATOM      7  N   UNL A   1      30.893  25.332  23.914  1.00  0.00    -0.333 N 
ATOM      8  C   UNL A   1      31.388  25.013  22.577  1.00  0.00     0.148 C 
ATOM      9  C   UNL A   1      30.868  24.210  24.840  1.00  0.00     0.152 C 
ATOM     10  C   UNL A   1      32.607  24.093  22.629  1.00  0.00     0.182 C 
ATOM     11  O   UNL A   1      32.281  22.882  23.327  1.00  0.00    -0.374 OA
BRANCH   7  12
ATOM     12  C   UNL A   1      29.997  26.400  24.044  1.00  0.00     0.277 C 
ATOM     13  O   UNL A   1      28.790  26.245  23.830  1.00  0.00    -0.268 OA
BRANCH  12  14
ATOM     14  C   UNL A   1      30.568  27.800  24.339  1.00  0.00     0.363 C 
BRANCH  14  15
ATOM     15  N   UNL A   1      31.782  27.870  25.156  1.00  0.00    -0.327 N 
ATOM     16  C   UNL A   1      32.663  29.688  27.312  1.00  0.00     0.192 C 
ATOM     17  C   UNL A   1      32.688  30.099  25.834  1.00  0.00     0.126 C 
ATOM     18  C   UNL A   1      31.626  28.590  27.535  1.00  0.00     0.126 C 
ATOM     19  C   UNL A   1      32.755  28.913  24.871  1.00  0.00     0.268 C 
ATOM     20  C   UNL A   1      31.737  27.437  26.538  1.00  0.00     0.268 C 
ATOM     21  H   UNL A   1      32.200  27.052  24.715  1.00  0.00     0.348 HD
BRANCH  16  22
ATOM     22  N   UNL A   1      33.981  29.284  27.804  1.00  0.00    -0.355 N 
ATOM     23  H   UNL A   1      34.701  29.839  27.341  1.00  0.00     0.344 HD
ATOM     24  H   UNL A   1      34.131  28.296  27.601  1.00  0.00     0.344 HD
ATOM     25  H   UNL A   1      34.030  29.436  28.811  1.00  0.00     0.344 HD
ENDBRANCH  16  22
ENDBRANCH  14  15
ENDBRANCH  12  14
ENDBRANCH   7  12
ENDBRANCH   5   6
ENDBRANCH   3   5
ENDBRANCH   2   3
ENDBRANCH   1   2
BRANCH   1  26
ATOM     26  C   UNL A   1      36.060  20.483  25.203  1.00  0.00     0.275 C 
BRANCH  26  27
ATOM     27  O   UNL A   1      36.924  21.536  25.670  1.00  0.00    -0.458 OA
BRANCH  27  28
ATOM     28  C   UNL A   1      38.240  21.239  25.772  1.00  0.00     0.338 C 
ATOM     29  O   UNL A   1      38.797  20.205  25.448  1.00  0.00    -0.246 OA
BRANCH  28  30
ATOM     30  C   UNL A   1      38.971  22.408  26.282  1.00  0.00     0.060 A 
ATOM     31  C   UNL A   1      40.078  22.205  27.112  1.00  0.00     0.016 A 
ATOM     32  C   UNL A   1      38.523  23.696  25.988  1.00  0.00     0.016 A 
ATOM     33  C   UNL A   1      40.757  23.306  27.638  1.00  0.00     0.010 A 
ATOM     34  C   UNL A   1      39.211  24.793  26.507  1.00  0.00     0.010 A 
ATOM     35  C   UNL A   1      40.334  24.609  27.331  1.00  0.00    -0.014 A 
BRANCH  35  36
ATOM     36  C   UNL A   1      41.091  25.796  27.800  1.00  0.00     0.031 A 
ATOM     37  C   UNL A   1      40.396  26.904  28.537  1.00  0.00     0.074 A 
ATOM     38  C   UNL A   1      42.388  25.919  27.461  1.00  0.00     0.049 A 
ATOM     39  N   UNL A   1      40.858  28.076  28.886  1.00  0.00    -0.248 NA
ATOM     40  C   UNL A   1      38.997  26.665  28.928  1.00  0.00     0.031 C 
ATOM     41  C   UNL A   1      43.164  24.920  26.724  1.00  0.00     0.029 A 
ATOM     42  N   UNL A   1      43.270  26.954  27.651  1.00  0.00    -0.354 N 
ATOM     43  C   UNL A   1      39.802  28.733  29.506  1.00  0.00     0.074 A 
ATOM     44  C   UNL A   1      38.673  27.825  29.485  1.00  0.00     0.031 C 
ATOM     45  C   UNL A   1      44.395  25.402  26.496  1.00  0.00     0.029 A 
ATOM     46  C   UNL A   1      44.482  26.758  27.031  1.00  0.00     0.049 A 
ATOM     47  H   UNL A   1      43.055  27.757  28.179  1.00  0.00     0.167 HD
ATOM     48  C   UNL A   1      39.781  29.971  30.055  1.00  0.00     0.034 A 
ATOM     49  C   UNL A   1      45.531  27.589  26.874  1.00  0.00     0.034 A 
ATOM     50  C   UNL A   1      40.915  30.857  30.100  1.00  0.00     0.049 A 
ATOM     51  C   UNL A   1      45.469  28.972  27.460  1.00  0.00     0.074 A 
ATOM     52  C   UNL A   1      41.015  32.096  30.709  1.00  0.00     0.029 A 
ATOM     53  N   UNL A   1      42.139  30.609  29.499  1.00  0.00    -0.354 N 
ATOM     54  N   UNL A   1      44.511  29.526  28.162  1.00  0.00    -0.248 NA
ATOM     55  C   UNL A   1      46.636  29.840  27.244  1.00  0.00     0.031 C 
ATOM     56  C   UNL A   1      42.293  32.606  30.458  1.00  0.00     0.029 A 
ATOM     57  C   UNL A   1      42.993  31.681  29.701  1.00  0.00     0.049 A 
ATOM     58  H   UNL A   1      42.369  29.790  29.002  1.00  0.00     0.167 HD
ATOM     59  C   UNL A   1      44.965  30.799  28.489  1.00  0.00     0.074 A 
ATOM     60  C   UNL A   1      46.295  30.925  27.928  1.00  0.00     0.031 C 
ATOM     61  C   UNL A   1      44.328  31.781  29.172  1.00  0.00     0.034 A 
BRANCH  48  62
ATOM     62  C   UNL A   1      38.500  30.433  30.696  1.00  0.00     0.023 A 
ATOM     63  C   UNL A   1      38.248  30.112  32.045  1.00  0.00     0.012 A 
ATOM     64  C   UNL A   1      37.585  31.241  29.993  1.00  0.00     0.148 A 
ATOM     65  C   UNL A   1      37.093  30.568  32.678  1.00  0.00     0.002 A 
ATOM     66  C   UNL A   1      36.452  31.721  30.642  1.00  0.00     0.091 A 
ATOM     67  F   UNL A   1      37.831  31.515  28.704  1.00  0.00    -0.205 F 
ATOM     68  C   UNL A   1      36.201  31.380  31.982  1.00  0.00     0.022 A 
BRANCH  66  69
ATOM     69  S   UNL A   1      35.280  32.824  29.845  1.00  0.00     0.127 S 
ATOM     70  O   UNL A   1      36.124  33.977  29.534  1.00  0.00    -0.237 OA
ATOM     71  O   UNL A   1      34.861  32.045  28.678  1.00  0.00    -0.237 OA
ATOM     72  O   UNL A   1      34.228  33.060  30.823  1.00  0.00    -0.744 OA
ENDBRANCH  66  69
ENDBRANCH  48  62
BRANCH  49  73
ATOM     73  C   UNL A   1      46.740  27.117  26.144  1.00  0.00     0.023 A 
ATOM     74  C   UNL A   1      46.831  27.330  24.755  1.00  0.00     0.012 A 
ATOM     75  C   UNL A   1      47.816  26.509  26.820  1.00  0.00     0.148 A 
ATOM     76  C   UNL A   1      47.967  26.931  24.050  1.00  0.00     0.002 A 
ATOM     77  C   UNL A   1      48.967  26.164  26.120  1.00  0.00     0.091 A 
ATOM     78  F   UNL A   1      47.700  26.294  28.138  1.00  0.00    -0.205 F 
ATOM     79  C   UNL A   1      49.039  26.362  24.732  1.00  0.00     0.022 A 
BRANCH  77  80
ATOM     80  S   UNL A   1      50.442  25.552  26.943  1.00  0.00     0.127 S 
ATOM     81  O   UNL A   1      49.959  24.309  27.538  1.00  0.00    -0.237 OA
ATOM     82  O   UNL A   1      51.368  25.380  25.823  1.00  0.00    -0.237 OA
ATOM     83  O   UNL A   1      50.827  26.599  27.880  1.00  0.00    -0.744 OA
ENDBRANCH  77  80
ENDBRANCH  49  73
BRANCH  61  84
ATOM     84  C   UNL A   1      45.057  33.087  29.357  1.00  0.00     0.023 A 
ATOM     85  C   UNL A   1      45.925  33.243  30.455  1.00  0.00     0.012 A 
ATOM     86  C   UNL A   1      44.948  34.122  28.407  1.00  0.00     0.148 A 
ATOM     87  C   UNL A   1      46.658  34.417  30.619  1.00  0.00     0.002 A 
ATOM     88  C   UNL A   1      45.712  35.274  28.555  1.00  0.00     0.091 A 
ATOM     89  F   UNL A   1      44.103  33.960  27.379  1.00  0.00    -0.205 F 
ATOM     90  C   UNL A   1      46.561  35.427  29.664  1.00  0.00     0.022 A 
BRANCH  88  91
ATOM     91  S   UNL A   1      45.718  36.594  27.336  1.00  0.00     0.127 S 
ATOM     92  O   UNL A   1      46.612  37.570  27.957  1.00  0.00    -0.237 OA
ATOM     93  O   UNL A   1      46.267  35.926  26.156  1.00  0.00    -0.237 OA
ATOM     94  O   UNL A   1      44.331  37.020  27.199  1.00  0.00    -0.744 OA
ENDBRANCH  88  91
ENDBRANCH  61  84
ENDBRANCH  35  36
ENDBRANCH  28  30
ENDBRANCH  27  28
ENDBRANCH  26  27
ENDBRANCH   1  26
TORSDOF 19
ENDMDL
MODEL 3
REMARK VINA RESULT:     -11.1      1.728      2.090
REMARK SMILES [NH3+]C1CC[NH+](CC(=O)N2CCO[C@H](CC(=O)OCCOC(=O)c3ccc(-c4c5nc(c(-c6cccc(S(=O)(=O)[O-])c6F)c6ccc([nH]6)c(-c6cccc(S(=O)(=O)[O-])c6F)c6nc(c(-c7cccc(S(=O)(=O)[O-])c7F)c7ccc4[nH]7)C=C6)C=C5)cc3)C2)CC1
REMARK SMILES IDX 18 1 17 2 15 3 16 4 14 5 13 6 9 7 10 8 86 9 11 10 12 11 7 12
REMARK SMILES IDX 8 13 6 14 5 15 2 16 3 17 88 18 4 19 87 20 1 22 19 26 20 27
REMARK SMILES IDX 21 28 22 29 23 30 24 31 85 32 25 33 84 34 26 35 27 36 28 37
REMARK SMILES IDX 78 38 29 39 83 40 77 41 79 42 30 43 82 44 76 45 75 46 31 48
REMARK SMILES IDX 63 49 43 50 62 51 44 52 47 53 61 54 80 55 45 56 46 57 60 59
REMARK SMILES IDX 81 60 48 61 32 62 33 63 41 64 34 65 36 66 42 67 35 68 37 69
REMARK SMILES IDX 38 70 39 71 40 72 64 73 65 74 73 75 66 76 68 77 74 78 67 79
REMARK SMILES IDX 69 80 70 81 71 82 72 83 49 84 50 85 58 86 51 87 53 88 59 89
REMARK SMILES IDX 52 90 54 91 55 92 56 93 57 94
REMARK H PARENT 5 21 1 23 1 24 1 25 79 47 47 58
REMARK Flexibility Score: inf
ROOT
ATOM      1  C   UNL A   1      31.686  29.696  24.555  1.00  0.00     0.274 C 
ENDROOT
BRANCH   1   2
ATOM      2  O   UNL A   1      30.307  29.695  24.150  1.00  0.00    -0.462 OA
BRANCH   2   3
ATOM      3  C   UNL A   1      30.011  28.909  23.088  1.00  0.00     0.308 C 
ATOM      4  O   UNL A   1      30.108  29.240  21.913  1.00  0.00    -0.252 OA
BRANCH   3   5
ATOM      5  C   UNL A   1      29.485  27.565  23.496  1.00  0.00     0.156 C 
BRANCH   5   6
ATOM      6  C   UNL A   1      30.517  26.658  24.185  1.00  0.00     0.148 C 
ATOM      7  N   UNL A   1      32.105  24.797  23.442  1.00  0.00    -0.333 N 
ATOM      8  C   UNL A   1      31.394  23.914  24.363  1.00  0.00     0.148 C 
ATOM      9  C   UNL A   1      31.392  26.016  23.092  1.00  0.00     0.152 C 
ATOM     10  C   UNL A   1      30.709  24.696  25.483  1.00  0.00     0.182 C 
ATOM     11  O   UNL A   1      29.796  25.654  24.928  1.00  0.00    -0.374 OA
BRANCH   7  12
ATOM     12  C   UNL A   1      33.031  24.220  22.564  1.00  0.00     0.277 C 
ATOM     13  O   UNL A   1      33.010  24.483  21.357  1.00  0.00    -0.268 OA
BRANCH  12  14
ATOM     14  C   UNL A   1      33.997  23.157  23.119  1.00  0.00     0.363 C 
BRANCH  14  15
ATOM     15  N   UNL A   1      35.290  23.625  23.625  1.00  0.00    -0.327 N 
ATOM     16  C   UNL A   1      37.166  22.575  25.653  1.00  0.00     0.192 C 
ATOM     17  C   UNL A   1      35.866  23.296  26.035  1.00  0.00     0.126 C 
ATOM     18  C   UNL A   1      37.039  21.969  24.257  1.00  0.00     0.126 C 
ATOM     19  C   UNL A   1      35.344  24.234  24.945  1.00  0.00     0.268 C 
ATOM     20  C   UNL A   1      36.504  22.948  23.214  1.00  0.00     0.268 C 
ATOM     21  H   UNL A   1      35.308  24.436  23.008  1.00  0.00     0.348 HD
BRANCH  16  22
ATOM     22  N   UNL A   1      38.339  23.445  25.751  1.00  0.00    -0.355 N 
ATOM     23  H   UNL A   1      39.175  22.917  25.498  1.00  0.00     0.344 HD
ATOM     24  H   UNL A   1      38.430  23.786  26.708  1.00  0.00     0.344 HD
ATOM     25  H   UNL A   1      38.231  24.235  25.116  1.00  0.00     0.344 HD
ENDBRANCH  16  22
ENDBRANCH  14  15
ENDBRANCH  12  14
ENDBRANCH   7  12
ENDBRANCH   5   6
ENDBRANCH   3   5
ENDBRANCH   2   3
ENDBRANCH   1   2
BRANCH   1  26
ATOM     26  C   UNL A   1      31.841  30.298  25.953  1.00  0.00     0.275 C 
BRANCH  26  27
ATOM     27  O   UNL A   1      33.212  30.317  26.394  1.00  0.00    -0.458 OA
BRANCH  27  28
ATOM     28  C   UNL A   1      33.561  31.307  27.248  1.00  0.00     0.338 C 
ATOM     29  O   UNL A   1      32.921  32.304  27.531  1.00  0.00    -0.246 OA
BRANCH  28  30
ATOM     30  C   UNL A   1      34.844  30.980  27.885  1.00  0.00     0.060 A 
ATOM     31  C   UNL A   1      35.816  31.977  28.001  1.00  0.00     0.016 A 
ATOM     32  C   UNL A   1      35.101  29.675  28.308  1.00  0.00     0.016 A 
ATOM     33  C   UNL A   1      37.056  31.671  28.566  1.00  0.00     0.010 A 
ATOM     34  C   UNL A   1      36.338  29.375  28.882  1.00  0.00     0.010 A 
ATOM     35  C   UNL A   1      37.322  30.369  29.019  1.00  0.00    -0.014 A 
BRANCH  35  36
ATOM     36  C   UNL A   1      38.594  30.037  29.707  1.00  0.00     0.031 A 
ATOM     37  C   UNL A   1      39.524  29.002  29.140  1.00  0.00     0.074 A 
ATOM     38  C   UNL A   1      38.855  30.596  30.904  1.00  0.00     0.049 A 
ATOM     39  N   UNL A   1      40.594  28.477  29.675  1.00  0.00    -0.248 NA
ATOM     40  C   UNL A   1      39.203  28.488  27.799  1.00  0.00     0.031 C 
ATOM     41  C   UNL A   1      38.014  31.594  31.567  1.00  0.00     0.029 A 
ATOM     42  N   UNL A   1      39.875  30.372  31.795  1.00  0.00    -0.354 N 
ATOM     43  C   UNL A   1      41.060  27.544  28.757  1.00  0.00     0.074 A 
ATOM     44  C   UNL A   1      40.153  27.577  27.628  1.00  0.00     0.031 C 
ATOM     45  C   UNL A   1      38.534  31.873  32.772  1.00  0.00     0.029 A 
ATOM     46  C   UNL A   1      39.717  31.044  32.984  1.00  0.00     0.049 A 
ATOM     47  H   UNL A   1      40.644  29.788  31.601  1.00  0.00     0.167 HD
ATOM     48  C   UNL A   1      42.151  26.747  28.841  1.00  0.00     0.034 A 
ATOM     49  C   UNL A   1      40.419  30.972  34.132  1.00  0.00     0.034 A 
ATOM     50  C   UNL A   1      43.067  26.740  29.952  1.00  0.00     0.049 A 
ATOM     51  C   UNL A   1      41.604  30.050  34.214  1.00  0.00     0.074 A 
ATOM     52  C   UNL A   1      44.246  26.029  30.091  1.00  0.00     0.029 A 
ATOM     53  N   UNL A   1      42.899  27.464  31.122  1.00  0.00    -0.354 N 
ATOM     54  N   UNL A   1      42.110  29.276  33.285  1.00  0.00    -0.248 NA
ATOM     55  C   UNL A   1      42.323  30.001  35.495  1.00  0.00     0.031 C 
ATOM     56  C   UNL A   1      44.780  26.307  31.354  1.00  0.00     0.029 A 
ATOM     57  C   UNL A   1      43.939  27.199  31.998  1.00  0.00     0.049 A 
ATOM     58  H   UNL A   1      42.150  28.077  31.304  1.00  0.00     0.167 HD
ATOM     59  C   UNL A   1      43.217  28.663  33.861  1.00  0.00     0.074 A 
ATOM     60  C   UNL A   1      43.321  29.175  35.213  1.00  0.00     0.031 C 
ATOM     61  C   UNL A   1      44.056  27.743  33.326  1.00  0.00     0.034 A 
BRANCH  48  62
ATOM     62  C   UNL A   1      42.448  25.837  27.679  1.00  0.00     0.023 A 
ATOM     63  C   UNL A   1      43.213  26.324  26.599  1.00  0.00     0.012 A 
ATOM     64  C   UNL A   1      42.037  24.490  27.684  1.00  0.00     0.148 A 
ATOM     65  C   UNL A   1      43.545  25.490  25.532  1.00  0.00     0.002 A 
ATOM     66  C   UNL A   1      42.401  23.656  26.633  1.00  0.00     0.091 A 
ATOM     67  F   UNL A   1      41.290  24.053  28.708  1.00  0.00    -0.205 F 
ATOM     68  C   UNL A   1      43.148  24.156  25.553  1.00  0.00     0.022 A 
BRANCH  66  69
ATOM     69  S   UNL A   1      41.990  21.907  26.604  1.00  0.00     0.127 S 
ATOM     70  O   UNL A   1      42.653  21.468  25.377  1.00  0.00    -0.237 OA
ATOM     71  O   UNL A   1      42.609  21.421  27.838  1.00  0.00    -0.237 OA
ATOM     72  O   UNL A   1      40.535  21.841  26.591  1.00  0.00    -0.744 OA
ENDBRANCH  66  69
ENDBRANCH  48  62
BRANCH  49  73
ATOM     73  C   UNL A   1      40.025  31.821  35.290  1.00  0.00     0.023 A 
ATOM     74  C   UNL A   1      40.535  33.130  35.389  1.00  0.00     0.012 A 
ATOM     75  C   UNL A   1      39.113  31.363  36.261  1.00  0.00     0.148 A 
ATOM     76  C   UNL A   1      40.156  33.961  36.443  1.00  0.00     0.002 A 
ATOM     77  C   UNL A   1      38.697  32.215  37.277  1.00  0.00     0.091 A 
ATOM     78  F   UNL A   1      38.656  30.106  36.162  1.00  0.00    -0.205 F 
ATOM     79  C   UNL A   1      39.228  33.510  37.378  1.00  0.00     0.022 A 
BRANCH  77  80
ATOM     80  S   UNL A   1      37.406  31.760  38.441  1.00  0.00     0.127 S 
ATOM     81  O   UNL A   1      36.355  32.719  38.113  1.00  0.00    -0.237 OA
ATOM     82  O   UNL A   1      37.121  30.377  38.057  1.00  0.00    -0.237 OA
ATOM     83  O   UNL A   1      38.007  31.899  39.761  1.00  0.00    -0.744 OA
ENDBRANCH  77  80
ENDBRANCH  49  73
BRANCH  61  84
ATOM     84  C   UNL A   1      45.167  27.222  34.199  1.00  0.00     0.023 A 
ATOM     85  C   UNL A   1      46.405  27.895  34.214  1.00  0.00     0.012 A 
ATOM     86  C   UNL A   1      44.965  26.124  35.058  1.00  0.00     0.148 A 
ATOM     87  C   UNL A   1      47.432  27.472  35.057  1.00  0.00     0.002 A 
ATOM     88  C   UNL A   1      45.980  25.733  35.925  1.00  0.00     0.091 A 
ATOM     89  F   UNL A   1      43.787  25.487  35.015  1.00  0.00    -0.205 F 
ATOM     90  C   UNL A   1      47.216  26.400  35.919  1.00  0.00     0.022 A 
BRANCH  88  91
ATOM     91  S   UNL A   1      45.769  24.417  37.129  1.00  0.00     0.127 S 
ATOM     92  O   UNL A   1      47.092  24.366  37.751  1.00  0.00    -0.237 OA
ATOM     93  O   UNL A   1      44.711  24.947  37.989  1.00  0.00    -0.237 OA
ATOM     94  O   UNL A   1      45.393  23.232  36.368  1.00  0.00    -0.744 OA
ENDBRANCH  88  91
ENDBRANCH  61  84
ENDBRANCH  35  36
ENDBRANCH  28  30
ENDBRANCH  27  28
ENDBRANCH  26  27
ENDBRANCH   1  26
TORSDOF 19
ENDMDL
