MODEL 1
REMARK VINA RESULT:     -11.0      0.000      0.000
REMARK SMILES CC(C)Cc1ccc([C@@H](C)C(=O)OCCOC(=O)c2ccc(-c3c4nc(c(-c5cccc(S(=O)(=O)[O-])c5F)c5ccc([nH]5)c(-c5cccc(S(=O)(=O)[O-])c5F)c5nc(c(-c6cccc(S(=O)(=O)[O-])c6F)c6ccc3[nH]6)C=C5)C=C4)cc2)cc1
REMARK SMILES IDX 14 1 13 2 11 3 12 4 9 5 10 6 8 7 5 8 6 9 83 10 7 11 82 12
REMARK SMILES IDX 4 13 2 14 1 15 3 16 15 17 16 18 17 19 18 20 19 21 20 22
REMARK SMILES IDX 81 23 21 24 80 25 22 26 23 27 24 28 74 29 25 30 79 31 73 32
REMARK SMILES IDX 75 33 26 34 78 35 72 36 71 37 27 39 59 40 39 41 58 42 40 43
REMARK SMILES IDX 43 44 57 45 76 46 41 47 42 48 56 50 77 51 44 52 28 53 29 54
REMARK SMILES IDX 37 55 30 56 32 57 38 58 31 59 33 60 34 61 35 62 36 63 60 64
REMARK SMILES IDX 61 65 69 66 62 67 64 68 70 69 63 70 65 71 66 72 67 73 68 74
REMARK SMILES IDX 45 75 46 76 54 77 47 78 49 79 55 80 48 81 50 82 51 83 52 84
REMARK SMILES IDX 53 85
REMARK H PARENT 75 38 43 49
REMARK Flexibility Score: inf
ROOT
ATOM      1  C   UNL A   1      35.779  21.082  25.473  1.00  0.00     0.274 C 
ENDROOT
BRANCH   1   2
ATOM      2  O   UNL A   1      35.832  22.483  25.144  1.00  0.00    -0.462 OA
BRANCH   2   3
ATOM      3  C   UNL A   1      35.219  22.859  23.992  1.00  0.00     0.313 C 
ATOM      4  O   UNL A   1      35.811  23.096  22.943  1.00  0.00    -0.252 OA
BRANCH   3   5
ATOM      5  C   UNL A   1      33.713  23.040  24.122  1.00  0.00     0.126 C 
ATOM      6  C   UNL A   1      33.061  22.944  22.742  1.00  0.00     0.025 C 
BRANCH   5   7
ATOM      7  C   UNL A   1      33.244  24.264  24.895  1.00  0.00    -0.034 A 
ATOM      8  C   UNL A   1      32.273  26.559  26.227  1.00  0.00    -0.048 A 
ATOM      9  C   UNL A   1      33.581  26.524  25.731  1.00  0.00     0.004 A 
ATOM     10  C   UNL A   1      31.466  25.428  26.087  1.00  0.00     0.004 A 
ATOM     11  C   UNL A   1      34.060  25.389  25.073  1.00  0.00     0.005 A 
ATOM     12  C   UNL A   1      31.942  24.298  25.420  1.00  0.00     0.005 A 
BRANCH   8  13
ATOM     13  C   UNL A   1      31.717  27.821  26.840  1.00  0.00     0.038 C 
BRANCH  13  14
ATOM     14  C   UNL A   1      32.073  29.077  26.017  1.00  0.00    -0.013 C 
ATOM     15  C   UNL A   1      31.177  29.235  24.784  1.00  0.00     0.008 C 
ATOM     16  C   UNL A   1      31.968  30.326  26.893  1.00  0.00     0.008 C 
ENDBRANCH  13  14
ENDBRANCH   8  13
ENDBRANCH   5   7
ENDBRANCH   3   5
ENDBRANCH   2   3
ENDBRANCH   1   2
BRANCH   1  17
ATOM     17  C   UNL A   1      37.039  20.354  25.003  1.00  0.00     0.275 C 
BRANCH  17  18
ATOM     18  O   UNL A   1      38.171  21.241  24.981  1.00  0.00    -0.458 OA
BRANCH  18  19
ATOM     19  C   UNL A   1      39.122  20.973  25.904  1.00  0.00     0.338 C 
ATOM     20  O   UNL A   1      39.633  19.893  26.147  1.00  0.00    -0.246 OA
BRANCH  19  21
ATOM     21  C   UNL A   1      39.561  22.218  26.551  1.00  0.00     0.060 A 
ATOM     22  C   UNL A   1      38.968  23.412  26.138  1.00  0.00     0.016 A 
ATOM     23  C   UNL A   1      40.630  22.228  27.447  1.00  0.00     0.016 A 
ATOM     24  C   UNL A   1      39.474  24.632  26.575  1.00  0.00     0.010 A 
ATOM     25  C   UNL A   1      41.126  23.455  27.902  1.00  0.00     0.010 A 
ATOM     26  C   UNL A   1      40.577  24.664  27.439  1.00  0.00    -0.014 A 
BRANCH  26  27
ATOM     27  C   UNL A   1      41.197  25.968  27.778  1.00  0.00     0.031 A 
ATOM     28  C   UNL A   1      42.602  26.265  27.329  1.00  0.00     0.074 A 
ATOM     29  C   UNL A   1      40.496  26.891  28.464  1.00  0.00     0.049 A 
ATOM     30  N   UNL A   1      43.320  27.341  27.525  1.00  0.00    -0.248 NA
ATOM     31  C   UNL A   1      43.292  25.215  26.562  1.00  0.00     0.031 C 
ATOM     32  C   UNL A   1      39.129  26.722  28.954  1.00  0.00     0.029 A 
ATOM     33  N   UNL A   1      40.845  28.154  28.872  1.00  0.00    -0.354 N 
ATOM     34  C   UNL A   1      44.556  27.083  26.943  1.00  0.00     0.074 A 
ATOM     35  C   UNL A   1      44.493  25.749  26.387  1.00  0.00     0.031 C 
ATOM     36  C   UNL A   1      38.757  27.836  29.607  1.00  0.00     0.029 A 
ATOM     37  C   UNL A   1      39.865  28.788  29.599  1.00  0.00     0.049 A 
ATOM     38  H   UNL A   1      41.715  28.567  28.666  1.00  0.00     0.167 HD
ATOM     39  C   UNL A   1      45.639  27.891  26.863  1.00  0.00     0.034 A 
ATOM     40  C   UNL A   1      39.864  29.996  30.196  1.00  0.00     0.034 A 
ATOM     41  C   UNL A   1      45.684  29.238  27.362  1.00  0.00     0.049 A 
ATOM     42  C   UNL A   1      41.075  30.880  30.067  1.00  0.00     0.074 A 
ATOM     43  C   UNL A   1      46.719  30.154  27.273  1.00  0.00     0.029 A 
ATOM     44  N   UNL A   1      44.653  29.865  28.040  1.00  0.00    -0.354 N 
ATOM     45  N   UNL A   1      42.188  30.667  29.407  1.00  0.00    -0.248 NA
ATOM     46  C   UNL A   1      41.020  32.186  30.743  1.00  0.00     0.031 C 
ATOM     47  C   UNL A   1      46.312  31.335  27.903  1.00  0.00     0.029 A 
ATOM     48  C   UNL A   1      45.024  31.155  28.381  1.00  0.00     0.049 A 
ATOM     49  H   UNL A   1      43.782  29.455  28.249  1.00  0.00     0.167 HD
ATOM     50  C   UNL A   1      42.951  31.817  29.565  1.00  0.00     0.074 A 
ATOM     51  C   UNL A   1      42.163  32.738  30.358  1.00  0.00     0.031 C 
ATOM     52  C   UNL A   1      44.203  32.081  29.116  1.00  0.00     0.034 A 
BRANCH  39  53
ATOM     53  C   UNL A   1      46.860  27.358  26.163  1.00  0.00     0.023 A 
ATOM     54  C   UNL A   1      47.018  27.582  24.781  1.00  0.00     0.012 A 
ATOM     55  C   UNL A   1      47.878  26.702  26.881  1.00  0.00     0.148 A 
ATOM     56  C   UNL A   1      48.164  27.146  24.120  1.00  0.00     0.002 A 
ATOM     57  C   UNL A   1      49.032  26.298  26.221  1.00  0.00     0.091 A 
ATOM     58  F   UNL A   1      47.695  26.478  28.191  1.00  0.00    -0.205 F 
ATOM     59  C   UNL A   1      49.175  26.514  24.841  1.00  0.00     0.022 A 
BRANCH  57  60
ATOM     60  S   UNL A   1      50.417  25.531  27.073  1.00  0.00     0.127 S 
ATOM     61  O   UNL A   1      49.787  24.345  27.650  1.00  0.00    -0.237 OA
ATOM     62  O   UNL A   1      51.342  25.255  25.973  1.00  0.00    -0.237 OA
ATOM     63  O   UNL A   1      50.893  26.518  28.032  1.00  0.00    -0.744 OA
ENDBRANCH  57  60
ENDBRANCH  39  53
BRANCH  40  64
ATOM     64  C   UNL A   1      38.653  30.467  30.926  1.00  0.00     0.023 A 
ATOM     65  C   UNL A   1      38.554  30.246  32.313  1.00  0.00     0.012 A 
ATOM     66  C   UNL A   1      37.609  31.139  30.262  1.00  0.00     0.148 A 
ATOM     67  C   UNL A   1      37.425  30.662  33.021  1.00  0.00     0.002 A 
ATOM     68  C   UNL A   1      36.511  31.596  30.983  1.00  0.00     0.091 A 
ATOM     69  F   UNL A   1      37.703  31.318  28.937  1.00  0.00    -0.205 F 
ATOM     70  C   UNL A   1      36.409  31.346  32.359  1.00  0.00     0.022 A 
BRANCH  68  71
ATOM     71  S   UNL A   1      35.235  32.596  30.208  1.00  0.00     0.127 S 
ATOM     72  O   UNL A   1      34.308  32.816  31.314  1.00  0.00    -0.237 OA
ATOM     73  O   UNL A   1      35.979  33.784  29.784  1.00  0.00    -0.237 OA
ATOM     74  O   UNL A   1      34.743  31.782  29.103  1.00  0.00    -0.744 OA
ENDBRANCH  68  71
ENDBRANCH  40  64
BRANCH  52  75
ATOM     75  C   UNL A   1      44.798  33.421  29.456  1.00  0.00     0.023 A 
ATOM     76  C   UNL A   1      45.530  33.567  30.651  1.00  0.00     0.012 A 
ATOM     77  C   UNL A   1      44.696  34.510  28.570  1.00  0.00     0.148 A 
ATOM     78  C   UNL A   1      46.129  34.785  30.971  1.00  0.00     0.002 A 
ATOM     79  C   UNL A   1      45.329  35.709  28.877  1.00  0.00     0.091 A 
ATOM     80  F   UNL A   1      43.976  34.361  27.448  1.00  0.00    -0.205 F 
ATOM     81  C   UNL A   1      46.038  35.852  30.080  1.00  0.00     0.022 A 
BRANCH  79  82
ATOM     82  S   UNL A   1      45.327  37.096  27.733  1.00  0.00     0.127 S 
ATOM     83  O   UNL A   1      46.085  38.100  28.476  1.00  0.00    -0.237 OA
ATOM     84  O   UNL A   1      46.020  36.549  26.565  1.00  0.00    -0.237 OA
ATOM     85  O   UNL A   1      43.922  37.402  27.500  1.00  0.00    -0.744 OA
ENDBRANCH  79  82
ENDBRANCH  52  75
ENDBRANCH  26  27
ENDBRANCH  19  21
ENDBRANCH  18  19
ENDBRANCH  17  18
ENDBRANCH   1  17
TORSDOF 17
ENDMDL
MODEL 2
REMARK VINA RESULT:     -10.6      0.738      8.083
REMARK SMILES CC(C)Cc1ccc([C@@H](C)C(=O)OCCOC(=O)c2ccc(-c3c4nc(c(-c5cccc(S(=O)(=O)[O-])c5F)c5ccc([nH]5)c(-c5cccc(S(=O)(=O)[O-])c5F)c5nc(c(-c6cccc(S(=O)(=O)[O-])c6F)c6ccc3[nH]6)C=C5)C=C4)cc2)cc1
REMARK SMILES IDX 14 1 13 2 11 3 12 4 9 5 10 6 8 7 5 8 6 9 83 10 7 11 82 12
REMARK SMILES IDX 4 13 2 14 1 15 3 16 15 17 16 18 17 19 18 20 19 21 20 22
REMARK SMILES IDX 81 23 21 24 80 25 22 26 23 27 24 28 74 29 25 30 79 31 73 32
REMARK SMILES IDX 75 33 26 34 78 35 72 36 71 37 27 39 59 40 39 41 58 42 40 43
REMARK SMILES IDX 43 44 57 45 76 46 41 47 42 48 56 50 77 51 44 52 28 53 29 54
REMARK SMILES IDX 37 55 30 56 32 57 38 58 31 59 33 60 34 61 35 62 36 63 60 64
REMARK SMILES IDX 61 65 69 66 62 67 64 68 70 69 63 70 65 71 66 72 67 73 68 74
REMARK SMILES IDX 45 75 46 76 54 77 47 78 49 79 55 80 48 81 50 82 51 83 52 84
REMARK SMILES IDX 53 85
REMARK H PARENT 75 38 43 49
REMARK Flexibility Score: inf
ROOT
ATOM      1  C   UNL A   1      35.750  20.656  24.996  1.00  0.00     0.274 C 
ENDROOT
BRANCH   1   2
ATOM      2  O   UNL A   1      35.787  22.096  24.965  1.00  0.00    -0.462 OA
BRANCH   2   3
ATOM      3  C   UNL A   1      35.471  22.684  23.782  1.00  0.00     0.313 C 
ATOM      4  O   UNL A   1      36.264  22.847  22.860  1.00  0.00    -0.252 OA
BRANCH   3   5
ATOM      5  C   UNL A   1      34.042  23.205  23.713  1.00  0.00     0.126 C 
ATOM      6  C   UNL A   1      33.444  22.890  22.342  1.00  0.00     0.025 C 
BRANCH   5   7
ATOM      7  C   UNL A   1      33.832  24.659  24.111  1.00  0.00    -0.034 A 
ATOM      8  C   UNL A   1      33.566  27.390  24.784  1.00  0.00    -0.048 A 
ATOM      9  C   UNL A   1      33.710  26.422  25.784  1.00  0.00     0.004 A 
ATOM     10  C   UNL A   1      33.519  26.982  23.449  1.00  0.00     0.004 A 
ATOM     11  C   UNL A   1      33.840  25.071  25.451  1.00  0.00     0.005 A 
ATOM     12  C   UNL A   1      33.660  25.634  23.117  1.00  0.00     0.005 A 
BRANCH   8  13
ATOM     13  C   UNL A   1      33.536  28.857  25.134  1.00  0.00     0.038 C 
BRANCH  13  14
ATOM     14  C   UNL A   1      33.511  29.095  26.659  1.00  0.00    -0.013 C 
ATOM     15  C   UNL A   1      34.905  29.392  27.222  1.00  0.00     0.008 C 
ATOM     16  C   UNL A   1      32.564  30.247  26.996  1.00  0.00     0.008 C 
ENDBRANCH  13  14
ENDBRANCH   8  13
ENDBRANCH   5   7
ENDBRANCH   3   5
ENDBRANCH   2   3
ENDBRANCH   1   2
BRANCH   1  17
ATOM     17  C   UNL A   1      37.161  20.065  25.021  1.00  0.00     0.275 C 
BRANCH  17  18
ATOM     18  O   UNL A   1      38.154  21.101  25.125  1.00  0.00    -0.458 OA
BRANCH  18  19
ATOM     19  C   UNL A   1      39.126  20.866  26.034  1.00  0.00     0.338 C 
ATOM     20  O   UNL A   1      39.622  19.791  26.326  1.00  0.00    -0.246 OA
BRANCH  19  21
ATOM     21  C   UNL A   1      39.611  22.136  26.592  1.00  0.00     0.060 A 
ATOM     22  C   UNL A   1      39.022  23.316  26.135  1.00  0.00     0.016 A 
ATOM     23  C   UNL A   1      40.714  22.177  27.445  1.00  0.00     0.016 A 
ATOM     24  C   UNL A   1      39.565  24.549  26.482  1.00  0.00     0.010 A 
ATOM     25  C   UNL A   1      41.248  23.418  27.810  1.00  0.00     0.010 A 
ATOM     26  C   UNL A   1      40.701  24.609  27.301  1.00  0.00    -0.014 A 
BRANCH  26  27
ATOM     27  C   UNL A   1      41.355  25.918  27.541  1.00  0.00     0.031 A 
ATOM     28  C   UNL A   1      40.634  26.979  28.328  1.00  0.00     0.074 A 
ATOM     29  C   UNL A   1      42.598  26.147  27.078  1.00  0.00     0.049 A 
ATOM     30  N   UNL A   1      41.031  28.185  28.644  1.00  0.00    -0.248 NA
ATOM     31  C   UNL A   1      39.288  26.643  28.823  1.00  0.00     0.031 C 
ATOM     32  C   UNL A   1      43.399  25.201  26.303  1.00  0.00     0.029 A 
ATOM     33  N   UNL A   1      43.401  27.255  27.188  1.00  0.00    -0.354 N 
ATOM     34  C   UNL A   1      39.974  28.764  29.336  1.00  0.00     0.074 A 
ATOM     35  C   UNL A   1      38.915  27.779  29.395  1.00  0.00     0.031 C 
ATOM     36  C   UNL A   1      44.577  25.770  25.997  1.00  0.00     0.029 A 
ATOM     37  C   UNL A   1      44.606  27.128  26.536  1.00  0.00     0.049 A 
ATOM     38  H   UNL A   1      43.140  28.064  27.684  1.00  0.00     0.167 HD
ATOM     39  C   UNL A   1      39.898  29.997  29.890  1.00  0.00     0.034 A 
ATOM     40  C   UNL A   1      45.614  28.009  26.386  1.00  0.00     0.034 A 
ATOM     41  C   UNL A   1      40.970  30.955  29.885  1.00  0.00     0.049 A 
ATOM     42  C   UNL A   1      45.509  29.364  27.034  1.00  0.00     0.074 A 
ATOM     43  C   UNL A   1      41.006  32.208  30.472  1.00  0.00     0.029 A 
ATOM     44  N   UNL A   1      42.195  30.768  29.266  1.00  0.00    -0.354 N 
ATOM     45  N   UNL A   1      44.552  29.847  27.790  1.00  0.00    -0.248 NA
ATOM     46  C   UNL A   1      46.637  30.286  26.833  1.00  0.00     0.031 C 
ATOM     47  C   UNL A   1      42.253  32.781  30.203  1.00  0.00     0.029 A 
ATOM     48  C   UNL A   1      42.994  31.883  29.451  1.00  0.00     0.049 A 
ATOM     49  H   UNL A   1      42.459  29.961  28.767  1.00  0.00     0.167 HD
ATOM     50  C   UNL A   1      44.973  31.114  28.174  1.00  0.00     0.074 A 
ATOM     51  C   UNL A   1      46.285  31.314  27.594  1.00  0.00     0.031 C 
ATOM     52  C   UNL A   1      44.323  32.041  28.921  1.00  0.00     0.034 A 
BRANCH  39  53
ATOM     53  C   UNL A   1      38.623  30.370  30.597  1.00  0.00     0.023 A 
ATOM     54  C   UNL A   1      38.385  29.882  31.896  1.00  0.00     0.012 A 
ATOM     55  C   UNL A   1      37.701  31.255  30.007  1.00  0.00     0.148 A 
ATOM     56  C   UNL A   1      37.238  30.255  32.594  1.00  0.00     0.002 A 
ATOM     57  C   UNL A   1      36.575  31.648  30.721  1.00  0.00     0.091 A 
ATOM     58  F   UNL A   1      37.937  31.688  28.760  1.00  0.00    -0.205 F 
ATOM     59  C   UNL A   1      36.340  31.145  32.011  1.00  0.00     0.022 A 
BRANCH  57  60
ATOM     60  S   UNL A   1      35.390  32.838  30.082  1.00  0.00     0.127 S 
ATOM     61  O   UNL A   1      34.538  31.989  29.251  1.00  0.00    -0.237 OA
ATOM     62  O   UNL A   1      34.754  33.329  31.305  1.00  0.00    -0.237 OA
ATOM     63  O   UNL A   1      36.171  33.835  29.363  1.00  0.00    -0.744 OA
ENDBRANCH  57  60
ENDBRANCH  39  53
BRANCH  40  64
ATOM     64  C   UNL A   1      46.839  27.620  25.632  1.00  0.00     0.023 A 
ATOM     65  C   UNL A   1      46.890  27.831  24.240  1.00  0.00     0.012 A 
ATOM     66  C   UNL A   1      47.954  27.057  26.282  1.00  0.00     0.148 A 
ATOM     67  C   UNL A   1      48.018  27.461  23.506  1.00  0.00     0.002 A 
ATOM     68  C   UNL A   1      49.095  26.740  25.551  1.00  0.00     0.091 A 
ATOM     69  F   UNL A   1      47.882  26.836  27.602  1.00  0.00    -0.205 F 
ATOM     70  C   UNL A   1      49.124  26.927  24.162  1.00  0.00     0.022 A 
BRANCH  68  71
ATOM     71  S   UNL A   1      50.594  26.170  26.360  1.00  0.00     0.127 S 
ATOM     72  O   UNL A   1      51.509  26.022  25.233  1.00  0.00    -0.237 OA
ATOM     73  O   UNL A   1      50.906  27.278  27.264  1.00  0.00    -0.237 OA
ATOM     74  O   UNL A   1      50.206  24.941  27.043  1.00  0.00    -0.744 OA
ENDBRANCH  68  71
ENDBRANCH  40  64
BRANCH  52  75
ATOM     75  C   UNL A   1      45.021  33.351  29.166  1.00  0.00     0.023 A 
ATOM     76  C   UNL A   1      45.831  33.498  30.309  1.00  0.00     0.012 A 
ATOM     77  C   UNL A   1      44.935  34.407  28.239  1.00  0.00     0.148 A 
ATOM     78  C   UNL A   1      46.524  34.686  30.539  1.00  0.00     0.002 A 
ATOM     79  C   UNL A   1      45.661  35.574  28.456  1.00  0.00     0.091 A 
ATOM     80  F   UNL A   1      44.141  34.261  27.168  1.00  0.00    -0.205 F 
ATOM     81  C   UNL A   1      46.448  35.718  29.608  1.00  0.00     0.022 A 
BRANCH  79  82
ATOM     82  S   UNL A   1      45.678  36.909  27.253  1.00  0.00     0.127 S 
ATOM     83  O   UNL A   1      44.265  37.272  27.184  1.00  0.00    -0.237 OA
ATOM     84  O   UNL A   1      46.533  37.909  27.896  1.00  0.00    -0.237 OA
ATOM     85  O   UNL A   1      46.247  36.332  26.042  1.00  0.00    -0.744 OA
ENDBRANCH  79  82
ENDBRANCH  52  75
ENDBRANCH  26  27
ENDBRANCH  19  21
ENDBRANCH  18  19
ENDBRANCH  17  18
ENDBRANCH   1  17
TORSDOF 17
ENDMDL
MODEL 3
REMARK VINA RESULT:     -10.5      4.921     10.449
REMARK SMILES CC(C)Cc1ccc([C@@H](C)C(=O)OCCOC(=O)c2ccc(-c3c4nc(c(-c5cccc(S(=O)(=O)[O-])c5F)c5ccc([nH]5)c(-c5cccc(S(=O)(=O)[O-])c5F)c5nc(c(-c6cccc(S(=O)(=O)[O-])c6F)c6ccc3[nH]6)C=C5)C=C4)cc2)cc1
REMARK SMILES IDX 14 1 13 2 11 3 12 4 9 5 10 6 8 7 5 8 6 9 83 10 7 11 82 12
REMARK SMILES IDX 4 13 2 14 1 15 3 16 15 17 16 18 17 19 18 20 19 21 20 22
REMARK SMILES IDX 81 23 21 24 80 25 22 26 23 27 24 28 74 29 25 30 79 31 73 32
REMARK SMILES IDX 75 33 26 34 78 35 72 36 71 37 27 39 59 40 39 41 58 42 40 43
REMARK SMILES IDX 43 44 57 45 76 46 41 47 42 48 56 50 77 51 44 52 28 53 29 54
REMARK SMILES IDX 37 55 30 56 32 57 38 58 31 59 33 60 34 61 35 62 36 63 60 64
REMARK SMILES IDX 61 65 69 66 62 67 64 68 70 69 63 70 65 71 66 72 67 73 68 74
REMARK SMILES IDX 45 75 46 76 54 77 47 78 49 79 55 80 48 81 50 82 51 83 52 84
REMARK SMILES IDX 53 85
REMARK H PARENT 75 38 43 49
REMARK Flexibility Score: inf
ROOT
ATOM      1  C   UNL A   1      31.421  31.082  26.119  1.00  0.00     0.274 C 
ENDROOT
BRANCH   1   2
ATOM      2  O   UNL A   1      32.617  30.310  26.337  1.00  0.00    -0.462 OA
BRANCH   2   3
ATOM      3  C   UNL A   1      32.448  29.062  26.848  1.00  0.00     0.313 C 
ATOM      4  O   UNL A   1      31.427  28.683  27.413  1.00  0.00    -0.252 OA
BRANCH   3   5
ATOM      5  C   UNL A   1      33.678  28.173  26.729  1.00  0.00     0.126 C 
ATOM      6  C   UNL A   1      34.935  29.040  26.653  1.00  0.00     0.025 C 
BRANCH   5   7
ATOM      7  C   UNL A   1      33.644  27.115  25.636  1.00  0.00    -0.034 A 
ATOM      8  C   UNL A   1      33.437  25.163  23.604  1.00  0.00    -0.048 A 
ATOM      9  C   UNL A   1      33.932  24.824  24.869  1.00  0.00     0.004 A 
ATOM     10  C   UNL A   1      33.081  26.489  23.350  1.00  0.00     0.004 A 
ATOM     11  C   UNL A   1      34.035  25.789  25.872  1.00  0.00     0.005 A 
ATOM     12  C   UNL A   1      33.174  27.451  24.357  1.00  0.00     0.005 A 
BRANCH   8  13
ATOM     13  C   UNL A   1      33.221  24.101  22.554  1.00  0.00     0.038 C 
BRANCH  13  14
ATOM     14  C   UNL A   1      32.171  23.056  22.985  1.00  0.00    -0.013 C 
ATOM     15  C   UNL A   1      32.662  22.186  24.146  1.00  0.00     0.008 C 
ATOM     16  C   UNL A   1      30.867  23.752  23.379  1.00  0.00     0.008 C 
ENDBRANCH  13  14
ENDBRANCH   8  13
ENDBRANCH   5   7
ENDBRANCH   3   5
ENDBRANCH   2   3
ENDBRANCH   1   2
BRANCH   1  17
ATOM     17  C   UNL A   1      31.466  32.404  26.888  1.00  0.00     0.275 C 
BRANCH  17  18
ATOM     18  O   UNL A   1      32.728  33.067  26.702  1.00  0.00    -0.458 OA
BRANCH  18  19
ATOM     19  C   UNL A   1      33.264  33.595  27.826  1.00  0.00     0.338 C 
ATOM     20  O   UNL A   1      32.798  34.482  28.520  1.00  0.00    -0.246 OA
BRANCH  19  21
ATOM     21  C   UNL A   1      34.491  32.871  28.186  1.00  0.00     0.060 A 
ATOM     22  C   UNL A   1      34.358  31.654  28.856  1.00  0.00     0.016 A 
ATOM     23  C   UNL A   1      35.749  33.441  27.991  1.00  0.00     0.016 A 
ATOM     24  C   UNL A   1      35.478  31.022  29.387  1.00  0.00     0.010 A 
ATOM     25  C   UNL A   1      36.878  32.794  28.509  1.00  0.00     0.010 A 
ATOM     26  C   UNL A   1      36.745  31.602  29.242  1.00  0.00    -0.014 A 
BRANCH  26  27
ATOM     27  C   UNL A   1      37.906  30.996  29.938  1.00  0.00     0.031 A 
ATOM     28  C   UNL A   1      38.213  31.388  31.358  1.00  0.00     0.074 A 
ATOM     29  C   UNL A   1      38.667  30.079  29.309  1.00  0.00     0.049 A 
ATOM     30  N   UNL A   1      39.180  30.976  32.136  1.00  0.00    -0.248 NA
ATOM     31  C   UNL A   1      37.319  32.377  31.983  1.00  0.00     0.031 C 
ATOM     32  C   UNL A   1      38.471  29.617  27.936  1.00  0.00     0.029 A 
ATOM     33  N   UNL A   1      39.764  29.380  29.746  1.00  0.00    -0.354 N 
ATOM     34  C   UNL A   1      39.036  31.681  33.325  1.00  0.00     0.074 A 
ATOM     35  C   UNL A   1      37.890  32.550  33.168  1.00  0.00     0.031 C 
ATOM     36  C   UNL A   1      39.423  28.717  27.637  1.00  0.00     0.029 A 
ATOM     37  C   UNL A   1      40.307  28.554  28.789  1.00  0.00     0.049 A 
ATOM     38  H   UNL A   1      40.129  29.461  30.656  1.00  0.00     0.167 HD
ATOM     39  C   UNL A   1      39.779  31.599  34.454  1.00  0.00     0.034 A 
ATOM     40  C   UNL A   1      41.396  27.763  28.835  1.00  0.00     0.034 A 
ATOM     41  C   UNL A   1      40.883  30.695  34.634  1.00  0.00     0.049 A 
ATOM     42  C   UNL A   1      42.188  27.676  30.113  1.00  0.00     0.074 A 
ATOM     43  C   UNL A   1      41.658  30.499  35.764  1.00  0.00     0.029 A 
ATOM     44  N   UNL A   1      41.365  29.833  33.663  1.00  0.00    -0.354 N 
ATOM     45  N   UNL A   1      41.962  28.258  31.267  1.00  0.00    -0.248 NA
ATOM     46  C   UNL A   1      43.370  26.800  30.104  1.00  0.00     0.031 C 
ATOM     47  C   UNL A   1      42.614  29.520  35.473  1.00  0.00     0.029 A 
ATOM     48  C   UNL A   1      42.432  29.106  34.164  1.00  0.00     0.049 A 
ATOM     49  H   UNL A   1      41.003  29.750  32.751  1.00  0.00     0.167 HD
ATOM     50  C   UNL A   1      42.954  27.799  32.125  1.00  0.00     0.074 A 
ATOM     51  C   UNL A   1      43.766  26.868  31.369  1.00  0.00     0.031 C 
ATOM     52  C   UNL A   1      43.189  28.136  33.417  1.00  0.00     0.034 A 
BRANCH  39  53
ATOM     53  C   UNL A   1      39.396  32.482  35.611  1.00  0.00     0.023 A 
ATOM     54  C   UNL A   1      38.592  31.958  36.642  1.00  0.00     0.012 A 
ATOM     55  C   UNL A   1      39.887  33.797  35.712  1.00  0.00     0.148 A 
ATOM     56  C   UNL A   1      38.267  32.737  37.751  1.00  0.00     0.002 A 
ATOM     57  C   UNL A   1      39.585  34.558  36.836  1.00  0.00     0.091 A 
ATOM     58  F   UNL A   1      40.630  34.282  34.707  1.00  0.00    -0.205 F 
ATOM     59  C   UNL A   1      38.771  34.032  37.853  1.00  0.00     0.022 A 
BRANCH  57  60
ATOM     60  S   UNL A   1      40.237  36.213  37.088  1.00  0.00     0.127 S 
ATOM     61  O   UNL A   1      39.902  36.858  35.820  1.00  0.00    -0.237 OA
ATOM     62  O   UNL A   1      39.457  36.681  38.234  1.00  0.00    -0.237 OA
ATOM     63  O   UNL A   1      41.660  36.047  37.351  1.00  0.00    -0.744 OA
ENDBRANCH  57  60
ENDBRANCH  39  53
BRANCH  40  64
ATOM     64  C   UNL A   1      41.775  26.944  27.650  1.00  0.00     0.023 A 
ATOM     65  C   UNL A   1      42.420  27.563  26.560  1.00  0.00     0.012 A 
ATOM     66  C   UNL A   1      41.514  25.562  27.596  1.00  0.00     0.148 A 
ATOM     67  C   UNL A   1      42.771  26.824  25.430  1.00  0.00     0.002 A 
ATOM     68  C   UNL A   1      41.914  24.823  26.488  1.00  0.00     0.091 A 
ATOM     69  F   UNL A   1      40.874  24.991  28.627  1.00  0.00    -0.205 F 
ATOM     70  C   UNL A   1      42.529  25.453  25.397  1.00  0.00     0.022 A 
BRANCH  68  71
ATOM     71  S   UNL A   1      41.746  23.035  26.447  1.00  0.00     0.127 S 
ATOM     72  O   UNL A   1      40.296  22.867  26.457  1.00  0.00    -0.237 OA
ATOM     73  O   UNL A   1      42.397  22.685  25.184  1.00  0.00    -0.237 OA
ATOM     74  O   UNL A   1      42.459  22.565  27.629  1.00  0.00    -0.744 OA
ENDBRANCH  68  71
ENDBRANCH  40  64
BRANCH  52  75
ATOM     75  C   UNL A   1      44.361  27.488  34.104  1.00  0.00     0.023 A 
ATOM     76  C   UNL A   1      45.628  28.099  34.030  1.00  0.00     0.012 A 
ATOM     77  C   UNL A   1      44.199  26.322  34.876  1.00  0.00     0.148 A 
ATOM     78  C   UNL A   1      46.722  27.544  34.693  1.00  0.00     0.002 A 
ATOM     79  C   UNL A   1      45.287  25.797  35.566  1.00  0.00     0.091 A 
ATOM     80  F   UNL A   1      42.992  25.739  34.917  1.00  0.00    -0.205 F 
ATOM     81  C   UNL A   1      46.550  26.401  35.469  1.00  0.00     0.022 A 
BRANCH  79  82
ATOM     82  S   UNL A   1      45.115  24.377  36.655  1.00  0.00     0.127 S 
ATOM     83  O   UNL A   1      44.638  23.348  35.735  1.00  0.00    -0.237 OA
ATOM     84  O   UNL A   1      46.483  24.176  37.138  1.00  0.00    -0.237 OA
ATOM     85  O   UNL A   1      44.176  24.794  37.689  1.00  0.00    -0.744 OA
ENDBRANCH  79  82
ENDBRANCH  52  75
ENDBRANCH  26  27
ENDBRANCH  19  21
ENDBRANCH  18  19
ENDBRANCH  17  18
ENDBRANCH   1  17
TORSDOF 17
ENDMDL
