MODEL 1
REMARK VINA RESULT:     -12.4      0.000      0.000
REMARK SMILES O=C(CCc1cn(-c2ccc(Br)cc2)nc1-c1ccccc1)OCCOC(=O)c1ccc(-c2c3nc(c(-c4cccc(S(=O)(=O)[O-])c4F)c4ccc([nH]4)c(-c4cccc(S(=O)(=O)[O-])c4F)c4nc(c(-c5cccc(S(=O)(=O)[O-])c5F)c5ccc2[nH]5)C=C4)C=C3)cc1
REMARK SMILES IDX 24 1 23 2 2 3 1 4 3 5 4 6 5 7 6 8 16 9 7 10 15 11 17 12
REMARK SMILES IDX 18 13 22 14 19 15 21 16 20 17 8 18 9 19 14 20 10 21 13 22
REMARK SMILES IDX 11 23 12 24 25 25 26 26 27 27 28 28 29 29 30 30 91 31 31 32
REMARK SMILES IDX 90 33 32 34 33 35 34 36 84 37 35 38 89 39 83 40 85 41 36 42
REMARK SMILES IDX 88 43 82 44 81 45 37 47 69 48 49 49 68 50 50 51 53 52 67 53
REMARK SMILES IDX 86 54 51 55 52 56 66 58 87 59 54 60 38 61 39 62 47 63 40 64
REMARK SMILES IDX 42 65 48 66 41 67 43 68 44 69 45 70 46 71 70 72 71 73 79 74
REMARK SMILES IDX 72 75 74 76 80 77 73 78 75 79 76 80 77 81 78 82 55 83 56 84
REMARK SMILES IDX 64 85 57 86 59 87 65 88 58 89 60 90 61 91 62 92 63 93
REMARK H PARENT 85 46 53 57
REMARK Flexibility Score: inf
ROOT
ATOM      1  C   UNL A   1      36.804  21.383  25.414  1.00  0.00     0.274 C 
ENDROOT
BRANCH   1   2
ATOM      2  O   UNL A   1      35.944  21.784  24.333  1.00  0.00    -0.462 OA
BRANCH   2   3
ATOM      3  C   UNL A   1      35.680  23.055  23.962  1.00  0.00     0.306 C 
ATOM      4  O   UNL A   1      35.535  23.333  22.772  1.00  0.00    -0.252 OA
BRANCH   3   5
ATOM      5  C   UNL A   1      35.520  24.120  25.017  1.00  0.00     0.127 C 
BRANCH   5   6
ATOM      6  C   UNL A   1      34.297  23.847  25.889  1.00  0.00     0.051 C 
BRANCH   6   7
ATOM      7  C   UNL A   1      33.001  24.177  25.210  1.00  0.00    -0.001 A 
ATOM      8  C   UNL A   1      32.435  25.433  25.090  1.00  0.00     0.119 A 
ATOM      9  C   UNL A   1      32.126  23.325  24.459  1.00  0.00     0.096 A 
ATOM     10  N   UNL A   1      31.354  25.312  24.255  1.00  0.00    -0.240 N 
ATOM     11  N   UNL A   1      31.101  24.026  23.940  1.00  0.00    -0.168 NA
BRANCH   9  12
ATOM     12  C   UNL A   1      32.270  21.890  24.206  1.00  0.00     0.002 A 
ATOM     13  C   UNL A   1      32.165  21.380  22.904  1.00  0.00     0.010 A 
ATOM     14  C   UNL A   1      32.531  21.003  25.261  1.00  0.00     0.010 A 
ATOM     15  C   UNL A   1      32.325  20.010  22.665  1.00  0.00     0.001 A 
ATOM     16  C   UNL A   1      32.691  19.636  25.019  1.00  0.00     0.001 A 
ATOM     17  C   UNL A   1      32.588  19.140  23.721  1.00  0.00     0.000 A 
ENDBRANCH   9  12
BRANCH  10  18
ATOM     18  C   UNL A   1      30.562  26.372  23.755  1.00  0.00     0.065 A 
ATOM     19  C   UNL A   1      31.144  27.472  23.112  1.00  0.00     0.029 A 
ATOM     20  C   UNL A   1      29.184  26.340  23.954  1.00  0.00     0.029 A 
ATOM     21  C   UNL A   1      30.369  28.551  22.693  1.00  0.00     0.018 A 
ATOM     22  C   UNL A   1      28.409  27.437  23.563  1.00  0.00     0.018 A 
ATOM     23  C   UNL A   1      29.003  28.538  22.938  1.00  0.00     0.018 A 
ATOM     24  Br  UNL A   1      27.957  30.022  22.419  1.00  0.00    -0.051 Br
ENDBRANCH  10  18
ENDBRANCH   6   7
ENDBRANCH   5   6
ENDBRANCH   3   5
ENDBRANCH   2   3
ENDBRANCH   1   2
BRANCH   1  25
ATOM     25  C   UNL A   1      37.927  20.458  25.018  1.00  0.00     0.275 C 
BRANCH  25  26
ATOM     26  O   UNL A   1      39.106  20.987  25.579  1.00  0.00    -0.458 OA
BRANCH  26  27
ATOM     27  C   UNL A   1      40.099  20.090  25.794  1.00  0.00     0.338 C 
ATOM     28  O   UNL A   1      40.075  18.896  25.654  1.00  0.00    -0.246 OA
BRANCH  27  29
ATOM     29  C   UNL A   1      41.173  20.865  26.412  1.00  0.00     0.060 A 
ATOM     30  C   UNL A   1      41.173  20.803  27.800  1.00  0.00     0.016 A 
ATOM     31  C   UNL A   1      41.748  21.915  25.677  1.00  0.00     0.016 A 
ATOM     32  C   UNL A   1      41.462  21.962  28.465  1.00  0.00     0.010 A 
ATOM     33  C   UNL A   1      41.972  23.087  26.337  1.00  0.00     0.010 A 
ATOM     34  C   UNL A   1      41.749  23.106  27.710  1.00  0.00    -0.014 A 
BRANCH  34  35
ATOM     35  C   UNL A   1      42.024  24.315  28.434  1.00  0.00     0.031 A 
ATOM     36  C   UNL A   1      40.957  25.300  28.188  1.00  0.00     0.074 A 
ATOM     37  C   UNL A   1      43.068  24.446  29.265  1.00  0.00     0.049 A 
ATOM     38  N   UNL A   1      40.996  26.291  27.361  1.00  0.00    -0.248 NA
ATOM     39  C   UNL A   1      39.605  24.962  28.663  1.00  0.00     0.031 C 
ATOM     40  C   UNL A   1      43.959  23.398  29.764  1.00  0.00     0.029 A 
ATOM     41  N   UNL A   1      43.452  25.545  29.960  1.00  0.00    -0.354 N 
ATOM     42  C   UNL A   1      39.739  26.869  27.472  1.00  0.00     0.074 A 
ATOM     43  C   UNL A   1      38.878  25.839  27.971  1.00  0.00     0.031 C 
ATOM     44  C   UNL A   1      44.600  23.863  30.861  1.00  0.00     0.029 A 
ATOM     45  C   UNL A   1      44.243  25.258  31.063  1.00  0.00     0.049 A 
ATOM     46  H   UNL A   1      43.194  26.460  29.706  1.00  0.00     0.167 HD
ATOM     47  C   UNL A   1      39.625  28.222  27.566  1.00  0.00     0.034 A 
ATOM     48  C   UNL A   1      44.469  26.090  32.110  1.00  0.00     0.034 A 
ATOM     49  C   UNL A   1      40.830  28.865  27.077  1.00  0.00     0.049 A 
ATOM     50  C   UNL A   1      44.126  27.464  31.664  1.00  0.00     0.074 A 
ATOM     51  C   UNL A   1      41.564  28.810  25.907  1.00  0.00     0.029 A 
ATOM     52  N   UNL A   1      41.667  29.403  28.026  1.00  0.00    -0.354 N 
ATOM     53  N   UNL A   1      44.803  28.123  30.766  1.00  0.00    -0.248 NA
ATOM     54  C   UNL A   1      42.773  27.946  31.900  1.00  0.00     0.031 C 
ATOM     55  C   UNL A   1      42.928  28.929  26.312  1.00  0.00     0.029 A 
ATOM     56  C   UNL A   1      42.961  29.116  27.695  1.00  0.00     0.049 A 
ATOM     57  H   UNL A   1      41.381  29.911  28.818  1.00  0.00     0.167 HD
ATOM     58  C   UNL A   1      43.833  28.766  30.006  1.00  0.00     0.074 A 
ATOM     59  C   UNL A   1      42.626  28.730  30.829  1.00  0.00     0.031 C 
ATOM     60  C   UNL A   1      44.022  28.982  28.670  1.00  0.00     0.034 A 
BRANCH  47  61
ATOM     61  C   UNL A   1      38.697  28.927  28.551  1.00  0.00     0.023 A 
ATOM     62  C   UNL A   1      37.996  30.044  28.044  1.00  0.00     0.012 A 
ATOM     63  C   UNL A   1      38.703  28.780  29.961  1.00  0.00     0.148 A 
ATOM     64  C   UNL A   1      37.471  31.029  28.888  1.00  0.00     0.002 A 
ATOM     65  C   UNL A   1      38.145  29.737  30.797  1.00  0.00     0.091 A 
ATOM     66  F   UNL A   1      39.308  27.750  30.544  1.00  0.00    -0.205 F 
ATOM     67  C   UNL A   1      37.562  30.885  30.266  1.00  0.00     0.022 A 
BRANCH  65  68
ATOM     68  S   UNL A   1      38.221  29.586  32.591  1.00  0.00     0.127 S 
ATOM     69  O   UNL A   1      37.492  28.339  32.805  1.00  0.00    -0.237 OA
ATOM     70  O   UNL A   1      39.664  29.512  32.815  1.00  0.00    -0.237 OA
ATOM     71  O   UNL A   1      37.589  30.784  33.129  1.00  0.00    -0.744 OA
ENDBRANCH  65  68
ENDBRANCH  47  61
BRANCH  48  72
ATOM     72  C   UNL A   1      44.692  25.771  33.540  1.00  0.00     0.023 A 
ATOM     73  C   UNL A   1      46.004  25.521  33.992  1.00  0.00     0.012 A 
ATOM     74  C   UNL A   1      43.685  25.976  34.509  1.00  0.00     0.148 A 
ATOM     75  C   UNL A   1      46.309  25.512  35.358  1.00  0.00     0.002 A 
ATOM     76  C   UNL A   1      43.988  25.949  35.866  1.00  0.00     0.091 A 
ATOM     77  F   UNL A   1      42.448  26.292  34.104  1.00  0.00    -0.205 F 
ATOM     78  C   UNL A   1      45.303  25.732  36.295  1.00  0.00     0.022 A 
BRANCH  76  79
ATOM     79  S   UNL A   1      42.739  26.236  37.129  1.00  0.00     0.127 S 
ATOM     80  O   UNL A   1      42.252  27.570  36.777  1.00  0.00    -0.237 OA
ATOM     81  O   UNL A   1      41.796  25.152  36.876  1.00  0.00    -0.237 OA
ATOM     82  O   UNL A   1      43.444  26.177  38.405  1.00  0.00    -0.744 OA
ENDBRANCH  76  79
ENDBRANCH  48  72
BRANCH  60  83
ATOM     83  C   UNL A   1      45.419  28.841  28.123  1.00  0.00     0.023 A 
ATOM     84  C   UNL A   1      46.380  29.870  28.200  1.00  0.00     0.012 A 
ATOM     85  C   UNL A   1      45.812  27.576  27.651  1.00  0.00     0.148 A 
ATOM     86  C   UNL A   1      47.696  29.649  27.785  1.00  0.00     0.002 A 
ATOM     87  C   UNL A   1      47.131  27.348  27.286  1.00  0.00     0.091 A 
ATOM     88  F   UNL A   1      44.885  26.608  27.584  1.00  0.00    -0.205 F 
ATOM     89  C   UNL A   1      48.076  28.384  27.340  1.00  0.00     0.022 A 
BRANCH  87  90
ATOM     90  S   UNL A   1      47.696  25.709  26.825  1.00  0.00     0.127 S 
ATOM     91  O   UNL A   1      47.347  24.922  28.006  1.00  0.00    -0.237 OA
ATOM     92  O   UNL A   1      46.891  25.419  25.637  1.00  0.00    -0.237 OA
ATOM     93  O   UNL A   1      49.122  25.842  26.554  1.00  0.00    -0.744 OA
ENDBRANCH  87  90
ENDBRANCH  60  83
ENDBRANCH  34  35
ENDBRANCH  27  29
ENDBRANCH  26  27
ENDBRANCH  25  26
ENDBRANCH   1  25
TORSDOF 18
ENDMDL
MODEL 2
REMARK VINA RESULT:     -12.1      6.064     12.879
REMARK SMILES O=C(CCc1cn(-c2ccc(Br)cc2)nc1-c1ccccc1)OCCOC(=O)c1ccc(-c2c3nc(c(-c4cccc(S(=O)(=O)[O-])c4F)c4ccc([nH]4)c(-c4cccc(S(=O)(=O)[O-])c4F)c4nc(c(-c5cccc(S(=O)(=O)[O-])c5F)c5ccc2[nH]5)C=C4)C=C3)cc1
REMARK SMILES IDX 24 1 23 2 2 3 1 4 3 5 4 6 5 7 6 8 16 9 7 10 15 11 17 12
REMARK SMILES IDX 18 13 22 14 19 15 21 16 20 17 8 18 9 19 14 20 10 21 13 22
REMARK SMILES IDX 11 23 12 24 25 25 26 26 27 27 28 28 29 29 30 30 91 31 31 32
REMARK SMILES IDX 90 33 32 34 33 35 34 36 84 37 35 38 89 39 83 40 85 41 36 42
REMARK SMILES IDX 88 43 82 44 81 45 37 47 69 48 49 49 68 50 50 51 53 52 67 53
REMARK SMILES IDX 86 54 51 55 52 56 66 58 87 59 54 60 38 61 39 62 47 63 40 64
REMARK SMILES IDX 42 65 48 66 41 67 43 68 44 69 45 70 46 71 70 72 71 73 79 74
REMARK SMILES IDX 72 75 74 76 80 77 73 78 75 79 76 80 77 81 78 82 55 83 56 84
REMARK SMILES IDX 64 85 57 86 59 87 65 88 58 89 60 90 61 91 62 92 63 93
REMARK H PARENT 85 46 53 57
REMARK Flexibility Score: inf
ROOT
ATOM      1  C   UNL A   1      34.338  36.027  33.464  1.00  0.00     0.274 C 
ENDROOT
BRANCH   1   2
ATOM      2  O   UNL A   1      35.631  35.400  33.419  1.00  0.00    -0.462 OA
BRANCH   2   3
ATOM      3  C   UNL A   1      35.915  34.143  33.822  1.00  0.00     0.306 C 
ATOM      4  O   UNL A   1      35.027  33.427  34.285  1.00  0.00    -0.252 OA
BRANCH   3   5
ATOM      5  C   UNL A   1      37.315  33.607  33.658  1.00  0.00     0.127 C 
BRANCH   5   6
ATOM      6  C   UNL A   1      38.352  34.694  33.934  1.00  0.00     0.051 C 
BRANCH   6   7
ATOM      7  C   UNL A   1      38.942  34.612  35.310  1.00  0.00    -0.001 A 
ATOM      8  C   UNL A   1      38.322  34.107  36.439  1.00  0.00     0.119 A 
ATOM      9  C   UNL A   1      40.270  34.922  35.749  1.00  0.00     0.096 A 
ATOM     10  N   UNL A   1      39.267  34.059  37.432  1.00  0.00    -0.240 N 
ATOM     11  N   UNL A   1      40.425  34.635  37.055  1.00  0.00    -0.168 NA
BRANCH   9  12
ATOM     12  C   UNL A   1      41.381  35.445  34.949  1.00  0.00     0.002 A 
ATOM     13  C   UNL A   1      42.077  34.610  34.064  1.00  0.00     0.010 A 
ATOM     14  C   UNL A   1      41.755  36.793  35.045  1.00  0.00     0.010 A 
ATOM     15  C   UNL A   1      43.124  35.119  33.286  1.00  0.00     0.001 A 
ATOM     16  C   UNL A   1      42.800  37.299  34.267  1.00  0.00     0.001 A 
ATOM     17  C   UNL A   1      43.484  36.462  33.388  1.00  0.00     0.000 A 
ENDBRANCH   9  12
BRANCH  10  18
ATOM     18  C   UNL A   1      39.100  33.489  38.716  1.00  0.00     0.065 A 
ATOM     19  C   UNL A   1      40.164  33.422  39.624  1.00  0.00     0.029 A 
ATOM     20  C   UNL A   1      37.866  32.942  39.058  1.00  0.00     0.029 A 
ATOM     21  C   UNL A   1      40.016  32.789  40.857  1.00  0.00     0.018 A 
ATOM     22  C   UNL A   1      37.726  32.277  40.282  1.00  0.00     0.018 A 
ATOM     23  C   UNL A   1      38.800  32.200  41.173  1.00  0.00     0.018 A 
ATOM     24  Br  UNL A   1      38.612  31.295  42.820  1.00  0.00    -0.051 Br
ENDBRANCH  10  18
ENDBRANCH   6   7
ENDBRANCH   5   6
ENDBRANCH   3   5
ENDBRANCH   2   3
ENDBRANCH   1   2
BRANCH   1  25
ATOM     25  C   UNL A   1      33.691  36.237  32.117  1.00  0.00     0.275 C 
BRANCH  25  26
ATOM     26  O   UNL A   1      33.608  34.971  31.505  1.00  0.00    -0.458 OA
BRANCH  26  27
ATOM     27  C   UNL A   1      33.417  34.988  30.163  1.00  0.00     0.338 C 
ATOM     28  O   UNL A   1      32.633  35.638  29.525  1.00  0.00    -0.246 OA
BRANCH  27  29
ATOM     29  C   UNL A   1      34.253  33.902  29.655  1.00  0.00     0.060 A 
ATOM     30  C   UNL A   1      34.479  32.895  30.585  1.00  0.00     0.016 A 
ATOM     31  C   UNL A   1      35.102  34.166  28.567  1.00  0.00     0.016 A 
ATOM     32  C   UNL A   1      35.736  32.359  30.614  1.00  0.00     0.010 A 
ATOM     33  C   UNL A   1      36.374  33.678  28.638  1.00  0.00     0.010 A 
ATOM     34  C   UNL A   1      36.686  32.844  29.706  1.00  0.00    -0.014 A 
BRANCH  34  35
ATOM     35  C   UNL A   1      38.004  32.280  29.776  1.00  0.00     0.031 A 
ATOM     36  C   UNL A   1      37.978  30.885  29.305  1.00  0.00     0.074 A 
ATOM     37  C   UNL A   1      39.082  32.988  30.145  1.00  0.00     0.049 A 
ATOM     38  N   UNL A   1      37.946  29.822  30.038  1.00  0.00    -0.248 NA
ATOM     39  C   UNL A   1      37.624  30.657  27.894  1.00  0.00     0.031 C 
ATOM     40  C   UNL A   1      39.192  34.437  30.318  1.00  0.00     0.029 A 
ATOM     41  N   UNL A   1      40.358  32.554  30.292  1.00  0.00    -0.354 N 
ATOM     42  C   UNL A   1      37.880  28.784  29.118  1.00  0.00     0.074 A 
ATOM     43  C   UNL A   1      37.338  29.356  27.922  1.00  0.00     0.031 C 
ATOM     44  C   UNL A   1      40.501  34.777  30.291  1.00  0.00     0.029 A 
ATOM     45  C   UNL A   1      41.303  33.566  30.209  1.00  0.00     0.049 A 
ATOM     46  H   UNL A   1      40.592  31.610  30.444  1.00  0.00     0.167 HD
ATOM     47  C   UNL A   1      38.671  27.689  29.281  1.00  0.00     0.034 A 
ATOM     48  C   UNL A   1      42.626  33.392  29.970  1.00  0.00     0.034 A 
ATOM     49  C   UNL A   1      39.130  27.597  30.654  1.00  0.00     0.049 A 
ATOM     50  C   UNL A   1      42.946  31.974  30.269  1.00  0.00     0.074 A 
ATOM     51  C   UNL A   1      38.519  27.584  31.893  1.00  0.00     0.029 A 
ATOM     52  N   UNL A   1      40.446  27.923  30.883  1.00  0.00    -0.354 N 
ATOM     53  N   UNL A   1      42.917  31.462  31.468  1.00  0.00    -0.248 NA
ATOM     54  C   UNL A   1      42.882  31.009  29.181  1.00  0.00     0.031 C 
ATOM     55  C   UNL A   1      39.398  28.306  32.755  1.00  0.00     0.029 A 
ATOM     56  C   UNL A   1      40.530  28.668  32.024  1.00  0.00     0.049 A 
ATOM     57  H   UNL A   1      41.206  27.661  30.316  1.00  0.00     0.167 HD
ATOM     58  C   UNL A   1      42.357  30.203  31.292  1.00  0.00     0.074 A 
ATOM     59  C   UNL A   1      42.484  29.931  29.862  1.00  0.00     0.031 C 
ATOM     60  C   UNL A   1      41.570  29.647  32.262  1.00  0.00     0.034 A 
BRANCH  47  61
ATOM     61  C   UNL A   1      39.441  27.024  28.143  1.00  0.00     0.023 A 
ATOM     62  C   UNL A   1      39.408  25.612  28.120  1.00  0.00     0.012 A 
ATOM     63  C   UNL A   1      40.416  27.641  27.320  1.00  0.00     0.148 A 
ATOM     64  C   UNL A   1      40.377  24.864  27.445  1.00  0.00     0.002 A 
ATOM     65  C   UNL A   1      41.352  26.896  26.616  1.00  0.00     0.091 A 
ATOM     66  F   UNL A   1      40.518  28.964  27.243  1.00  0.00    -0.205 F 
ATOM     67  C   UNL A   1      41.363  25.506  26.707  1.00  0.00     0.022 A 
BRANCH  65  68
ATOM     68  S   UNL A   1      42.640  27.683  25.630  1.00  0.00     0.127 S 
ATOM     69  O   UNL A   1      43.634  27.995  26.654  1.00  0.00    -0.237 OA
ATOM     70  O   UNL A   1      43.005  26.604  24.714  1.00  0.00    -0.237 OA
ATOM     71  O   UNL A   1      42.017  28.834  24.988  1.00  0.00    -0.744 OA
ENDBRANCH  65  68
ENDBRANCH  47  61
BRANCH  48  72
ATOM     72  C   UNL A   1      43.579  34.267  29.246  1.00  0.00     0.023 A 
ATOM     73  C   UNL A   1      44.296  35.246  29.964  1.00  0.00     0.012 A 
ATOM     74  C   UNL A   1      43.994  33.976  27.927  1.00  0.00     0.148 A 
ATOM     75  C   UNL A   1      45.407  35.885  29.403  1.00  0.00     0.002 A 
ATOM     76  C   UNL A   1      45.088  34.626  27.366  1.00  0.00     0.091 A 
ATOM     77  F   UNL A   1      43.378  32.996  27.253  1.00  0.00    -0.205 F 
ATOM     78  C   UNL A   1      45.807  35.572  28.107  1.00  0.00     0.022 A 
BRANCH  76  79
ATOM     79  S   UNL A   1      45.665  34.263  25.702  1.00  0.00     0.127 S 
ATOM     80  O   UNL A   1      46.068  32.861  25.821  1.00  0.00    -0.237 OA
ATOM     81  O   UNL A   1      44.463  34.489  24.907  1.00  0.00    -0.237 OA
ATOM     82  O   UNL A   1      46.771  35.181  25.455  1.00  0.00    -0.744 OA
ENDBRANCH  76  79
ENDBRANCH  48  72
BRANCH  60  83
ATOM     83  C   UNL A   1      41.617  30.251  33.641  1.00  0.00     0.023 A 
ATOM     84  C   UNL A   1      40.577  31.046  34.166  1.00  0.00     0.012 A 
ATOM     85  C   UNL A   1      42.679  29.878  34.483  1.00  0.00     0.148 A 
ATOM     86  C   UNL A   1      40.614  31.485  35.493  1.00  0.00     0.002 A 
ATOM     87  C   UNL A   1      42.688  30.276  35.812  1.00  0.00     0.091 A 
ATOM     88  F   UNL A   1      43.661  29.122  33.968  1.00  0.00    -0.205 F 
ATOM     89  C   UNL A   1      41.664  31.089  36.321  1.00  0.00     0.022 A 
BRANCH  87  90
ATOM     90  S   UNL A   1      43.949  29.692  36.947  1.00  0.00     0.127 S 
ATOM     91  O   UNL A   1      43.718  30.532  38.120  1.00  0.00    -0.237 OA
ATOM     92  O   UNL A   1      43.589  28.283  37.123  1.00  0.00    -0.237 OA
ATOM     93  O   UNL A   1      45.221  29.895  36.266  1.00  0.00    -0.744 OA
ENDBRANCH  87  90
ENDBRANCH  60  83
ENDBRANCH  34  35
ENDBRANCH  27  29
ENDBRANCH  26  27
ENDBRANCH  25  26
ENDBRANCH   1  25
TORSDOF 18
ENDMDL
MODEL 3
REMARK VINA RESULT:     -11.9      4.338      9.312
REMARK SMILES O=C(CCc1cn(-c2ccc(Br)cc2)nc1-c1ccccc1)OCCOC(=O)c1ccc(-c2c3nc(c(-c4cccc(S(=O)(=O)[O-])c4F)c4ccc([nH]4)c(-c4cccc(S(=O)(=O)[O-])c4F)c4nc(c(-c5cccc(S(=O)(=O)[O-])c5F)c5ccc2[nH]5)C=C4)C=C3)cc1
REMARK SMILES IDX 24 1 23 2 2 3 1 4 3 5 4 6 5 7 6 8 16 9 7 10 15 11 17 12
REMARK SMILES IDX 18 13 22 14 19 15 21 16 20 17 8 18 9 19 14 20 10 21 13 22
REMARK SMILES IDX 11 23 12 24 25 25 26 26 27 27 28 28 29 29 30 30 91 31 31 32
REMARK SMILES IDX 90 33 32 34 33 35 34 36 84 37 35 38 89 39 83 40 85 41 36 42
REMARK SMILES IDX 88 43 82 44 81 45 37 47 69 48 49 49 68 50 50 51 53 52 67 53
REMARK SMILES IDX 86 54 51 55 52 56 66 58 87 59 54 60 38 61 39 62 47 63 40 64
REMARK SMILES IDX 42 65 48 66 41 67 43 68 44 69 45 70 46 71 70 72 71 73 79 74
REMARK SMILES IDX 72 75 74 76 80 77 73 78 75 79 76 80 77 81 78 82 55 83 56 84
REMARK SMILES IDX 64 85 57 86 59 87 65 88 58 89 60 90 61 91 62 92 63 93
REMARK H PARENT 85 46 53 57
REMARK Flexibility Score: inf
ROOT
ATOM      1  C   UNL A   1      31.795  30.266  26.925  1.00  0.00     0.274 C 
ENDROOT
BRANCH   1   2
ATOM      2  O   UNL A   1      32.816  29.327  26.543  1.00  0.00    -0.462 OA
BRANCH   2   3
ATOM      3  C   UNL A   1      32.817  28.004  26.814  1.00  0.00     0.306 C 
ATOM      4  O   UNL A   1      31.858  27.492  27.390  1.00  0.00    -0.252 OA
BRANCH   3   5
ATOM      5  C   UNL A   1      33.978  27.154  26.366  1.00  0.00     0.127 C 
BRANCH   5   6
ATOM      6  C   UNL A   1      33.950  26.943  24.854  1.00  0.00     0.051 C 
BRANCH   6   7
ATOM      7  C   UNL A   1      33.421  25.599  24.453  1.00  0.00    -0.001 A 
ATOM      8  C   UNL A   1      34.080  24.389  24.576  1.00  0.00     0.119 A 
ATOM      9  C   UNL A   1      32.121  25.241  23.968  1.00  0.00     0.096 A 
ATOM     10  N   UNL A   1      33.181  23.403  24.259  1.00  0.00    -0.240 N 
ATOM     11  N   UNL A   1      32.019  23.909  23.800  1.00  0.00    -0.168 NA
BRANCH   9  12
ATOM     12  C   UNL A   1      30.987  26.129  23.702  1.00  0.00     0.002 A 
ATOM     13  C   UNL A   1      31.156  27.296  22.943  1.00  0.00     0.010 A 
ATOM     14  C   UNL A   1      29.709  25.817  24.188  1.00  0.00     0.010 A 
ATOM     15  C   UNL A   1      30.065  28.130  22.674  1.00  0.00     0.001 A 
ATOM     16  C   UNL A   1      28.620  26.651  23.917  1.00  0.00     0.001 A 
ATOM     17  C   UNL A   1      28.800  27.807  23.160  1.00  0.00     0.000 A 
ENDBRANCH   9  12
BRANCH  10  18
ATOM     18  C   UNL A   1      33.394  22.010  24.377  1.00  0.00     0.065 A 
ATOM     19  C   UNL A   1      34.644  21.495  24.742  1.00  0.00     0.029 A 
ATOM     20  C   UNL A   1      32.351  21.138  24.074  1.00  0.00     0.029 A 
ATOM     21  C   UNL A   1      34.871  20.120  24.779  1.00  0.00     0.018 A 
ATOM     22  C   UNL A   1      32.587  19.759  24.080  1.00  0.00     0.018 A 
ATOM     23  C   UNL A   1      33.845  19.256  24.428  1.00  0.00     0.018 A 
ATOM     24  Br  UNL A   1      34.164  17.395  24.426  1.00  0.00    -0.051 Br
ENDBRANCH  10  18
ENDBRANCH   6   7
ENDBRANCH   5   6
ENDBRANCH   3   5
ENDBRANCH   2   3
ENDBRANCH   1   2
BRANCH   1  25
ATOM     25  C   UNL A   1      32.143  31.713  26.680  1.00  0.00     0.275 C 
BRANCH  25  26
ATOM     26  O   UNL A   1      33.104  32.068  27.648  1.00  0.00    -0.458 OA
BRANCH  26  27
ATOM     27  C   UNL A   1      33.029  33.346  28.095  1.00  0.00     0.338 C 
ATOM     28  O   UNL A   1      32.223  34.193  27.817  1.00  0.00    -0.246 OA
BRANCH  27  29
ATOM     29  C   UNL A   1      34.255  33.542  28.866  1.00  0.00     0.060 A 
ATOM     30  C   UNL A   1      35.282  34.125  28.135  1.00  0.00     0.016 A 
ATOM     31  C   UNL A   1      34.461  32.748  30.007  1.00  0.00     0.016 A 
ATOM     32  C   UNL A   1      36.541  33.641  28.355  1.00  0.00     0.010 A 
ATOM     33  C   UNL A   1      35.706  32.220  30.181  1.00  0.00     0.010 A 
ATOM     34  C   UNL A   1      36.705  32.620  29.300  1.00  0.00    -0.014 A 
BRANCH  34  35
ATOM     35  C   UNL A   1      38.035  32.114  29.492  1.00  0.00     0.031 A 
ATOM     36  C   UNL A   1      38.097  30.701  29.083  1.00  0.00     0.074 A 
ATOM     37  C   UNL A   1      39.054  32.881  29.906  1.00  0.00     0.049 A 
ATOM     38  N   UNL A   1      38.051  29.669  29.859  1.00  0.00    -0.248 NA
ATOM     39  C   UNL A   1      37.860  30.399  27.662  1.00  0.00     0.031 C 
ATOM     40  C   UNL A   1      39.095  34.339  30.022  1.00  0.00     0.029 A 
ATOM     41  N   UNL A   1      40.331  32.507  30.167  1.00  0.00    -0.354 N 
ATOM     42  C   UNL A   1      38.094  28.591  28.984  1.00  0.00     0.074 A 
ATOM     43  C   UNL A   1      37.622  29.090  27.727  1.00  0.00     0.031 C 
ATOM     44  C   UNL A   1      40.389  34.731  30.077  1.00  0.00     0.029 A 
ATOM     45  C   UNL A   1      41.240  33.553  30.109  1.00  0.00     0.049 A 
ATOM     46  H   UNL A   1      40.588  31.580  30.377  1.00  0.00     0.167 HD
ATOM     47  C   UNL A   1      38.911  27.537  29.254  1.00  0.00     0.034 A 
ATOM     48  C   UNL A   1      42.584  33.424  29.975  1.00  0.00     0.034 A 
ATOM     49  C   UNL A   1      39.269  27.522  30.659  1.00  0.00     0.049 A 
ATOM     50  C   UNL A   1      42.934  32.033  30.361  1.00  0.00     0.074 A 
ATOM     51  C   UNL A   1      38.567  27.536  31.850  1.00  0.00     0.029 A 
ATOM     52  N   UNL A   1      40.551  27.912  30.970  1.00  0.00    -0.354 N 
ATOM     53  N   UNL A   1      42.833  31.572  31.576  1.00  0.00    -0.248 NA
ATOM     54  C   UNL A   1      42.988  31.022  29.315  1.00  0.00     0.031 C 
ATOM     55  C   UNL A   1      39.350  28.330  32.741  1.00  0.00     0.029 A 
ATOM     56  C   UNL A   1      40.520  28.707  32.080  1.00  0.00     0.049 A 
ATOM     57  H   UNL A   1      41.361  27.658  30.473  1.00  0.00     0.167 HD
ATOM     58  C   UNL A   1      42.337  30.284  31.416  1.00  0.00     0.074 A 
ATOM     59  C   UNL A   1      42.582  29.958  30.013  1.00  0.00     0.031 C 
ATOM     60  C   UNL A   1      41.501  29.737  32.349  1.00  0.00     0.034 A 
BRANCH  47  61
ATOM     61  C   UNL A   1      39.790  26.858  28.207  1.00  0.00     0.023 A 
ATOM     62  C   UNL A   1      39.844  25.448  28.270  1.00  0.00     0.012 A 
ATOM     63  C   UNL A   1      40.775  27.487  27.405  1.00  0.00     0.148 A 
ATOM     64  C   UNL A   1      40.898  24.725  27.701  1.00  0.00     0.002 A 
ATOM     65  C   UNL A   1      41.797  26.764  26.805  1.00  0.00     0.091 A 
ATOM     66  F   UNL A   1      40.801  28.807  27.252  1.00  0.00    -0.205 F 
ATOM     67  C   UNL A   1      41.886  25.385  26.984  1.00  0.00     0.022 A 
BRANCH  65  68
ATOM     68  S   UNL A   1      43.093  27.573  25.849  1.00  0.00     0.127 S 
ATOM     69  O   UNL A   1      42.327  28.115  24.729  1.00  0.00    -0.237 OA
ATOM     70  O   UNL A   1      43.585  28.564  26.806  1.00  0.00    -0.237 OA
ATOM     71  O   UNL A   1      44.058  26.536  25.507  1.00  0.00    -0.744 OA
ENDBRANCH  65  68
ENDBRANCH  47  61
BRANCH  48  72
ATOM     72  C   UNL A   1      43.554  34.306  29.285  1.00  0.00     0.023 A 
ATOM     73  C   UNL A   1      44.239  35.289  30.028  1.00  0.00     0.012 A 
ATOM     74  C   UNL A   1      44.015  34.019  27.981  1.00  0.00     0.148 A 
ATOM     75  C   UNL A   1      45.364  35.937  29.506  1.00  0.00     0.002 A 
ATOM     76  C   UNL A   1      45.124  34.678  27.458  1.00  0.00     0.091 A 
ATOM     77  F   UNL A   1      43.430  33.036  27.286  1.00  0.00    -0.205 F 
ATOM     78  C   UNL A   1      45.810  35.628  28.224  1.00  0.00     0.022 A 
BRANCH  76  79
ATOM     79  S   UNL A   1      45.760  34.320  25.814  1.00  0.00     0.127 S 
ATOM     80  O   UNL A   1      44.564  34.478  24.986  1.00  0.00    -0.237 OA
ATOM     81  O   UNL A   1      46.766  35.363  25.643  1.00  0.00    -0.237 OA
ATOM     82  O   UNL A   1      46.266  32.954  25.873  1.00  0.00    -0.744 OA
ENDBRANCH  76  79
ENDBRANCH  48  72
BRANCH  60  83
ATOM     83  C   UNL A   1      41.420  30.400  33.700  1.00  0.00     0.023 A 
ATOM     84  C   UNL A   1      42.339  30.140  34.738  1.00  0.00     0.012 A 
ATOM     85  C   UNL A   1      40.475  31.426  33.870  1.00  0.00     0.148 A 
ATOM     86  C   UNL A   1      42.293  30.867  35.930  1.00  0.00     0.002 A 
ATOM     87  C   UNL A   1      40.464  32.178  35.036  1.00  0.00     0.091 A 
ATOM     88  F   UNL A   1      39.608  31.661  32.873  1.00  0.00    -0.205 F 
ATOM     89  C   UNL A   1      41.363  31.896  36.075  1.00  0.00     0.022 A 
BRANCH  87  90
ATOM     90  S   UNL A   1      39.371  33.589  35.220  1.00  0.00     0.127 S 
ATOM     91  O   UNL A   1      39.536  34.273  33.939  1.00  0.00    -0.237 OA
ATOM     92  O   UNL A   1      38.065  32.956  35.411  1.00  0.00    -0.237 OA
ATOM     93  O   UNL A   1      39.853  34.315  36.389  1.00  0.00    -0.744 OA
ENDBRANCH  87  90
ENDBRANCH  60  83
ENDBRANCH  34  35
ENDBRANCH  27  29
ENDBRANCH  26  27
ENDBRANCH  25  26
ENDBRANCH   1  25
TORSDOF 18
ENDMDL
