MODEL 1
REMARK VINA RESULT:     -12.2      0.000      0.000
REMARK SMILES C[C@H]1[C@@H](C(=O)OCCOC(=O)c2ccc(-c3c4nc(c(-c5cccc(S(=O)(=O)[O-])c5F)c5ccc([nH]5)c(-c5cccc(S(=O)(=O)[O-])c5F)c5nc(c(-c6cccc(S(=O)(=O)[O-])c6F)c6ccc3[nH]6)C=C5)C=C4)cc2)CCN1C(=O)c1cc([N+](=O)[O-])ccc1Br
REMARK SMILES IDX 7 1 6 2 4 3 5 4 3 5 1 6 2 7 77 8 75 9 76 10 78 11 79 12
REMARK SMILES IDX 80 13 81 14 88 15 82 16 87 17 89 18 86 19 83 20 84 21 85 22
REMARK SMILES IDX 8 23 9 24 10 25 11 26 12 27 13 28 74 29 14 30 73 31 15 32
REMARK SMILES IDX 16 33 17 34 67 35 18 36 72 37 66 38 68 39 19 40 71 41 65 42
REMARK SMILES IDX 64 43 20 45 52 46 32 47 51 48 33 49 36 50 50 51 69 52 34 53
REMARK SMILES IDX 35 54 49 56 70 57 37 58 21 59 22 60 30 61 23 62 25 63 31 64
REMARK SMILES IDX 24 65 26 66 27 67 28 68 29 69 53 70 54 71 62 72 55 73 57 74
REMARK SMILES IDX 63 75 56 76 58 77 59 78 60 79 61 80 38 81 39 82 47 83 40 84
REMARK SMILES IDX 42 85 48 86 41 87 43 88 44 89 45 90 46 91
REMARK H PARENT 68 44 36 55
REMARK Flexibility Score: inf
ROOT
ATOM      1  C   UNL A   1      31.913  28.740  24.868  1.00  0.00     0.274 C 
ENDROOT
BRANCH   1   2
ATOM      2  O   UNL A   1      30.949  27.715  25.192  1.00  0.00    -0.462 OA
BRANCH   2   3
ATOM      3  C   UNL A   1      31.265  26.846  26.174  1.00  0.00     0.311 C 
ATOM      4  O   UNL A   1      31.195  27.109  27.371  1.00  0.00    -0.252 OA
BRANCH   3   5
ATOM      5  C   UNL A   1      31.711  25.474  25.699  1.00  0.00     0.123 C 
ATOM      6  C   UNL A   1      34.102  26.349  25.007  1.00  0.00     0.032 C 
ATOM      7  C   UNL A   1      33.132  25.185  25.166  1.00  0.00     0.096 C 
ATOM      8  N   UNL A   1      32.907  24.503  23.881  1.00  0.00    -0.335 N 
ATOM      9  C   UNL A   1      30.761  24.901  24.635  1.00  0.00     0.039 C 
ATOM     10  C   UNL A   1      31.591  24.813  23.373  1.00  0.00     0.121 C 
BRANCH   8  11
ATOM     11  C   UNL A   1      33.720  23.616  23.205  1.00  0.00     0.255 C 
ATOM     12  O   UNL A   1      34.207  23.817  22.097  1.00  0.00    -0.269 OA
BRANCH  11  13
ATOM     13  C   UNL A   1      34.057  22.346  23.860  1.00  0.00     0.061 A 
ATOM     14  C   UNL A   1      33.111  21.317  23.762  1.00  0.00     0.100 A 
ATOM     15  C   UNL A   1      35.241  22.167  24.588  1.00  0.00     0.031 A 
ATOM     16  C   UNL A   1      33.391  20.080  24.348  1.00  0.00     0.270 A 
ATOM     17  C   UNL A   1      35.517  20.920  25.156  1.00  0.00     0.023 A 
ATOM     18  Br  UNL A   1      36.495  23.564  24.876  1.00  0.00    -0.050 Br
ATOM     19  C   UNL A   1      34.598  19.872  25.031  1.00  0.00     0.087 A 
BRANCH  16  20
ATOM     20  N   UNL A   1      32.418  18.987  24.242  1.00  0.00     0.062 N 
ATOM     21  O   UNL A   1      31.999  18.483  25.293  1.00  0.00    -0.258 OA
ATOM     22  O   UNL A   1      32.065  18.640  23.107  1.00  0.00    -0.258 OA
ENDBRANCH  16  20
ENDBRANCH  11  13
ENDBRANCH   8  11
ENDBRANCH   3   5
ENDBRANCH   2   3
ENDBRANCH   1   2
BRANCH   1  23
ATOM     23  C   UNL A   1      31.574  30.043  25.585  1.00  0.00     0.275 C 
BRANCH  23  24
ATOM     24  O   UNL A   1      32.305  30.126  26.816  1.00  0.00    -0.458 OA
BRANCH  24  25
ATOM     25  C   UNL A   1      32.882  31.323  27.057  1.00  0.00     0.338 C 
ATOM     26  O   UNL A   1      32.388  32.429  26.935  1.00  0.00    -0.246 OA
BRANCH  25  27
ATOM     27  C   UNL A   1      34.228  31.100  27.589  1.00  0.00     0.060 A 
ATOM     28  C   UNL A   1      34.596  29.808  27.967  1.00  0.00     0.016 A 
ATOM     29  C   UNL A   1      35.073  32.181  27.823  1.00  0.00     0.016 A 
ATOM     30  C   UNL A   1      35.771  29.607  28.681  1.00  0.00     0.010 A 
ATOM     31  C   UNL A   1      36.303  31.956  28.441  1.00  0.00     0.010 A 
ATOM     32  C   UNL A   1      36.652  30.674  28.904  1.00  0.00    -0.014 A 
BRANCH  32  33
ATOM     33  C   UNL A   1      37.948  30.471  29.602  1.00  0.00     0.031 A 
ATOM     34  C   UNL A   1      38.994  29.580  28.993  1.00  0.00     0.074 A 
ATOM     35  C   UNL A   1      38.153  31.025  30.814  1.00  0.00     0.049 A 
ATOM     36  N   UNL A   1      40.047  29.043  29.549  1.00  0.00    -0.248 NA
ATOM     37  C   UNL A   1      38.820  29.226  27.573  1.00  0.00     0.031 C 
ATOM     38  C   UNL A   1      37.227  31.926  31.503  1.00  0.00     0.029 A 
ATOM     39  N   UNL A   1      39.192  30.879  31.700  1.00  0.00    -0.354 N 
ATOM     40  C   UNL A   1      40.612  28.223  28.581  1.00  0.00     0.074 A 
ATOM     41  C   UNL A   1      39.801  28.353  27.389  1.00  0.00     0.031 C 
ATOM     42  C   UNL A   1      37.733  32.250  32.701  1.00  0.00     0.029 A 
ATOM     43  C   UNL A   1      38.973  31.512  32.903  1.00  0.00     0.049 A 
ATOM     44  H   UNL A   1      40.011  30.372  31.496  1.00  0.00     0.167 HD
ATOM     45  C   UNL A   1      41.708  27.435  28.680  1.00  0.00     0.034 A 
ATOM     46  C   UNL A   1      39.658  31.459  34.061  1.00  0.00     0.034 A 
ATOM     47  C   UNL A   1      42.549  27.378  29.846  1.00  0.00     0.049 A 
ATOM     48  C   UNL A   1      40.883  30.595  34.140  1.00  0.00     0.074 A 
ATOM     49  C   UNL A   1      43.704  26.641  30.038  1.00  0.00     0.029 A 
ATOM     50  N   UNL A   1      42.334  28.100  31.010  1.00  0.00    -0.354 N 
ATOM     51  N   UNL A   1      41.422  29.847  33.208  1.00  0.00    -0.248 NA
ATOM     52  C   UNL A   1      41.601  30.572  35.421  1.00  0.00     0.031 C 
ATOM     53  C   UNL A   1      44.191  26.921  31.319  1.00  0.00     0.029 A 
ATOM     54  C   UNL A   1      43.340  27.834  31.923  1.00  0.00     0.049 A 
ATOM     55  H   UNL A   1      41.579  28.710  31.164  1.00  0.00     0.167 HD
ATOM     56  C   UNL A   1      42.553  29.281  33.780  1.00  0.00     0.074 A 
ATOM     57  C   UNL A   1      42.634  29.788  35.136  1.00  0.00     0.031 C 
ATOM     58  C   UNL A   1      43.435  28.405  33.242  1.00  0.00     0.034 A 
BRANCH  45  59
ATOM     59  C   UNL A   1      42.083  26.590  27.493  1.00  0.00     0.023 A 
ATOM     60  C   UNL A   1      42.822  27.157  26.437  1.00  0.00     0.012 A 
ATOM     61  C   UNL A   1      41.764  25.218  27.455  1.00  0.00     0.148 A 
ATOM     62  C   UNL A   1      43.221  26.377  25.352  1.00  0.00     0.002 A 
ATOM     63  C   UNL A   1      42.194  24.439  26.387  1.00  0.00     0.091 A 
ATOM     64  F   UNL A   1      41.035  24.701  28.455  1.00  0.00    -0.205 F 
ATOM     65  C   UNL A   1      42.917  25.018  25.331  1.00  0.00     0.022 A 
BRANCH  63  66
ATOM     66  S   UNL A   1      41.909  22.665  26.317  1.00  0.00     0.127 S 
ATOM     67  O   UNL A   1      42.550  22.312  25.051  1.00  0.00    -0.237 OA
ATOM     68  O   UNL A   1      42.610  22.186  27.508  1.00  0.00    -0.237 OA
ATOM     69  O   UNL A   1      40.464  22.496  26.361  1.00  0.00    -0.744 OA
ENDBRANCH  63  66
ENDBRANCH  45  59
BRANCH  46  70
ATOM     70  C   UNL A   1      39.193  32.267  35.224  1.00  0.00     0.023 A 
ATOM     71  C   UNL A   1      38.344  31.674  36.176  1.00  0.00     0.012 A 
ATOM     72  C   UNL A   1      39.650  33.582  35.438  1.00  0.00     0.148 A 
ATOM     73  C   UNL A   1      37.953  32.377  37.316  1.00  0.00     0.002 A 
ATOM     74  C   UNL A   1      39.307  34.255  36.607  1.00  0.00     0.091 A 
ATOM     75  F   UNL A   1      40.438  34.144  34.509  1.00  0.00    -0.205 F 
ATOM     76  C   UNL A   1      38.448  33.660  37.540  1.00  0.00     0.022 A 
BRANCH  74  77
ATOM     77  S   UNL A   1      40.039  35.840  37.032  1.00  0.00     0.127 S 
ATOM     78  O   UNL A   1      41.455  35.501  37.137  1.00  0.00    -0.237 OA
ATOM     79  O   UNL A   1      39.688  36.666  35.876  1.00  0.00    -0.237 OA
ATOM     80  O   UNL A   1      39.382  36.244  38.269  1.00  0.00    -0.744 OA
ENDBRANCH  74  77
ENDBRANCH  46  70
BRANCH  58  81
ATOM     81  C   UNL A   1      44.586  27.960  34.098  1.00  0.00     0.023 A 
ATOM     82  C   UNL A   1      45.785  28.698  34.082  1.00  0.00     0.012 A 
ATOM     83  C   UNL A   1      44.442  26.879  34.987  1.00  0.00     0.148 A 
ATOM     84  C   UNL A   1      46.833  28.356  34.934  1.00  0.00     0.002 A 
ATOM     85  C   UNL A   1      45.478  26.566  35.860  1.00  0.00     0.091 A 
ATOM     86  F   UNL A   1      43.297  26.182  34.968  1.00  0.00    -0.205 F 
ATOM     87  C   UNL A   1      46.675  27.300  35.830  1.00  0.00     0.022 A 
BRANCH  85  88
ATOM     88  S   UNL A   1      45.332  25.277  37.102  1.00  0.00     0.127 S 
ATOM     89  O   UNL A   1      46.694  25.218  37.630  1.00  0.00    -0.237 OA
ATOM     90  O   UNL A   1      44.344  25.840  38.021  1.00  0.00    -0.237 OA
ATOM     91  O   UNL A   1      44.884  24.086  36.391  1.00  0.00    -0.744 OA
ENDBRANCH  85  88
ENDBRANCH  58  81
ENDBRANCH  32  33
ENDBRANCH  25  27
ENDBRANCH  24  25
ENDBRANCH  23  24
ENDBRANCH   1  23
TORSDOF 17
ENDMDL
MODEL 2
REMARK VINA RESULT:     -12.1      4.842     10.057
REMARK SMILES C[C@H]1[C@@H](C(=O)OCCOC(=O)c2ccc(-c3c4nc(c(-c5cccc(S(=O)(=O)[O-])c5F)c5ccc([nH]5)c(-c5cccc(S(=O)(=O)[O-])c5F)c5nc(c(-c6cccc(S(=O)(=O)[O-])c6F)c6ccc3[nH]6)C=C5)C=C4)cc2)CCN1C(=O)c1cc([N+](=O)[O-])ccc1Br
REMARK SMILES IDX 7 1 6 2 4 3 5 4 3 5 1 6 2 7 77 8 75 9 76 10 78 11 79 12
REMARK SMILES IDX 80 13 81 14 88 15 82 16 87 17 89 18 86 19 83 20 84 21 85 22
REMARK SMILES IDX 8 23 9 24 10 25 11 26 12 27 13 28 74 29 14 30 73 31 15 32
REMARK SMILES IDX 16 33 17 34 67 35 18 36 72 37 66 38 68 39 19 40 71 41 65 42
REMARK SMILES IDX 64 43 20 45 52 46 32 47 51 48 33 49 36 50 50 51 69 52 34 53
REMARK SMILES IDX 35 54 49 56 70 57 37 58 21 59 22 60 30 61 23 62 25 63 31 64
REMARK SMILES IDX 24 65 26 66 27 67 28 68 29 69 53 70 54 71 62 72 55 73 57 74
REMARK SMILES IDX 63 75 56 76 58 77 59 78 60 79 61 80 38 81 39 82 47 83 40 84
REMARK SMILES IDX 42 85 48 86 41 87 43 88 44 89 45 90 46 91
REMARK H PARENT 68 44 36 55
REMARK Flexibility Score: inf
ROOT
ATOM      1  C   UNL A   1      35.095  21.446  24.294  1.00  0.00     0.274 C 
ENDROOT
BRANCH   1   2
ATOM      2  O   UNL A   1      33.774  20.866  24.372  1.00  0.00    -0.462 OA
BRANCH   2   3
ATOM      3  C   UNL A   1      32.774  21.499  23.724  1.00  0.00     0.311 C 
ATOM      4  O   UNL A   1      32.028  20.954  22.916  1.00  0.00    -0.252 OA
BRANCH   3   5
ATOM      5  C   UNL A   1      32.608  22.967  24.077  1.00  0.00     0.123 C 
ATOM      6  C   UNL A   1      30.857  22.445  25.980  1.00  0.00     0.032 C 
ATOM      7  C   UNL A   1      31.705  23.462  25.228  1.00  0.00     0.096 C 
ATOM      8  N   UNL A   1      30.865  24.501  24.612  1.00  0.00    -0.335 N 
ATOM      9  C   UNL A   1      32.195  23.804  22.857  1.00  0.00     0.039 C 
ATOM     10  C   UNL A   1      30.807  24.313  23.180  1.00  0.00     0.121 C 
BRANCH   8  11
ATOM     11  C   UNL A   1      30.241  25.586  25.194  1.00  0.00     0.255 C 
ATOM     12  O   UNL A   1      29.626  25.554  26.255  1.00  0.00    -0.269 OA
BRANCH  11  13
ATOM     13  C   UNL A   1      30.336  26.886  24.518  1.00  0.00     0.061 A 
ATOM     14  C   UNL A   1      29.187  27.334  23.853  1.00  0.00     0.100 A 
ATOM     15  C   UNL A   1      31.520  27.634  24.492  1.00  0.00     0.031 A 
ATOM     16  C   UNL A   1      29.214  28.575  23.213  1.00  0.00     0.270 A 
ATOM     17  C   UNL A   1      31.530  28.881  23.861  1.00  0.00     0.023 A 
ATOM     18  Br  UNL A   1      33.146  27.017  25.251  1.00  0.00    -0.050 Br
ATOM     19  C   UNL A   1      30.377  29.359  23.228  1.00  0.00     0.087 A 
BRANCH  16  20
ATOM     20  N   UNL A   1      28.016  29.066  22.523  1.00  0.00     0.062 N 
ATOM     21  O   UNL A   1      26.912  28.770  23.001  1.00  0.00    -0.258 OA
ATOM     22  O   UNL A   1      28.180  29.758  21.509  1.00  0.00    -0.258 OA
ENDBRANCH  16  20
ENDBRANCH  11  13
ENDBRANCH   8  11
ENDBRANCH   3   5
ENDBRANCH   2   3
ENDBRANCH   1   2
BRANCH   1  23
ATOM     23  C   UNL A   1      36.057  20.720  25.228  1.00  0.00     0.275 C 
BRANCH  23  24
ATOM     24  O   UNL A   1      36.867  21.673  25.930  1.00  0.00    -0.458 OA
BRANCH  24  25
ATOM     25  C   UNL A   1      38.198  21.461  25.847  1.00  0.00     0.338 C 
ATOM     26  O   UNL A   1      38.775  20.536  25.305  1.00  0.00    -0.246 OA
BRANCH  25  27
ATOM     27  C   UNL A   1      38.895  22.594  26.461  1.00  0.00     0.060 A 
ATOM     28  C   UNL A   1      38.469  23.888  26.162  1.00  0.00     0.016 A 
ATOM     29  C   UNL A   1      40.035  22.376  27.229  1.00  0.00     0.016 A 
ATOM     30  C   UNL A   1      39.246  24.976  26.543  1.00  0.00     0.010 A 
ATOM     31  C   UNL A   1      40.751  23.476  27.704  1.00  0.00     0.010 A 
ATOM     32  C   UNL A   1      40.382  24.785  27.340  1.00  0.00    -0.014 A 
BRANCH  32  33
ATOM     33  C   UNL A   1      41.190  25.936  27.820  1.00  0.00     0.031 A 
ATOM     34  C   UNL A   1      40.546  27.001  28.663  1.00  0.00     0.074 A 
ATOM     35  C   UNL A   1      42.475  26.063  27.434  1.00  0.00     0.049 A 
ATOM     36  N   UNL A   1      40.971  28.205  28.938  1.00  0.00    -0.248 NA
ATOM     37  C   UNL A   1      39.238  26.676  29.258  1.00  0.00     0.031 C 
ATOM     38  C   UNL A   1      43.222  25.089  26.636  1.00  0.00     0.029 A 
ATOM     39  N   UNL A   1      43.372  27.085  27.632  1.00  0.00    -0.354 N 
ATOM     40  C   UNL A   1      39.952  28.812  29.663  1.00  0.00     0.074 A 
ATOM     41  C   UNL A   1      38.896  27.833  29.809  1.00  0.00     0.031 C 
ATOM     42  C   UNL A   1      44.457  25.557  26.408  1.00  0.00     0.029 A 
ATOM     43  C   UNL A   1      44.562  26.900  26.965  1.00  0.00     0.049 A 
ATOM     44  H   UNL A   1      43.182  27.871  28.194  1.00  0.00     0.167 HD
ATOM     45  C   UNL A   1      39.905  30.071  30.158  1.00  0.00     0.034 A 
ATOM     46  C   UNL A   1      45.599  27.735  26.770  1.00  0.00     0.034 A 
ATOM     47  C   UNL A   1      40.996  31.004  30.072  1.00  0.00     0.049 A 
ATOM     48  C   UNL A   1      45.534  29.119  27.349  1.00  0.00     0.074 A 
ATOM     49  C   UNL A   1      41.067  32.292  30.574  1.00  0.00     0.029 A 
ATOM     50  N   UNL A   1      42.212  30.743  29.460  1.00  0.00    -0.354 N 
ATOM     51  N   UNL A   1      44.576  29.670  28.055  1.00  0.00    -0.248 NA
ATOM     52  C   UNL A   1      46.690  29.995  27.115  1.00  0.00     0.031 C 
ATOM     53  C   UNL A   1      42.330  32.809  30.267  1.00  0.00     0.029 A 
ATOM     54  C   UNL A   1      43.045  31.842  29.578  1.00  0.00     0.049 A 
ATOM     55  H   UNL A   1      42.448  29.902  29.009  1.00  0.00     0.167 HD
ATOM     56  C   UNL A   1      45.021  30.947  28.369  1.00  0.00     0.074 A 
ATOM     57  C   UNL A   1      46.343  31.083  27.792  1.00  0.00     0.031 C 
ATOM     58  C   UNL A   1      44.384  31.927  29.054  1.00  0.00     0.034 A 
BRANCH  45  59
ATOM     59  C   UNL A   1      38.650  30.509  30.862  1.00  0.00     0.023 A 
ATOM     60  C   UNL A   1      38.523  30.313  32.251  1.00  0.00     0.012 A 
ATOM     61  C   UNL A   1      37.626  31.176  30.161  1.00  0.00     0.148 A 
ATOM     62  C   UNL A   1      37.388  30.757  32.929  1.00  0.00     0.002 A 
ATOM     63  C   UNL A   1      36.513  31.646  30.850  1.00  0.00     0.091 A 
ATOM     64  F   UNL A   1      37.750  31.328  28.835  1.00  0.00    -0.205 F 
ATOM     65  C   UNL A   1      36.389  31.432  32.232  1.00  0.00     0.022 A 
BRANCH  63  66
ATOM     66  S   UNL A   1      35.213  32.590  30.041  1.00  0.00     0.127 S 
ATOM     67  O   UNL A   1      35.955  33.746  29.541  1.00  0.00    -0.237 OA
ATOM     68  O   UNL A   1      34.753  31.666  29.003  1.00  0.00    -0.237 OA
ATOM     69  O   UNL A   1      34.228  32.871  31.075  1.00  0.00    -0.744 OA
ENDBRANCH  63  66
ENDBRANCH  45  59
BRANCH  46  70
ATOM     70  C   UNL A   1      46.785  27.263  26.001  1.00  0.00     0.023 A 
ATOM     71  C   UNL A   1      46.879  27.564  24.630  1.00  0.00     0.012 A 
ATOM     72  C   UNL A   1      47.854  26.597  26.631  1.00  0.00     0.148 A 
ATOM     73  C   UNL A   1      48.012  27.204  23.899  1.00  0.00     0.002 A 
ATOM     74  C   UNL A   1      49.007  26.297  25.912  1.00  0.00     0.091 A 
ATOM     75  F   UNL A   1      47.740  26.294  27.933  1.00  0.00    -0.205 F 
ATOM     76  C   UNL A   1      49.082  26.586  24.543  1.00  0.00     0.022 A 
BRANCH  74  77
ATOM     77  S   UNL A   1      50.480  25.653  26.715  1.00  0.00     0.127 S 
ATOM     78  O   UNL A   1      51.395  25.496  25.588  1.00  0.00    -0.237 OA
ATOM     79  O   UNL A   1      50.826  26.731  27.643  1.00  0.00    -0.237 OA
ATOM     80  O   UNL A   1      50.050  24.424  27.371  1.00  0.00    -0.744 OA
ENDBRANCH  74  77
ENDBRANCH  46  70
BRANCH  58  81
ATOM     81  C   UNL A   1      45.116  33.224  29.255  1.00  0.00     0.023 A 
ATOM     82  C   UNL A   1      46.014  33.351  30.332  1.00  0.00     0.012 A 
ATOM     83  C   UNL A   1      44.989  34.270  28.322  1.00  0.00     0.148 A 
ATOM     84  C   UNL A   1      46.769  34.512  30.485  1.00  0.00     0.002 A 
ATOM     85  C   UNL A   1      45.772  35.410  28.461  1.00  0.00     0.091 A 
ATOM     86  F   UNL A   1      44.113  34.129  27.318  1.00  0.00    -0.205 F 
ATOM     87  C   UNL A   1      46.658  35.535  29.544  1.00  0.00     0.022 A 
BRANCH  85  88
ATOM     88  S   UNL A   1      45.755  36.740  27.254  1.00  0.00     0.127 S 
ATOM     89  O   UNL A   1      46.477  37.794  27.963  1.00  0.00    -0.237 OA
ATOM     90  O   UNL A   1      46.482  36.150  26.130  1.00  0.00    -0.237 OA
ATOM     91  O   UNL A   1      44.349  37.016  26.983  1.00  0.00    -0.744 OA
ENDBRANCH  85  88
ENDBRANCH  58  81
ENDBRANCH  32  33
ENDBRANCH  25  27
ENDBRANCH  24  25
ENDBRANCH  23  24
ENDBRANCH   1  23
TORSDOF 17
ENDMDL
MODEL 3
REMARK VINA RESULT:     -12.0      1.387      1.864
REMARK SMILES C[C@H]1[C@@H](C(=O)OCCOC(=O)c2ccc(-c3c4nc(c(-c5cccc(S(=O)(=O)[O-])c5F)c5ccc([nH]5)c(-c5cccc(S(=O)(=O)[O-])c5F)c5nc(c(-c6cccc(S(=O)(=O)[O-])c6F)c6ccc3[nH]6)C=C5)C=C4)cc2)CCN1C(=O)c1cc([N+](=O)[O-])ccc1Br
REMARK SMILES IDX 7 1 6 2 4 3 5 4 3 5 1 6 2 7 77 8 75 9 76 10 78 11 79 12
REMARK SMILES IDX 80 13 81 14 88 15 82 16 87 17 89 18 86 19 83 20 84 21 85 22
REMARK SMILES IDX 8 23 9 24 10 25 11 26 12 27 13 28 74 29 14 30 73 31 15 32
REMARK SMILES IDX 16 33 17 34 67 35 18 36 72 37 66 38 68 39 19 40 71 41 65 42
REMARK SMILES IDX 64 43 20 45 52 46 32 47 51 48 33 49 36 50 50 51 69 52 34 53
REMARK SMILES IDX 35 54 49 56 70 57 37 58 21 59 22 60 30 61 23 62 25 63 31 64
REMARK SMILES IDX 24 65 26 66 27 67 28 68 29 69 53 70 54 71 62 72 55 73 57 74
REMARK SMILES IDX 63 75 56 76 58 77 59 78 60 79 61 80 38 81 39 82 47 83 40 84
REMARK SMILES IDX 42 85 48 86 41 87 43 88 44 89 45 90 46 91
REMARK H PARENT 68 44 36 55
REMARK Flexibility Score: inf
ROOT
ATOM      1  C   UNL A   1      31.382  28.612  24.821  1.00  0.00     0.274 C 
ENDROOT
BRANCH   1   2
ATOM      2  O   UNL A   1      31.953  28.520  23.498  1.00  0.00    -0.462 OA
BRANCH   2   3
ATOM      3  C   UNL A   1      31.238  27.878  22.551  1.00  0.00     0.311 C 
ATOM      4  O   UNL A   1      30.279  28.371  21.965  1.00  0.00    -0.252 OA
BRANCH   3   5
ATOM      5  C   UNL A   1      31.714  26.472  22.230  1.00  0.00     0.123 C 
ATOM      6  C   UNL A   1      29.941  25.364  23.838  1.00  0.00     0.032 C 
ATOM      7  C   UNL A   1      31.054  25.202  22.811  1.00  0.00     0.096 C 
ATOM      8  N   UNL A   1      32.176  24.427  23.363  1.00  0.00    -0.335 N 
ATOM      9  C   UNL A   1      33.217  26.301  22.503  1.00  0.00     0.039 C 
ATOM     10  C   UNL A   1      33.300  25.296  23.631  1.00  0.00     0.121 C 
BRANCH   8  11
ATOM     11  C   UNL A   1      32.288  23.067  23.566  1.00  0.00     0.255 C 
ATOM     12  O   UNL A   1      31.767  22.208  22.862  1.00  0.00    -0.269 OA
BRANCH  11  13
ATOM     13  C   UNL A   1      33.113  22.598  24.688  1.00  0.00     0.061 A 
ATOM     14  C   UNL A   1      34.385  22.107  24.370  1.00  0.00     0.100 A 
ATOM     15  C   UNL A   1      32.650  22.596  26.010  1.00  0.00     0.031 A 
ATOM     16  C   UNL A   1      35.220  21.670  25.401  1.00  0.00     0.270 A 
ATOM     17  C   UNL A   1      33.500  22.171  27.034  1.00  0.00     0.023 A 
ATOM     18  Br  UNL A   1      30.887  23.116  26.486  1.00  0.00    -0.050 Br
ATOM     19  C   UNL A   1      34.790  21.715  26.735  1.00  0.00     0.087 A 
BRANCH  16  20
ATOM     20  N   UNL A   1      36.562  21.164  25.087  1.00  0.00     0.062 N 
ATOM     21  O   UNL A   1      37.471  21.992  24.938  1.00  0.00    -0.258 OA
ATOM     22  O   UNL A   1      36.707  19.937  25.001  1.00  0.00    -0.258 OA
ENDBRANCH  16  20
ENDBRANCH  11  13
ENDBRANCH   8  11
ENDBRANCH   3   5
ENDBRANCH   2   3
ENDBRANCH   1   2
BRANCH   1  23
ATOM     23  C   UNL A   1      31.582  30.011  25.396  1.00  0.00     0.275 C 
BRANCH  23  24
ATOM     24  O   UNL A   1      32.944  30.175  25.814  1.00  0.00    -0.458 OA
BRANCH  24  25
ATOM     25  C   UNL A   1      33.130  31.060  26.817  1.00  0.00     0.338 C 
ATOM     26  O   UNL A   1      32.338  31.878  27.249  1.00  0.00    -0.246 OA
BRANCH  25  27
ATOM     27  C   UNL A   1      34.456  30.841  27.400  1.00  0.00     0.060 A 
ATOM     28  C   UNL A   1      34.825  29.545  27.762  1.00  0.00     0.016 A 
ATOM     29  C   UNL A   1      35.275  31.926  27.697  1.00  0.00     0.016 A 
ATOM     30  C   UNL A   1      35.972  29.340  28.519  1.00  0.00     0.010 A 
ATOM     31  C   UNL A   1      36.481  31.702  28.360  1.00  0.00     0.010 A 
ATOM     32  C   UNL A   1      36.827  30.413  28.807  1.00  0.00    -0.014 A 
BRANCH  32  33
ATOM     33  C   UNL A   1      38.096  30.209  29.554  1.00  0.00     0.031 A 
ATOM     34  C   UNL A   1      39.158  29.305  28.991  1.00  0.00     0.074 A 
ATOM     35  C   UNL A   1      38.259  30.772  30.768  1.00  0.00     0.049 A 
ATOM     36  N   UNL A   1      40.186  28.768  29.591  1.00  0.00    -0.248 NA
ATOM     37  C   UNL A   1      39.034  28.941  27.569  1.00  0.00     0.031 C 
ATOM     38  C   UNL A   1      37.313  31.684  31.413  1.00  0.00     0.029 A 
ATOM     39  N   UNL A   1      39.264  30.627  31.693  1.00  0.00    -0.354 N 
ATOM     40  C   UNL A   1      40.782  27.936  28.651  1.00  0.00     0.074 A 
ATOM     41  C   UNL A   1      40.017  28.060  27.429  1.00  0.00     0.031 C 
ATOM     42  C   UNL A   1      37.777  32.016  32.627  1.00  0.00     0.029 A 
ATOM     43  C   UNL A   1      39.005  31.272  32.881  1.00  0.00     0.049 A 
ATOM     44  H   UNL A   1      40.087  30.115  31.523  1.00  0.00     0.167 HD
ATOM     45  C   UNL A   1      41.869  27.142  28.798  1.00  0.00     0.034 A 
ATOM     46  C   UNL A   1      39.646  31.226  34.064  1.00  0.00     0.034 A 
ATOM     47  C   UNL A   1      42.666  27.091  29.994  1.00  0.00     0.049 A 
ATOM     48  C   UNL A   1      40.862  30.356  34.196  1.00  0.00     0.074 A 
ATOM     49  C   UNL A   1      43.809  26.350  30.235  1.00  0.00     0.029 A 
ATOM     50  N   UNL A   1      42.412  27.824  31.143  1.00  0.00    -0.354 N 
ATOM     51  N   UNL A   1      41.430  29.596  33.291  1.00  0.00    -0.248 NA
ATOM     52  C   UNL A   1      41.532  30.340  35.503  1.00  0.00     0.031 C 
ATOM     53  C   UNL A   1      44.249  26.638  31.531  1.00  0.00     0.029 A 
ATOM     54  C   UNL A   1      43.382  27.561  32.095  1.00  0.00     0.049 A 
ATOM     55  H   UNL A   1      41.655  28.440  31.264  1.00  0.00     0.167 HD
ATOM     56  C   UNL A   1      42.536  29.029  33.910  1.00  0.00     0.074 A 
ATOM     57  C   UNL A   1      42.570  29.547  35.263  1.00  0.00     0.031 C 
ATOM     58  C   UNL A   1      43.431  28.143  33.411  1.00  0.00     0.034 A 
BRANCH  45  59
ATOM     59  C   UNL A   1      42.282  26.285  27.633  1.00  0.00     0.023 A 
ATOM     60  C   UNL A   1      43.138  26.812  26.646  1.00  0.00     0.012 A 
ATOM     61  C   UNL A   1      41.880  24.937  27.551  1.00  0.00     0.148 A 
ATOM     62  C   UNL A   1      43.571  26.017  25.585  1.00  0.00     0.002 A 
ATOM     63  C   UNL A   1      42.344  24.141  26.509  1.00  0.00     0.091 A 
ATOM     64  F   UNL A   1      41.043  24.460  28.483  1.00  0.00    -0.205 F 
ATOM     65  C   UNL A   1      43.184  24.681  25.522  1.00  0.00     0.022 A 
BRANCH  63  66
ATOM     66  S   UNL A   1      41.952  22.390  26.393  1.00  0.00     0.127 S 
ATOM     67  O   UNL A   1      40.495  22.420  26.279  1.00  0.00    -0.237 OA
ATOM     68  O   UNL A   1      42.650  21.992  25.170  1.00  0.00    -0.237 OA
ATOM     69  O   UNL A   1      42.478  21.787  27.609  1.00  0.00    -0.744 OA
ENDBRANCH  63  66
ENDBRANCH  45  59
BRANCH  46  70
ATOM     70  C   UNL A   1      39.142  32.046  35.202  1.00  0.00     0.023 A 
ATOM     71  C   UNL A   1      38.239  31.473  36.116  1.00  0.00     0.012 A 
ATOM     72  C   UNL A   1      39.614  33.353  35.433  1.00  0.00     0.148 A 
ATOM     73  C   UNL A   1      37.809  32.188  37.234  1.00  0.00     0.002 A 
ATOM     74  C   UNL A   1      39.231  34.037  36.583  1.00  0.00     0.091 A 
ATOM     75  F   UNL A   1      40.455  33.897  34.541  1.00  0.00    -0.205 F 
ATOM     76  C   UNL A   1      38.318  33.462  37.477  1.00  0.00     0.022 A 
BRANCH  74  77
ATOM     77  S   UNL A   1      39.972  35.609  37.038  1.00  0.00     0.127 S 
ATOM     78  O   UNL A   1      41.382  35.254  37.164  1.00  0.00    -0.237 OA
ATOM     79  O   UNL A   1      39.651  36.451  35.883  1.00  0.00    -0.237 OA
ATOM     80  O   UNL A   1      39.296  36.009  38.266  1.00  0.00    -0.744 OA
ENDBRANCH  74  77
ENDBRANCH  46  70
BRANCH  58  81
ATOM     81  C   UNL A   1      44.548  27.699  34.314  1.00  0.00     0.023 A 
ATOM     82  C   UNL A   1      45.718  28.478  34.400  1.00  0.00     0.012 A 
ATOM     83  C   UNL A   1      44.393  26.575  35.145  1.00  0.00     0.148 A 
ATOM     84  C   UNL A   1      46.727  28.133  35.296  1.00  0.00     0.002 A 
ATOM     85  C   UNL A   1      45.388  26.258  36.062  1.00  0.00     0.091 A 
ATOM     86  F   UNL A   1      43.277  25.841  35.029  1.00  0.00    -0.205 F 
ATOM     87  C   UNL A   1      46.558  27.033  36.135  1.00  0.00     0.022 A 
BRANCH  85  88
ATOM     88  S   UNL A   1      45.219  24.910  37.237  1.00  0.00     0.127 S 
ATOM     89  O   UNL A   1      46.535  24.904  37.874  1.00  0.00    -0.237 OA
ATOM     90  O   UNL A   1      44.128  25.377  38.092  1.00  0.00    -0.237 OA
ATOM     91  O   UNL A   1      44.901  23.728  36.446  1.00  0.00    -0.744 OA
ENDBRANCH  85  88
ENDBRANCH  58  81
ENDBRANCH  32  33
ENDBRANCH  25  27
ENDBRANCH  24  25
ENDBRANCH  23  24
ENDBRANCH   1  23
TORSDOF 17
ENDMDL
