MODEL 1
REMARK VINA RESULT:     -11.9      0.000      0.000
REMARK SMILES O=C(COc1ccc(Br)cc1/C=C1\C(=O)Nc2ccc(Br)cc21)OCCOC(=O)c1ccc(-c2c3nc(c(-c4cccc(S(=O)(=O)[O-])c4F)c4ccc([nH]4)c(-c4cccc(S(=O)(=O)[O-])c4F)c4nc(c(-c5cccc(S(=O)(=O)[O-])c5F)c5ccc2[nH]5)C=C4)C=C3)cc1
REMARK SMILES IDX 25 1 24 2 2 3 1 4 3 5 4 6 5 7 6 8 11 9 7 10 10 11 8 12 9 13
REMARK SMILES IDX 12 14 13 15 14 16 23 17 15 18 16 19 17 20 22 21 18 23 20 24
REMARK SMILES IDX 19 25 21 26 26 27 27 28 28 29 29 30 30 31 31 32 92 33 32 34
REMARK SMILES IDX 91 35 33 36 34 37 35 38 85 39 36 40 90 41 84 42 86 43 37 44
REMARK SMILES IDX 89 45 83 46 82 47 38 49 70 50 50 51 69 52 51 53 54 54 68 55
REMARK SMILES IDX 87 56 52 57 53 58 67 60 88 61 55 62 39 63 40 64 48 65 41 66
REMARK SMILES IDX 43 67 49 68 42 69 44 70 45 71 46 72 47 73 71 74 72 75 80 76
REMARK SMILES IDX 73 77 75 78 81 79 74 80 76 81 77 82 78 83 79 84 56 85 57 86
REMARK SMILES IDX 65 87 58 88 60 89 66 90 59 91 61 92 62 93 63 94 64 95
REMARK H PARENT 16 22 86 48 54 59
REMARK Flexibility Score: inf
ROOT
ATOM      1  C   UNL A   1      32.159  30.139  26.870  1.00  0.00     0.274 C 
ENDROOT
BRANCH   1   2
ATOM      2  O   UNL A   1      32.215  29.590  25.538  1.00  0.00    -0.460 OA
BRANCH   2   3
ATOM      3  C   UNL A   1      33.323  28.980  25.050  1.00  0.00     0.344 C 
ATOM      4  O   UNL A   1      34.174  28.541  25.821  1.00  0.00    -0.248 OA
BRANCH   3   5
ATOM      5  C   UNL A   1      33.423  28.771  23.539  1.00  0.00     0.352 C 
BRANCH   5   6
ATOM      6  O   UNL A   1      32.786  27.583  23.046  1.00  0.00    -0.481 OA
BRANCH   6   7
ATOM      7  C   UNL A   1      31.426  27.792  22.927  1.00  0.00     0.127 A 
ATOM      8  C   UNL A   1      30.991  29.037  22.433  1.00  0.00     0.048 A 
ATOM      9  C   UNL A   1      30.507  26.804  23.342  1.00  0.00     0.018 A 
ATOM     10  C   UNL A   1      29.648  29.387  22.475  1.00  0.00     0.019 A 
ATOM     11  C   UNL A   1      29.167  27.221  23.424  1.00  0.00     0.027 A 
ATOM     12  C   UNL A   1      28.742  28.483  22.997  1.00  0.00     0.018 A 
ATOM     13  Br  UNL A   1      26.917  28.958  23.135  1.00  0.00    -0.051 Br
BRANCH   9  14
ATOM     14  C   UNL A   1      30.970  25.447  23.776  1.00  0.00     0.026 C 
ATOM     15  C   UNL A   1      31.505  25.045  24.949  1.00  0.00     0.050 C 
ATOM     16  C   UNL A   1      31.828  25.921  26.132  1.00  0.00     0.256 C 
ATOM     17  C   UNL A   1      32.432  23.909  25.045  1.00  0.00     0.012 A 
ATOM     18  O   UNL A   1      31.078  26.617  26.761  1.00  0.00    -0.269 OA
ATOM     19  N   UNL A   1      33.162  25.630  26.385  1.00  0.00    -0.321 N 
ATOM     20  C   UNL A   1      33.505  24.421  25.784  1.00  0.00     0.049 A 
ATOM     21  C   UNL A   1      32.423  22.580  24.665  1.00  0.00     0.026 A 
ATOM     22  H   UNL A   1      33.775  26.194  26.910  1.00  0.00     0.170 HD
ATOM     23  C   UNL A   1      34.664  23.714  25.990  1.00  0.00     0.028 A 
ATOM     24  C   UNL A   1      33.567  21.820  24.955  1.00  0.00     0.018 A 
ATOM     25  C   UNL A   1      34.703  22.395  25.550  1.00  0.00     0.018 A 
ATOM     26  Br  UNL A   1      33.566  19.957  24.616  1.00  0.00    -0.051 Br
ENDBRANCH   9  14
ENDBRANCH   6   7
ENDBRANCH   5   6
ENDBRANCH   3   5
ENDBRANCH   2   3
ENDBRANCH   1   2
BRANCH   1  27
ATOM     27  C   UNL A   1      32.272  31.663  26.814  1.00  0.00     0.275 C 
BRANCH  27  28
ATOM     28  O   UNL A   1      32.970  32.124  27.984  1.00  0.00    -0.458 OA
BRANCH  28  29
ATOM     29  C   UNL A   1      33.986  33.004  27.780  1.00  0.00     0.338 C 
ATOM     30  O   UNL A   1      33.894  34.137  27.346  1.00  0.00    -0.246 OA
BRANCH  29  31
ATOM     31  C   UNL A   1      35.209  32.416  28.377  1.00  0.00     0.060 A 
ATOM     32  C   UNL A   1      36.425  33.107  28.353  1.00  0.00     0.016 A 
ATOM     33  C   UNL A   1      35.146  31.124  28.910  1.00  0.00     0.016 A 
ATOM     34  C   UNL A   1      37.578  32.499  28.857  1.00  0.00     0.010 A 
ATOM     35  C   UNL A   1      36.303  30.515  29.408  1.00  0.00     0.010 A 
ATOM     36  C   UNL A   1      37.528  31.198  29.389  1.00  0.00    -0.014 A 
BRANCH  36  37
ATOM     37  C   UNL A   1      38.723  30.627  30.057  1.00  0.00     0.031 A 
ATOM     38  C   UNL A   1      39.137  31.041  31.442  1.00  0.00     0.074 A 
ATOM     39  C   UNL A   1      39.436  29.700  29.386  1.00  0.00     0.049 A 
ATOM     40  N   UNL A   1      40.120  30.575  32.170  1.00  0.00    -0.248 NA
ATOM     41  C   UNL A   1      38.354  32.099  32.105  1.00  0.00     0.031 C 
ATOM     42  C   UNL A   1      39.143  29.234  28.028  1.00  0.00     0.029 A 
ATOM     43  N   UNL A   1      40.549  28.986  29.750  1.00  0.00    -0.354 N 
ATOM     44  C   UNL A   1      40.075  31.267  33.374  1.00  0.00     0.074 A 
ATOM     45  C   UNL A   1      38.969  32.198  33.281  1.00  0.00     0.031 C 
ATOM     46  C   UNL A   1      40.050  28.308  27.677  1.00  0.00     0.029 A 
ATOM     47  C   UNL A   1      40.992  28.122  28.777  1.00  0.00     0.049 A 
ATOM     48  H   UNL A   1      40.991  29.084  30.625  1.00  0.00     0.167 HD
ATOM     49  C   UNL A   1      40.871  31.109  34.458  1.00  0.00     0.034 A 
ATOM     50  C   UNL A   1      42.030  27.264  28.771  1.00  0.00     0.034 A 
ATOM     51  C   UNL A   1      41.966  30.178  34.543  1.00  0.00     0.049 A 
ATOM     52  C   UNL A   1      42.886  27.124  29.996  1.00  0.00     0.074 A 
ATOM     53  C   UNL A   1      42.837  29.989  35.605  1.00  0.00     0.029 A 
ATOM     54  N   UNL A   1      42.333  29.278  33.561  1.00  0.00    -0.354 N 
ATOM     55  N   UNL A   1      42.756  27.715  31.156  1.00  0.00    -0.248 NA
ATOM     56  C   UNL A   1      44.007  26.174  29.926  1.00  0.00     0.031 C 
ATOM     57  C   UNL A   1      43.698  28.941  35.287  1.00  0.00     0.029 A 
ATOM     58  C   UNL A   1      43.390  28.506  34.010  1.00  0.00     0.049 A 
ATOM     59  H   UNL A   1      41.908  29.198  32.677  1.00  0.00     0.167 HD
ATOM     60  C   UNL A   1      43.746  27.174  31.966  1.00  0.00     0.074 A 
ATOM     61  C   UNL A   1      44.469  26.208  31.169  1.00  0.00     0.031 C 
ATOM     62  C   UNL A   1      44.034  27.472  33.253  1.00  0.00     0.034 A 
BRANCH  49  63
ATOM     63  C   UNL A   1      40.584  31.865  35.723  1.00  0.00     0.023 A 
ATOM     64  C   UNL A   1      41.380  33.001  35.981  1.00  0.00     0.012 A 
ATOM     65  C   UNL A   1      39.412  31.657  36.470  1.00  0.00     0.148 A 
ATOM     66  C   UNL A   1      41.008  33.927  36.955  1.00  0.00     0.002 A 
ATOM     67  C   UNL A   1      39.050  32.587  37.442  1.00  0.00     0.091 A 
ATOM     68  F   UNL A   1      38.661  30.581  36.199  1.00  0.00    -0.205 F 
ATOM     69  C   UNL A   1      39.847  33.717  37.689  1.00  0.00     0.022 A 
BRANCH  67  70
ATOM     70  S   UNL A   1      37.517  32.451  38.367  1.00  0.00     0.127 S 
ATOM     71  O   UNL A   1      36.557  32.968  37.392  1.00  0.00    -0.237 OA
ATOM     72  O   UNL A   1      37.421  31.012  38.615  1.00  0.00    -0.237 OA
ATOM     73  O   UNL A   1      37.711  33.258  39.563  1.00  0.00    -0.744 OA
ENDBRANCH  67  70
ENDBRANCH  49  63
BRANCH  50  74
ATOM     74  C   UNL A   1      42.262  26.391  27.590  1.00  0.00     0.023 A 
ATOM     75  C   UNL A   1      42.919  26.927  26.466  1.00  0.00     0.012 A 
ATOM     76  C   UNL A   1      41.854  25.045  27.582  1.00  0.00     0.148 A 
ATOM     77  C   UNL A   1      43.145  26.139  25.338  1.00  0.00     0.002 A 
ATOM     78  C   UNL A   1      42.117  24.256  26.470  1.00  0.00     0.091 A 
ATOM     79  F   UNL A   1      41.218  24.569  28.661  1.00  0.00    -0.205 F 
ATOM     80  C   UNL A   1      42.753  24.803  25.343  1.00  0.00     0.022 A 
BRANCH  78  81
ATOM     81  S   UNL A   1      41.727  22.504  26.421  1.00  0.00     0.127 S 
ATOM     82  O   UNL A   1      42.384  22.088  25.184  1.00  0.00    -0.237 OA
ATOM     83  O   UNL A   1      42.360  22.019  27.648  1.00  0.00    -0.237 OA
ATOM     84  O   UNL A   1      40.274  22.427  26.424  1.00  0.00    -0.744 OA
ENDBRANCH  78  81
ENDBRANCH  50  74
BRANCH  62  85
ATOM     85  C   UNL A   1      45.141  26.722  33.934  1.00  0.00     0.023 A 
ATOM     86  C   UNL A   1      46.434  27.276  33.962  1.00  0.00     0.012 A 
ATOM     87  C   UNL A   1      44.863  25.558  34.676  1.00  0.00     0.148 A 
ATOM     88  C   UNL A   1      47.441  26.677  34.717  1.00  0.00     0.002 A 
ATOM     89  C   UNL A   1      45.862  24.985  35.453  1.00  0.00     0.091 A 
ATOM     90  F   UNL A   1      43.623  25.050  34.626  1.00  0.00    -0.205 F 
ATOM     91  C   UNL A   1      47.152  25.541  35.471  1.00  0.00     0.022 A 
BRANCH  89  92
ATOM     92  S   UNL A   1      45.558  23.576  36.523  1.00  0.00     0.127 S 
ATOM     93  O   UNL A   1      46.915  23.094  36.775  1.00  0.00    -0.237 OA
ATOM     94  O   UNL A   1      44.905  24.196  37.678  1.00  0.00    -0.237 OA
ATOM     95  O   UNL A   1      44.705  22.671  35.764  1.00  0.00    -0.744 OA
ENDBRANCH  89  92
ENDBRANCH  62  85
ENDBRANCH  36  37
ENDBRANCH  29  31
ENDBRANCH  28  29
ENDBRANCH  27  28
ENDBRANCH   1  27
TORSDOF 17
ENDMDL
MODEL 2
REMARK VINA RESULT:     -11.8      2.339      7.616
REMARK SMILES O=C(COc1ccc(Br)cc1/C=C1\C(=O)Nc2ccc(Br)cc21)OCCOC(=O)c1ccc(-c2c3nc(c(-c4cccc(S(=O)(=O)[O-])c4F)c4ccc([nH]4)c(-c4cccc(S(=O)(=O)[O-])c4F)c4nc(c(-c5cccc(S(=O)(=O)[O-])c5F)c5ccc2[nH]5)C=C4)C=C3)cc1
REMARK SMILES IDX 25 1 24 2 2 3 1 4 3 5 4 6 5 7 6 8 11 9 7 10 10 11 8 12 9 13
REMARK SMILES IDX 12 14 13 15 14 16 23 17 15 18 16 19 17 20 22 21 18 23 20 24
REMARK SMILES IDX 19 25 21 26 26 27 27 28 28 29 29 30 30 31 31 32 92 33 32 34
REMARK SMILES IDX 91 35 33 36 34 37 35 38 85 39 36 40 90 41 84 42 86 43 37 44
REMARK SMILES IDX 89 45 83 46 82 47 38 49 70 50 50 51 69 52 51 53 54 54 68 55
REMARK SMILES IDX 87 56 52 57 53 58 67 60 88 61 55 62 39 63 40 64 48 65 41 66
REMARK SMILES IDX 43 67 49 68 42 69 44 70 45 71 46 72 47 73 71 74 72 75 80 76
REMARK SMILES IDX 73 77 75 78 81 79 74 80 76 81 77 82 78 83 79 84 56 85 57 86
REMARK SMILES IDX 65 87 58 88 60 89 66 90 59 91 61 92 62 93 63 94 64 95
REMARK H PARENT 16 22 86 48 54 59
REMARK Flexibility Score: inf
ROOT
ATOM      1  C   UNL A   1      32.017  28.978  27.260  1.00  0.00     0.274 C 
ENDROOT
BRANCH   1   2
ATOM      2  O   UNL A   1      32.060  28.291  25.994  1.00  0.00    -0.460 OA
BRANCH   2   3
ATOM      3  C   UNL A   1      33.149  27.597  25.581  1.00  0.00     0.344 C 
ATOM      4  O   UNL A   1      33.652  26.747  26.312  1.00  0.00    -0.248 OA
BRANCH   3   5
ATOM      5  C   UNL A   1      33.655  27.833  24.157  1.00  0.00     0.352 C 
BRANCH   5   6
ATOM      6  O   UNL A   1      33.044  27.012  23.150  1.00  0.00    -0.481 OA
BRANCH   6   7
ATOM      7  C   UNL A   1      31.726  27.385  22.974  1.00  0.00     0.127 A 
ATOM      8  C   UNL A   1      31.464  28.707  22.565  1.00  0.00     0.048 A 
ATOM      9  C   UNL A   1      30.679  26.480  23.250  1.00  0.00     0.018 A 
ATOM     10  C   UNL A   1      30.168  29.204  22.562  1.00  0.00     0.019 A 
ATOM     11  C   UNL A   1      29.390  27.040  23.292  1.00  0.00     0.027 A 
ATOM     12  C   UNL A   1      29.136  28.372  22.952  1.00  0.00     0.018 A 
ATOM     13  Br  UNL A   1      27.369  29.041  23.027  1.00  0.00    -0.051 Br
BRANCH   9  14
ATOM     14  C   UNL A   1      30.961  25.048  23.591  1.00  0.00     0.026 C 
ATOM     15  C   UNL A   1      30.869  24.402  24.774  1.00  0.00     0.050 C 
ATOM     16  C   UNL A   1      30.499  25.013  26.101  1.00  0.00     0.256 C 
ATOM     17  C   UNL A   1      31.705  23.240  25.103  1.00  0.00     0.012 A 
ATOM     18  O   UNL A   1      29.488  25.594  26.388  1.00  0.00    -0.269 OA
ATOM     19  N   UNL A   1      31.548  24.633  26.927  1.00  0.00    -0.321 N 
ATOM     20  C   UNL A   1      32.230  23.557  26.362  1.00  0.00     0.049 A 
ATOM     21  C   UNL A   1      31.981  22.014  24.526  1.00  0.00     0.026 A 
ATOM     22  H   UNL A   1      31.778  25.060  27.784  1.00  0.00     0.170 HD
ATOM     23  C   UNL A   1      33.180  22.785  26.982  1.00  0.00     0.028 A 
ATOM     24  C   UNL A   1      32.881  21.174  25.200  1.00  0.00     0.018 A 
ATOM     25  C   UNL A   1      33.527  21.579  26.380  1.00  0.00     0.018 A 
ATOM     26  Br  UNL A   1      33.182  19.417  24.561  1.00  0.00    -0.051 Br
ENDBRANCH   9  14
ENDBRANCH   6   7
ENDBRANCH   5   6
ENDBRANCH   3   5
ENDBRANCH   2   3
ENDBRANCH   1   2
BRANCH   1  27
ATOM     27  C   UNL A   1      32.357  30.457  27.066  1.00  0.00     0.275 C 
BRANCH  27  28
ATOM     28  O   UNL A   1      33.775  30.589  26.866  1.00  0.00    -0.458 OA
BRANCH  28  29
ATOM     29  C   UNL A   1      34.420  31.488  27.657  1.00  0.00     0.338 C 
ATOM     30  O   UNL A   1      33.992  32.558  28.044  1.00  0.00    -0.246 OA
BRANCH  29  31
ATOM     31  C   UNL A   1      35.663  30.841  28.141  1.00  0.00     0.060 A 
ATOM     32  C   UNL A   1      36.880  31.531  28.142  1.00  0.00     0.016 A 
ATOM     33  C   UNL A   1      35.616  29.500  28.538  1.00  0.00     0.016 A 
ATOM     34  C   UNL A   1      38.049  30.875  28.535  1.00  0.00     0.010 A 
ATOM     35  C   UNL A   1      36.788  28.843  28.924  1.00  0.00     0.010 A 
ATOM     36  C   UNL A   1      38.014  29.525  28.930  1.00  0.00    -0.014 A 
BRANCH  36  37
ATOM     37  C   UNL A   1      39.232  28.888  29.487  1.00  0.00     0.031 A 
ATOM     38  C   UNL A   1      39.862  27.679  28.853  1.00  0.00     0.074 A 
ATOM     39  C   UNL A   1      39.780  29.435  30.592  1.00  0.00     0.049 A 
ATOM     40  N   UNL A   1      40.964  27.062  29.196  1.00  0.00    -0.248 NA
ATOM     41  C   UNL A   1      39.189  27.090  27.682  1.00  0.00     0.031 C 
ATOM     42  C   UNL A   1      39.246  30.597  31.308  1.00  0.00     0.029 A 
ATOM     43  N   UNL A   1      40.901  29.092  31.302  1.00  0.00    -0.354 N 
ATOM     44  C   UNL A   1      41.126  26.021  28.290  1.00  0.00     0.074 A 
ATOM     45  C   UNL A   1      40.002  26.081  27.378  1.00  0.00     0.031 C 
ATOM     46  C   UNL A   1      40.043  30.872  32.353  1.00  0.00     0.029 A 
ATOM     47  C   UNL A   1      41.136  29.905  32.387  1.00  0.00     0.049 A 
ATOM     48  H   UNL A   1      41.483  28.335  31.061  1.00  0.00     0.167 HD
ATOM     49  C   UNL A   1      42.139  25.126  28.219  1.00  0.00     0.034 A 
ATOM     50  C   UNL A   1      42.126  29.886  33.299  1.00  0.00     0.034 A 
ATOM     51  C   UNL A   1      43.255  25.077  29.128  1.00  0.00     0.049 A 
ATOM     52  C   UNL A   1      43.227  28.873  33.181  1.00  0.00     0.074 A 
ATOM     53  C   UNL A   1      44.304  24.170  29.131  1.00  0.00     0.029 A 
ATOM     54  N   UNL A   1      43.486  25.959  30.165  1.00  0.00    -0.354 N 
ATOM     55  N   UNL A   1      43.411  27.969  32.253  1.00  0.00    -0.248 NA
ATOM     56  C   UNL A   1      44.278  28.900  34.211  1.00  0.00     0.031 C 
ATOM     57  C   UNL A   1      45.195  24.534  30.139  1.00  0.00     0.029 A 
ATOM     58  C   UNL A   1      44.679  25.642  30.788  1.00  0.00     0.049 A 
ATOM     59  H   UNL A   1      42.891  26.700  30.422  1.00  0.00     0.167 HD
ATOM     60  C   UNL A   1      44.617  27.353  32.561  1.00  0.00     0.074 A 
ATOM     61  C   UNL A   1      45.125  27.985  33.759  1.00  0.00     0.031 C 
ATOM     62  C   UNL A   1      45.234  26.342  31.911  1.00  0.00     0.034 A 
BRANCH  49  63
ATOM     63  C   UNL A   1      42.206  24.148  27.081  1.00  0.00     0.023 A 
ATOM     64  C   UNL A   1      43.026  24.498  25.988  1.00  0.00     0.012 A 
ATOM     65  C   UNL A   1      41.733  22.830  27.198  1.00  0.00     0.148 A 
ATOM     66  C   UNL A   1      43.388  23.547  25.034  1.00  0.00     0.002 A 
ATOM     67  C   UNL A   1      42.098  21.888  26.238  1.00  0.00     0.091 A 
ATOM     68  F   UNL A   1      40.969  22.514  28.252  1.00  0.00    -0.205 F 
ATOM     69  C   UNL A   1      42.918  22.245  25.156  1.00  0.00     0.022 A 
BRANCH  67  70
ATOM     70  S   UNL A   1      41.625  20.161  26.370  1.00  0.00     0.127 S 
ATOM     71  O   UNL A   1      40.177  20.254  26.193  1.00  0.00    -0.237 OA
ATOM     72  O   UNL A   1      42.340  19.550  25.249  1.00  0.00    -0.237 OA
ATOM     73  O   UNL A   1      42.083  19.731  27.683  1.00  0.00    -0.744 OA
ENDBRANCH  67  70
ENDBRANCH  49  63
BRANCH  50  74
ATOM     74  C   UNL A   1      42.176  30.927  34.359  1.00  0.00     0.023 A 
ATOM     75  C   UNL A   1      41.483  30.707  35.564  1.00  0.00     0.012 A 
ATOM     76  C   UNL A   1      42.910  32.115  34.186  1.00  0.00     0.148 A 
ATOM     77  C   UNL A   1      41.502  31.666  36.576  1.00  0.00     0.002 A 
ATOM     78  C   UNL A   1      42.955  33.048  35.212  1.00  0.00     0.091 A 
ATOM     79  F   UNL A   1      43.547  32.303  33.022  1.00  0.00    -0.205 F 
ATOM     80  C   UNL A   1      42.243  32.832  36.404  1.00  0.00     0.022 A 
BRANCH  78  81
ATOM     81  S   UNL A   1      43.954  34.537  35.115  1.00  0.00     0.127 S 
ATOM     82  O   UNL A   1      43.339  35.235  33.989  1.00  0.00    -0.237 OA
ATOM     83  O   UNL A   1      43.716  35.148  36.424  1.00  0.00    -0.237 OA
ATOM     84  O   UNL A   1      45.320  34.078  34.906  1.00  0.00    -0.744 OA
ENDBRANCH  78  81
ENDBRANCH  50  74
BRANCH  62  85
ATOM     85  C   UNL A   1      46.562  25.863  32.420  1.00  0.00     0.023 A 
ATOM     86  C   UNL A   1      47.742  26.453  31.931  1.00  0.00     0.012 A 
ATOM     87  C   UNL A   1      46.629  24.948  33.488  1.00  0.00     0.148 A 
ATOM     88  C   UNL A   1      48.975  26.134  32.496  1.00  0.00     0.002 A 
ATOM     89  C   UNL A   1      47.858  24.660  34.069  1.00  0.00     0.091 A 
ATOM     90  F   UNL A   1      45.488  24.397  33.929  1.00  0.00    -0.205 F 
ATOM     91  C   UNL A   1      49.031  25.250  33.571  1.00  0.00     0.022 A 
BRANCH  89  92
ATOM     92  S   UNL A   1      48.014  23.603  35.512  1.00  0.00     0.127 S 
ATOM     93  O   UNL A   1      47.168  24.295  36.482  1.00  0.00    -0.237 OA
ATOM     94  O   UNL A   1      47.474  22.332  35.027  1.00  0.00    -0.237 OA
ATOM     95  O   UNL A   1      49.434  23.570  35.833  1.00  0.00    -0.744 OA
ENDBRANCH  89  92
ENDBRANCH  62  85
ENDBRANCH  36  37
ENDBRANCH  29  31
ENDBRANCH  28  29
ENDBRANCH  27  28
ENDBRANCH   1  27
TORSDOF 17
ENDMDL
MODEL 3
REMARK VINA RESULT:     -11.7      6.447     11.767
REMARK SMILES O=C(COc1ccc(Br)cc1/C=C1\C(=O)Nc2ccc(Br)cc21)OCCOC(=O)c1ccc(-c2c3nc(c(-c4cccc(S(=O)(=O)[O-])c4F)c4ccc([nH]4)c(-c4cccc(S(=O)(=O)[O-])c4F)c4nc(c(-c5cccc(S(=O)(=O)[O-])c5F)c5ccc2[nH]5)C=C4)C=C3)cc1
REMARK SMILES IDX 25 1 24 2 2 3 1 4 3 5 4 6 5 7 6 8 11 9 7 10 10 11 8 12 9 13
REMARK SMILES IDX 12 14 13 15 14 16 23 17 15 18 16 19 17 20 22 21 18 23 20 24
REMARK SMILES IDX 19 25 21 26 26 27 27 28 28 29 29 30 30 31 31 32 92 33 32 34
REMARK SMILES IDX 91 35 33 36 34 37 35 38 85 39 36 40 90 41 84 42 86 43 37 44
REMARK SMILES IDX 89 45 83 46 82 47 38 49 70 50 50 51 69 52 51 53 54 54 68 55
REMARK SMILES IDX 87 56 52 57 53 58 67 60 88 61 55 62 39 63 40 64 48 65 41 66
REMARK SMILES IDX 43 67 49 68 42 69 44 70 45 71 46 72 47 73 71 74 72 75 80 76
REMARK SMILES IDX 73 77 75 78 81 79 74 80 76 81 77 82 78 83 79 84 56 85 57 86
REMARK SMILES IDX 65 87 58 88 60 89 66 90 59 91 61 92 62 93 63 94 64 95
REMARK H PARENT 16 22 86 48 54 59
REMARK Flexibility Score: inf
ROOT
ATOM      1  C   UNL A   1      42.499  20.404  26.768  1.00  0.00     0.274 C 
ENDROOT
BRANCH   1   2
ATOM      2  O   UNL A   1      42.698  20.977  25.460  1.00  0.00    -0.460 OA
BRANCH   2   3
ATOM      3  C   UNL A   1      43.328  22.163  25.274  1.00  0.00     0.344 C 
ATOM      4  O   UNL A   1      43.447  22.626  24.142  1.00  0.00    -0.248 OA
BRANCH   3   5
ATOM      5  C   UNL A   1      43.783  22.937  26.512  1.00  0.00     0.352 C 
BRANCH   5   6
ATOM      6  O   UNL A   1      44.922  23.787  26.312  1.00  0.00    -0.481 OA
BRANCH   6   7
ATOM      7  C   UNL A   1      45.378  24.259  27.527  1.00  0.00     0.127 A 
ATOM      8  C   UNL A   1      44.654  23.909  28.683  1.00  0.00     0.048 A 
ATOM      9  C   UNL A   1      46.501  25.110  27.593  1.00  0.00     0.018 A 
ATOM     10  C   UNL A   1      44.935  24.506  29.904  1.00  0.00     0.019 A 
ATOM     11  C   UNL A   1      46.713  25.736  28.834  1.00  0.00     0.027 A 
ATOM     12  C   UNL A   1      45.951  25.440  29.968  1.00  0.00     0.018 A 
ATOM     13  Br  UNL A   1      46.311  26.325  31.600  1.00  0.00    -0.051 Br
BRANCH   9  14
ATOM     14  C   UNL A   1      47.325  25.403  26.377  1.00  0.00     0.026 C 
ATOM     15  C   UNL A   1      48.665  25.370  26.205  1.00  0.00     0.050 C 
ATOM     16  C   UNL A   1      49.695  25.071  27.263  1.00  0.00     0.256 C 
ATOM     17  C   UNL A   1      49.354  26.218  25.223  1.00  0.00     0.012 A 
ATOM     18  O   UNL A   1      49.799  24.078  27.931  1.00  0.00    -0.269 OA
ATOM     19  N   UNL A   1      50.553  26.160  27.185  1.00  0.00    -0.321 N 
ATOM     20  C   UNL A   1      50.387  26.808  25.963  1.00  0.00     0.049 A 
ATOM     21  C   UNL A   1      49.249  26.459  23.866  1.00  0.00     0.026 A 
ATOM     22  H   UNL A   1      51.185  26.435  27.889  1.00  0.00     0.170 HD
ATOM     23  C   UNL A   1      51.199  27.786  25.447  1.00  0.00     0.028 A 
ATOM     24  C   UNL A   1      50.139  27.390  23.307  1.00  0.00     0.018 A 
ATOM     25  C   UNL A   1      51.061  28.097  24.098  1.00  0.00     0.018 A 
ATOM     26  Br  UNL A   1      50.168  27.651  21.432  1.00  0.00    -0.051 Br
ENDBRANCH   9  14
ENDBRANCH   6   7
ENDBRANCH   5   6
ENDBRANCH   3   5
ENDBRANCH   2   3
ENDBRANCH   1   2
BRANCH   1  27
ATOM     27  C   UNL A   1      41.005  20.245  27.049  1.00  0.00     0.275 C 
BRANCH  27  28
ATOM     28  O   UNL A   1      40.508  21.458  27.641  1.00  0.00    -0.458 OA
BRANCH  28  29
ATOM     29  C   UNL A   1      39.742  22.254  26.848  1.00  0.00     0.338 C 
ATOM     30  O   UNL A   1      38.858  21.896  26.093  1.00  0.00    -0.246 OA
BRANCH  29  31
ATOM     31  C   UNL A   1      40.031  23.659  27.218  1.00  0.00     0.060 A 
ATOM     32  C   UNL A   1      40.857  23.962  28.306  1.00  0.00     0.016 A 
ATOM     33  C   UNL A   1      39.411  24.688  26.500  1.00  0.00     0.016 A 
ATOM     34  C   UNL A   1      41.054  25.294  28.679  1.00  0.00     0.010 A 
ATOM     35  C   UNL A   1      39.604  26.021  26.878  1.00  0.00     0.010 A 
ATOM     36  C   UNL A   1      40.430  26.336  27.968  1.00  0.00    -0.014 A 
BRANCH  36  37
ATOM     37  C   UNL A   1      40.768  27.746  28.278  1.00  0.00     0.031 A 
ATOM     38  C   UNL A   1      39.722  28.748  28.681  1.00  0.00     0.074 A 
ATOM     39  C   UNL A   1      42.063  28.115  28.201  1.00  0.00     0.049 A 
ATOM     40  N   UNL A   1      39.887  29.994  29.044  1.00  0.00    -0.248 NA
ATOM     41  C   UNL A   1      38.317  28.304  28.693  1.00  0.00     0.031 C 
ATOM     42  C   UNL A   1      43.165  27.236  27.800  1.00  0.00     0.029 A 
ATOM     43  N   UNL A   1      42.672  29.317  28.454  1.00  0.00    -0.354 N 
ATOM     44  C   UNL A   1      38.620  30.486  29.335  1.00  0.00     0.074 A 
ATOM     45  C   UNL A   1      37.686  29.404  29.100  1.00  0.00     0.031 C 
ATOM     46  C   UNL A   1      44.315  27.928  27.840  1.00  0.00     0.029 A 
ATOM     47  C   UNL A   1      44.033  29.298  28.259  1.00  0.00     0.049 A 
ATOM     48  H   UNL A   1      42.181  30.120  28.746  1.00  0.00     0.167 HD
ATOM     49  C   UNL A   1      38.286  31.718  29.784  1.00  0.00     0.034 A 
ATOM     50  C   UNL A   1      44.955  30.267  28.412  1.00  0.00     0.034 A 
ATOM     51  C   UNL A   1      39.222  32.787  30.020  1.00  0.00     0.049 A 
ATOM     52  C   UNL A   1      44.537  31.619  28.911  1.00  0.00     0.074 A 
ATOM     53  C   UNL A   1      38.944  34.077  30.446  1.00  0.00     0.029 A 
ATOM     54  N   UNL A   1      40.593  32.701  29.874  1.00  0.00    -0.354 N 
ATOM     55  N   UNL A   1      43.348  32.024  29.279  1.00  0.00    -0.248 NA
ATOM     56  C   UNL A   1      45.590  32.637  29.053  1.00  0.00     0.031 C 
ATOM     57  C   UNL A   1      40.150  34.756  30.608  1.00  0.00     0.029 A 
ATOM     58  C   UNL A   1      41.175  33.901  30.242  1.00  0.00     0.049 A 
ATOM     59  H   UNL A   1      41.081  31.907  29.558  1.00  0.00     0.167 HD
ATOM     60  C   UNL A   1      43.519  33.323  29.739  1.00  0.00     0.074 A 
ATOM     61  C   UNL A   1      44.923  33.642  29.607  1.00  0.00     0.031 C 
ATOM     62  C   UNL A   1      42.583  34.176  30.212  1.00  0.00     0.034 A 
BRANCH  49  63
ATOM     63  C   UNL A   1      36.867  32.024  30.169  1.00  0.00     0.023 A 
ATOM     64  C   UNL A   1      36.503  31.780  31.510  1.00  0.00     0.012 A 
ATOM     65  C   UNL A   1      36.016  32.784  29.349  1.00  0.00     0.148 A 
ATOM     66  C   UNL A   1      35.320  32.299  32.036  1.00  0.00     0.002 A 
ATOM     67  C   UNL A   1      34.835  33.297  29.882  1.00  0.00     0.091 A 
ATOM     68  F   UNL A   1      36.386  33.019  28.083  1.00  0.00    -0.205 F 
ATOM     69  C   UNL A   1      34.484  33.052  31.220  1.00  0.00     0.022 A 
BRANCH  67  70
ATOM     70  S   UNL A   1      33.746  34.364  28.935  1.00  0.00     0.127 S 
ATOM     71  O   UNL A   1      33.182  33.411  27.981  1.00  0.00    -0.237 OA
ATOM     72  O   UNL A   1      32.807  34.842  29.951  1.00  0.00    -0.237 OA
ATOM     73  O   UNL A   1      34.605  35.398  28.375  1.00  0.00    -0.744 OA
ENDBRANCH  67  70
ENDBRANCH  49  63
BRANCH  50  74
ATOM     74  C   UNL A   1      46.392  29.965  28.181  1.00  0.00     0.023 A 
ATOM     75  C   UNL A   1      46.902  30.039  26.871  1.00  0.00     0.012 A 
ATOM     76  C   UNL A   1      47.249  29.623  29.242  1.00  0.00     0.148 A 
ATOM     77  C   UNL A   1      48.242  29.754  26.617  1.00  0.00     0.002 A 
ATOM     78  C   UNL A   1      48.591  29.377  28.987  1.00  0.00     0.091 A 
ATOM     79  F   UNL A   1      46.732  29.545  30.476  1.00  0.00    -0.205 F 
ATOM     80  C   UNL A   1      49.088  29.431  27.674  1.00  0.00     0.022 A 
BRANCH  78  81
ATOM     81  S   UNL A   1      49.773  29.040  30.296  1.00  0.00     0.127 S 
ATOM     82  O   UNL A   1      49.498  30.128  31.232  1.00  0.00    -0.237 OA
ATOM     83  O   UNL A   1      49.352  27.714  30.751  1.00  0.00    -0.237 OA
ATOM     84  O   UNL A   1      51.082  29.068  29.659  1.00  0.00    -0.744 OA
ENDBRANCH  78  81
ENDBRANCH  50  74
BRANCH  62  85
ATOM     85  C   UNL A   1      43.019  35.532  30.687  1.00  0.00     0.023 A 
ATOM     86  C   UNL A   1      43.404  35.702  32.029  1.00  0.00     0.012 A 
ATOM     87  C   UNL A   1      43.195  36.585  29.769  1.00  0.00     0.148 A 
ATOM     88  C   UNL A   1      43.956  36.909  32.455  1.00  0.00     0.002 A 
ATOM     89  C   UNL A   1      43.776  37.774  30.194  1.00  0.00     0.091 A 
ATOM     90  F   UNL A   1      42.813  36.396  28.498  1.00  0.00    -0.205 F 
ATOM     91  C   UNL A   1      44.153  37.937  31.537  1.00  0.00     0.022 A 
BRANCH  89  92
ATOM     92  S   UNL A   1      44.149  39.118  29.064  1.00  0.00     0.127 S 
ATOM     93  O   UNL A   1      45.051  38.468  28.114  1.00  0.00    -0.237 OA
ATOM     94  O   UNL A   1      42.829  39.448  28.525  1.00  0.00    -0.237 OA
ATOM     95  O   UNL A   1      44.749  40.170  29.874  1.00  0.00    -0.744 OA
ENDBRANCH  89  92
ENDBRANCH  62  85
ENDBRANCH  36  37
ENDBRANCH  29  31
ENDBRANCH  28  29
ENDBRANCH  27  28
ENDBRANCH   1  27
TORSDOF 17
ENDMDL
