MODEL 1
REMARK VINA RESULT:     -11.0      0.000      0.000
REMARK SMILES C[NH2+][C@@H](C)c1ccc(SCc2ccc(C(=O)OCCOC(=O)c3ccc(-c4c5nc(c(-c6cccc(S(=O)(=O)[O-])c6F)c6ccc([nH]6)c(-c6cccc(S(=O)(=O)[O-])c6F)c6nc(c(-c7cccc(S(=O)(=O)[O-])c7F)c7ccc4[nH]7)C=C6)C=C5)cc3)cc2)cc1
REMARK SMILES IDX 18 1 17 2 15 3 16 4 14 5 11 6 12 7 87 8 13 9 86 10 10 11
REMARK SMILES IDX 9 12 8 13 5 14 6 15 89 16 7 17 88 18 3 19 4 20 2 21 1 22
REMARK SMILES IDX 19 25 20 26 21 27 22 28 23 29 24 30 85 31 25 32 84 33 26 34
REMARK SMILES IDX 27 35 28 36 78 37 29 38 83 39 77 40 79 41 30 42 82 43 76 44
REMARK SMILES IDX 75 45 31 47 63 48 43 49 62 50 44 51 47 52 61 53 80 54 45 55
REMARK SMILES IDX 46 56 60 58 81 59 48 60 32 61 33 62 41 63 34 64 36 65 42 66
REMARK SMILES IDX 35 67 37 68 38 69 39 70 40 71 64 72 65 73 73 74 66 75 68 76
REMARK SMILES IDX 74 77 67 78 69 79 70 80 71 81 72 82 49 83 50 84 58 85 51 86
REMARK SMILES IDX 53 87 59 88 52 89 54 90 55 91 56 92 57 93
REMARK H PARENT 2 23 2 24 79 46 47 57
REMARK Flexibility Score: inf
ROOT
ATOM      1  C   UNL A   1      37.724  19.476  24.740  1.00  0.00     0.275 C 
ENDROOT
BRANCH   1   2
ATOM      2  O   UNL A   1      36.842  20.418  25.386  1.00  0.00    -0.458 OA
BRANCH   2   3
ATOM      3  C   UNL A   1      36.591  21.546  24.676  1.00  0.00     0.338 C 
ATOM      4  O   UNL A   1      37.371  22.117  23.934  1.00  0.00    -0.246 OA
BRANCH   3   5
ATOM      5  C   UNL A   1      35.200  22.020  24.866  1.00  0.00     0.060 A 
ATOM      6  C   UNL A   1      32.449  22.450  25.237  1.00  0.00    -0.038 A 
ATOM      7  C   UNL A   1      33.252  22.089  26.316  1.00  0.00     0.005 A 
ATOM      8  C   UNL A   1      33.064  22.727  23.998  1.00  0.00     0.005 A 
ATOM      9  C   UNL A   1      34.600  21.828  26.114  1.00  0.00     0.016 A 
ATOM     10  C   UNL A   1      34.438  22.515  23.811  1.00  0.00     0.016 A 
BRANCH   6  11
ATOM     11  C   UNL A   1      30.944  22.483  25.376  1.00  0.00     0.110 C 
BRANCH  11  12
ATOM     12  S   UNL A   1      30.269  23.723  26.559  1.00  0.00    -0.121 SA
BRANCH  12  13
ATOM     13  C   UNL A   1      31.014  25.291  26.109  1.00  0.00     0.008 A 
ATOM     14  C   UNL A   1      32.029  27.834  25.325  1.00  0.00     0.009 A 
ATOM     15  C   UNL A   1      30.783  27.383  24.868  1.00  0.00     0.011 A 
ATOM     16  C   UNL A   1      32.752  26.996  26.184  1.00  0.00     0.011 A 
ATOM     17  C   UNL A   1      30.289  26.126  25.246  1.00  0.00     0.015 A 
ATOM     18  C   UNL A   1      32.241  25.754  26.580  1.00  0.00     0.015 A 
BRANCH  14  19
ATOM     19  C   UNL A   1      32.511  29.236  24.966  1.00  0.00     0.210 C 
ATOM     20  C   UNL A   1      31.678  30.340  25.636  1.00  0.00     0.081 C 
BRANCH  19  21
ATOM     21  N   UNL A   1      32.533  29.344  23.498  1.00  0.00    -0.343 N 
ATOM     22  C   UNL A   1      33.650  28.668  22.865  1.00  0.00     0.331 C 
ATOM     23  H   UNL A   1      31.669  28.940  23.136  1.00  0.00     0.346 HD
ATOM     24  H   UNL A   1      32.630  30.335  23.280  1.00  0.00     0.346 HD
ENDBRANCH  19  21
ENDBRANCH  14  19
ENDBRANCH  12  13
ENDBRANCH  11  12
ENDBRANCH   6  11
ENDBRANCH   3   5
ENDBRANCH   2   3
ENDBRANCH   1   2
BRANCH   1  25
ATOM     25  C   UNL A   1      38.989  19.221  25.563  1.00  0.00     0.275 C 
BRANCH  25  26
ATOM     26  O   UNL A   1      39.738  20.434  25.759  1.00  0.00    -0.458 OA
BRANCH  26  27
ATOM     27  C   UNL A   1      40.491  20.458  26.879  1.00  0.00     0.338 C 
ATOM     28  O   UNL A   1      41.031  19.508  27.428  1.00  0.00    -0.246 OA
BRANCH  27  29
ATOM     29  C   UNL A   1      40.676  21.835  27.354  1.00  0.00     0.060 A 
ATOM     30  C   UNL A   1      40.007  22.846  26.680  1.00  0.00     0.016 A 
ATOM     31  C   UNL A   1      41.663  22.152  28.281  1.00  0.00     0.016 A 
ATOM     32  C   UNL A   1      40.450  24.160  26.774  1.00  0.00     0.010 A 
ATOM     33  C   UNL A   1      41.984  23.499  28.507  1.00  0.00     0.010 A 
ATOM     34  C   UNL A   1      41.425  24.519  27.714  1.00  0.00    -0.014 A 
BRANCH  34  35
ATOM     35  C   UNL A   1      41.843  25.947  27.864  1.00  0.00     0.031 A 
ATOM     36  C   UNL A   1      43.205  26.406  27.402  1.00  0.00     0.074 A 
ATOM     37  C   UNL A   1      41.006  26.838  28.440  1.00  0.00     0.049 A 
ATOM     38  N   UNL A   1      43.811  27.546  27.619  1.00  0.00    -0.248 NA
ATOM     39  C   UNL A   1      44.003  25.453  26.613  1.00  0.00     0.031 C 
ATOM     40  C   UNL A   1      39.655  26.544  28.926  1.00  0.00     0.029 A 
ATOM     41  N   UNL A   1      41.172  28.172  28.731  1.00  0.00    -0.354 N 
ATOM     42  C   UNL A   1      45.083  27.418  27.070  1.00  0.00     0.074 A 
ATOM     43  C   UNL A   1      45.161  26.088  26.502  1.00  0.00     0.031 C 
ATOM     44  C   UNL A   1      39.106  27.659  29.424  1.00  0.00     0.029 A 
ATOM     45  C   UNL A   1      40.100  28.722  29.399  1.00  0.00     0.049 A 
ATOM     46  H   UNL A   1      41.977  28.682  28.486  1.00  0.00     0.167 HD
ATOM     47  C   UNL A   1      46.092  28.323  27.038  1.00  0.00     0.034 A 
ATOM     48  C   UNL A   1      39.944  29.922  29.988  1.00  0.00     0.034 A 
ATOM     49  C   UNL A   1      45.984  29.666  27.547  1.00  0.00     0.049 A 
ATOM     50  C   UNL A   1      41.078  30.905  29.945  1.00  0.00     0.074 A 
ATOM     51  C   UNL A   1      46.930  30.677  27.512  1.00  0.00     0.029 A 
ATOM     52  N   UNL A   1      44.867  30.188  28.178  1.00  0.00    -0.354 N 
ATOM     53  N   UNL A   1      42.254  30.779  29.382  1.00  0.00    -0.248 NA
ATOM     54  C   UNL A   1      40.858  32.199  30.603  1.00  0.00     0.031 C 
ATOM     55  C   UNL A   1      46.396  31.798  28.155  1.00  0.00     0.029 A 
ATOM     56  C   UNL A   1      45.102  31.502  28.550  1.00  0.00     0.049 A 
ATOM     57  H   UNL A   1      44.028  29.697  28.339  1.00  0.00     0.167 HD
ATOM     58  C   UNL A   1      42.905  31.988  29.590  1.00  0.00     0.074 A 
ATOM     59  C   UNL A   1      41.982  32.840  30.312  1.00  0.00     0.031 C 
ATOM     60  C   UNL A   1      44.158  32.355  29.226  1.00  0.00     0.034 A 
BRANCH  47  61
ATOM     61  C   UNL A   1      47.408  27.899  26.431  1.00  0.00     0.023 A 
ATOM     62  C   UNL A   1      48.469  27.477  27.258  1.00  0.00     0.012 A 
ATOM     63  C   UNL A   1      47.572  27.863  25.031  1.00  0.00     0.148 A 
ATOM     64  C   UNL A   1      49.682  27.067  26.704  1.00  0.00     0.002 A 
ATOM     65  C   UNL A   1      48.767  27.406  24.485  1.00  0.00     0.091 A 
ATOM     66  F   UNL A   1      46.560  28.280  24.258  1.00  0.00    -0.205 F 
ATOM     67  C   UNL A   1      49.828  27.021  25.320  1.00  0.00     0.022 A 
BRANCH  65  68
ATOM     68  S   UNL A   1      49.022  27.229  22.715  1.00  0.00     0.127 S 
ATOM     69  O   UNL A   1      48.379  28.438  22.202  1.00  0.00    -0.237 OA
ATOM     70  O   UNL A   1      50.482  27.226  22.613  1.00  0.00    -0.237 OA
ATOM     71  O   UNL A   1      48.384  25.975  22.339  1.00  0.00    -0.744 OA
ENDBRANCH  65  68
ENDBRANCH  47  61
BRANCH  48  72
ATOM     72  C   UNL A   1      38.662  30.251  30.676  1.00  0.00     0.023 A 
ATOM     73  C   UNL A   1      38.471  29.861  32.014  1.00  0.00     0.012 A 
ATOM     74  C   UNL A   1      37.651  30.988  30.024  1.00  0.00     0.148 A 
ATOM     75  C   UNL A   1      37.288  30.175  32.683  1.00  0.00     0.002 A 
ATOM     76  C   UNL A   1      36.503  31.353  30.716  1.00  0.00     0.091 A 
ATOM     77  F   UNL A   1      37.847  31.340  28.745  1.00  0.00    -0.205 F 
ATOM     78  C   UNL A   1      36.311  30.932  32.040  1.00  0.00     0.022 A 
BRANCH  76  79
ATOM     79  S   UNL A   1      35.262  32.445  30.014  1.00  0.00     0.127 S 
ATOM     80  O   UNL A   1      36.065  33.601  29.627  1.00  0.00    -0.237 OA
ATOM     81  O   UNL A   1      34.754  31.645  28.898  1.00  0.00    -0.237 OA
ATOM     82  O   UNL A   1      34.292  32.675  31.076  1.00  0.00    -0.744 OA
ENDBRANCH  76  79
ENDBRANCH  48  72
BRANCH  60  83
ATOM     83  C   UNL A   1      44.591  33.760  29.549  1.00  0.00     0.023 A 
ATOM     84  C   UNL A   1      45.140  34.058  30.812  1.00  0.00     0.012 A 
ATOM     85  C   UNL A   1      44.510  34.771  28.573  1.00  0.00     0.148 A 
ATOM     86  C   UNL A   1      45.570  35.350  31.109  1.00  0.00     0.002 A 
ATOM     87  C   UNL A   1      44.991  36.042  28.856  1.00  0.00     0.091 A 
ATOM     88  F   UNL A   1      43.965  34.470  27.385  1.00  0.00    -0.205 F 
ATOM     89  C   UNL A   1      45.508  36.338  30.128  1.00  0.00     0.022 A 
BRANCH  87  90
ATOM     90  S   UNL A   1      45.042  37.349  27.625  1.00  0.00     0.127 S 
ATOM     91  O   UNL A   1      43.621  37.555  27.350  1.00  0.00    -0.237 OA
ATOM     92  O   UNL A   1      45.685  38.439  28.361  1.00  0.00    -0.237 OA
ATOM     93  O   UNL A   1      45.823  36.826  26.513  1.00  0.00    -0.744 OA
ENDBRANCH  87  90
ENDBRANCH  60  83
ENDBRANCH  34  35
ENDBRANCH  27  29
ENDBRANCH  26  27
ENDBRANCH  25  26
ENDBRANCH   1  25
TORSDOF 19
ENDMDL
MODEL 2
REMARK VINA RESULT:     -11.0      1.603      2.042
REMARK SMILES C[NH2+][C@@H](C)c1ccc(SCc2ccc(C(=O)OCCOC(=O)c3ccc(-c4c5nc(c(-c6cccc(S(=O)(=O)[O-])c6F)c6ccc([nH]6)c(-c6cccc(S(=O)(=O)[O-])c6F)c6nc(c(-c7cccc(S(=O)(=O)[O-])c7F)c7ccc4[nH]7)C=C6)C=C5)cc3)cc2)cc1
REMARK SMILES IDX 18 1 17 2 15 3 16 4 14 5 11 6 12 7 87 8 13 9 86 10 10 11
REMARK SMILES IDX 9 12 8 13 5 14 6 15 89 16 7 17 88 18 3 19 4 20 2 21 1 22
REMARK SMILES IDX 19 25 20 26 21 27 22 28 23 29 24 30 85 31 25 32 84 33 26 34
REMARK SMILES IDX 27 35 28 36 78 37 29 38 83 39 77 40 79 41 30 42 82 43 76 44
REMARK SMILES IDX 75 45 31 47 63 48 43 49 62 50 44 51 47 52 61 53 80 54 45 55
REMARK SMILES IDX 46 56 60 58 81 59 48 60 32 61 33 62 41 63 34 64 36 65 42 66
REMARK SMILES IDX 35 67 37 68 38 69 39 70 40 71 64 72 65 73 73 74 66 75 68 76
REMARK SMILES IDX 74 77 67 78 69 79 70 80 71 81 72 82 49 83 50 84 58 85 51 86
REMARK SMILES IDX 53 87 59 88 52 89 54 90 55 91 56 92 57 93
REMARK H PARENT 2 23 2 24 79 46 47 57
REMARK Flexibility Score: inf
ROOT
ATOM      1  C   UNL A   1      36.521  21.094  25.545  1.00  0.00     0.275 C 
ENDROOT
BRANCH   1   2
ATOM      2  O   UNL A   1      35.817  21.285  24.300  1.00  0.00    -0.458 OA
BRANCH   2   3
ATOM      3  C   UNL A   1      35.859  22.547  23.806  1.00  0.00     0.338 C 
ATOM      4  O   UNL A   1      36.834  23.100  23.329  1.00  0.00    -0.246 OA
BRANCH   3   5
ATOM      5  C   UNL A   1      34.535  23.209  23.869  1.00  0.00     0.060 A 
ATOM      6  C   UNL A   1      31.974  24.314  23.532  1.00  0.00    -0.038 A 
ATOM      7  C   UNL A   1      32.121  22.949  23.767  1.00  0.00     0.005 A 
ATOM      8  C   UNL A   1      33.115  25.140  23.602  1.00  0.00     0.005 A 
ATOM      9  C   UNL A   1      33.393  22.404  23.881  1.00  0.00     0.016 A 
ATOM     10  C   UNL A   1      34.395  24.591  23.772  1.00  0.00     0.016 A 
BRANCH   6  11
ATOM     11  C   UNL A   1      30.630  24.886  23.145  1.00  0.00     0.110 C 
BRANCH  11  12
ATOM     12  S   UNL A   1      29.770  25.875  24.440  1.00  0.00    -0.121 SA
BRANCH  12  13
ATOM     13  C   UNL A   1      29.447  27.478  23.704  1.00  0.00     0.008 A 
ATOM     14  C   UNL A   1      28.752  29.994  22.565  1.00  0.00     0.009 A 
ATOM     15  C   UNL A   1      27.775  29.020  22.813  1.00  0.00     0.011 A 
ATOM     16  C   UNL A   1      30.077  29.690  22.903  1.00  0.00     0.011 A 
ATOM     17  C   UNL A   1      28.121  27.777  23.364  1.00  0.00     0.015 A 
ATOM     18  C   UNL A   1      30.412  28.459  23.479  1.00  0.00     0.015 A 
BRANCH  14  19
ATOM     19  C   UNL A   1      28.345  31.367  22.040  1.00  0.00     0.210 C 
ATOM     20  C   UNL A   1      27.948  31.341  20.555  1.00  0.00     0.081 C 
BRANCH  19  21
ATOM     21  N   UNL A   1      29.445  32.303  22.324  1.00  0.00    -0.343 N 
ATOM     22  C   UNL A   1      29.065  33.444  23.135  1.00  0.00     0.331 C 
ATOM     23  H   UNL A   1      30.179  31.793  22.815  1.00  0.00     0.346 HD
ATOM     24  H   UNL A   1      29.752  32.673  21.425  1.00  0.00     0.346 HD
ENDBRANCH  19  21
ENDBRANCH  14  19
ENDBRANCH  12  13
ENDBRANCH  11  12
ENDBRANCH   6  11
ENDBRANCH   3   5
ENDBRANCH   2   3
ENDBRANCH   1   2
BRANCH   1  25
ATOM     25  C   UNL A   1      37.822  20.312  25.351  1.00  0.00     0.275 C 
BRANCH  25  26
ATOM     26  O   UNL A   1      38.966  21.184  25.376  1.00  0.00    -0.458 OA
BRANCH  26  27
ATOM     27  C   UNL A   1      39.743  21.066  26.475  1.00  0.00     0.338 C 
ATOM     28  O   UNL A   1      40.225  20.040  26.932  1.00  0.00    -0.246 OA
BRANCH  27  29
ATOM     29  C   UNL A   1      40.034  22.384  27.052  1.00  0.00     0.060 A 
ATOM     30  C   UNL A   1      39.370  23.482  26.523  1.00  0.00     0.016 A 
ATOM     31  C   UNL A   1      41.102  22.571  27.921  1.00  0.00     0.016 A 
ATOM     32  C   UNL A   1      39.887  24.760  26.696  1.00  0.00     0.010 A 
ATOM     33  C   UNL A   1      41.509  23.875  28.238  1.00  0.00     0.010 A 
ATOM     34  C   UNL A   1      40.947  24.987  27.583  1.00  0.00    -0.014 A 
BRANCH  34  35
ATOM     35  C   UNL A   1      41.449  26.375  27.824  1.00  0.00     0.031 A 
ATOM     36  C   UNL A   1      42.852  26.769  27.428  1.00  0.00     0.074 A 
ATOM     37  C   UNL A   1      40.651  27.287  28.423  1.00  0.00     0.049 A 
ATOM     38  N   UNL A   1      43.521  27.855  27.725  1.00  0.00    -0.248 NA
ATOM     39  C   UNL A   1      43.614  25.809  26.612  1.00  0.00     0.031 C 
ATOM     40  C   UNL A   1      39.269  27.056  28.852  1.00  0.00     0.029 A 
ATOM     41  N   UNL A   1      40.891  28.590  28.792  1.00  0.00    -0.354 N 
ATOM     42  C   UNL A   1      44.800  27.673  27.208  1.00  0.00     0.074 A 
ATOM     43  C   UNL A   1      44.812  26.373  26.570  1.00  0.00     0.031 C 
ATOM     44  C   UNL A   1      38.776  28.176  29.394  1.00  0.00     0.029 A 
ATOM     45  C   UNL A   1      39.835  29.172  29.458  1.00  0.00     0.049 A 
ATOM     46  H   UNL A   1      41.734  29.059  28.599  1.00  0.00     0.167 HD
ATOM     47  C   UNL A   1      45.864  28.511  27.255  1.00  0.00     0.034 A 
ATOM     48  C   UNL A   1      39.736  30.347  30.106  1.00  0.00     0.034 A 
ATOM     49  C   UNL A   1      45.825  29.830  27.833  1.00  0.00     0.049 A 
ATOM     50  C   UNL A   1      40.930  31.255  30.151  1.00  0.00     0.074 A 
ATOM     51  C   UNL A   1      46.833  30.778  27.883  1.00  0.00     0.029 A 
ATOM     52  N   UNL A   1      44.722  30.389  28.460  1.00  0.00    -0.354 N 
ATOM     53  N   UNL A   1      42.114  31.083  29.617  1.00  0.00    -0.248 NA
ATOM     54  C   UNL A   1      40.771  32.524  30.872  1.00  0.00     0.031 C 
ATOM     55  C   UNL A   1      46.350  31.895  28.570  1.00  0.00     0.029 A 
ATOM     56  C   UNL A   1      45.027  31.663  28.910  1.00  0.00     0.049 A 
ATOM     57  H   UNL A   1      43.850  29.946  28.569  1.00  0.00     0.167 HD
ATOM     58  C   UNL A   1      42.832  32.235  29.909  1.00  0.00     0.074 A 
ATOM     59  C   UNL A   1      41.942  33.106  30.650  1.00  0.00     0.031 C 
ATOM     60  C   UNL A   1      44.117  32.539  29.603  1.00  0.00     0.034 A 
BRANCH  47  61
ATOM     61  C   UNL A   1      47.170  28.036  26.665  1.00  0.00     0.023 A 
ATOM     62  C   UNL A   1      48.210  27.590  27.506  1.00  0.00     0.012 A 
ATOM     63  C   UNL A   1      47.344  27.976  25.266  1.00  0.00     0.148 A 
ATOM     64  C   UNL A   1      49.413  27.132  26.968  1.00  0.00     0.002 A 
ATOM     65  C   UNL A   1      48.527  27.472  24.737  1.00  0.00     0.091 A 
ATOM     66  F   UNL A   1      46.353  28.416  24.480  1.00  0.00    -0.205 F 
ATOM     67  C   UNL A   1      49.568  27.062  25.586  1.00  0.00     0.022 A 
BRANCH  65  68
ATOM     68  S   UNL A   1      48.790  27.263  22.972  1.00  0.00     0.127 S 
ATOM     69  O   UNL A   1      50.246  27.356  22.877  1.00  0.00    -0.237 OA
ATOM     70  O   UNL A   1      48.249  25.923  22.736  1.00  0.00    -0.237 OA
ATOM     71  O   UNL A   1      48.051  28.338  22.324  1.00  0.00    -0.744 OA
ENDBRANCH  65  68
ENDBRANCH  47  61
BRANCH  48  72
ATOM     72  C   UNL A   1      38.455  30.722  30.773  1.00  0.00     0.023 A 
ATOM     73  C   UNL A   1      38.275  30.440  32.140  1.00  0.00     0.012 A 
ATOM     74  C   UNL A   1      37.435  31.396  30.070  1.00  0.00     0.148 A 
ATOM     75  C   UNL A   1      37.093  30.799  32.788  1.00  0.00     0.002 A 
ATOM     76  C   UNL A   1      36.288  31.808  30.737  1.00  0.00     0.091 A 
ATOM     77  F   UNL A   1      37.621  31.645  28.766  1.00  0.00    -0.205 F 
ATOM     78  C   UNL A   1      36.106  31.494  32.092  1.00  0.00     0.022 A 
BRANCH  76  79
ATOM     79  S   UNL A   1      35.035  32.831  29.957  1.00  0.00     0.127 S 
ATOM     80  O   UNL A   1      34.114  33.072  31.064  1.00  0.00    -0.237 OA
ATOM     81  O   UNL A   1      35.815  33.997  29.539  1.00  0.00    -0.237 OA
ATOM     82  O   UNL A   1      34.506  32.038  28.856  1.00  0.00    -0.744 OA
ENDBRANCH  76  79
ENDBRANCH  48  72
BRANCH  60  83
ATOM     83  C   UNL A   1      44.627  33.894  30.016  1.00  0.00     0.023 A 
ATOM     84  C   UNL A   1      45.329  34.046  31.228  1.00  0.00     0.012 A 
ATOM     85  C   UNL A   1      44.463  35.004  29.166  1.00  0.00     0.148 A 
ATOM     86  C   UNL A   1      45.830  35.292  31.603  1.00  0.00     0.002 A 
ATOM     87  C   UNL A   1      45.012  36.229  29.519  1.00  0.00     0.091 A 
ATOM     88  F   UNL A   1      43.773  34.841  28.027  1.00  0.00    -0.205 F 
ATOM     89  C   UNL A   1      45.683  36.380  30.744  1.00  0.00     0.022 A 
BRANCH  87  90
ATOM     90  S   UNL A   1      44.958  37.659  28.433  1.00  0.00     0.127 S 
ATOM     91  O   UNL A   1      43.548  38.038  28.509  1.00  0.00    -0.237 OA
ATOM     92  O   UNL A   1      45.875  38.585  29.097  1.00  0.00    -0.237 OA
ATOM     93  O   UNL A   1      45.408  37.192  27.128  1.00  0.00    -0.744 OA
ENDBRANCH  87  90
ENDBRANCH  60  83
ENDBRANCH  34  35
ENDBRANCH  27  29
ENDBRANCH  26  27
ENDBRANCH  25  26
ENDBRANCH   1  25
TORSDOF 19
ENDMDL
MODEL 3
REMARK VINA RESULT:     -10.9      1.590      7.806
REMARK SMILES C[NH2+][C@@H](C)c1ccc(SCc2ccc(C(=O)OCCOC(=O)c3ccc(-c4c5nc(c(-c6cccc(S(=O)(=O)[O-])c6F)c6ccc([nH]6)c(-c6cccc(S(=O)(=O)[O-])c6F)c6nc(c(-c7cccc(S(=O)(=O)[O-])c7F)c7ccc4[nH]7)C=C6)C=C5)cc3)cc2)cc1
REMARK SMILES IDX 18 1 17 2 15 3 16 4 14 5 11 6 12 7 87 8 13 9 86 10 10 11
REMARK SMILES IDX 9 12 8 13 5 14 6 15 89 16 7 17 88 18 3 19 4 20 2 21 1 22
REMARK SMILES IDX 19 25 20 26 21 27 22 28 23 29 24 30 85 31 25 32 84 33 26 34
REMARK SMILES IDX 27 35 28 36 78 37 29 38 83 39 77 40 79 41 30 42 82 43 76 44
REMARK SMILES IDX 75 45 31 47 63 48 43 49 62 50 44 51 47 52 61 53 80 54 45 55
REMARK SMILES IDX 46 56 60 58 81 59 48 60 32 61 33 62 41 63 34 64 36 65 42 66
REMARK SMILES IDX 35 67 37 68 38 69 39 70 40 71 64 72 65 73 73 74 66 75 68 76
REMARK SMILES IDX 74 77 67 78 69 79 70 80 71 81 72 82 49 83 50 84 58 85 51 86
REMARK SMILES IDX 53 87 59 88 52 89 54 90 55 91 56 92 57 93
REMARK H PARENT 2 23 2 24 79 46 47 57
REMARK Flexibility Score: inf
ROOT
ATOM      1  C   UNL A   1      35.373  20.614  24.862  1.00  0.00     0.275 C 
ENDROOT
BRANCH   1   2
ATOM      2  O   UNL A   1      34.671  21.602  24.077  1.00  0.00    -0.458 OA
BRANCH   2   3
ATOM      3  C   UNL A   1      33.347  21.714  24.350  1.00  0.00     0.338 C 
ATOM      4  O   UNL A   1      32.479  20.921  24.033  1.00  0.00    -0.246 OA
BRANCH   3   5
ATOM      5  C   UNL A   1      33.048  22.929  25.142  1.00  0.00     0.060 A 
ATOM      6  C   UNL A   1      32.360  25.430  26.222  1.00  0.00    -0.038 A 
ATOM      7  C   UNL A   1      31.363  24.521  25.872  1.00  0.00     0.005 A 
ATOM      8  C   UNL A   1      33.706  25.018  26.152  1.00  0.00     0.005 A 
ATOM      9  C   UNL A   1      31.711  23.309  25.291  1.00  0.00     0.016 A 
ATOM     10  C   UNL A   1      34.053  23.769  25.615  1.00  0.00     0.016 A 
BRANCH   6  11
ATOM     11  C   UNL A   1      32.005  26.848  26.607  1.00  0.00     0.110 C 
BRANCH  11  12
ATOM     12  S   UNL A   1      32.987  28.175  25.791  1.00  0.00    -0.121 SA
BRANCH  12  13
ATOM     13  C   UNL A   1      31.793  29.346  25.143  1.00  0.00     0.008 A 
ATOM     14  C   UNL A   1      29.837  31.070  23.997  1.00  0.00     0.009 A 
ATOM     15  C   UNL A   1      30.166  29.850  23.392  1.00  0.00     0.011 A 
ATOM     16  C   UNL A   1      30.496  31.407  25.187  1.00  0.00     0.011 A 
ATOM     17  C   UNL A   1      31.137  29.006  23.951  1.00  0.00     0.015 A 
ATOM     18  C   UNL A   1      31.445  30.549  25.755  1.00  0.00     0.015 A 
BRANCH  14  19
ATOM     19  C   UNL A   1      28.722  31.934  23.416  1.00  0.00     0.210 C 
ATOM     20  C   UNL A   1      27.327  31.321  23.622  1.00  0.00     0.081 C 
BRANCH  19  21
ATOM     21  N   UNL A   1      29.037  32.184  22.000  1.00  0.00    -0.343 N 
ATOM     22  C   UNL A   1      28.238  31.414  21.065  1.00  0.00     0.331 C 
ATOM     23  H   UNL A   1      28.885  33.174  21.809  1.00  0.00     0.346 HD
ATOM     24  H   UNL A   1      30.005  31.896  21.862  1.00  0.00     0.346 HD
ENDBRANCH  19  21
ENDBRANCH  14  19
ENDBRANCH  12  13
ENDBRANCH  11  12
ENDBRANCH   6  11
ENDBRANCH   3   5
ENDBRANCH   2   3
ENDBRANCH   1   2
BRANCH   1  25
ATOM     25  C   UNL A   1      36.430  21.251  25.767  1.00  0.00     0.275 C 
BRANCH  25  26
ATOM     26  O   UNL A   1      37.637  21.540  25.039  1.00  0.00    -0.458 OA
BRANCH  26  27
ATOM     27  C   UNL A   1      38.778  21.209  25.682  1.00  0.00     0.338 C 
ATOM     28  O   UNL A   1      39.388  20.152  25.609  1.00  0.00    -0.246 OA
BRANCH  27  29
ATOM     29  C   UNL A   1      39.286  22.346  26.460  1.00  0.00     0.060 A 
ATOM     30  C   UNL A   1      38.785  23.606  26.166  1.00  0.00     0.016 A 
ATOM     31  C   UNL A   1      40.395  22.215  27.288  1.00  0.00     0.016 A 
ATOM     32  C   UNL A   1      39.499  24.743  26.527  1.00  0.00     0.010 A 
ATOM     33  C   UNL A   1      41.008  23.367  27.801  1.00  0.00     0.010 A 
ATOM     34  C   UNL A   1      40.606  24.649  27.380  1.00  0.00    -0.014 A 
BRANCH  34  35
ATOM     35  C   UNL A   1      41.323  25.882  27.828  1.00  0.00     0.031 A 
ATOM     36  C   UNL A   1      40.607  26.944  28.629  1.00  0.00     0.074 A 
ATOM     37  C   UNL A   1      42.620  26.067  27.497  1.00  0.00     0.049 A 
ATOM     38  N   UNL A   1      41.004  28.153  28.940  1.00  0.00    -0.248 NA
ATOM     39  C   UNL A   1      39.261  26.617  29.128  1.00  0.00     0.031 C 
ATOM     40  C   UNL A   1      43.446  25.124  26.737  1.00  0.00     0.029 A 
ATOM     41  N   UNL A   1      43.472  27.118  27.743  1.00  0.00    -0.354 N 
ATOM     42  C   UNL A   1      39.932  28.755  29.592  1.00  0.00     0.074 A 
ATOM     43  C   UNL A   1      38.868  27.774  29.639  1.00  0.00     0.031 C 
ATOM     44  C   UNL A   1      44.682  25.619  26.604  1.00  0.00     0.029 A 
ATOM     45  C   UNL A   1      44.713  26.960  27.167  1.00  0.00     0.049 A 
ATOM     46  H   UNL A   1      43.219  27.904  28.278  1.00  0.00     0.167 HD
ATOM     47  C   UNL A   1      39.843  30.005  30.107  1.00  0.00     0.034 A 
ATOM     48  C   UNL A   1      45.747  27.814  27.042  1.00  0.00     0.034 A 
ATOM     49  C   UNL A   1      40.928  30.952  30.115  1.00  0.00     0.049 A 
ATOM     50  C   UNL A   1      45.621  29.195  27.614  1.00  0.00     0.074 A 
ATOM     51  C   UNL A   1      40.956  32.224  30.661  1.00  0.00     0.029 A 
ATOM     52  N   UNL A   1      42.177  30.733  29.555  1.00  0.00    -0.354 N 
ATOM     53  N   UNL A   1      44.616  29.727  28.265  1.00  0.00    -0.248 NA
ATOM     54  C   UNL A   1      46.775  30.089  27.450  1.00  0.00     0.031 C 
ATOM     55  C   UNL A   1      42.209  32.786  30.399  1.00  0.00     0.029 A 
ATOM     56  C   UNL A   1      42.979  31.848  29.730  1.00  0.00     0.049 A 
ATOM     57  H   UNL A   1      42.453  29.904  29.099  1.00  0.00     0.167 HD
ATOM     58  C   UNL A   1      45.027  31.007  28.617  1.00  0.00     0.074 A 
ATOM     59  C   UNL A   1      46.381  31.161  28.124  1.00  0.00     0.031 C 
ATOM     60  C   UNL A   1      44.340  31.971  29.277  1.00  0.00     0.034 A 
BRANCH  47  61
ATOM     61  C   UNL A   1      38.526  30.433  30.711  1.00  0.00     0.023 A 
ATOM     62  C   UNL A   1      38.257  30.190  32.074  1.00  0.00     0.012 A 
ATOM     63  C   UNL A   1      37.577  31.132  29.937  1.00  0.00     0.148 A 
ATOM     64  C   UNL A   1      37.051  30.599  32.644  1.00  0.00     0.002 A 
ATOM     65  C   UNL A   1      36.399  31.579  30.525  1.00  0.00     0.091 A 
ATOM     66  F   UNL A   1      37.840  31.343  28.640  1.00  0.00    -0.205 F 
ATOM     67  C   UNL A   1      36.128  31.302  31.874  1.00  0.00     0.022 A 
BRANCH  65  68
ATOM     68  S   UNL A   1      35.185  32.566  29.640  1.00  0.00     0.127 S 
ATOM     69  O   UNL A   1      34.304  32.994  30.724  1.00  0.00    -0.237 OA
ATOM     70  O   UNL A   1      36.011  33.632  29.070  1.00  0.00    -0.237 OA
ATOM     71  O   UNL A   1      34.581  31.676  28.658  1.00  0.00    -0.744 OA
ENDBRANCH  65  68
ENDBRANCH  47  61
BRANCH  48  72
ATOM     72  C   UNL A   1      46.986  27.381  26.334  1.00  0.00     0.023 A 
ATOM     73  C   UNL A   1      47.905  26.542  26.993  1.00  0.00     0.012 A 
ATOM     74  C   UNL A   1      47.236  27.758  24.999  1.00  0.00     0.148 A 
ATOM     75  C   UNL A   1      49.061  26.109  26.344  1.00  0.00     0.002 A 
ATOM     76  C   UNL A   1      48.357  27.270  24.338  1.00  0.00     0.091 A 
ATOM     77  F   UNL A   1      46.355  28.567  24.392  1.00  0.00    -0.205 F 
ATOM     78  C   UNL A   1      49.281  26.460  25.015  1.00  0.00     0.022 A 
BRANCH  76  79
ATOM     79  S   UNL A   1      48.642  27.554  22.588  1.00  0.00     0.127 S 
ATOM     80  O   UNL A   1      49.994  28.106  22.591  1.00  0.00    -0.237 OA
ATOM     81  O   UNL A   1      48.531  26.200  22.042  1.00  0.00    -0.237 OA
ATOM     82  O   UNL A   1      47.589  28.462  22.156  1.00  0.00    -0.744 OA
ENDBRANCH  76  79
ENDBRANCH  48  72
BRANCH  60  83
ATOM     83  C   UNL A   1      45.059  33.263  29.560  1.00  0.00     0.023 A 
ATOM     84  C   UNL A   1      45.831  33.402  30.731  1.00  0.00     0.012 A 
ATOM     85  C   UNL A   1      45.016  34.319  28.629  1.00  0.00     0.148 A 
ATOM     86  C   UNL A   1      46.523  34.585  30.985  1.00  0.00     0.002 A 
ATOM     87  C   UNL A   1      45.752  35.473  28.862  1.00  0.00     0.091 A 
ATOM     88  F   UNL A   1      44.258  34.173  27.533  1.00  0.00    -0.205 F 
ATOM     89  C   UNL A   1      46.494  35.615  30.046  1.00  0.00     0.022 A 
BRANCH  87  90
ATOM     90  S   UNL A   1      45.853  36.809  27.666  1.00  0.00     0.127 S 
ATOM     91  O   UNL A   1      46.737  37.753  28.348  1.00  0.00    -0.237 OA
ATOM     92  O   UNL A   1      46.450  36.141  26.509  1.00  0.00    -0.237 OA
ATOM     93  O   UNL A   1      44.487  37.271  27.460  1.00  0.00    -0.744 OA
ENDBRANCH  87  90
ENDBRANCH  60  83
ENDBRANCH  34  35
ENDBRANCH  27  29
ENDBRANCH  26  27
ENDBRANCH  25  26
ENDBRANCH   1  25
TORSDOF 19
ENDMDL
