MODEL 1
REMARK VINA RESULT:     -10.8      0.000      0.000
REMARK SMILES Cc1cc(NC(=O)CCC(=O)OCCOC(=O)c2ccc(-c3c4nc(c(-c5cccc(S(=O)(=O)[O-])c5F)c5ccc([nH]5)c(-c5cccc(S(=O)(=O)[O-])c5F)c5nc(c(-c6cccc(S(=O)(=O)[O-])c6F)c6ccc3[nH]6)C=C5)C=C4)cc2)ccc1S(=O)(=O)[O-]
REMARK SMILES IDX 13 1 12 2 10 3 11 4 9 5 8 6 6 7 5 8 7 10 4 11 1 12 2 13 3 14
REMARK SMILES IDX 83 15 82 16 81 17 84 18 85 19 86 20 87 21 14 22 15 23 16 24
REMARK SMILES IDX 17 25 18 26 19 27 80 28 20 29 79 30 21 31 22 32 23 33 73 34
REMARK SMILES IDX 24 35 78 36 72 37 74 38 25 39 77 40 71 41 70 42 26 44 58 45
REMARK SMILES IDX 38 46 57 47 39 48 42 49 56 50 75 51 40 52 41 53 55 55 76 56
REMARK SMILES IDX 43 57 27 58 28 59 36 60 29 61 31 62 37 63 30 64 32 65 33 66
REMARK SMILES IDX 34 67 35 68 59 69 60 70 68 71 61 72 63 73 69 74 62 75 64 76
REMARK SMILES IDX 65 77 66 78 67 79 44 80 45 81 53 82 46 83 48 84 54 85 47 86
REMARK SMILES IDX 49 87 50 88 51 89 52 90
REMARK H PARENT 5 9 74 43 42 54
REMARK Flexibility Score: inf
ROOT
ATOM      1  C   UNL A   1      34.078  29.283  26.998  1.00  0.00     0.274 C 
ENDROOT
BRANCH   1   2
ATOM      2  O   UNL A   1      33.495  27.970  27.159  1.00  0.00    -0.462 OA
BRANCH   2   3
ATOM      3  C   UNL A   1      33.272  27.471  25.950  1.00  0.00     0.306 C 
ATOM      4  O   UNL A   1      33.727  28.053  24.978  1.00  0.00    -0.252 OA
BRANCH   3   5
ATOM      5  C   UNL A   1      32.536  26.224  25.705  1.00  0.00     0.132 C 
BRANCH   5   6
ATOM      6  C   UNL A   1      33.529  25.114  26.207  1.00  0.00     0.112 C 
BRANCH   6   7
ATOM      7  C   UNL A   1      33.475  23.848  25.324  1.00  0.00     0.224 C 
ATOM      8  N   UNL A   1      34.485  22.965  25.013  1.00  0.00    -0.326 N 
ATOM      9  H   UNL A   1      34.122  22.182  24.538  1.00  0.00     0.169 HD
ATOM     10  O   UNL A   1      32.345  23.483  24.953  1.00  0.00    -0.275 OA
BRANCH   8  11
ATOM     11  C   UNL A   1      35.901  22.842  25.172  1.00  0.00     0.041 A 
ATOM     12  C   UNL A   1      38.981  24.430  26.834  1.00  0.00     0.046 C 
ATOM     13  C   UNL A   1      38.144  23.432  26.076  1.00  0.00    -0.032 A 
ATOM     14  C   UNL A   1      36.770  23.755  25.791  1.00  0.00     0.030 A 
ATOM     15  C   UNL A   1      38.613  22.139  25.773  1.00  0.00     0.057 A 
ATOM     16  C   UNL A   1      37.775  21.253  25.077  1.00  0.00     0.021 A 
ATOM     17  C   UNL A   1      36.452  21.612  24.763  1.00  0.00     0.027 A 
BRANCH  15  18
ATOM     18  S   UNL A   1      40.140  21.417  26.393  1.00  0.00     0.124 S 
ATOM     19  O   UNL A   1      41.213  21.810  25.498  1.00  0.00    -0.237 OA
ATOM     20  O   UNL A   1      40.215  21.721  27.806  1.00  0.00    -0.237 OA
ATOM     21  O   UNL A   1      40.082  19.817  26.249  1.00  0.00    -0.744 OA
ENDBRANCH  15  18
ENDBRANCH   8  11
ENDBRANCH   6   7
ENDBRANCH   5   6
ENDBRANCH   3   5
ENDBRANCH   2   3
ENDBRANCH   1   2
BRANCH   1  22
ATOM     22  C   UNL A   1      35.561  29.584  27.508  1.00  0.00     0.275 C 
BRANCH  22  23
ATOM     23  O   UNL A   1      36.112  29.351  28.921  1.00  0.00    -0.458 OA
BRANCH  23  24
ATOM     24  C   UNL A   1      37.367  29.079  29.493  1.00  0.00     0.338 C 
ATOM     25  O   UNL A   1      37.601  29.183  30.689  1.00  0.00    -0.246 OA
BRANCH  24  26
ATOM     26  C   UNL A   1      38.408  28.722  28.532  1.00  0.00     0.060 A 
ATOM     27  C   UNL A   1      39.073  29.432  27.527  1.00  0.00     0.016 A 
ATOM     28  C   UNL A   1      38.971  27.585  28.939  1.00  0.00     0.016 A 
ATOM     29  C   UNL A   1      40.388  29.006  27.214  1.00  0.00     0.010 A 
ATOM     30  C   UNL A   1      40.237  27.883  29.223  1.00  0.00     0.010 A 
ATOM     31  C   UNL A   1      40.980  28.142  28.123  1.00  0.00    -0.014 A 
BRANCH  31  32
ATOM     32  C   UNL A   1      42.256  27.462  28.327  1.00  0.00     0.031 A 
ATOM     33  C   UNL A   1      42.404  26.160  27.711  1.00  0.00     0.074 A 
ATOM     34  C   UNL A   1      43.294  28.250  28.757  1.00  0.00     0.049 A 
ATOM     35  N   UNL A   1      42.625  25.070  28.359  1.00  0.00    -0.248 NA
ATOM     36  C   UNL A   1      42.234  25.997  26.265  1.00  0.00     0.031 C 
ATOM     37  C   UNL A   1      44.736  28.174  28.619  1.00  0.00     0.029 A 
ATOM     38  N   UNL A   1      43.163  29.510  29.340  1.00  0.00    -0.354 N 
ATOM     39  C   UNL A   1      43.080  24.211  27.385  1.00  0.00     0.074 A 
ATOM     40  C   UNL A   1      42.527  24.700  26.131  1.00  0.00     0.031 C 
ATOM     41  C   UNL A   1      45.308  29.179  29.334  1.00  0.00     0.029 A 
ATOM     42  C   UNL A   1      44.270  29.944  30.014  1.00  0.00     0.049 A 
ATOM     43  H   UNL A   1      42.339  30.043  29.272  1.00  0.00     0.167 HD
ATOM     44  C   UNL A   1      44.332  23.676  27.498  1.00  0.00     0.034 A 
ATOM     45  C   UNL A   1      44.012  30.213  31.328  1.00  0.00     0.034 A 
ATOM     46  C   UNL A   1      45.146  24.384  28.517  1.00  0.00     0.049 A 
ATOM     47  C   UNL A   1      44.380  28.962  32.101  1.00  0.00     0.074 A 
ATOM     48  C   UNL A   1      46.284  25.177  28.460  1.00  0.00     0.029 A 
ATOM     49  N   UNL A   1      44.648  24.575  29.804  1.00  0.00    -0.354 N 
ATOM     50  N   UNL A   1      45.028  27.945  31.602  1.00  0.00    -0.248 NA
ATOM     51  C   UNL A   1      43.923  28.725  33.460  1.00  0.00     0.031 C 
ATOM     52  C   UNL A   1      46.487  25.786  29.739  1.00  0.00     0.029 A 
ATOM     53  C   UNL A   1      45.472  25.378  30.585  1.00  0.00     0.049 A 
ATOM     54  H   UNL A   1      43.803  24.184  30.124  1.00  0.00     0.167 HD
ATOM     55  C   UNL A   1      44.826  26.851  32.401  1.00  0.00     0.074 A 
ATOM     56  C   UNL A   1      44.171  27.412  33.579  1.00  0.00     0.031 C 
ATOM     57  C   UNL A   1      45.126  25.572  31.998  1.00  0.00     0.034 A 
BRANCH  44  58
ATOM     58  C   UNL A   1      44.900  22.769  26.420  1.00  0.00     0.023 A 
ATOM     59  C   UNL A   1      45.960  23.250  25.629  1.00  0.00     0.012 A 
ATOM     60  C   UNL A   1      44.491  21.427  26.183  1.00  0.00     0.148 A 
ATOM     61  C   UNL A   1      46.532  22.491  24.605  1.00  0.00     0.002 A 
ATOM     62  C   UNL A   1      45.029  20.686  25.126  1.00  0.00     0.091 A 
ATOM     63  F   UNL A   1      43.610  20.848  27.011  1.00  0.00    -0.205 F 
ATOM     64  C   UNL A   1      46.051  21.219  24.335  1.00  0.00     0.022 A 
BRANCH  62  65
ATOM     65  S   UNL A   1      44.398  19.065  24.654  1.00  0.00     0.127 S 
ATOM     66  O   UNL A   1      44.895  18.923  23.283  1.00  0.00    -0.237 OA
ATOM     67  O   UNL A   1      45.036  18.179  25.624  1.00  0.00    -0.237 OA
ATOM     68  O   UNL A   1      42.945  19.167  24.742  1.00  0.00    -0.744 OA
ENDBRANCH  62  65
ENDBRANCH  44  58
BRANCH  45  69
ATOM     69  C   UNL A   1      42.671  30.966  31.484  1.00  0.00     0.023 A 
ATOM     70  C   UNL A   1      41.492  30.181  31.640  1.00  0.00     0.012 A 
ATOM     71  C   UNL A   1      42.591  32.322  31.882  1.00  0.00     0.148 A 
ATOM     72  C   UNL A   1      40.337  30.695  32.255  1.00  0.00     0.002 A 
ATOM     73  C   UNL A   1      41.441  32.821  32.508  1.00  0.00     0.091 A 
ATOM     74  F   UNL A   1      43.650  33.120  31.715  1.00  0.00    -0.205 F 
ATOM     75  C   UNL A   1      40.321  32.007  32.716  1.00  0.00     0.022 A 
BRANCH  73  76
ATOM     76  S   UNL A   1      41.443  34.490  33.196  1.00  0.00     0.127 S 
ATOM     77  O   UNL A   1      42.276  34.350  34.392  1.00  0.00    -0.237 OA
ATOM     78  O   UNL A   1      42.034  35.311  32.149  1.00  0.00    -0.237 OA
ATOM     79  O   UNL A   1      40.023  34.699  33.463  1.00  0.00    -0.744 OA
ENDBRANCH  73  76
ENDBRANCH  45  69
BRANCH  57  80
ATOM     80  C   UNL A   1      45.059  24.345  32.903  1.00  0.00     0.023 A 
ATOM     81  C   UNL A   1      43.880  23.600  33.075  1.00  0.00     0.012 A 
ATOM     82  C   UNL A   1      46.156  23.947  33.713  1.00  0.00     0.148 A 
ATOM     83  C   UNL A   1      43.832  22.439  33.851  1.00  0.00     0.002 A 
ATOM     84  C   UNL A   1      46.115  22.794  34.486  1.00  0.00     0.091 A 
ATOM     85  F   UNL A   1      47.226  24.737  33.841  1.00  0.00    -0.205 F 
ATOM     86  C   UNL A   1      44.960  22.017  34.534  1.00  0.00     0.022 A 
BRANCH  84  87
ATOM     87  S   UNL A   1      47.512  22.278  35.488  1.00  0.00     0.127 S 
ATOM     88  O   UNL A   1      48.584  22.242  34.493  1.00  0.00    -0.237 OA
ATOM     89  O   UNL A   1      47.611  23.372  36.454  1.00  0.00    -0.237 OA
ATOM     90  O   UNL A   1      47.147  20.992  36.065  1.00  0.00    -0.744 OA
ENDBRANCH  84  87
ENDBRANCH  57  80
ENDBRANCH  31  32
ENDBRANCH  24  26
ENDBRANCH  23  24
ENDBRANCH  22  23
ENDBRANCH   1  22
TORSDOF 18
ENDMDL
MODEL 2
REMARK VINA RESULT:     -10.5      2.932      5.384
REMARK SMILES Cc1cc(NC(=O)CCC(=O)OCCOC(=O)c2ccc(-c3c4nc(c(-c5cccc(S(=O)(=O)[O-])c5F)c5ccc([nH]5)c(-c5cccc(S(=O)(=O)[O-])c5F)c5nc(c(-c6cccc(S(=O)(=O)[O-])c6F)c6ccc3[nH]6)C=C5)C=C4)cc2)ccc1S(=O)(=O)[O-]
REMARK SMILES IDX 13 1 12 2 10 3 11 4 9 5 8 6 6 7 5 8 7 10 4 11 1 12 2 13 3 14
REMARK SMILES IDX 83 15 82 16 81 17 84 18 85 19 86 20 87 21 14 22 15 23 16 24
REMARK SMILES IDX 17 25 18 26 19 27 80 28 20 29 79 30 21 31 22 32 23 33 73 34
REMARK SMILES IDX 24 35 78 36 72 37 74 38 25 39 77 40 71 41 70 42 26 44 58 45
REMARK SMILES IDX 38 46 57 47 39 48 42 49 56 50 75 51 40 52 41 53 55 55 76 56
REMARK SMILES IDX 43 57 27 58 28 59 36 60 29 61 31 62 37 63 30 64 32 65 33 66
REMARK SMILES IDX 34 67 35 68 59 69 60 70 68 71 61 72 63 73 69 74 62 75 64 76
REMARK SMILES IDX 65 77 66 78 67 79 44 80 45 81 53 82 46 83 48 84 54 85 47 86
REMARK SMILES IDX 49 87 50 88 51 89 52 90
REMARK H PARENT 5 9 74 43 42 54
REMARK Flexibility Score: inf
ROOT
ATOM      1  C   UNL A   1      36.876  33.189  31.549  1.00  0.00     0.274 C 
ENDROOT
BRANCH   1   2
ATOM      2  O   UNL A   1      35.886  33.364  32.587  1.00  0.00    -0.462 OA
BRANCH   2   3
ATOM      3  C   UNL A   1      34.809  33.913  32.036  1.00  0.00     0.306 C 
ATOM      4  O   UNL A   1      33.755  33.297  32.063  1.00  0.00    -0.252 OA
BRANCH   3   5
ATOM      5  C   UNL A   1      34.797  35.247  31.423  1.00  0.00     0.132 C 
BRANCH   5   6
ATOM      6  C   UNL A   1      33.335  35.371  30.859  1.00  0.00     0.112 C 
BRANCH   6   7
ATOM      7  C   UNL A   1      33.325  35.718  29.353  1.00  0.00     0.224 C 
ATOM      8  N   UNL A   1      33.147  34.884  28.273  1.00  0.00    -0.326 N 
ATOM      9  H   UNL A   1      33.058  35.408  27.445  1.00  0.00     0.169 HD
ATOM     10  O   UNL A   1      33.333  36.930  29.067  1.00  0.00    -0.275 OA
BRANCH   8  11
ATOM     11  C   UNL A   1      33.052  33.484  27.992  1.00  0.00     0.041 A 
ATOM     12  C   UNL A   1      31.191  30.869  25.878  1.00  0.00     0.046 C 
ATOM     13  C   UNL A   1      32.215  31.457  26.815  1.00  0.00    -0.032 A 
ATOM     14  C   UNL A   1      32.090  32.840  27.196  1.00  0.00     0.030 A 
ATOM     15  C   UNL A   1      33.365  30.746  27.208  1.00  0.00     0.057 A 
ATOM     16  C   UNL A   1      34.285  31.359  28.073  1.00  0.00     0.021 A 
ATOM     17  C   UNL A   1      34.114  32.697  28.474  1.00  0.00     0.027 A 
BRANCH  15  18
ATOM     18  S   UNL A   1      33.894  29.168  26.524  1.00  0.00     0.124 S 
ATOM     19  O   UNL A   1      33.648  29.199  25.094  1.00  0.00    -0.237 OA
ATOM     20  O   UNL A   1      35.222  28.904  27.034  1.00  0.00    -0.237 OA
ATOM     21  O   UNL A   1      32.932  27.995  27.057  1.00  0.00    -0.744 OA
ENDBRANCH  15  18
ENDBRANCH   8  11
ENDBRANCH   6   7
ENDBRANCH   5   6
ENDBRANCH   3   5
ENDBRANCH   2   3
ENDBRANCH   1   2
BRANCH   1  22
ATOM     22  C   UNL A   1      37.745  31.853  31.467  1.00  0.00     0.275 C 
BRANCH  22  23
ATOM     23  O   UNL A   1      37.957  30.969  30.230  1.00  0.00    -0.458 OA
BRANCH  23  24
ATOM     24  C   UNL A   1      37.434  29.758  29.741  1.00  0.00     0.338 C 
ATOM     25  O   UNL A   1      36.405  29.250  30.160  1.00  0.00    -0.246 OA
BRANCH  24  26
ATOM     26  C   UNL A   1      38.259  29.107  28.726  1.00  0.00     0.060 A 
ATOM     27  C   UNL A   1      38.934  29.572  27.593  1.00  0.00     0.016 A 
ATOM     28  C   UNL A   1      38.618  27.912  29.193  1.00  0.00     0.016 A 
ATOM     29  C   UNL A   1      40.086  28.846  27.199  1.00  0.00     0.010 A 
ATOM     30  C   UNL A   1      39.943  27.950  29.319  1.00  0.00     0.010 A 
ATOM     31  C   UNL A   1      40.589  27.951  28.132  1.00  0.00    -0.014 A 
BRANCH  31  32
ATOM     32  C   UNL A   1      41.711  27.028  28.281  1.00  0.00     0.031 A 
ATOM     33  C   UNL A   1      41.443  25.631  28.015  1.00  0.00     0.074 A 
ATOM     34  C   UNL A   1      42.959  27.600  28.298  1.00  0.00     0.049 A 
ATOM     35  N   UNL A   1      41.581  24.686  28.878  1.00  0.00    -0.248 NA
ATOM     36  C   UNL A   1      40.911  25.209  26.717  1.00  0.00     0.031 C 
ATOM     37  C   UNL A   1      44.283  27.131  27.935  1.00  0.00     0.029 A 
ATOM     38  N   UNL A   1      43.227  28.946  28.542  1.00  0.00    -0.354 N 
ATOM     39  C   UNL A   1      41.612  23.551  28.102  1.00  0.00     0.074 A 
ATOM     40  C   UNL A   1      40.894  23.883  26.880  1.00  0.00     0.031 C 
ATOM     41  C   UNL A   1      45.198  28.086  28.247  1.00  0.00     0.029 A 
ATOM     42  C   UNL A   1      44.525  29.218  28.872  1.00  0.00     0.049 A 
ATOM     43  H   UNL A   1      42.536  29.644  28.481  1.00  0.00     0.167 HD
ATOM     44  C   UNL A   1      42.720  22.752  28.130  1.00  0.00     0.034 A 
ATOM     45  C   UNL A   1      44.640  29.820  30.092  1.00  0.00     0.034 A 
ATOM     46  C   UNL A   1      43.876  23.432  28.767  1.00  0.00     0.049 A 
ATOM     47  C   UNL A   1      44.915  28.714  31.092  1.00  0.00     0.074 A 
ATOM     48  C   UNL A   1      45.106  23.877  28.304  1.00  0.00     0.029 A 
ATOM     49  N   UNL A   1      43.740  24.015  30.024  1.00  0.00    -0.354 N 
ATOM     50  N   UNL A   1      45.208  27.482  30.773  1.00  0.00    -0.248 NA
ATOM     51  C   UNL A   1      44.748  28.900  32.523  1.00  0.00     0.031 C 
ATOM     52  C   UNL A   1      45.721  24.675  29.320  1.00  0.00     0.029 A 
ATOM     53  C   UNL A   1      44.870  24.730  30.408  1.00  0.00     0.049 A 
ATOM     54  H   UNL A   1      42.933  23.931  30.579  1.00  0.00     0.167 HD
ATOM     55  C   UNL A   1      44.979  26.674  31.855  1.00  0.00     0.074 A 
ATOM     56  C   UNL A   1      44.745  27.624  32.939  1.00  0.00     0.031 C 
ATOM     57  C   UNL A   1      44.910  25.306  31.758  1.00  0.00     0.034 A 
BRANCH  44  58
ATOM     58  C   UNL A   1      42.824  21.520  27.248  1.00  0.00     0.023 A 
ATOM     59  C   UNL A   1      41.982  20.426  27.523  1.00  0.00     0.012 A 
ATOM     60  C   UNL A   1      43.665  21.400  26.108  1.00  0.00     0.148 A 
ATOM     61  C   UNL A   1      42.021  19.247  26.774  1.00  0.00     0.002 A 
ATOM     62  C   UNL A   1      43.741  20.202  25.390  1.00  0.00     0.091 A 
ATOM     63  F   UNL A   1      44.364  22.465  25.688  1.00  0.00    -0.205 F 
ATOM     64  C   UNL A   1      42.917  19.123  25.724  1.00  0.00     0.022 A 
BRANCH  62  65
ATOM     65  S   UNL A   1      44.941  19.932  24.073  1.00  0.00     0.127 S 
ATOM     66  O   UNL A   1      46.214  20.173  24.757  1.00  0.00    -0.237 OA
ATOM     67  O   UNL A   1      44.706  18.538  23.708  1.00  0.00    -0.237 OA
ATOM     68  O   UNL A   1      44.632  20.922  23.048  1.00  0.00    -0.744 OA
ENDBRANCH  62  65
ENDBRANCH  44  58
BRANCH  45  69
ATOM     69  C   UNL A   1      43.555  30.906  30.277  1.00  0.00     0.023 A 
ATOM     70  C   UNL A   1      42.246  30.471  30.635  1.00  0.00     0.012 A 
ATOM     71  C   UNL A   1      43.860  32.268  30.512  1.00  0.00     0.148 A 
ATOM     72  C   UNL A   1      41.336  31.322  31.286  1.00  0.00     0.002 A 
ATOM     73  C   UNL A   1      42.952  33.105  31.174  1.00  0.00     0.091 A 
ATOM     74  F   UNL A   1      45.056  32.746  30.151  1.00  0.00    -0.205 F 
ATOM     75  C   UNL A   1      41.699  32.632  31.582  1.00  0.00     0.022 A 
BRANCH  73  76
ATOM     76  S   UNL A   1      43.448  34.774  31.649  1.00  0.00     0.127 S 
ATOM     77  O   UNL A   1      43.805  35.387  30.368  1.00  0.00    -0.237 OA
ATOM     78  O   UNL A   1      42.259  35.340  32.271  1.00  0.00    -0.237 OA
ATOM     79  O   UNL A   1      44.579  34.504  32.531  1.00  0.00    -0.744 OA
ENDBRANCH  73  76
ENDBRANCH  45  69
BRANCH  57  80
ATOM     80  C   UNL A   1      44.806  24.361  32.952  1.00  0.00     0.023 A 
ATOM     81  C   UNL A   1      43.573  23.908  33.449  1.00  0.00     0.012 A 
ATOM     82  C   UNL A   1      45.947  23.970  33.703  1.00  0.00     0.148 A 
ATOM     83  C   UNL A   1      43.477  22.992  34.500  1.00  0.00     0.002 A 
ATOM     84  C   UNL A   1      45.859  23.061  34.748  1.00  0.00     0.091 A 
ATOM     85  F   UNL A   1      47.129  24.557  33.495  1.00  0.00    -0.205 F 
ATOM     86  C   UNL A   1      44.624  22.543  35.131  1.00  0.00     0.022 A 
BRANCH  84  87
ATOM     87  S   UNL A   1      47.305  22.548  35.679  1.00  0.00     0.127 S 
ATOM     88  O   UNL A   1      46.759  21.457  36.485  1.00  0.00    -0.237 OA
ATOM     89  O   UNL A   1      48.214  22.124  34.613  1.00  0.00    -0.237 OA
ATOM     90  O   UNL A   1      47.748  23.718  36.422  1.00  0.00    -0.744 OA
ENDBRANCH  84  87
ENDBRANCH  57  80
ENDBRANCH  31  32
ENDBRANCH  24  26
ENDBRANCH  23  24
ENDBRANCH  22  23
ENDBRANCH   1  22
TORSDOF 18
ENDMDL
MODEL 3
REMARK VINA RESULT:     -10.4      2.115      3.084
REMARK SMILES Cc1cc(NC(=O)CCC(=O)OCCOC(=O)c2ccc(-c3c4nc(c(-c5cccc(S(=O)(=O)[O-])c5F)c5ccc([nH]5)c(-c5cccc(S(=O)(=O)[O-])c5F)c5nc(c(-c6cccc(S(=O)(=O)[O-])c6F)c6ccc3[nH]6)C=C5)C=C4)cc2)ccc1S(=O)(=O)[O-]
REMARK SMILES IDX 13 1 12 2 10 3 11 4 9 5 8 6 6 7 5 8 7 10 4 11 1 12 2 13 3 14
REMARK SMILES IDX 83 15 82 16 81 17 84 18 85 19 86 20 87 21 14 22 15 23 16 24
REMARK SMILES IDX 17 25 18 26 19 27 80 28 20 29 79 30 21 31 22 32 23 33 73 34
REMARK SMILES IDX 24 35 78 36 72 37 74 38 25 39 77 40 71 41 70 42 26 44 58 45
REMARK SMILES IDX 38 46 57 47 39 48 42 49 56 50 75 51 40 52 41 53 55 55 76 56
REMARK SMILES IDX 43 57 27 58 28 59 36 60 29 61 31 62 37 63 30 64 32 65 33 66
REMARK SMILES IDX 34 67 35 68 59 69 60 70 68 71 61 72 63 73 69 74 62 75 64 76
REMARK SMILES IDX 65 77 66 78 67 79 44 80 45 81 53 82 46 83 48 84 54 85 47 86
REMARK SMILES IDX 49 87 50 88 51 89 52 90
REMARK H PARENT 5 9 74 43 42 54
REMARK Flexibility Score: inf
ROOT
ATOM      1  C   UNL A   1      33.878  30.429  27.158  1.00  0.00     0.274 C 
ENDROOT
BRANCH   1   2
ATOM      2  O   UNL A   1      32.690  29.714  27.564  1.00  0.00    -0.462 OA
BRANCH   2   3
ATOM      3  C   UNL A   1      32.697  28.533  26.959  1.00  0.00     0.306 C 
ATOM      4  O   UNL A   1      33.754  27.934  26.845  1.00  0.00    -0.252 OA
BRANCH   3   5
ATOM      5  C   UNL A   1      31.489  27.873  26.445  1.00  0.00     0.132 C 
BRANCH   5   6
ATOM      6  C   UNL A   1      31.753  27.793  24.898  1.00  0.00     0.112 C 
BRANCH   6   7
ATOM      7  C   UNL A   1      30.567  27.152  24.142  1.00  0.00     0.224 C 
ATOM      8  N   UNL A   1      30.239  25.821  24.015  1.00  0.00    -0.326 N 
ATOM      9  H   UNL A   1      29.357  25.724  23.588  1.00  0.00     0.169 HD
ATOM     10  O   UNL A   1      29.704  27.935  23.706  1.00  0.00    -0.275 OA
BRANCH   8  11
ATOM     11  C   UNL A   1      30.792  24.537  24.317  1.00  0.00     0.041 A 
ATOM     12  C   UNL A   1      32.285  21.362  22.748  1.00  0.00     0.046 C 
ATOM     13  C   UNL A   1      31.874  22.354  23.806  1.00  0.00    -0.032 A 
ATOM     14  C   UNL A   1      31.133  23.523  23.407  1.00  0.00     0.030 A 
ATOM     15  C   UNL A   1      32.318  22.255  25.138  1.00  0.00     0.057 A 
ATOM     16  C   UNL A   1      31.908  23.222  26.069  1.00  0.00     0.021 A 
ATOM     17  C   UNL A   1      31.138  24.329  25.666  1.00  0.00     0.027 A 
BRANCH  15  18
ATOM     18  S   UNL A   1      33.565  21.102  25.734  1.00  0.00     0.124 S 
ATOM     19  O   UNL A   1      33.002  19.766  25.667  1.00  0.00    -0.237 OA
ATOM     20  O   UNL A   1      34.799  21.414  25.047  1.00  0.00    -0.237 OA
ATOM     21  O   UNL A   1      33.816  21.338  27.305  1.00  0.00    -0.744 OA
ENDBRANCH  15  18
ENDBRANCH   8  11
ENDBRANCH   6   7
ENDBRANCH   5   6
ENDBRANCH   3   5
ENDBRANCH   2   3
ENDBRANCH   1   2
BRANCH   1  22
ATOM     22  C   UNL A   1      35.032  30.758  28.210  1.00  0.00     0.275 C 
BRANCH  22  23
ATOM     23  O   UNL A   1      35.929  29.746  28.937  1.00  0.00    -0.458 OA
BRANCH  23  24
ATOM     24  C   UNL A   1      37.274  29.684  29.343  1.00  0.00     0.338 C 
ATOM     25  O   UNL A   1      37.683  30.153  30.395  1.00  0.00    -0.246 OA
BRANCH  24  26
ATOM     26  C   UNL A   1      38.174  29.069  28.371  1.00  0.00     0.060 A 
ATOM     27  C   UNL A   1      38.922  29.571  27.300  1.00  0.00     0.016 A 
ATOM     28  C   UNL A   1      38.513  27.865  28.829  1.00  0.00     0.016 A 
ATOM     29  C   UNL A   1      40.106  28.867  26.969  1.00  0.00     0.010 A 
ATOM     30  C   UNL A   1      39.826  27.911  29.049  1.00  0.00     0.010 A 
ATOM     31  C   UNL A   1      40.553  27.952  27.910  1.00  0.00    -0.014 A 
BRANCH  31  32
ATOM     32  C   UNL A   1      41.672  27.036  28.113  1.00  0.00     0.031 A 
ATOM     33  C   UNL A   1      41.419  25.633  27.859  1.00  0.00     0.074 A 
ATOM     34  C   UNL A   1      42.916  27.612  28.164  1.00  0.00     0.049 A 
ATOM     35  N   UNL A   1      41.529  24.702  28.740  1.00  0.00    -0.248 NA
ATOM     36  C   UNL A   1      40.933  25.190  26.549  1.00  0.00     0.031 C 
ATOM     37  C   UNL A   1      44.254  27.143  27.854  1.00  0.00     0.029 A 
ATOM     38  N   UNL A   1      43.172  28.963  28.396  1.00  0.00    -0.354 N 
ATOM     39  C   UNL A   1      41.591  23.556  27.983  1.00  0.00     0.074 A 
ATOM     40  C   UNL A   1      40.915  23.867  26.732  1.00  0.00     0.031 C 
ATOM     41  C   UNL A   1      45.155  28.106  28.184  1.00  0.00     0.029 A 
ATOM     42  C   UNL A   1      44.457  29.245  28.767  1.00  0.00     0.049 A 
ATOM     43  H   UNL A   1      42.481  29.658  28.301  1.00  0.00     0.167 HD
ATOM     44  C   UNL A   1      42.700  22.761  28.062  1.00  0.00     0.034 A 
ATOM     45  C   UNL A   1      44.527  29.866  29.982  1.00  0.00     0.034 A 
ATOM     46  C   UNL A   1      43.831  23.455  28.728  1.00  0.00     0.049 A 
ATOM     47  C   UNL A   1      44.771  28.776  31.007  1.00  0.00     0.074 A 
ATOM     48  C   UNL A   1      45.075  23.898  28.302  1.00  0.00     0.029 A 
ATOM     49  N   UNL A   1      43.650  24.057  29.971  1.00  0.00    -0.354 N 
ATOM     50  N   UNL A   1      45.079  27.541  30.717  1.00  0.00    -0.248 NA
ATOM     51  C   UNL A   1      44.553  28.983  32.429  1.00  0.00     0.031 C 
ATOM     52  C   UNL A   1      45.651  24.713  29.326  1.00  0.00     0.029 A 
ATOM     53  C   UNL A   1      44.763  24.782  30.383  1.00  0.00     0.049 A 
ATOM     54  H   UNL A   1      42.823  23.978  30.499  1.00  0.00     0.167 HD
ATOM     55  C   UNL A   1      44.814  26.749  31.803  1.00  0.00     0.074 A 
ATOM     56  C   UNL A   1      44.540  27.714  32.863  1.00  0.00     0.031 C 
ATOM     57  C   UNL A   1      44.754  25.379  31.724  1.00  0.00     0.034 A 
BRANCH  44  58
ATOM     58  C   UNL A   1      42.839  21.516  27.203  1.00  0.00     0.023 A 
ATOM     59  C   UNL A   1      42.024  20.407  27.495  1.00  0.00     0.012 A 
ATOM     60  C   UNL A   1      43.687  21.397  26.068  1.00  0.00     0.148 A 
ATOM     61  C   UNL A   1      42.096  19.215  26.769  1.00  0.00     0.002 A 
ATOM     62  C   UNL A   1      43.796  20.189  25.373  1.00  0.00     0.091 A 
ATOM     63  F   UNL A   1      44.360  22.472  25.631  1.00  0.00    -0.205 F 
ATOM     64  C   UNL A   1      42.999  19.095  25.724  1.00  0.00     0.022 A 
BRANCH  62  65
ATOM     65  S   UNL A   1      45.008  19.925  24.065  1.00  0.00     0.127 S 
ATOM     66  O   UNL A   1      46.268  20.258  24.735  1.00  0.00    -0.237 OA
ATOM     67  O   UNL A   1      44.843  18.508  23.757  1.00  0.00    -0.237 OA
ATOM     68  O   UNL A   1      44.649  20.856  23.001  1.00  0.00    -0.744 OA
ENDBRANCH  62  65
ENDBRANCH  44  58
BRANCH  45  69
ATOM     69  C   UNL A   1      43.432  30.950  30.112  1.00  0.00     0.023 A 
ATOM     70  C   UNL A   1      42.108  30.513  30.404  1.00  0.00     0.012 A 
ATOM     71  C   UNL A   1      43.724  32.313  30.362  1.00  0.00     0.148 A 
ATOM     72  C   UNL A   1      41.165  31.362  31.008  1.00  0.00     0.002 A 
ATOM     73  C   UNL A   1      42.782  33.148  30.978  1.00  0.00     0.091 A 
ATOM     74  F   UNL A   1      44.935  32.792  30.063  1.00  0.00    -0.205 F 
ATOM     75  C   UNL A   1      41.511  32.673  31.323  1.00  0.00     0.022 A 
BRANCH  73  76
ATOM     76  S   UNL A   1      43.251  34.818  31.478  1.00  0.00     0.127 S 
ATOM     77  O   UNL A   1      44.500  34.601  32.210  1.00  0.00    -0.237 OA
ATOM     78  O   UNL A   1      43.411  35.538  30.223  1.00  0.00    -0.237 OA
ATOM     79  O   UNL A   1      42.116  35.204  32.311  1.00  0.00    -0.744 OA
ENDBRANCH  73  76
ENDBRANCH  45  69
BRANCH  57  80
ATOM     80  C   UNL A   1      44.611  24.452  32.928  1.00  0.00     0.023 A 
ATOM     81  C   UNL A   1      43.362  24.107  33.471  1.00  0.00     0.012 A 
ATOM     82  C   UNL A   1      45.740  23.968  33.643  1.00  0.00     0.148 A 
ATOM     83  C   UNL A   1      43.225  23.208  34.531  1.00  0.00     0.002 A 
ATOM     84  C   UNL A   1      45.612  23.074  34.697  1.00  0.00     0.091 A 
ATOM     85  F   UNL A   1      46.960  24.451  33.389  1.00  0.00    -0.205 F 
ATOM     86  C   UNL A   1      44.351  22.666  35.127  1.00  0.00     0.022 A 
BRANCH  84  87
ATOM     87  S   UNL A   1      47.041  22.444  35.581  1.00  0.00     0.127 S 
ATOM     88  O   UNL A   1      47.540  23.657  36.227  1.00  0.00    -0.237 OA
ATOM     89  O   UNL A   1      46.429  21.475  36.491  1.00  0.00    -0.237 OA
ATOM     90  O   UNL A   1      47.917  21.861  34.576  1.00  0.00    -0.744 OA
ENDBRANCH  84  87
ENDBRANCH  57  80
ENDBRANCH  31  32
ENDBRANCH  24  26
ENDBRANCH  23  24
ENDBRANCH  22  23
ENDBRANCH   1  22
TORSDOF 18
ENDMDL
