MODEL 1
REMARK VINA RESULT:     -12.0      0.000      0.000
REMARK SMILES CCCc1cc(OC(F)(F)F)cc2c1O[C@@H](C(F)(F)F)C(C(=O)OCCOC(=O)c1ccc(-c3c4nc(c(-c5cccc(S(=O)(=O)[O-])c5F)c5ccc([nH]5)c(-c5cccc(S(=O)(=O)[O-])c5F)c5nc(c(-c6cccc(S(=O)(=O)[O-])c6F)c6ccc3[nH]6)C=C5)C=C4)cc1)=C2
REMARK SMILES IDX 26 1 25 2 24 3 22 4 23 5 21 6 4 7 5 8 14 9 6 10 13 11 15 12
REMARK SMILES IDX 12 13 93 14 16 15 3 16 2 17 1 18 7 19 8 20 9 21 10 22 11 23
REMARK SMILES IDX 17 24 18 25 19 26 20 27 27 28 28 29 29 30 30 31 31 32 92 33
REMARK SMILES IDX 32 34 91 35 33 36 34 37 35 38 85 39 36 40 90 41 84 42 86 43
REMARK SMILES IDX 37 44 89 45 83 46 82 47 38 49 70 50 50 51 69 52 51 53 54 54
REMARK SMILES IDX 68 55 87 56 52 57 53 58 67 60 88 61 55 62 39 63 40 64 48 65
REMARK SMILES IDX 41 66 43 67 49 68 42 69 44 70 45 71 46 72 47 73 71 74 72 75
REMARK SMILES IDX 80 76 73 77 75 78 81 79 74 80 76 81 77 82 78 83 79 84 56 85
REMARK SMILES IDX 57 86 65 87 58 88 60 89 66 90 59 91 61 92 62 93 63 94 64 95
REMARK H PARENT 86 48 54 59
REMARK Flexibility Score: inf
ROOT
ATOM      1  C   UNL A   1      37.195  20.503  25.012  1.00  0.00     0.275 C 
ENDROOT
BRANCH   1   2
ATOM      2  C   UNL A   1      35.886  21.171  25.440  1.00  0.00     0.275 C 
BRANCH   2   3
ATOM      3  O   UNL A   1      35.058  21.451  24.293  1.00  0.00    -0.459 OA
BRANCH   3   4
ATOM      4  C   UNL A   1      35.175  22.699  23.785  1.00  0.00     0.338 C 
ATOM      5  O   UNL A   1      35.999  23.086  22.971  1.00  0.00    -0.246 OA
BRANCH   4   6
ATOM      6  C   UNL A   1      34.135  23.577  24.336  1.00  0.00     0.087 C 
ATOM      7  C   UNL A   1      31.085  26.239  25.385  1.00  0.00    -0.002 A 
ATOM      8  C   UNL A   1      31.405  27.361  26.176  1.00  0.00     0.054 A 
ATOM      9  C   UNL A   1      32.121  25.372  25.008  1.00  0.00     0.131 A 
ATOM     10  C   UNL A   1      32.718  27.600  26.591  1.00  0.00     0.130 A 
ATOM     11  C   UNL A   1      33.441  25.594  25.425  1.00  0.00     0.021 A 
ATOM     12  O   UNL A   1      31.795  24.339  24.181  1.00  0.00    -0.475 OA
ATOM     13  C   UNL A   1      33.727  26.702  26.225  1.00  0.00     0.058 A 
ATOM     14  C   UNL A   1      34.503  24.698  24.974  1.00  0.00     0.027 C 
ATOM     15  C   UNL A   1      32.693  23.208  24.128  1.00  0.00     0.316 C 
BRANCH   7  16
ATOM     16  C   UNL A   1      29.631  25.950  25.061  1.00  0.00     0.039 C 
BRANCH  16  17
ATOM     17  C   UNL A   1      28.984  26.753  23.924  1.00  0.00     0.001 C 
ATOM     18  C   UNL A   1      29.967  27.469  23.006  1.00  0.00     0.004 C 
ENDBRANCH  16  17
ENDBRANCH   7  16
BRANCH  10  19
ATOM     19  O   UNL A   1      33.146  28.647  27.357  1.00  0.00    -0.406 OA
BRANCH  19  20
ATOM     20  C   UNL A   1      33.597  29.814  26.690  1.00  0.00     0.573 C 
ATOM     21  F   UNL A   1      32.940  30.912  27.121  1.00  0.00    -0.132 F 
ATOM     22  F   UNL A   1      34.925  29.986  26.851  1.00  0.00    -0.132 F 
ATOM     23  F   UNL A   1      33.350  29.675  25.367  1.00  0.00    -0.132 F 
ENDBRANCH  19  20
ENDBRANCH  10  19
BRANCH  15  24
ATOM     24  C   UNL A   1      32.365  22.391  22.867  1.00  0.00     0.430 C 
ATOM     25  F   UNL A   1      33.134  22.776  21.821  1.00  0.00    -0.167 F 
ATOM     26  F   UNL A   1      32.628  21.076  23.070  1.00  0.00    -0.167 F 
ATOM     27  F   UNL A   1      31.070  22.495  22.507  1.00  0.00    -0.167 F 
ENDBRANCH  15  24
ENDBRANCH   4   6
ENDBRANCH   3   4
ENDBRANCH   2   3
ENDBRANCH   1   2
BRANCH   1  28
ATOM     28  O   UNL A   1      38.291  21.436  25.082  1.00  0.00    -0.458 OA
BRANCH  28  29
ATOM     29  C   UNL A   1      39.231  21.127  26.008  1.00  0.00     0.338 C 
ATOM     30  O   UNL A   1      39.725  20.026  26.203  1.00  0.00    -0.246 OA
BRANCH  29  31
ATOM     31  C   UNL A   1      39.743  22.350  26.661  1.00  0.00     0.060 A 
ATOM     32  C   UNL A   1      39.180  23.559  26.239  1.00  0.00     0.016 A 
ATOM     33  C   UNL A   1      40.762  22.348  27.617  1.00  0.00     0.016 A 
ATOM     34  C   UNL A   1      39.586  24.764  26.802  1.00  0.00     0.010 A 
ATOM     35  C   UNL A   1      41.222  23.570  28.133  1.00  0.00     0.010 A 
ATOM     36  C   UNL A   1      40.638  24.780  27.722  1.00  0.00    -0.014 A 
BRANCH  36  37
ATOM     37  C   UNL A   1      41.228  26.095  28.071  1.00  0.00     0.031 A 
ATOM     38  C   UNL A   1      42.623  26.398  27.600  1.00  0.00     0.074 A 
ATOM     39  C   UNL A   1      40.513  27.034  28.713  1.00  0.00     0.049 A 
ATOM     40  N   UNL A   1      43.314  27.502  27.707  1.00  0.00    -0.248 NA
ATOM     41  C   UNL A   1      43.325  25.313  26.892  1.00  0.00     0.031 C 
ATOM     42  C   UNL A   1      39.133  26.885  29.170  1.00  0.00     0.029 A 
ATOM     43  N   UNL A   1      40.858  28.309  29.092  1.00  0.00    -0.354 N 
ATOM     44  C   UNL A   1      44.530  27.248  27.087  1.00  0.00     0.074 A 
ATOM     45  C   UNL A   1      44.487  25.883  26.607  1.00  0.00     0.031 C 
ATOM     46  C   UNL A   1      38.757  28.016  29.793  1.00  0.00     0.029 A 
ATOM     47  C   UNL A   1      39.872  28.962  29.791  1.00  0.00     0.049 A 
ATOM     48  H   UNL A   1      41.730  28.715  28.882  1.00  0.00     0.167 HD
ATOM     49  C   UNL A   1      45.589  28.075  26.925  1.00  0.00     0.034 A 
ATOM     50  C   UNL A   1      39.878  30.180  30.371  1.00  0.00     0.034 A 
ATOM     51  C   UNL A   1      45.644  29.422  27.418  1.00  0.00     0.049 A 
ATOM     52  C   UNL A   1      41.096  31.059  30.231  1.00  0.00     0.074 A 
ATOM     53  C   UNL A   1      46.682  30.332  27.320  1.00  0.00     0.029 A 
ATOM     54  N   UNL A   1      44.627  30.050  28.118  1.00  0.00    -0.354 N 
ATOM     55  N   UNL A   1      42.204  30.839  29.564  1.00  0.00    -0.248 NA
ATOM     56  C   UNL A   1      41.050  32.372  30.894  1.00  0.00     0.031 C 
ATOM     57  C   UNL A   1      46.301  31.503  27.983  1.00  0.00     0.029 A 
ATOM     58  C   UNL A   1      45.012  31.333  28.465  1.00  0.00     0.049 A 
ATOM     59  H   UNL A   1      43.757  29.643  28.337  1.00  0.00     0.167 HD
ATOM     60  C   UNL A   1      42.963  31.999  29.688  1.00  0.00     0.074 A 
ATOM     61  C   UNL A   1      42.184  32.924  30.483  1.00  0.00     0.031 C 
ATOM     62  C   UNL A   1      44.198  32.269  29.197  1.00  0.00     0.034 A 
BRANCH  49  63
ATOM     63  C   UNL A   1      46.777  27.532  26.181  1.00  0.00     0.023 A 
ATOM     64  C   UNL A   1      46.879  27.728  24.789  1.00  0.00     0.012 A 
ATOM     65  C   UNL A   1      47.802  26.850  26.862  1.00  0.00     0.148 A 
ATOM     66  C   UNL A   1      47.970  27.228  24.080  1.00  0.00     0.002 A 
ATOM     67  C   UNL A   1      48.906  26.388  26.156  1.00  0.00     0.091 A 
ATOM     68  F   UNL A   1      47.671  26.648  28.181  1.00  0.00    -0.205 F 
ATOM     69  C   UNL A   1      48.987  26.566  24.765  1.00  0.00     0.022 A 
BRANCH  67  70
ATOM     70  S   UNL A   1      50.295  25.580  26.958  1.00  0.00     0.127 S 
ATOM     71  O   UNL A   1      51.202  25.366  25.832  1.00  0.00    -0.237 OA
ATOM     72  O   UNL A   1      50.736  26.600  27.911  1.00  0.00    -0.237 OA
ATOM     73  O   UNL A   1      49.759  24.372  27.568  1.00  0.00    -0.744 OA
ENDBRANCH  67  70
ENDBRANCH  49  63
BRANCH  50  74
ATOM     74  C   UNL A   1      38.682  30.662  31.120  1.00  0.00     0.023 A 
ATOM     75  C   UNL A   1      38.568  30.407  32.501  1.00  0.00     0.012 A 
ATOM     76  C   UNL A   1      37.646  31.356  30.464  1.00  0.00     0.148 A 
ATOM     77  C   UNL A   1      37.431  30.802  33.206  1.00  0.00     0.002 A 
ATOM     78  C   UNL A   1      36.539  31.792  31.183  1.00  0.00     0.091 A 
ATOM     79  F   UNL A   1      37.760  31.569  29.146  1.00  0.00    -0.205 F 
ATOM     80  C   UNL A   1      36.420  31.500  32.551  1.00  0.00     0.022 A 
BRANCH  78  81
ATOM     81  S   UNL A   1      35.242  32.790  30.444  1.00  0.00     0.127 S 
ATOM     82  O   UNL A   1      34.757  31.912  29.381  1.00  0.00    -0.237 OA
ATOM     83  O   UNL A   1      34.318  32.965  31.566  1.00  0.00    -0.237 OA
ATOM     84  O   UNL A   1      35.893  34.016  30.003  1.00  0.00    -0.744 OA
ENDBRANCH  78  81
ENDBRANCH  50  74
BRANCH  62  85
ATOM     85  C   UNL A   1      44.775  33.640  29.449  1.00  0.00     0.023 A 
ATOM     86  C   UNL A   1      45.540  33.883  30.606  1.00  0.00     0.012 A 
ATOM     87  C   UNL A   1      44.629  34.663  28.491  1.00  0.00     0.148 A 
ATOM     88  C   UNL A   1      46.122  35.132  30.822  1.00  0.00     0.002 A 
ATOM     89  C   UNL A   1      45.252  35.890  28.689  1.00  0.00     0.091 A 
ATOM     90  F   UNL A   1      43.880  34.422  27.405  1.00  0.00    -0.205 F 
ATOM     91  C   UNL A   1      45.989  36.129  29.859  1.00  0.00     0.022 A 
BRANCH  89  92
ATOM     92  S   UNL A   1      45.217  37.191  27.450  1.00  0.00     0.127 S 
ATOM     93  O   UNL A   1      45.939  36.569  26.343  1.00  0.00    -0.237 OA
ATOM     94  O   UNL A   1      43.781  37.365  27.220  1.00  0.00    -0.237 OA
ATOM     95  O   UNL A   1      45.869  38.341  28.062  1.00  0.00    -0.744 OA
ENDBRANCH  89  92
ENDBRANCH  62  85
ENDBRANCH  36  37
ENDBRANCH  29  31
ENDBRANCH  28  29
ENDBRANCH   1  28
TORSDOF 19
ENDMDL
MODEL 2
REMARK VINA RESULT:     -11.7      1.371      1.784
REMARK SMILES CCCc1cc(OC(F)(F)F)cc2c1O[C@@H](C(F)(F)F)C(C(=O)OCCOC(=O)c1ccc(-c3c4nc(c(-c5cccc(S(=O)(=O)[O-])c5F)c5ccc([nH]5)c(-c5cccc(S(=O)(=O)[O-])c5F)c5nc(c(-c6cccc(S(=O)(=O)[O-])c6F)c6ccc3[nH]6)C=C5)C=C4)cc1)=C2
REMARK SMILES IDX 26 1 25 2 24 3 22 4 23 5 21 6 4 7 5 8 14 9 6 10 13 11 15 12
REMARK SMILES IDX 12 13 93 14 16 15 3 16 2 17 1 18 7 19 8 20 9 21 10 22 11 23
REMARK SMILES IDX 17 24 18 25 19 26 20 27 27 28 28 29 29 30 30 31 31 32 92 33
REMARK SMILES IDX 32 34 91 35 33 36 34 37 35 38 85 39 36 40 90 41 84 42 86 43
REMARK SMILES IDX 37 44 89 45 83 46 82 47 38 49 70 50 50 51 69 52 51 53 54 54
REMARK SMILES IDX 68 55 87 56 52 57 53 58 67 60 88 61 55 62 39 63 40 64 48 65
REMARK SMILES IDX 41 66 43 67 49 68 42 69 44 70 45 71 46 72 47 73 71 74 72 75
REMARK SMILES IDX 80 76 73 77 75 78 81 79 74 80 76 81 77 82 78 83 79 84 56 85
REMARK SMILES IDX 57 86 65 87 58 88 60 89 66 90 59 91 61 92 62 93 63 94 64 95
REMARK H PARENT 86 48 54 59
REMARK Flexibility Score: inf
ROOT
ATOM      1  C   UNL A   1      37.561  20.221  24.992  1.00  0.00     0.275 C 
ENDROOT
BRANCH   1   2
ATOM      2  C   UNL A   1      36.106  20.549  24.651  1.00  0.00     0.275 C 
BRANCH   2   3
ATOM      3  O   UNL A   1      35.743  21.847  25.161  1.00  0.00    -0.459 OA
BRANCH   3   4
ATOM      4  C   UNL A   1      35.491  22.789  24.223  1.00  0.00     0.338 C 
ATOM      5  O   UNL A   1      36.042  22.912  23.140  1.00  0.00    -0.246 OA
BRANCH   4   6
ATOM      6  C   UNL A   1      34.414  23.683  24.667  1.00  0.00     0.087 C 
ATOM      7  C   UNL A   1      31.270  26.340  25.399  1.00  0.00    -0.002 A 
ATOM      8  C   UNL A   1      31.539  27.535  26.098  1.00  0.00     0.054 A 
ATOM      9  C   UNL A   1      32.338  25.474  25.127  1.00  0.00     0.131 A 
ATOM     10  C   UNL A   1      32.833  27.844  26.526  1.00  0.00     0.130 A 
ATOM     11  C   UNL A   1      33.639  25.766  25.558  1.00  0.00     0.021 A 
ATOM     12  O   UNL A   1      32.061  24.364  24.385  1.00  0.00    -0.475 OA
ATOM     13  C   UNL A   1      33.874  26.947  26.266  1.00  0.00     0.058 A 
ATOM     14  C   UNL A   1      34.736  24.863  25.216  1.00  0.00     0.027 C 
ATOM     15  C   UNL A   1      32.988  23.258  24.454  1.00  0.00     0.316 C 
BRANCH   7  16
ATOM     16  C   UNL A   1      29.833  25.985  25.063  1.00  0.00     0.039 C 
BRANCH  16  17
ATOM     17  C   UNL A   1      29.209  26.648  23.826  1.00  0.00     0.001 C 
ATOM     18  C   UNL A   1      27.695  26.809  23.883  1.00  0.00     0.004 C 
ENDBRANCH  16  17
ENDBRANCH   7  16
BRANCH  10  19
ATOM     19  O   UNL A   1      33.213  28.965  27.209  1.00  0.00    -0.406 OA
BRANCH  19  20
ATOM     20  C   UNL A   1      33.014  30.221  26.583  1.00  0.00     0.573 C 
ATOM     21  F   UNL A   1      33.079  30.116  25.238  1.00  0.00    -0.132 F 
ATOM     22  F   UNL A   1      31.831  30.763  26.940  1.00  0.00    -0.132 F 
ATOM     23  F   UNL A   1      33.996  31.061  26.982  1.00  0.00    -0.132 F 
ENDBRANCH  19  20
ENDBRANCH  10  19
BRANCH  15  24
ATOM     24  C   UNL A   1      32.718  22.326  23.260  1.00  0.00     0.430 C 
ATOM     25  F   UNL A   1      31.399  22.289  22.958  1.00  0.00    -0.167 F 
ATOM     26  F   UNL A   1      33.352  22.778  22.150  1.00  0.00    -0.167 F 
ATOM     27  F   UNL A   1      33.141  21.065  23.484  1.00  0.00    -0.167 F 
ENDBRANCH  15  24
ENDBRANCH   4   6
ENDBRANCH   3   4
ENDBRANCH   2   3
ENDBRANCH   1   2
BRANCH   1  28
ATOM     28  O   UNL A   1      38.252  21.394  25.465  1.00  0.00    -0.458 OA
BRANCH  28  29
ATOM     29  C   UNL A   1      39.394  21.134  26.145  1.00  0.00     0.338 C 
ATOM     30  O   UNL A   1      40.015  20.082  26.149  1.00  0.00    -0.246 OA
BRANCH  29  31
ATOM     31  C   UNL A   1      39.925  22.367  26.764  1.00  0.00     0.060 A 
ATOM     32  C   UNL A   1      39.404  23.574  26.285  1.00  0.00     0.016 A 
ATOM     33  C   UNL A   1      40.923  22.375  27.742  1.00  0.00     0.016 A 
ATOM     34  C   UNL A   1      39.830  24.788  26.812  1.00  0.00     0.010 A 
ATOM     35  C   UNL A   1      41.405  23.603  28.222  1.00  0.00     0.010 A 
ATOM     36  C   UNL A   1      40.862  24.812  27.754  1.00  0.00    -0.014 A 
BRANCH  36  37
ATOM     37  C   UNL A   1      41.480  26.122  28.067  1.00  0.00     0.031 A 
ATOM     38  C   UNL A   1      42.861  26.403  27.544  1.00  0.00     0.074 A 
ATOM     39  C   UNL A   1      40.799  27.077  28.724  1.00  0.00     0.049 A 
ATOM     40  N   UNL A   1      43.568  27.500  27.614  1.00  0.00    -0.248 NA
ATOM     41  C   UNL A   1      43.525  25.302  26.824  1.00  0.00     0.031 C 
ATOM     42  C   UNL A   1      39.434  26.949  29.231  1.00  0.00     0.029 A 
ATOM     43  N   UNL A   1      41.173  28.351  29.076  1.00  0.00    -0.354 N 
ATOM     44  C   UNL A   1      44.758  27.224  26.955  1.00  0.00     0.074 A 
ATOM     45  C   UNL A   1      44.682  25.855  26.492  1.00  0.00     0.031 C 
ATOM     46  C   UNL A   1      39.094  28.092  29.854  1.00  0.00     0.029 A 
ATOM     47  C   UNL A   1      40.219  29.025  29.802  1.00  0.00     0.049 A 
ATOM     48  H   UNL A   1      42.041  28.745  28.831  1.00  0.00     0.167 HD
ATOM     49  C   UNL A   1      45.820  28.037  26.746  1.00  0.00     0.034 A 
ATOM     50  C   UNL A   1      40.260  30.248  30.369  1.00  0.00     0.034 A 
ATOM     51  C   UNL A   1      45.909  29.388  27.222  1.00  0.00     0.049 A 
ATOM     52  C   UNL A   1      41.483  31.110  30.176  1.00  0.00     0.074 A 
ATOM     53  C   UNL A   1      46.954  30.284  27.078  1.00  0.00     0.029 A 
ATOM     54  N   UNL A   1      44.924  30.036  27.951  1.00  0.00    -0.354 N 
ATOM     55  N   UNL A   1      42.564  30.870  29.472  1.00  0.00    -0.248 NA
ATOM     56  C   UNL A   1      41.477  32.431  30.826  1.00  0.00     0.031 C 
ATOM     57  C   UNL A   1      46.610  31.467  27.741  1.00  0.00     0.029 A 
ATOM     58  C   UNL A   1      45.337  31.318  28.270  1.00  0.00     0.049 A 
ATOM     59  H   UNL A   1      44.058  29.642  28.204  1.00  0.00     0.167 HD
ATOM     60  C   UNL A   1      43.341  32.021  29.557  1.00  0.00     0.074 A 
ATOM     61  C   UNL A   1      42.601  32.965  30.369  1.00  0.00     0.031 C 
ATOM     62  C   UNL A   1      44.561  32.271  29.020  1.00  0.00     0.034 A 
BRANCH  49  63
ATOM     63  C   UNL A   1      46.975  27.471  25.967  1.00  0.00     0.023 A 
ATOM     64  C   UNL A   1      47.870  26.580  26.592  1.00  0.00     0.012 A 
ATOM     65  C   UNL A   1      47.161  27.804  24.612  1.00  0.00     0.148 A 
ATOM     66  C   UNL A   1      48.950  26.049  25.888  1.00  0.00     0.002 A 
ATOM     67  C   UNL A   1      48.217  27.242  23.906  1.00  0.00     0.091 A 
ATOM     68  F   UNL A   1      46.316  28.678  24.046  1.00  0.00    -0.205 F 
ATOM     69  C   UNL A   1      49.118  26.373  24.544  1.00  0.00     0.022 A 
BRANCH  67  70
ATOM     70  S   UNL A   1      48.478  27.549  22.156  1.00  0.00     0.127 S 
ATOM     71  O   UNL A   1      49.618  28.464  22.184  1.00  0.00    -0.237 OA
ATOM     72  O   UNL A   1      48.783  26.209  21.650  1.00  0.00    -0.237 OA
ATOM     73  O   UNL A   1      47.233  28.115  21.658  1.00  0.00    -0.744 OA
ENDBRANCH  67  70
ENDBRANCH  49  63
BRANCH  50  74
ATOM     74  C   UNL A   1      39.097  30.753  31.154  1.00  0.00     0.023 A 
ATOM     75  C   UNL A   1      39.010  30.479  32.533  1.00  0.00     0.012 A 
ATOM     76  C   UNL A   1      38.066  31.487  30.534  1.00  0.00     0.148 A 
ATOM     77  C   UNL A   1      37.902  30.895  33.272  1.00  0.00     0.002 A 
ATOM     78  C   UNL A   1      36.990  31.943  31.287  1.00  0.00     0.091 A 
ATOM     79  F   UNL A   1      38.155  31.717  29.217  1.00  0.00    -0.205 F 
ATOM     80  C   UNL A   1      36.897  31.633  32.652  1.00  0.00     0.022 A 
BRANCH  78  81
ATOM     81  S   UNL A   1      35.706  32.989  30.594  1.00  0.00     0.127 S 
ATOM     82  O   UNL A   1      35.028  33.468  31.796  1.00  0.00    -0.237 OA
ATOM     83  O   UNL A   1      36.491  34.002  29.886  1.00  0.00    -0.237 OA
ATOM     84  O   UNL A   1      34.919  32.124  29.727  1.00  0.00    -0.744 OA
ENDBRANCH  78  81
ENDBRANCH  50  74
BRANCH  62  85
ATOM     85  C   UNL A   1      45.162  33.638  29.236  1.00  0.00     0.023 A 
ATOM     86  C   UNL A   1      46.028  33.865  30.324  1.00  0.00     0.012 A 
ATOM     87  C   UNL A   1      44.935  34.673  28.307  1.00  0.00     0.148 A 
ATOM     88  C   UNL A   1      46.632  35.110  30.501  1.00  0.00     0.002 A 
ATOM     89  C   UNL A   1      45.578  35.896  28.464  1.00  0.00     0.091 A 
ATOM     90  F   UNL A   1      44.092  34.447  27.289  1.00  0.00    -0.205 F 
ATOM     91  C   UNL A   1      46.417  36.119  29.566  1.00  0.00     0.022 A 
BRANCH  89  92
ATOM     92  S   UNL A   1      45.437  37.212  27.249  1.00  0.00     0.127 S 
ATOM     93  O   UNL A   1      45.981  38.354  27.981  1.00  0.00    -0.237 OA
ATOM     94  O   UNL A   1      46.286  36.726  26.159  1.00  0.00    -0.237 OA
ATOM     95  O   UNL A   1      44.022  37.295  26.914  1.00  0.00    -0.744 OA
ENDBRANCH  89  92
ENDBRANCH  62  85
ENDBRANCH  36  37
ENDBRANCH  29  31
ENDBRANCH  28  29
ENDBRANCH   1  28
TORSDOF 19
ENDMDL
MODEL 3
REMARK VINA RESULT:     -11.2      4.657      9.973
REMARK SMILES CCCc1cc(OC(F)(F)F)cc2c1O[C@@H](C(F)(F)F)C(C(=O)OCCOC(=O)c1ccc(-c3c4nc(c(-c5cccc(S(=O)(=O)[O-])c5F)c5ccc([nH]5)c(-c5cccc(S(=O)(=O)[O-])c5F)c5nc(c(-c6cccc(S(=O)(=O)[O-])c6F)c6ccc3[nH]6)C=C5)C=C4)cc1)=C2
REMARK SMILES IDX 26 1 25 2 24 3 22 4 23 5 21 6 4 7 5 8 14 9 6 10 13 11 15 12
REMARK SMILES IDX 12 13 93 14 16 15 3 16 2 17 1 18 7 19 8 20 9 21 10 22 11 23
REMARK SMILES IDX 17 24 18 25 19 26 20 27 27 28 28 29 29 30 30 31 31 32 92 33
REMARK SMILES IDX 32 34 91 35 33 36 34 37 35 38 85 39 36 40 90 41 84 42 86 43
REMARK SMILES IDX 37 44 89 45 83 46 82 47 38 49 70 50 50 51 69 52 51 53 54 54
REMARK SMILES IDX 68 55 87 56 52 57 53 58 67 60 88 61 55 62 39 63 40 64 48 65
REMARK SMILES IDX 41 66 43 67 49 68 42 69 44 70 45 71 46 72 47 73 71 74 72 75
REMARK SMILES IDX 80 76 73 77 75 78 81 79 74 80 76 81 77 82 78 83 79 84 56 85
REMARK SMILES IDX 57 86 65 87 58 88 60 89 66 90 59 91 61 92 62 93 63 94 64 95
REMARK H PARENT 86 48 54 59
REMARK Flexibility Score: inf
ROOT
ATOM      1  C   UNL A   1      31.790  30.443  26.557  1.00  0.00     0.275 C 
ENDROOT
BRANCH   1   2
ATOM      2  C   UNL A   1      31.511  29.006  26.110  1.00  0.00     0.275 C 
BRANCH   2   3
ATOM      3  O   UNL A   1      32.739  28.325  25.784  1.00  0.00    -0.459 OA
BRANCH   3   4
ATOM      4  C   UNL A   1      32.819  27.846  24.522  1.00  0.00     0.338 C 
ATOM      5  O   UNL A   1      32.775  28.492  23.487  1.00  0.00    -0.246 OA
BRANCH   4   6
ATOM      6  C   UNL A   1      32.992  26.388  24.536  1.00  0.00     0.087 C 
ATOM      7  C   UNL A   1      33.114  22.231  24.984  1.00  0.00    -0.002 A 
ATOM      8  C   UNL A   1      34.309  21.631  25.429  1.00  0.00     0.054 A 
ATOM      9  C   UNL A   1      33.072  23.628  24.872  1.00  0.00     0.131 A 
ATOM     10  C   UNL A   1      35.433  22.403  25.737  1.00  0.00     0.130 A 
ATOM     11  C   UNL A   1      34.194  24.415  25.168  1.00  0.00     0.021 A 
ATOM     12  O   UNL A   1      31.881  24.186  24.513  1.00  0.00    -0.475 OA
ATOM     13  C   UNL A   1      35.372  23.793  25.588  1.00  0.00     0.058 A 
ATOM     14  C   UNL A   1      34.101  25.871  25.086  1.00  0.00     0.027 C 
ATOM     15  C   UNL A   1      31.900  25.525  23.969  1.00  0.00     0.316 C 
BRANCH   7  16
ATOM     16  C   UNL A   1      31.960  21.350  24.543  1.00  0.00     0.039 C 
BRANCH  16  17
ATOM     17  C   UNL A   1      32.182  19.831  24.555  1.00  0.00     0.001 C 
ATOM     18  C   UNL A   1      32.516  19.222  23.199  1.00  0.00     0.004 C 
ENDBRANCH  16  17
ENDBRANCH   7  16
BRANCH  10  19
ATOM     19  O   UNL A   1      36.640  21.935  26.173  1.00  0.00    -0.406 OA
BRANCH  19  20
ATOM     20  C   UNL A   1      37.776  22.178  25.362  1.00  0.00     0.573 C 
ATOM     21  F   UNL A   1      38.448  23.275  25.772  1.00  0.00    -0.132 F 
ATOM     22  F   UNL A   1      38.606  21.115  25.351  1.00  0.00    -0.132 F 
ATOM     23  F   UNL A   1      37.360  22.397  24.093  1.00  0.00    -0.132 F 
ENDBRANCH  19  20
ENDBRANCH  10  19
BRANCH  15  24
ATOM     24  C   UNL A   1      30.471  26.092  24.032  1.00  0.00     0.430 C 
ATOM     25  F   UNL A   1      30.360  27.219  23.291  1.00  0.00    -0.167 F 
ATOM     26  F   UNL A   1      29.584  25.206  23.516  1.00  0.00    -0.167 F 
ATOM     27  F   UNL A   1      30.082  26.368  25.293  1.00  0.00    -0.167 F 
ENDBRANCH  15  24
ENDBRANCH   4   6
ENDBRANCH   3   4
ENDBRANCH   2   3
ENDBRANCH   1   2
BRANCH   1  28
ATOM     28  O   UNL A   1      33.188  30.760  26.412  1.00  0.00    -0.458 OA
BRANCH  28  29
ATOM     29  C   UNL A   1      33.641  31.700  27.277  1.00  0.00     0.338 C 
ATOM     30  O   UNL A   1      33.005  32.644  27.722  1.00  0.00    -0.246 OA
BRANCH  29  31
ATOM     31  C   UNL A   1      34.984  31.344  27.780  1.00  0.00     0.060 A 
ATOM     32  C   UNL A   1      35.234  29.980  27.964  1.00  0.00     0.016 A 
ATOM     33  C   UNL A   1      35.962  32.286  28.109  1.00  0.00     0.016 A 
ATOM     34  C   UNL A   1      36.471  29.542  28.422  1.00  0.00     0.010 A 
ATOM     35  C   UNL A   1      37.186  31.848  28.640  1.00  0.00     0.010 A 
ATOM     36  C   UNL A   1      37.440  30.475  28.802  1.00  0.00    -0.014 A 
BRANCH  36  37
ATOM     37  C   UNL A   1      38.619  29.979  29.552  1.00  0.00     0.031 A 
ATOM     38  C   UNL A   1      38.765  30.373  30.995  1.00  0.00     0.074 A 
ATOM     39  C   UNL A   1      39.495  29.125  28.992  1.00  0.00     0.049 A 
ATOM     40  N   UNL A   1      39.657  29.997  31.872  1.00  0.00    -0.248 NA
ATOM     41  C   UNL A   1      37.751  31.301  31.525  1.00  0.00     0.031 C 
ATOM     42  C   UNL A   1      39.431  28.622  27.622  1.00  0.00     0.029 A 
ATOM     43  N   UNL A   1      40.614  28.530  29.520  1.00  0.00    -0.354 N 
ATOM     44  C   UNL A   1      39.319  30.642  33.054  1.00  0.00     0.074 A 
ATOM     45  C   UNL A   1      38.140  31.437  32.784  1.00  0.00     0.031 C 
ATOM     46  C   UNL A   1      40.485  27.813  27.408  1.00  0.00     0.029 A 
ATOM     47  C   UNL A   1      41.302  27.753  28.619  1.00  0.00     0.049 A 
ATOM     48  H   UNL A   1      40.898  28.649  30.456  1.00  0.00     0.167 HD
ATOM     49  C   UNL A   1      39.929  30.577  34.261  1.00  0.00     0.034 A 
ATOM     50  C   UNL A   1      42.464  27.083  28.757  1.00  0.00     0.034 A 
ATOM     51  C   UNL A   1      41.112  29.807  34.527  1.00  0.00     0.049 A 
ATOM     52  C   UNL A   1      43.160  27.079  30.096  1.00  0.00     0.074 A 
ATOM     53  C   UNL A   1      41.815  29.694  35.713  1.00  0.00     0.029 A 
ATOM     54  N   UNL A   1      41.778  29.032  33.591  1.00  0.00    -0.354 N 
ATOM     55  N   UNL A   1      42.780  27.619  31.229  1.00  0.00    -0.248 NA
ATOM     56  C   UNL A   1      44.430  26.340  30.185  1.00  0.00     0.031 C 
ATOM     57  C   UNL A   1      42.921  28.868  35.488  1.00  0.00     0.029 A 
ATOM     58  C   UNL A   1      42.887  28.441  34.170  1.00  0.00     0.049 A 
ATOM     59  H   UNL A   1      41.501  28.917  32.653  1.00  0.00     0.167 HD
ATOM     60  C   UNL A   1      43.734  27.248  32.171  1.00  0.00     0.074 A 
ATOM     61  C   UNL A   1      44.704  26.426  31.479  1.00  0.00     0.031 C 
ATOM     62  C   UNL A   1      43.806  27.568  33.487  1.00  0.00     0.034 A 
BRANCH  49  63
ATOM     63  C   UNL A   1      39.320  31.371  35.383  1.00  0.00     0.023 A 
ATOM     64  C   UNL A   1      38.360  30.771  36.221  1.00  0.00     0.012 A 
ATOM     65  C   UNL A   1      39.715  32.701  35.620  1.00  0.00     0.148 A 
ATOM     66  C   UNL A   1      37.779  31.492  37.264  1.00  0.00     0.002 A 
ATOM     67  C   UNL A   1      39.160  33.401  36.684  1.00  0.00     0.091 A 
ATOM     68  F   UNL A   1      40.607  33.262  34.792  1.00  0.00    -0.205 F 
ATOM     69  C   UNL A   1      38.186  32.803  37.500  1.00  0.00     0.022 A 
BRANCH  67  70
ATOM     70  S   UNL A   1      39.666  35.072  37.107  1.00  0.00     0.127 S 
ATOM     71  O   UNL A   1      41.106  34.905  37.297  1.00  0.00    -0.237 OA
ATOM     72  O   UNL A   1      39.292  35.821  35.907  1.00  0.00    -0.237 OA
ATOM     73  O   UNL A   1      38.914  35.427  38.302  1.00  0.00    -0.744 OA
ENDBRANCH  67  70
ENDBRANCH  49  63
BRANCH  50  74
ATOM     74  C   UNL A   1      43.040  26.331  27.605  1.00  0.00     0.023 A 
ATOM     75  C   UNL A   1      44.022  26.933  26.794  1.00  0.00     0.012 A 
ATOM     76  C   UNL A   1      42.604  25.027  27.298  1.00  0.00     0.148 A 
ATOM     77  C   UNL A   1      44.532  26.266  25.680  1.00  0.00     0.002 A 
ATOM     78  C   UNL A   1      43.153  24.348  26.217  1.00  0.00     0.091 A 
ATOM     79  F   UNL A   1      41.652  24.478  28.067  1.00  0.00    -0.205 F 
ATOM     80  C   UNL A   1      44.104  24.972  25.395  1.00  0.00     0.022 A 
BRANCH  78  81
ATOM     81  S   UNL A   1      42.739  22.641  25.841  1.00  0.00     0.127 S 
ATOM     82  O   UNL A   1      41.317  22.597  26.172  1.00  0.00    -0.237 OA
ATOM     83  O   UNL A   1      43.040  22.565  24.410  1.00  0.00    -0.237 OA
ATOM     84  O   UNL A   1      43.610  21.831  26.682  1.00  0.00    -0.744 OA
ENDBRANCH  78  81
ENDBRANCH  50  74
BRANCH  62  85
ATOM     85  C   UNL A   1      44.940  26.986  34.294  1.00  0.00     0.023 A 
ATOM     86  C   UNL A   1      46.183  27.646  34.346  1.00  0.00     0.012 A 
ATOM     87  C   UNL A   1      44.742  25.828  35.073  1.00  0.00     0.148 A 
ATOM     88  C   UNL A   1      47.220  27.145  35.133  1.00  0.00     0.002 A 
ATOM     89  C   UNL A   1      45.763  25.362  35.892  1.00  0.00     0.091 A 
ATOM     90  F   UNL A   1      43.559  25.200  34.996  1.00  0.00    -0.205 F 
ATOM     91  C   UNL A   1      47.006  26.012  35.914  1.00  0.00     0.022 A 
BRANCH  89  92
ATOM     92  S   UNL A   1      45.535  23.971  37.007  1.00  0.00     0.127 S 
ATOM     93  O   UNL A   1      44.514  24.483  37.918  1.00  0.00    -0.237 OA
ATOM     94  O   UNL A   1      45.072  22.917  36.103  1.00  0.00    -0.237 OA
ATOM     95  O   UNL A   1      46.841  23.719  37.601  1.00  0.00    -0.744 OA
ENDBRANCH  89  92
ENDBRANCH  62  85
ENDBRANCH  36  37
ENDBRANCH  29  31
ENDBRANCH  28  29
ENDBRANCH   1  28
TORSDOF 19
ENDMDL
