MODEL 1
REMARK VINA RESULT:     -12.3      0.000      0.000
REMARK SMILES CC(=O)N[C@H](CSCC(=O)Nc1ccc2c(c1)N1CC[NH+]=C1S2)C(=O)OCCOC(=O)c1ccc(-c2c3nc(c(-c4cccc(S(=O)(=O)[O-])c4F)c4ccc([nH]4)c(-c4cccc(S(=O)(=O)[O-])c4F)c4nc(c(-c5cccc(S(=O)(=O)[O-])c5F)c5ccc2[nH]5)C=C4)C=C3)cc1
REMARK SMILES IDX 27 1 26 2 24 3 25 4 5 5 4 6 1 7 2 8 3 9 6 11 7 12 8 13 9 14
REMARK SMILES IDX 10 15 11 16 12 18 13 19 17 20 14 21 16 22 15 23 18 24 23 25
REMARK SMILES IDX 19 26 22 27 20 28 21 29 28 31 29 32 30 33 31 34 32 35 33 36
REMARK SMILES IDX 94 37 34 38 93 39 35 40 36 41 37 42 87 43 38 44 92 45 86 46
REMARK SMILES IDX 88 47 39 48 91 49 85 50 84 51 40 53 72 54 52 55 71 56 53 57
REMARK SMILES IDX 56 58 70 59 89 60 54 61 55 62 69 64 90 65 57 66 41 67 42 68
REMARK SMILES IDX 50 69 43 70 45 71 51 72 44 73 46 74 47 75 48 76 49 77 73 78
REMARK SMILES IDX 74 79 82 80 75 81 77 82 83 83 76 84 78 85 79 86 80 87 81 88
REMARK SMILES IDX 58 89 59 90 67 91 60 92 62 93 68 94 61 95 63 96 64 97 65 98
REMARK SMILES IDX 66 99
REMARK H PARENT 4 10 11 17 21 30 88 52 56 63
REMARK Flexibility Score: inf
ROOT
ATOM      1  C   UNL A   1      36.302  20.545  25.018  1.00  0.00     0.274 C 
ENDROOT
BRANCH   1   2
ATOM      2  O   UNL A   1      35.397  21.583  24.595  1.00  0.00    -0.461 OA
BRANCH   2   3
ATOM      3  C   UNL A   1      34.066  21.288  24.630  1.00  0.00     0.329 C 
ATOM      4  O   UNL A   1      33.262  21.625  23.768  1.00  0.00    -0.250 OA
BRANCH   3   5
ATOM      5  C   UNL A   1      33.658  20.595  25.940  1.00  0.00     0.202 C 
BRANCH   5   6
ATOM      6  N   UNL A   1      32.694  19.498  25.780  1.00  0.00    -0.342 N 
ATOM      7  C   UNL A   1      34.153  17.877  24.619  1.00  0.00     0.114 C 
ATOM      8  C   UNL A   1      32.803  18.325  25.098  1.00  0.00     0.217 C 
ATOM      9  O   UNL A   1      31.808  17.618  24.942  1.00  0.00    -0.275 OA
ATOM     10  H   UNL A   1      31.832  19.634  26.238  1.00  0.00     0.164 HD
ENDBRANCH   5   6
BRANCH   5  11
ATOM     11  C   UNL A   1      33.340  21.551  27.098  1.00  0.00     0.107 C 
BRANCH  11  12
ATOM     12  S   UNL A   1      32.654  23.149  26.495  1.00  0.00    -0.149 SA
BRANCH  12  13
ATOM     13  C   UNL A   1      30.996  22.703  25.935  1.00  0.00     0.169 C 
BRANCH  13  14
ATOM     14  C   UNL A   1      29.880  23.219  26.817  1.00  0.00     0.234 C 
ATOM     15  O   UNL A   1      29.346  22.472  27.644  1.00  0.00    -0.274 OA
ATOM     16  N   UNL A   1      29.490  24.528  26.806  1.00  0.00    -0.325 N 
ATOM     17  H   UNL A   1      28.800  24.762  27.468  1.00  0.00     0.169 HD
BRANCH  16  18
ATOM     18  C   UNL A   1      29.922  25.584  25.998  1.00  0.00     0.045 A 
ATOM     19  C   UNL A   1      29.525  25.751  24.661  1.00  0.00     0.027 A 
ATOM     20  C   UNL A   1      30.798  26.495  26.588  1.00  0.00     0.079 A 
ATOM     21  C   UNL A   1      30.083  26.749  23.857  1.00  0.00     0.022 A 
ATOM     22  C   UNL A   1      31.395  27.449  25.787  1.00  0.00     0.144 A 
ATOM     23  C   UNL A   1      31.035  27.567  24.425  1.00  0.00     0.067 A 
ATOM     24  N   UNL A   1      32.426  28.278  26.130  1.00  0.00    -0.216 N 
ATOM     25  S   UNL A   1      32.060  28.810  23.619  1.00  0.00     0.002 SA
ATOM     26  C   UNL A   1      33.181  28.488  27.318  1.00  0.00     0.289 C 
ATOM     27  C   UNL A   1      32.990  28.954  25.092  1.00  0.00     0.316 C 
ATOM     28  C   UNL A   1      34.460  29.095  26.693  1.00  0.00     0.280 C 
ATOM     29  N   UNL A   1      34.125  29.558  25.293  1.00  0.00    -0.264 N 
ATOM     30  H   UNL A   1      34.628  30.157  24.695  1.00  0.00     0.305 HD
ENDBRANCH  16  18
ENDBRANCH  13  14
ENDBRANCH  12  13
ENDBRANCH  11  12
ENDBRANCH   5  11
ENDBRANCH   3   5
ENDBRANCH   2   3
ENDBRANCH   1   2
BRANCH   1  31
ATOM     31  C   UNL A   1      37.759  20.948  24.788  1.00  0.00     0.275 C 
BRANCH  31  32
ATOM     32  O   UNL A   1      38.188  21.927  25.749  1.00  0.00    -0.458 OA
BRANCH  32  33
ATOM     33  C   UNL A   1      39.404  21.685  26.299  1.00  0.00     0.338 C 
ATOM     34  O   UNL A   1      40.062  20.667  26.202  1.00  0.00    -0.246 OA
BRANCH  33  35
ATOM     35  C   UNL A   1      39.913  22.928  26.901  1.00  0.00     0.060 A 
ATOM     36  C   UNL A   1      40.927  22.908  27.855  1.00  0.00     0.016 A 
ATOM     37  C   UNL A   1      39.384  24.140  26.455  1.00  0.00     0.016 A 
ATOM     38  C   UNL A   1      41.404  24.121  28.356  1.00  0.00     0.010 A 
ATOM     39  C   UNL A   1      39.866  25.349  26.942  1.00  0.00     0.010 A 
ATOM     40  C   UNL A   1      40.884  25.347  27.897  1.00  0.00    -0.014 A 
BRANCH  40  41
ATOM     41  C   UNL A   1      41.499  26.618  28.334  1.00  0.00     0.031 A 
ATOM     42  C   UNL A   1      42.919  26.961  27.998  1.00  0.00     0.074 A 
ATOM     43  C   UNL A   1      40.743  27.470  29.055  1.00  0.00     0.049 A 
ATOM     44  N   UNL A   1      43.532  28.105  28.141  1.00  0.00    -0.248 NA
ATOM     45  C   UNL A   1      43.765  25.892  27.443  1.00  0.00     0.031 C 
ATOM     46  C   UNL A   1      39.390  27.181  29.539  1.00  0.00     0.029 A 
ATOM     47  N   UNL A   1      40.989  28.744  29.489  1.00  0.00    -0.354 N 
ATOM     48  C   UNL A   1      44.829  27.901  27.692  1.00  0.00     0.074 A 
ATOM     49  C   UNL A   1      44.931  26.512  27.305  1.00  0.00     0.031 C 
ATOM     50  C   UNL A   1      38.903  28.270  30.152  1.00  0.00     0.029 A 
ATOM     51  C   UNL A   1      39.911  29.326  30.114  1.00  0.00     0.049 A 
ATOM     52  H   UNL A   1      41.852  29.200  29.366  1.00  0.00     0.167 HD
ATOM     53  C   UNL A   1      45.827  28.807  27.580  1.00  0.00     0.034 A 
ATOM     54  C   UNL A   1      39.739  30.580  30.574  1.00  0.00     0.034 A 
ATOM     55  C   UNL A   1      45.698  30.192  27.943  1.00  0.00     0.049 A 
ATOM     56  C   UNL A   1      40.843  31.579  30.390  1.00  0.00     0.074 A 
ATOM     57  C   UNL A   1      46.622  31.209  27.784  1.00  0.00     0.029 A 
ATOM     58  N   UNL A   1      44.583  30.750  28.548  1.00  0.00    -0.354 N 
ATOM     59  N   UNL A   1      42.003  31.416  29.801  1.00  0.00    -0.248 NA
ATOM     60  C   UNL A   1      40.613  32.936  30.905  1.00  0.00     0.031 C 
ATOM     61  C   UNL A   1      46.071  32.380  28.307  1.00  0.00     0.029 A 
ATOM     62  C   UNL A   1      44.799  32.096  28.778  1.00  0.00     0.049 A 
ATOM     63  H   UNL A   1      43.760  30.262  28.778  1.00  0.00     0.167 HD
ATOM     64  C   UNL A   1      42.635  32.651  29.859  1.00  0.00     0.074 A 
ATOM     65  C   UNL A   1      41.725  33.558  30.528  1.00  0.00     0.031 C 
ATOM     66  C   UNL A   1      43.865  32.993  29.407  1.00  0.00     0.034 A 
BRANCH  53  67
ATOM     67  C   UNL A   1      47.126  28.374  26.959  1.00  0.00     0.023 A 
ATOM     68  C   UNL A   1      48.215  28.080  27.802  1.00  0.00     0.012 A 
ATOM     69  C   UNL A   1      47.227  28.119  25.577  1.00  0.00     0.148 A 
ATOM     70  C   UNL A   1      49.390  27.539  27.280  1.00  0.00     0.002 A 
ATOM     71  C   UNL A   1      48.391  27.554  25.068  1.00  0.00     0.091 A 
ATOM     72  F   UNL A   1      46.177  28.411  24.796  1.00  0.00    -0.205 F 
ATOM     73  C   UNL A   1      49.472  27.265  25.918  1.00  0.00     0.022 A 
BRANCH  71  74
ATOM     74  S   UNL A   1      48.586  27.110  23.337  1.00  0.00     0.127 S 
ATOM     75  O   UNL A   1      47.957  25.789  23.301  1.00  0.00    -0.237 OA
ATOM     76  O   UNL A   1      47.828  28.164  22.664  1.00  0.00    -0.237 OA
ATOM     77  O   UNL A   1      50.018  27.117  23.076  1.00  0.00    -0.744 OA
ENDBRANCH  71  74
ENDBRANCH  53  67
BRANCH  54  78
ATOM     78  C   UNL A   1      38.424  30.963  31.151  1.00  0.00     0.023 A 
ATOM     79  C   UNL A   1      38.203  30.796  32.532  1.00  0.00     0.012 A 
ATOM     80  C   UNL A   1      37.436  31.580  30.361  1.00  0.00     0.148 A 
ATOM     81  C   UNL A   1      37.015  31.233  33.116  1.00  0.00     0.002 A 
ATOM     82  C   UNL A   1      36.270  32.047  30.956  1.00  0.00     0.091 A 
ATOM     83  F   UNL A   1      37.676  31.729  29.052  1.00  0.00    -0.205 F 
ATOM     84  C   UNL A   1      36.054  31.868  32.331  1.00  0.00     0.022 A 
BRANCH  82  85
ATOM     85  S   UNL A   1      35.021  32.965  30.050  1.00  0.00     0.127 S 
ATOM     86  O   UNL A   1      34.531  31.956  29.114  1.00  0.00    -0.237 OA
ATOM     87  O   UNL A   1      34.085  33.325  31.115  1.00  0.00    -0.237 OA
ATOM     88  O   UNL A   1      35.718  34.094  29.447  1.00  0.00    -0.744 OA
ENDBRANCH  82  85
ENDBRANCH  54  78
BRANCH  66  89
ATOM     89  C   UNL A   1      44.333  34.406  29.608  1.00  0.00     0.023 A 
ATOM     90  C   UNL A   1      44.946  34.756  30.825  1.00  0.00     0.012 A 
ATOM     91  C   UNL A   1      44.337  35.316  28.533  1.00  0.00     0.148 A 
ATOM     92  C   UNL A   1      45.570  35.994  30.967  1.00  0.00     0.002 A 
ATOM     93  C   UNL A   1      44.990  36.534  28.671  1.00  0.00     0.091 A 
ATOM     94  F   UNL A   1      43.747  34.950  27.386  1.00  0.00    -0.205 F 
ATOM     95  C   UNL A   1      45.605  36.875  29.887  1.00  0.00     0.022 A 
BRANCH  93  96
ATOM     96  S   UNL A   1      45.158  37.703  27.318  1.00  0.00     0.127 S 
ATOM     97  O   UNL A   1      45.904  36.916  26.336  1.00  0.00    -0.237 OA
ATOM     98  O   UNL A   1      43.763  37.960  26.960  1.00  0.00    -0.237 OA
ATOM     99  O   UNL A   1      45.876  38.849  27.858  1.00  0.00    -0.744 OA
ENDBRANCH  93  96
ENDBRANCH  66  89
ENDBRANCH  40  41
ENDBRANCH  33  35
ENDBRANCH  32  33
ENDBRANCH  31  32
ENDBRANCH   1  31
TORSDOF 20
ENDMDL
MODEL 2
REMARK VINA RESULT:     -12.2      5.108     10.319
REMARK SMILES CC(=O)N[C@H](CSCC(=O)Nc1ccc2c(c1)N1CC[NH+]=C1S2)C(=O)OCCOC(=O)c1ccc(-c2c3nc(c(-c4cccc(S(=O)(=O)[O-])c4F)c4ccc([nH]4)c(-c4cccc(S(=O)(=O)[O-])c4F)c4nc(c(-c5cccc(S(=O)(=O)[O-])c5F)c5ccc2[nH]5)C=C4)C=C3)cc1
REMARK SMILES IDX 27 1 26 2 24 3 25 4 5 5 4 6 1 7 2 8 3 9 6 11 7 12 8 13 9 14
REMARK SMILES IDX 10 15 11 16 12 18 13 19 17 20 14 21 16 22 15 23 18 24 23 25
REMARK SMILES IDX 19 26 22 27 20 28 21 29 28 31 29 32 30 33 31 34 32 35 33 36
REMARK SMILES IDX 94 37 34 38 93 39 35 40 36 41 37 42 87 43 38 44 92 45 86 46
REMARK SMILES IDX 88 47 39 48 91 49 85 50 84 51 40 53 72 54 52 55 71 56 53 57
REMARK SMILES IDX 56 58 70 59 89 60 54 61 55 62 69 64 90 65 57 66 41 67 42 68
REMARK SMILES IDX 50 69 43 70 45 71 51 72 44 73 46 74 47 75 48 76 49 77 73 78
REMARK SMILES IDX 74 79 82 80 75 81 77 82 83 83 76 84 78 85 79 86 80 87 81 88
REMARK SMILES IDX 58 89 59 90 67 91 60 92 62 93 68 94 61 95 63 96 64 97 65 98
REMARK SMILES IDX 66 99
REMARK H PARENT 4 10 11 17 21 30 88 52 56 63
REMARK Flexibility Score: inf
ROOT
ATOM      1  C   UNL A   1      31.778  28.773  26.131  1.00  0.00     0.274 C 
ENDROOT
BRANCH   1   2
ATOM      2  O   UNL A   1      30.897  29.001  25.014  1.00  0.00    -0.461 OA
BRANCH   2   3
ATOM      3  C   UNL A   1      31.449  28.923  23.770  1.00  0.00     0.329 C 
ATOM      4  O   UNL A   1      32.572  29.328  23.487  1.00  0.00    -0.250 OA
BRANCH   3   5
ATOM      5  C   UNL A   1      30.457  28.388  22.725  1.00  0.00     0.202 C 
BRANCH   5   6
ATOM      6  N   UNL A   1      29.041  28.556  23.079  1.00  0.00    -0.342 N 
ATOM      7  C   UNL A   1      28.492  30.428  21.562  1.00  0.00     0.114 C 
ATOM      8  C   UNL A   1      28.150  29.514  22.702  1.00  0.00     0.217 C 
ATOM      9  O   UNL A   1      27.052  29.574  23.254  1.00  0.00    -0.275 OA
ATOM     10  H   UNL A   1      28.681  27.869  23.685  1.00  0.00     0.164 HD
ENDBRANCH   5   6
BRANCH   5  11
ATOM     11  C   UNL A   1      30.806  27.004  22.162  1.00  0.00     0.107 C 
BRANCH  11  12
ATOM     12  S   UNL A   1      31.671  25.958  23.406  1.00  0.00    -0.149 SA
BRANCH  12  13
ATOM     13  C   UNL A   1      30.315  25.133  24.268  1.00  0.00     0.169 C 
BRANCH  13  14
ATOM     14  C   UNL A   1      30.430  25.154  25.776  1.00  0.00     0.234 C 
ATOM     15  O   UNL A   1      29.722  25.917  26.442  1.00  0.00    -0.274 OA
ATOM     16  N   UNL A   1      31.232  24.283  26.457  1.00  0.00    -0.325 N 
ATOM     17  H   UNL A   1      31.177  24.346  27.438  1.00  0.00     0.169 HD
BRANCH  16  18
ATOM     18  C   UNL A   1      32.118  23.317  25.972  1.00  0.00     0.045 A 
ATOM     19  C   UNL A   1      31.741  21.998  25.672  1.00  0.00     0.027 A 
ATOM     20  C   UNL A   1      33.441  23.724  25.794  1.00  0.00     0.079 A 
ATOM     21  C   UNL A   1      32.688  21.035  25.311  1.00  0.00     0.022 A 
ATOM     22  C   UNL A   1      34.391  22.769  25.492  1.00  0.00     0.144 A 
ATOM     23  C   UNL A   1      34.007  21.428  25.255  1.00  0.00     0.067 A 
ATOM     24  N   UNL A   1      35.747  22.933  25.491  1.00  0.00    -0.216 N 
ATOM     25  S   UNL A   1      35.466  20.403  25.003  1.00  0.00     0.002 SA
ATOM     26  C   UNL A   1      36.617  24.032  25.738  1.00  0.00     0.289 C 
ATOM     27  C   UNL A   1      36.466  21.782  25.395  1.00  0.00     0.316 C 
ATOM     28  C   UNL A   1      37.896  23.253  26.126  1.00  0.00     0.280 C 
ATOM     29  N   UNL A   1      37.743  21.828  25.642  1.00  0.00    -0.264 N 
ATOM     30  H   UNL A   1      38.425  21.126  25.541  1.00  0.00     0.305 HD
ENDBRANCH  16  18
ENDBRANCH  13  14
ENDBRANCH  12  13
ENDBRANCH  11  12
ENDBRANCH   5  11
ENDBRANCH   3   5
ENDBRANCH   2   3
ENDBRANCH   1   2
BRANCH   1  31
ATOM     31  C   UNL A   1      32.135  30.082  26.837  1.00  0.00     0.275 C 
BRANCH  31  32
ATOM     32  O   UNL A   1      33.496  30.462  26.574  1.00  0.00    -0.458 OA
BRANCH  32  33
ATOM     33  C   UNL A   1      33.967  31.460  27.363  1.00  0.00     0.338 C 
ATOM     34  O   UNL A   1      33.360  32.445  27.738  1.00  0.00    -0.246 OA
BRANCH  33  35
ATOM     35  C   UNL A   1      35.299  31.087  27.863  1.00  0.00     0.060 A 
ATOM     36  C   UNL A   1      36.264  32.050  28.142  1.00  0.00     0.016 A 
ATOM     37  C   UNL A   1      35.558  29.736  28.101  1.00  0.00     0.016 A 
ATOM     38  C   UNL A   1      37.495  31.642  28.661  1.00  0.00     0.010 A 
ATOM     39  C   UNL A   1      36.777  29.327  28.629  1.00  0.00     0.010 A 
ATOM     40  C   UNL A   1      37.755  30.280  28.916  1.00  0.00    -0.014 A 
BRANCH  40  41
ATOM     41  C   UNL A   1      39.006  29.884  29.596  1.00  0.00     0.031 A 
ATOM     42  C   UNL A   1      39.363  30.411  30.953  1.00  0.00     0.074 A 
ATOM     43  C   UNL A   1      39.829  29.031  28.955  1.00  0.00     0.049 A 
ATOM     44  N   UNL A   1      40.317  30.012  31.752  1.00  0.00    -0.248 NA
ATOM     45  C   UNL A   1      38.565  31.528  31.483  1.00  0.00     0.031 C 
ATOM     46  C   UNL A   1      39.635  28.554  27.583  1.00  0.00     0.029 A 
ATOM     47  N   UNL A   1      40.973  28.403  29.369  1.00  0.00    -0.354 N 
ATOM     48  C   UNL A   1      40.235  30.820  32.877  1.00  0.00     0.074 A 
ATOM     49  C   UNL A   1      39.161  31.760  32.647  1.00  0.00     0.031 C 
ATOM     50  C   UNL A   1      40.593  27.663  27.290  1.00  0.00     0.029 A 
ATOM     51  C   UNL A   1      41.473  27.515  28.446  1.00  0.00     0.049 A 
ATOM     52  H   UNL A   1      41.397  28.571  30.242  1.00  0.00     0.167 HD
ATOM     53  C   UNL A   1      40.968  30.750  34.011  1.00  0.00     0.034 A 
ATOM     54  C   UNL A   1      42.502  26.651  28.533  1.00  0.00     0.034 A 
ATOM     55  C   UNL A   1      42.013  29.789  34.233  1.00  0.00     0.049 A 
ATOM     56  C   UNL A   1      43.267  26.558  29.821  1.00  0.00     0.074 A 
ATOM     57  C   UNL A   1      42.753  29.578  35.382  1.00  0.00     0.029 A 
ATOM     58  N   UNL A   1      42.473  28.888  33.286  1.00  0.00    -0.354 N 
ATOM     59  N   UNL A   1      43.061  27.207  30.941  1.00  0.00    -0.248 NA
ATOM     60  C   UNL A   1      44.381  25.601  29.873  1.00  0.00     0.031 C 
ATOM     61  C   UNL A   1      43.673  28.560  35.125  1.00  0.00     0.029 A 
ATOM     62  C   UNL A   1      43.495  28.126  33.822  1.00  0.00     0.049 A 
ATOM     63  H   UNL A   1      42.124  28.802  32.370  1.00  0.00     0.167 HD
ATOM     64  C   UNL A   1      44.009  26.728  31.837  1.00  0.00     0.074 A 
ATOM     65  C   UNL A   1      44.780  25.723  31.134  1.00  0.00     0.031 C 
ATOM     66  C   UNL A   1      44.223  27.100  33.120  1.00  0.00     0.034 A 
BRANCH  53  67
ATOM     67  C   UNL A   1      40.622  31.669  35.150  1.00  0.00     0.023 A 
ATOM     68  C   UNL A   1      41.275  32.915  35.238  1.00  0.00     0.012 A 
ATOM     69  C   UNL A   1      39.565  31.375  36.033  1.00  0.00     0.148 A 
ATOM     70  C   UNL A   1      40.884  33.855  36.190  1.00  0.00     0.002 A 
ATOM     71  C   UNL A   1      39.162  32.329  36.961  1.00  0.00     0.091 A 
ATOM     72  F   UNL A   1      38.961  30.182  35.930  1.00  0.00    -0.205 F 
ATOM     73  C   UNL A   1      39.821  33.567  37.041  1.00  0.00     0.022 A 
BRANCH  71  74
ATOM     74  S   UNL A   1      37.770  32.084  38.071  1.00  0.00     0.127 S 
ATOM     75  O   UNL A   1      36.818  33.076  37.570  1.00  0.00    -0.237 OA
ATOM     76  O   UNL A   1      37.402  30.695  37.799  1.00  0.00    -0.237 OA
ATOM     77  O   UNL A   1      38.273  32.337  39.414  1.00  0.00    -0.744 OA
ENDBRANCH  71  74
ENDBRANCH  53  67
BRANCH  54  78
ATOM     78  C   UNL A   1      42.781  25.744  27.389  1.00  0.00     0.023 A 
ATOM     79  C   UNL A   1      43.615  26.187  26.345  1.00  0.00     0.012 A 
ATOM     80  C   UNL A   1      42.308  24.419  27.381  1.00  0.00     0.148 A 
ATOM     81  C   UNL A   1      43.970  25.326  25.308  1.00  0.00     0.002 A 
ATOM     82  C   UNL A   1      42.695  23.554  26.365  1.00  0.00     0.091 A 
ATOM     83  F   UNL A   1      41.520  24.023  28.390  1.00  0.00    -0.205 F 
ATOM     84  C   UNL A   1      43.519  24.008  25.323  1.00  0.00     0.022 A 
BRANCH  82  85
ATOM     85  S   UNL A   1      42.250  21.815  26.350  1.00  0.00     0.127 S 
ATOM     86  O   UNL A   1      42.625  21.400  27.700  1.00  0.00    -0.237 OA
ATOM     87  O   UNL A   1      40.809  21.878  26.102  1.00  0.00    -0.237 OA
ATOM     88  O   UNL A   1      43.026  21.216  25.273  1.00  0.00    -0.744 OA
ENDBRANCH  82  85
ENDBRANCH  54  78
BRANCH  66  89
ATOM     89  C   UNL A   1      45.335  26.437  33.881  1.00  0.00     0.023 A 
ATOM     90  C   UNL A   1      46.618  27.016  33.861  1.00  0.00     0.012 A 
ATOM     91  C   UNL A   1      45.061  25.368  34.756  1.00  0.00     0.148 A 
ATOM     92  C   UNL A   1      47.615  26.545  34.713  1.00  0.00     0.002 A 
ATOM     93  C   UNL A   1      46.050  24.925  35.626  1.00  0.00     0.091 A 
ATOM     94  F   UNL A   1      43.829  24.841  34.753  1.00  0.00    -0.205 F 
ATOM     95  C   UNL A   1      47.327  25.512  35.604  1.00  0.00     0.022 A 
BRANCH  93  96
ATOM     96  S   UNL A   1      45.759  23.657  36.863  1.00  0.00     0.127 S 
ATOM     97  O   UNL A   1      45.535  22.475  36.030  1.00  0.00    -0.237 OA
ATOM     98  O   UNL A   1      47.022  23.653  37.600  1.00  0.00    -0.237 OA
ATOM     99  O   UNL A   1      44.601  24.095  37.629  1.00  0.00    -0.744 OA
ENDBRANCH  93  96
ENDBRANCH  66  89
ENDBRANCH  40  41
ENDBRANCH  33  35
ENDBRANCH  32  33
ENDBRANCH  31  32
ENDBRANCH   1  31
TORSDOF 20
ENDMDL
MODEL 3
REMARK VINA RESULT:     -11.5      5.242     10.555
REMARK SMILES CC(=O)N[C@H](CSCC(=O)Nc1ccc2c(c1)N1CC[NH+]=C1S2)C(=O)OCCOC(=O)c1ccc(-c2c3nc(c(-c4cccc(S(=O)(=O)[O-])c4F)c4ccc([nH]4)c(-c4cccc(S(=O)(=O)[O-])c4F)c4nc(c(-c5cccc(S(=O)(=O)[O-])c5F)c5ccc2[nH]5)C=C4)C=C3)cc1
REMARK SMILES IDX 27 1 26 2 24 3 25 4 5 5 4 6 1 7 2 8 3 9 6 11 7 12 8 13 9 14
REMARK SMILES IDX 10 15 11 16 12 18 13 19 17 20 14 21 16 22 15 23 18 24 23 25
REMARK SMILES IDX 19 26 22 27 20 28 21 29 28 31 29 32 30 33 31 34 32 35 33 36
REMARK SMILES IDX 94 37 34 38 93 39 35 40 36 41 37 42 87 43 38 44 92 45 86 46
REMARK SMILES IDX 88 47 39 48 91 49 85 50 84 51 40 53 72 54 52 55 71 56 53 57
REMARK SMILES IDX 56 58 70 59 89 60 54 61 55 62 69 64 90 65 57 66 41 67 42 68
REMARK SMILES IDX 50 69 43 70 45 71 51 72 44 73 46 74 47 75 48 76 49 77 73 78
REMARK SMILES IDX 74 79 82 80 75 81 77 82 83 83 76 84 78 85 79 86 80 87 81 88
REMARK SMILES IDX 58 89 59 90 67 91 60 92 62 93 68 94 61 95 63 96 64 97 65 98
REMARK SMILES IDX 66 99
REMARK H PARENT 4 10 11 17 21 30 88 52 56 63
REMARK Flexibility Score: inf
ROOT
ATOM      1  C   UNL A   1      31.693  28.930  26.074  1.00  0.00     0.274 C 
ENDROOT
BRANCH   1   2
ATOM      2  O   UNL A   1      31.051  29.509  24.922  1.00  0.00    -0.461 OA
BRANCH   2   3
ATOM      3  C   UNL A   1      31.587  29.208  23.705  1.00  0.00     0.329 C 
ATOM      4  O   UNL A   1      32.775  29.327  23.425  1.00  0.00    -0.250 OA
BRANCH   3   5
ATOM      5  C   UNL A   1      30.512  28.825  22.675  1.00  0.00     0.202 C 
BRANCH   5   6
ATOM      6  N   UNL A   1      30.124  29.907  21.760  1.00  0.00    -0.342 N 
ATOM      7  C   UNL A   1      28.599  31.143  23.261  1.00  0.00     0.114 C 
ATOM      8  C   UNL A   1      29.190  30.888  21.906  1.00  0.00     0.217 C 
ATOM      9  O   UNL A   1      28.895  31.594  20.943  1.00  0.00    -0.275 OA
ATOM     10  H   UNL A   1      30.615  29.925  20.907  1.00  0.00     0.164 HD
ENDBRANCH   5   6
BRANCH   5  11
ATOM     11  C   UNL A   1      29.331  28.029  23.247  1.00  0.00     0.107 C 
BRANCH  11  12
ATOM     12  S   UNL A   1      29.743  26.245  23.445  1.00  0.00    -0.149 SA
BRANCH  12  13
ATOM     13  C   UNL A   1      31.524  26.195  23.148  1.00  0.00     0.169 C 
BRANCH  13  14
ATOM     14  C   UNL A   1      31.916  25.612  21.809  1.00  0.00     0.234 C 
ATOM     15  O   UNL A   1      31.465  26.095  20.765  1.00  0.00    -0.274 OA
ATOM     16  N   UNL A   1      32.839  24.612  21.692  1.00  0.00    -0.325 N 
ATOM     17  H   UNL A   1      33.064  24.357  20.769  1.00  0.00     0.169 HD
BRANCH  16  18
ATOM     18  C   UNL A   1      33.514  23.897  22.687  1.00  0.00     0.045 A 
ATOM     19  C   UNL A   1      34.690  24.350  23.308  1.00  0.00     0.027 A 
ATOM     20  C   UNL A   1      32.958  22.670  23.051  1.00  0.00     0.079 A 
ATOM     21  C   UNL A   1      35.396  23.543  24.204  1.00  0.00     0.022 A 
ATOM     22  C   UNL A   1      33.677  21.844  23.893  1.00  0.00     0.144 A 
ATOM     23  C   UNL A   1      34.894  22.286  24.462  1.00  0.00     0.067 A 
ATOM     24  N   UNL A   1      33.405  20.538  24.188  1.00  0.00    -0.216 N 
ATOM     25  S   UNL A   1      35.651  20.957  25.413  1.00  0.00     0.002 SA
ATOM     26  C   UNL A   1      32.376  19.627  23.816  1.00  0.00     0.289 C 
ATOM     27  C   UNL A   1      34.395  19.880  24.849  1.00  0.00     0.316 C 
ATOM     28  C   UNL A   1      33.126  18.296  24.058  1.00  0.00     0.280 C 
ATOM     29  N   UNL A   1      34.322  18.583  24.939  1.00  0.00    -0.264 N 
ATOM     30  H   UNL A   1      34.891  17.959  25.445  1.00  0.00     0.305 HD
ENDBRANCH  16  18
ENDBRANCH  13  14
ENDBRANCH  12  13
ENDBRANCH  11  12
ENDBRANCH   5  11
ENDBRANCH   3   5
ENDBRANCH   2   3
ENDBRANCH   1   2
BRANCH   1  31
ATOM     31  C   UNL A   1      32.215  30.009  27.024  1.00  0.00     0.275 C 
BRANCH  31  32
ATOM     32  O   UNL A   1      33.603  30.291  26.780  1.00  0.00    -0.458 OA
BRANCH  32  33
ATOM     33  C   UNL A   1      34.073  31.399  27.405  1.00  0.00     0.338 C 
ATOM     34  O   UNL A   1      33.531  32.486  27.475  1.00  0.00    -0.246 OA
BRANCH  33  35
ATOM     35  C   UNL A   1      35.285  31.045  28.161  1.00  0.00     0.060 A 
ATOM     36  C   UNL A   1      35.402  29.818  28.808  1.00  0.00     0.016 A 
ATOM     37  C   UNL A   1      36.343  31.955  28.173  1.00  0.00     0.016 A 
ATOM     38  C   UNL A   1      36.594  29.515  29.469  1.00  0.00     0.010 A 
ATOM     39  C   UNL A   1      37.535  31.652  28.819  1.00  0.00     0.010 A 
ATOM     40  C   UNL A   1      37.670  30.425  29.471  1.00  0.00    -0.014 A 
BRANCH  40  41
ATOM     41  C   UNL A   1      38.969  30.028  30.054  1.00  0.00     0.031 A 
ATOM     42  C   UNL A   1      39.417  30.534  31.392  1.00  0.00     0.074 A 
ATOM     43  C   UNL A   1      39.751  29.193  29.342  1.00  0.00     0.049 A 
ATOM     44  N   UNL A   1      40.428  30.130  32.114  1.00  0.00    -0.248 NA
ATOM     45  C   UNL A   1      38.650  31.635  31.996  1.00  0.00     0.031 C 
ATOM     46  C   UNL A   1      39.464  28.739  27.979  1.00  0.00     0.029 A 
ATOM     47  N   UNL A   1      40.926  28.569  29.663  1.00  0.00    -0.354 N 
ATOM     48  C   UNL A   1      40.419  30.917  33.257  1.00  0.00     0.074 A 
ATOM     49  C   UNL A   1      39.325  31.853  33.119  1.00  0.00     0.031 C 
ATOM     50  C   UNL A   1      40.406  27.861  27.603  1.00  0.00     0.029 A 
ATOM     51  C   UNL A   1      41.366  27.701  28.691  1.00  0.00     0.049 A 
ATOM     52  H   UNL A   1      41.409  28.725  30.506  1.00  0.00     0.167 HD
ATOM     53  C   UNL A   1      41.231  30.835  34.335  1.00  0.00     0.034 A 
ATOM     54  C   UNL A   1      42.406  26.845  28.690  1.00  0.00     0.034 A 
ATOM     55  C   UNL A   1      42.296  29.879  34.465  1.00  0.00     0.049 A 
ATOM     56  C   UNL A   1      43.260  26.736  29.919  1.00  0.00     0.074 A 
ATOM     57  C   UNL A   1      43.117  29.655  35.556  1.00  0.00     0.029 A 
ATOM     58  N   UNL A   1      42.695  28.998  33.473  1.00  0.00    -0.354 N 
ATOM     59  N   UNL A   1      43.129  27.363  31.062  1.00  0.00    -0.248 NA
ATOM     60  C   UNL A   1      44.382  25.788  29.875  1.00  0.00     0.031 C 
ATOM     61  C   UNL A   1      44.024  28.650  35.217  1.00  0.00     0.029 A 
ATOM     62  C   UNL A   1      43.758  28.236  33.921  1.00  0.00     0.049 A 
ATOM     63  H   UNL A   1      42.283  28.926  32.582  1.00  0.00     0.167 HD
ATOM     64  C   UNL A   1      44.141  26.878  31.880  1.00  0.00     0.074 A 
ATOM     65  C   UNL A   1      44.868  25.892  31.107  1.00  0.00     0.031 C 
ATOM     66  C   UNL A   1      44.442  27.230  33.152  1.00  0.00     0.034 A 
BRANCH  53  67
ATOM     67  C   UNL A   1      40.959  31.731  35.511  1.00  0.00     0.023 A 
ATOM     68  C   UNL A   1      41.878  32.757  35.808  1.00  0.00     0.012 A 
ATOM     69  C   UNL A   1      39.744  31.659  36.221  1.00  0.00     0.148 A 
ATOM     70  C   UNL A   1      41.595  33.698  36.797  1.00  0.00     0.002 A 
ATOM     71  C   UNL A   1      39.457  32.618  37.186  1.00  0.00     0.091 A 
ATOM     72  F   UNL A   1      38.888  30.672  35.921  1.00  0.00    -0.205 F 
ATOM     73  C   UNL A   1      40.382  33.636  37.476  1.00  0.00     0.022 A 
BRANCH  71  74
ATOM     74  S   UNL A   1      37.901  32.664  38.084  1.00  0.00     0.127 S 
ATOM     75  O   UNL A   1      37.842  31.311  38.638  1.00  0.00    -0.237 OA
ATOM     76  O   UNL A   1      38.148  33.716  39.070  1.00  0.00    -0.237 OA
ATOM     77  O   UNL A   1      36.873  32.972  37.099  1.00  0.00    -0.744 OA
ENDBRANCH  71  74
ENDBRANCH  53  67
BRANCH  54  78
ATOM     78  C   UNL A   1      42.610  25.960  27.513  1.00  0.00     0.023 A 
ATOM     79  C   UNL A   1      43.405  26.410  26.442  1.00  0.00     0.012 A 
ATOM     80  C   UNL A   1      42.106  24.646  27.497  1.00  0.00     0.148 A 
ATOM     81  C   UNL A   1      43.691  25.567  25.369  1.00  0.00     0.002 A 
ATOM     82  C   UNL A   1      42.425  23.798  26.443  1.00  0.00     0.091 A 
ATOM     83  F   UNL A   1      41.356  24.244  28.531  1.00  0.00    -0.205 F 
ATOM     84  C   UNL A   1      43.211  24.259  25.375  1.00  0.00     0.022 A 
BRANCH  82  85
ATOM     85  S   UNL A   1      41.939  22.070  26.408  1.00  0.00     0.127 S 
ATOM     86  O   UNL A   1      42.725  21.562  25.286  1.00  0.00    -0.237 OA
ATOM     87  O   UNL A   1      42.378  21.611  27.726  1.00  0.00    -0.237 OA
ATOM     88  O   UNL A   1      40.496  22.068  26.214  1.00  0.00    -0.744 OA
ENDBRANCH  82  85
ENDBRANCH  54  78
BRANCH  66  89
ATOM     89  C   UNL A   1      45.610  26.563  33.821  1.00  0.00     0.023 A 
ATOM     90  C   UNL A   1      46.856  27.216  33.831  1.00  0.00     0.012 A 
ATOM     91  C   UNL A   1      45.421  25.399  34.592  1.00  0.00     0.148 A 
ATOM     92  C   UNL A   1      47.901  26.725  34.611  1.00  0.00     0.002 A 
ATOM     93  C   UNL A   1      46.457  24.935  35.393  1.00  0.00     0.091 A 
ATOM     94  F   UNL A   1      44.221  24.803  34.563  1.00  0.00    -0.205 F 
ATOM     95  C   UNL A   1      47.697  25.596  35.403  1.00  0.00     0.022 A 
BRANCH  93  96
ATOM     96  S   UNL A   1      46.271  23.537  36.506  1.00  0.00     0.127 S 
ATOM     97  O   UNL A   1      45.934  22.460  35.576  1.00  0.00    -0.237 OA
ATOM     98  O   UNL A   1      47.605  23.438  37.097  1.00  0.00    -0.237 OA
ATOM     99  O   UNL A   1      45.210  23.897  37.437  1.00  0.00    -0.744 OA
ENDBRANCH  93  96
ENDBRANCH  66  89
ENDBRANCH  40  41
ENDBRANCH  33  35
ENDBRANCH  32  33
ENDBRANCH  31  32
ENDBRANCH   1  31
TORSDOF 20
ENDMDL
