MODEL 1
REMARK VINA RESULT:     -11.3      0.000      0.000
REMARK SMILES C[C@@H]1C[N@@H+](C[C@]2(C(=O)OCCOC(=O)c3ccc(-c4c5nc(c(-c6cccc(S(=O)(=O)[O-])c6F)c6ccc([nH]6)c(-c6cccc(S(=O)(=O)[O-])c6F)c6nc(c(-c7cccc(S(=O)(=O)[O-])c7F)c7ccc4[nH]7)C=C6)C=C5)cc3)CCOC2)C[C@@H]1C
REMARK SMILES IDX 11 1 10 2 9 3 7 4 8 5 6 6 78 7 81 8 79 9 80 10 5 11 4 12
REMARK SMILES IDX 1 13 2 14 3 15 83 16 82 17 84 18 12 20 13 21 14 22 15 23
REMARK SMILES IDX 16 24 77 25 17 26 76 27 18 28 19 29 20 30 70 31 21 32 75 33
REMARK SMILES IDX 69 34 71 35 22 36 74 37 68 38 67 39 23 41 55 42 35 43 54 44
REMARK SMILES IDX 36 45 39 46 53 47 72 48 37 49 38 50 52 52 73 53 40 54 24 55
REMARK SMILES IDX 25 56 33 57 26 58 28 59 34 60 27 61 29 62 30 63 31 64 32 65
REMARK SMILES IDX 56 66 57 67 65 68 58 69 60 70 66 71 59 72 61 73 62 74 63 75
REMARK SMILES IDX 64 76 41 77 42 78 50 79 43 80 45 81 51 82 44 83 46 84 47 85
REMARK SMILES IDX 48 86 49 87
REMARK H PARENT 4 19 71 40 39 51
REMARK Flexibility Score: inf
ROOT
ATOM      1  C   UNL A   1      36.538  20.754  24.648  1.00  0.00     0.275 C 
ENDROOT
BRANCH   1   2
ATOM      2  C   UNL A   1      35.116  20.339  25.020  1.00  0.00     0.274 C 
BRANCH   2   3
ATOM      3  O   UNL A   1      34.155  21.247  24.441  1.00  0.00    -0.461 OA
BRANCH   3   4
ATOM      4  C   UNL A   1      32.922  21.248  25.028  1.00  0.00     0.320 C 
ATOM      5  O   UNL A   1      32.175  20.278  25.020  1.00  0.00    -0.251 OA
BRANCH   4   6
ATOM      6  C   UNL A   1      32.543  22.624  25.598  1.00  0.00     0.142 C 
ATOM      7  C   UNL A   1      31.029  22.746  25.467  1.00  0.00     0.055 C 
ATOM      8  C   UNL A   1      32.755  22.583  27.116  1.00  0.00     0.185 C 
ATOM      9  C   UNL A   1      30.560  23.289  26.795  1.00  0.00     0.161 C 
ATOM     10  O   UNL A   1      31.528  22.931  27.771  1.00  0.00    -0.380 OA
BRANCH   6  11
ATOM     11  C   UNL A   1      33.356  23.739  24.863  1.00  0.00     0.283 C 
BRANCH  11  12
ATOM     12  N   UNL A   1      32.965  25.140  24.814  1.00  0.00    -0.333 N 
ATOM     13  C   UNL A   1      31.820  27.740  27.200  1.00  0.00     0.014 C 
ATOM     14  C   UNL A   1      31.809  26.510  26.306  1.00  0.00     0.049 C 
ATOM     15  C   UNL A   1      33.205  26.021  25.944  1.00  0.00     0.265 C 
ATOM     16  C   UNL A   1      31.113  26.644  24.942  1.00  0.00     0.049 C 
ATOM     17  C   UNL A   1      31.800  25.577  24.070  1.00  0.00     0.265 C 
ATOM     18  C   UNL A   1      31.207  28.032  24.310  1.00  0.00     0.014 C 
ATOM     19  H   UNL A   1      33.754  25.258  24.180  1.00  0.00     0.348 HD
ENDBRANCH  11  12
ENDBRANCH   6  11
ENDBRANCH   4   6
ENDBRANCH   3   4
ENDBRANCH   2   3
ENDBRANCH   1   2
BRANCH   1  20
ATOM     20  O   UNL A   1      37.155  21.400  25.772  1.00  0.00    -0.458 OA
BRANCH  20  21
ATOM     21  C   UNL A   1      38.489  21.216  25.892  1.00  0.00     0.338 C 
ATOM     22  O   UNL A   1      39.134  20.240  25.557  1.00  0.00    -0.246 OA
BRANCH  21  23
ATOM     23  C   UNL A   1      39.087  22.424  26.480  1.00  0.00     0.060 A 
ATOM     24  C   UNL A   1      38.563  23.677  26.159  1.00  0.00     0.016 A 
ATOM     25  C   UNL A   1      40.236  22.319  27.263  1.00  0.00     0.016 A 
ATOM     26  C   UNL A   1      39.212  24.837  26.578  1.00  0.00     0.010 A 
ATOM     27  C   UNL A   1      40.861  23.482  27.723  1.00  0.00     0.010 A 
ATOM     28  C   UNL A   1      40.377  24.750  27.352  1.00  0.00    -0.014 A 
BRANCH  28  29
ATOM     29  C   UNL A   1      41.144  25.979  27.690  1.00  0.00     0.031 A 
ATOM     30  C   UNL A   1      40.492  27.057  28.515  1.00  0.00     0.074 A 
ATOM     31  C   UNL A   1      42.416  26.131  27.276  1.00  0.00     0.049 A 
ATOM     32  N   UNL A   1      40.947  28.241  28.837  1.00  0.00    -0.248 NA
ATOM     33  C   UNL A   1      39.148  26.769  29.040  1.00  0.00     0.031 C 
ATOM     34  C   UNL A   1      43.172  25.159  26.487  1.00  0.00     0.029 A 
ATOM     35  N   UNL A   1      43.297  27.169  27.459  1.00  0.00    -0.354 N 
ATOM     36  C   UNL A   1      39.925  28.859  29.545  1.00  0.00     0.074 A 
ATOM     37  C   UNL A   1      38.827  27.919  29.613  1.00  0.00     0.031 C 
ATOM     38  C   UNL A   1      44.404  25.642  26.260  1.00  0.00     0.029 A 
ATOM     39  C   UNL A   1      44.514  26.974  26.849  1.00  0.00     0.049 A 
ATOM     40  H   UNL A   1      43.077  27.976  27.979  1.00  0.00     0.167 HD
ATOM     41  C   UNL A   1      39.904  30.093  30.103  1.00  0.00     0.034 A 
ATOM     42  C   UNL A   1      45.587  27.784  26.758  1.00  0.00     0.034 A 
ATOM     43  C   UNL A   1      41.017  31.003  30.103  1.00  0.00     0.049 A 
ATOM     44  C   UNL A   1      45.548  29.139  27.414  1.00  0.00     0.074 A 
ATOM     45  C   UNL A   1      41.099  32.261  30.672  1.00  0.00     0.029 A 
ATOM     46  N   UNL A   1      42.248  30.745  29.521  1.00  0.00    -0.354 N 
ATOM     47  N   UNL A   1      44.595  29.682  28.131  1.00  0.00    -0.248 NA
ATOM     48  C   UNL A   1      46.740  29.987  27.259  1.00  0.00     0.031 C 
ATOM     49  C   UNL A   1      42.383  32.765  30.437  1.00  0.00     0.029 A 
ATOM     50  C   UNL A   1      43.100  31.818  29.723  1.00  0.00     0.049 A 
ATOM     51  H   UNL A   1      42.482  29.921  29.037  1.00  0.00     0.167 HD
ATOM     52  C   UNL A   1      45.077  30.924  28.528  1.00  0.00     0.074 A 
ATOM     53  C   UNL A   1      46.420  31.041  27.998  1.00  0.00     0.031 C 
ATOM     54  C   UNL A   1      44.454  31.895  29.241  1.00  0.00     0.034 A 
BRANCH  41  55
ATOM     55  C   UNL A   1      38.641  30.518  30.800  1.00  0.00     0.023 A 
ATOM     56  C   UNL A   1      38.474  30.234  32.169  1.00  0.00     0.012 A 
ATOM     57  C   UNL A   1      37.641  31.233  30.113  1.00  0.00     0.148 A 
ATOM     58  C   UNL A   1      37.320  30.635  32.841  1.00  0.00     0.002 A 
ATOM     59  C   UNL A   1      36.509  31.660  30.797  1.00  0.00     0.091 A 
ATOM     60  F   UNL A   1      37.804  31.467  28.803  1.00  0.00    -0.205 F 
ATOM     61  C   UNL A   1      36.343  31.356  32.158  1.00  0.00     0.022 A 
BRANCH  59  62
ATOM     62  S   UNL A   1      35.232  32.651  30.011  1.00  0.00     0.127 S 
ATOM     63  O   UNL A   1      34.768  31.752  28.956  1.00  0.00    -0.237 OA
ATOM     64  O   UNL A   1      34.277  32.856  31.101  1.00  0.00    -0.237 OA
ATOM     65  O   UNL A   1      35.899  33.865  29.561  1.00  0.00    -0.744 OA
ENDBRANCH  59  62
ENDBRANCH  41  55
BRANCH  42  66
ATOM     66  C   UNL A   1      46.813  27.314  26.052  1.00  0.00     0.023 A 
ATOM     67  C   UNL A   1      46.954  27.571  24.674  1.00  0.00     0.012 A 
ATOM     68  C   UNL A   1      47.847  26.647  26.734  1.00  0.00     0.148 A 
ATOM     69  C   UNL A   1      48.094  27.154  23.987  1.00  0.00     0.002 A 
ATOM     70  C   UNL A   1      49.004  26.283  26.055  1.00  0.00     0.091 A 
ATOM     71  F   UNL A   1      47.684  26.382  28.039  1.00  0.00    -0.205 F 
ATOM     72  C   UNL A   1      49.125  26.523  24.678  1.00  0.00     0.022 A 
BRANCH  70  73
ATOM     73  S   UNL A   1      50.424  25.589  26.909  1.00  0.00     0.127 S 
ATOM     74  O   UNL A   1      51.379  25.420  25.819  1.00  0.00    -0.237 OA
ATOM     75  O   UNL A   1      50.761  26.646  27.865  1.00  0.00    -0.237 OA
ATOM     76  O   UNL A   1      49.934  24.364  27.529  1.00  0.00    -0.744 OA
ENDBRANCH  70  73
ENDBRANCH  42  66
BRANCH  54  77
ATOM     77  C   UNL A   1      45.215  33.166  29.500  1.00  0.00     0.023 A 
ATOM     78  C   UNL A   1      46.000  33.273  30.666  1.00  0.00     0.012 A 
ATOM     79  C   UNL A   1      45.219  34.220  28.566  1.00  0.00     0.148 A 
ATOM     80  C   UNL A   1      46.757  34.420  30.909  1.00  0.00     0.002 A 
ATOM     81  C   UNL A   1      46.004  35.344  28.796  1.00  0.00     0.091 A 
ATOM     82  F   UNL A   1      44.447  34.111  27.473  1.00  0.00    -0.205 F 
ATOM     83  C   UNL A   1      46.768  35.449  29.970  1.00  0.00     0.022 A 
BRANCH  81  84
ATOM     84  S   UNL A   1      46.133  36.673  27.593  1.00  0.00     0.127 S 
ATOM     85  O   UNL A   1      44.748  37.130  27.501  1.00  0.00    -0.237 OA
ATOM     86  O   UNL A   1      47.043  37.613  28.251  1.00  0.00    -0.237 OA
ATOM     87  O   UNL A   1      46.680  36.056  26.392  1.00  0.00    -0.744 OA
ENDBRANCH  81  84
ENDBRANCH  54  77
ENDBRANCH  28  29
ENDBRANCH  21  23
ENDBRANCH  20  21
ENDBRANCH   1  20
TORSDOF 16
ENDMDL
MODEL 2
REMARK VINA RESULT:     -11.2      4.877      9.967
REMARK SMILES C[C@@H]1C[N@@H+](C[C@]2(C(=O)OCCOC(=O)c3ccc(-c4c5nc(c(-c6cccc(S(=O)(=O)[O-])c6F)c6ccc([nH]6)c(-c6cccc(S(=O)(=O)[O-])c6F)c6nc(c(-c7cccc(S(=O)(=O)[O-])c7F)c7ccc4[nH]7)C=C6)C=C5)cc3)CCOC2)C[C@@H]1C
REMARK SMILES IDX 11 1 10 2 9 3 7 4 8 5 6 6 78 7 81 8 79 9 80 10 5 11 4 12
REMARK SMILES IDX 1 13 2 14 3 15 83 16 82 17 84 18 12 20 13 21 14 22 15 23
REMARK SMILES IDX 16 24 77 25 17 26 76 27 18 28 19 29 20 30 70 31 21 32 75 33
REMARK SMILES IDX 69 34 71 35 22 36 74 37 68 38 67 39 23 41 55 42 35 43 54 44
REMARK SMILES IDX 36 45 39 46 53 47 72 48 37 49 38 50 52 52 73 53 40 54 24 55
REMARK SMILES IDX 25 56 33 57 26 58 28 59 34 60 27 61 29 62 30 63 31 64 32 65
REMARK SMILES IDX 56 66 57 67 65 68 58 69 60 70 66 71 59 72 61 73 62 74 63 75
REMARK SMILES IDX 64 76 41 77 42 78 50 79 43 80 45 81 51 82 44 83 46 84 47 85
REMARK SMILES IDX 48 86 49 87
REMARK H PARENT 4 19 71 40 39 51
REMARK Flexibility Score: inf
ROOT
ATOM      1  C   UNL A   1      31.514  30.452  25.650  1.00  0.00     0.275 C 
ENDROOT
BRANCH   1   2
ATOM      2  C   UNL A   1      31.392  29.460  24.496  1.00  0.00     0.274 C 
BRANCH   2   3
ATOM      3  O   UNL A   1      32.156  28.266  24.769  1.00  0.00    -0.461 OA
BRANCH   3   4
ATOM      4  C   UNL A   1      31.543  27.090  24.445  1.00  0.00     0.320 C 
ATOM      5  O   UNL A   1      30.335  26.913  24.548  1.00  0.00    -0.251 OA
BRANCH   4   6
ATOM      6  C   UNL A   1      32.545  25.996  24.044  1.00  0.00     0.142 C 
ATOM      7  C   UNL A   1      31.847  25.131  23.001  1.00  0.00     0.055 C 
ATOM      8  C   UNL A   1      33.673  26.657  23.243  1.00  0.00     0.185 C 
ATOM      9  C   UNL A   1      32.868  24.929  21.907  1.00  0.00     0.161 C 
ATOM     10  O   UNL A   1      33.778  26.018  21.964  1.00  0.00    -0.380 OA
BRANCH   6  11
ATOM     11  C   UNL A   1      33.022  25.228  25.320  1.00  0.00     0.283 C 
BRANCH  11  12
ATOM     12  N   UNL A   1      33.915  24.078  25.296  1.00  0.00    -0.333 N 
ATOM     13  C   UNL A   1      36.704  22.830  23.194  1.00  0.00     0.014 C 
ATOM     14  C   UNL A   1      35.296  23.184  23.643  1.00  0.00     0.049 C 
ATOM     15  C   UNL A   1      35.268  24.196  24.781  1.00  0.00     0.265 C 
ATOM     16  C   UNL A   1      34.419  22.034  24.166  1.00  0.00     0.049 C 
ATOM     17  C   UNL A   1      33.414  22.732  25.101  1.00  0.00     0.265 C 
ATOM     18  C   UNL A   1      35.183  20.927  24.890  1.00  0.00     0.014 C 
ATOM     19  H   UNL A   1      33.975  24.203  26.306  1.00  0.00     0.348 HD
ENDBRANCH  11  12
ENDBRANCH   6  11
ENDBRANCH   4   6
ENDBRANCH   3   4
ENDBRANCH   2   3
ENDBRANCH   1   2
BRANCH   1  20
ATOM     20  O   UNL A   1      32.769  30.253  26.318  1.00  0.00    -0.458 OA
BRANCH  20  21
ATOM     21  C   UNL A   1      33.218  31.303  27.043  1.00  0.00     0.338 C 
ATOM     22  O   UNL A   1      32.643  32.354  27.258  1.00  0.00    -0.246 OA
BRANCH  21  23
ATOM     23  C   UNL A   1      34.544  30.975  27.588  1.00  0.00     0.060 A 
ATOM     24  C   UNL A   1      34.857  29.647  27.884  1.00  0.00     0.016 A 
ATOM     25  C   UNL A   1      35.436  31.998  27.907  1.00  0.00     0.016 A 
ATOM     26  C   UNL A   1      36.043  29.337  28.547  1.00  0.00     0.010 A 
ATOM     27  C   UNL A   1      36.647  31.683  28.529  1.00  0.00     0.010 A 
ATOM     28  C   UNL A   1      36.944  30.355  28.889  1.00  0.00    -0.014 A 
BRANCH  28  29
ATOM     29  C   UNL A   1      38.145  30.046  29.709  1.00  0.00     0.031 A 
ATOM     30  C   UNL A   1      39.215  29.147  29.148  1.00  0.00     0.074 A 
ATOM     31  C   UNL A   1      38.291  30.570  30.941  1.00  0.00     0.049 A 
ATOM     32  N   UNL A   1      40.288  28.676  29.731  1.00  0.00    -0.248 NA
ATOM     33  C   UNL A   1      39.052  28.714  27.751  1.00  0.00     0.031 C 
ATOM     34  C   UNL A   1      37.340  31.468  31.597  1.00  0.00     0.029 A 
ATOM     35  N   UNL A   1      39.295  30.416  31.865  1.00  0.00    -0.354 N 
ATOM     36  C   UNL A   1      40.892  27.844  28.796  1.00  0.00     0.074 A 
ATOM     37  C   UNL A   1      40.071  27.880  27.604  1.00  0.00     0.031 C 
ATOM     38  C   UNL A   1      37.810  31.791  32.813  1.00  0.00     0.029 A 
ATOM     39  C   UNL A   1      39.071  31.092  33.041  1.00  0.00     0.049 A 
ATOM     40  H   UNL A   1      40.100  29.873  31.699  1.00  0.00     0.167 HD
ATOM     41  C   UNL A   1      42.035  27.127  28.910  1.00  0.00     0.034 A 
ATOM     42  C   UNL A   1      39.791  31.128  34.180  1.00  0.00     0.034 A 
ATOM     43  C   UNL A   1      42.893  27.146  30.062  1.00  0.00     0.049 A 
ATOM     44  C   UNL A   1      41.074  30.344  34.270  1.00  0.00     0.074 A 
ATOM     45  C   UNL A   1      44.089  26.476  30.255  1.00  0.00     0.029 A 
ATOM     46  N   UNL A   1      42.658  27.884  31.211  1.00  0.00    -0.354 N 
ATOM     47  N   UNL A   1      41.660  29.613  33.353  1.00  0.00    -0.248 NA
ATOM     48  C   UNL A   1      41.802  30.404  35.546  1.00  0.00     0.031 C 
ATOM     49  C   UNL A   1      44.580  26.814  31.522  1.00  0.00     0.029 A 
ATOM     50  C   UNL A   1      43.689  27.694  32.115  1.00  0.00     0.049 A 
ATOM     51  H   UNL A   1      41.874  28.461  31.361  1.00  0.00     0.167 HD
ATOM     52  C   UNL A   1      42.832  29.141  33.934  1.00  0.00     0.074 A 
ATOM     53  C   UNL A   1      42.889  29.695  35.271  1.00  0.00     0.031 C 
ATOM     54  C   UNL A   1      43.763  28.300  33.419  1.00  0.00     0.034 A 
BRANCH  41  55
ATOM     55  C   UNL A   1      42.446  26.286  27.732  1.00  0.00     0.023 A 
ATOM     56  C   UNL A   1      43.311  26.827  26.761  1.00  0.00     0.012 A 
ATOM     57  C   UNL A   1      42.013  24.952  27.611  1.00  0.00     0.148 A 
ATOM     58  C   UNL A   1      43.721  26.060  25.672  1.00  0.00     0.002 A 
ATOM     59  C   UNL A   1      42.454  24.182  26.540  1.00  0.00     0.091 A 
ATOM     60  F   UNL A   1      41.166  24.466  28.528  1.00  0.00    -0.205 F 
ATOM     61  C   UNL A   1      43.301  24.736  25.567  1.00  0.00     0.022 A 
BRANCH  59  62
ATOM     62  S   UNL A   1      42.015  22.449  26.363  1.00  0.00     0.127 S 
ATOM     63  O   UNL A   1      42.651  22.111  25.091  1.00  0.00    -0.237 OA
ATOM     64  O   UNL A   1      42.644  21.844  27.538  1.00  0.00    -0.237 OA
ATOM     65  O   UNL A   1      40.559  22.409  26.375  1.00  0.00    -0.744 OA
ENDBRANCH  59  62
ENDBRANCH  41  55
BRANCH  42  66
ATOM     66  C   UNL A   1      39.335  31.975  35.319  1.00  0.00     0.023 A 
ATOM     67  C   UNL A   1      38.469  31.424  36.283  1.00  0.00     0.012 A 
ATOM     68  C   UNL A   1      39.774  33.304  35.470  1.00  0.00     0.148 A 
ATOM     69  C   UNL A   1      38.033  32.188  37.366  1.00  0.00     0.002 A 
ATOM     70  C   UNL A   1      39.379  34.042  36.581  1.00  0.00     0.091 A 
ATOM     71  F   UNL A   1      40.573  33.824  34.528  1.00  0.00    -0.205 F 
ATOM     72  C   UNL A   1      38.498  33.491  37.523  1.00  0.00     0.022 A 
BRANCH  70  73
ATOM     73  S   UNL A   1      40.046  35.676  36.916  1.00  0.00     0.127 S 
ATOM     74  O   UNL A   1      41.478  35.409  36.988  1.00  0.00    -0.237 OA
ATOM     75  O   UNL A   1      39.618  36.435  35.740  1.00  0.00    -0.237 OA
ATOM     76  O   UNL A   1      39.409  36.100  38.158  1.00  0.00    -0.744 OA
ENDBRANCH  70  73
ENDBRANCH  42  66
BRANCH  54  77
ATOM     77  C   UNL A   1      44.928  27.930  34.295  1.00  0.00     0.023 A 
ATOM     78  C   UNL A   1      46.084  28.736  34.278  1.00  0.00     0.012 A 
ATOM     79  C   UNL A   1      44.858  26.841  35.185  1.00  0.00     0.148 A 
ATOM     80  C   UNL A   1      47.162  28.448  35.116  1.00  0.00     0.002 A 
ATOM     81  C   UNL A   1      45.920  26.582  36.043  1.00  0.00     0.091 A 
ATOM     82  F   UNL A   1      43.759  26.070  35.170  1.00  0.00    -0.205 F 
ATOM     83  C   UNL A   1      47.076  27.379  36.005  1.00  0.00     0.022 A 
BRANCH  81  84
ATOM     84  S   UNL A   1      45.847  25.273  37.273  1.00  0.00     0.127 S 
ATOM     85  O   UNL A   1      44.690  25.675  38.071  1.00  0.00    -0.237 OA
ATOM     86  O   UNL A   1      45.637  24.077  36.456  1.00  0.00    -0.237 OA
ATOM     87  O   UNL A   1      47.134  25.310  37.956  1.00  0.00    -0.744 OA
ENDBRANCH  81  84
ENDBRANCH  54  77
ENDBRANCH  28  29
ENDBRANCH  21  23
ENDBRANCH  20  21
ENDBRANCH   1  20
TORSDOF 16
ENDMDL
MODEL 3
REMARK VINA RESULT:     -11.2      5.690     10.162
REMARK SMILES C[C@@H]1C[N@@H+](C[C@]2(C(=O)OCCOC(=O)c3ccc(-c4c5nc(c(-c6cccc(S(=O)(=O)[O-])c6F)c6ccc([nH]6)c(-c6cccc(S(=O)(=O)[O-])c6F)c6nc(c(-c7cccc(S(=O)(=O)[O-])c7F)c7ccc4[nH]7)C=C6)C=C5)cc3)CCOC2)C[C@@H]1C
REMARK SMILES IDX 11 1 10 2 9 3 7 4 8 5 6 6 78 7 81 8 79 9 80 10 5 11 4 12
REMARK SMILES IDX 1 13 2 14 3 15 83 16 82 17 84 18 12 20 13 21 14 22 15 23
REMARK SMILES IDX 16 24 77 25 17 26 76 27 18 28 19 29 20 30 70 31 21 32 75 33
REMARK SMILES IDX 69 34 71 35 22 36 74 37 68 38 67 39 23 41 55 42 35 43 54 44
REMARK SMILES IDX 36 45 39 46 53 47 72 48 37 49 38 50 52 52 73 53 40 54 24 55
REMARK SMILES IDX 25 56 33 57 26 58 28 59 34 60 27 61 29 62 30 63 31 64 32 65
REMARK SMILES IDX 56 66 57 67 65 68 58 69 60 70 66 71 59 72 61 73 62 74 63 75
REMARK SMILES IDX 64 76 41 77 42 78 50 79 43 80 45 81 51 82 44 83 46 84 47 85
REMARK SMILES IDX 48 86 49 87
REMARK H PARENT 4 19 71 40 39 51
REMARK Flexibility Score: inf
ROOT
ATOM      1  C   UNL A   1      31.832  29.942  26.709  1.00  0.00     0.275 C 
ENDROOT
BRANCH   1   2
ATOM      2  C   UNL A   1      32.027  28.430  26.777  1.00  0.00     0.274 C 
BRANCH   2   3
ATOM      3  O   UNL A   1      32.483  27.919  25.506  1.00  0.00    -0.461 OA
BRANCH   3   4
ATOM      4  C   UNL A   1      31.499  27.567  24.627  1.00  0.00     0.320 C 
ATOM      5  O   UNL A   1      30.485  26.968  24.961  1.00  0.00    -0.251 OA
BRANCH   4   6
ATOM      6  C   UNL A   1      31.858  27.913  23.173  1.00  0.00     0.142 C 
ATOM      7  C   UNL A   1      32.969  28.954  23.237  1.00  0.00     0.055 C 
ATOM      8  C   UNL A   1      32.560  26.698  22.556  1.00  0.00     0.185 C 
ATOM      9  C   UNL A   1      33.993  28.502  22.224  1.00  0.00     0.161 C 
ATOM     10  O   UNL A   1      33.844  27.099  22.062  1.00  0.00    -0.380 OA
BRANCH   6  11
ATOM     11  C   UNL A   1      30.572  28.372  22.410  1.00  0.00     0.283 C 
BRANCH  11  12
ATOM     12  N   UNL A   1      30.046  29.729  22.436  1.00  0.00    -0.333 N 
ATOM     13  C   UNL A   1      27.281  31.555  24.104  1.00  0.00     0.014 C 
ATOM     14  C   UNL A   1      28.015  30.622  23.153  1.00  0.00     0.049 C 
ATOM     15  C   UNL A   1      29.415  30.261  23.631  1.00  0.00     0.265 C 
ATOM     16  C   UNL A   1      28.246  31.128  21.719  1.00  0.00     0.049 C 
ATOM     17  C   UNL A   1      29.490  30.350  21.249  1.00  0.00     0.265 C 
ATOM     18  C   UNL A   1      28.449  32.637  21.598  1.00  0.00     0.014 C 
ATOM     19  H   UNL A   1      31.021  30.023  22.465  1.00  0.00     0.348 HD
ENDBRANCH  11  12
ENDBRANCH   6  11
ENDBRANCH   4   6
ENDBRANCH   3   4
ENDBRANCH   2   3
ENDBRANCH   1   2
BRANCH   1  20
ATOM     20  O   UNL A   1      33.077  30.568  26.363  1.00  0.00    -0.458 OA
BRANCH  20  21
ATOM     21  C   UNL A   1      33.527  31.497  27.237  1.00  0.00     0.338 C 
ATOM     22  O   UNL A   1      32.956  32.509  27.599  1.00  0.00    -0.246 OA
BRANCH  21  23
ATOM     23  C   UNL A   1      34.848  31.085  27.735  1.00  0.00     0.060 A 
ATOM     24  C   UNL A   1      35.086  29.739  28.018  1.00  0.00     0.016 A 
ATOM     25  C   UNL A   1      35.812  32.049  28.025  1.00  0.00     0.016 A 
ATOM     26  C   UNL A   1      36.272  29.352  28.640  1.00  0.00     0.010 A 
ATOM     27  C   UNL A   1      37.022  31.655  28.605  1.00  0.00     0.010 A 
ATOM     28  C   UNL A   1      37.246  30.311  28.953  1.00  0.00    -0.014 A 
BRANCH  28  29
ATOM     29  C   UNL A   1      38.453  29.923  29.731  1.00  0.00     0.031 A 
ATOM     30  C   UNL A   1      39.440  28.954  29.136  1.00  0.00     0.074 A 
ATOM     31  C   UNL A   1      38.677  30.439  30.954  1.00  0.00     0.049 A 
ATOM     32  N   UNL A   1      40.499  28.413  29.682  1.00  0.00    -0.248 NA
ATOM     33  C   UNL A   1      39.199  28.530  27.747  1.00  0.00     0.031 C 
ATOM     34  C   UNL A   1      37.813  31.399  31.640  1.00  0.00     0.029 A 
ATOM     35  N   UNL A   1      39.702  30.220  31.842  1.00  0.00    -0.354 N 
ATOM     36  C   UNL A   1      41.012  27.542  28.729  1.00  0.00     0.074 A 
ATOM     37  C   UNL A   1      40.154  27.629  27.568  1.00  0.00     0.031 C 
ATOM     38  C   UNL A   1      38.346  31.693  32.837  1.00  0.00     0.029 A 
ATOM     39  C   UNL A   1      39.566  30.911  33.023  1.00  0.00     0.049 A 
ATOM     40  H   UNL A   1      40.462  29.625  31.650  1.00  0.00     0.167 HD
ATOM     41  C   UNL A   1      42.109  26.750  28.806  1.00  0.00     0.034 A 
ATOM     42  C   UNL A   1      40.327  30.902  34.135  1.00  0.00     0.034 A 
ATOM     43  C   UNL A   1      43.007  26.713  29.927  1.00  0.00     0.049 A 
ATOM     44  C   UNL A   1      41.557  30.035  34.182  1.00  0.00     0.074 A 
ATOM     45  C   UNL A   1      44.162  25.966  30.080  1.00  0.00     0.029 A 
ATOM     46  N   UNL A   1      42.863  27.468  31.080  1.00  0.00    -0.354 N 
ATOM     47  N   UNL A   1      42.060  29.264  33.248  1.00  0.00    -0.248 NA
ATOM     48  C   UNL A   1      42.333  30.048  35.432  1.00  0.00     0.031 C 
ATOM     49  C   UNL A   1      44.719  26.272  31.327  1.00  0.00     0.029 A 
ATOM     50  C   UNL A   1      43.911  27.211  31.948  1.00  0.00     0.049 A 
ATOM     51  H   UNL A   1      42.125  28.096  31.255  1.00  0.00     0.167 HD
ATOM     52  C   UNL A   1      43.218  28.716  33.789  1.00  0.00     0.074 A 
ATOM     53  C   UNL A   1      43.360  29.267  35.121  1.00  0.00     0.031 C 
ATOM     54  C   UNL A   1      44.071  27.813  33.246  1.00  0.00     0.034 A 
BRANCH  41  55
ATOM     55  C   UNL A   1      42.420  25.881  27.618  1.00  0.00     0.023 A 
ATOM     56  C   UNL A   1      43.216  26.392  26.574  1.00  0.00     0.012 A 
ATOM     57  C   UNL A   1      41.964  24.551  27.556  1.00  0.00     0.148 A 
ATOM     58  C   UNL A   1      43.535  25.599  25.473  1.00  0.00     0.002 A 
ATOM     59  C   UNL A   1      42.314  23.755  26.471  1.00  0.00     0.091 A 
ATOM     60  F   UNL A   1      41.182  24.093  28.544  1.00  0.00    -0.205 F 
ATOM     61  C   UNL A   1      43.092  24.278  25.426  1.00  0.00     0.022 A 
BRANCH  59  62
ATOM     62  S   UNL A   1      41.842  22.024  26.362  1.00  0.00     0.127 S 
ATOM     63  O   UNL A   1      42.242  21.526  27.677  1.00  0.00    -0.237 OA
ATOM     64  O   UNL A   1      40.395  22.105  26.155  1.00  0.00    -0.237 OA
ATOM     65  O   UNL A   1      42.581  21.485  25.228  1.00  0.00    -0.744 OA
ENDBRANCH  59  62
ENDBRANCH  41  55
BRANCH  42  66
ATOM     66  C   UNL A   1      39.970  31.780  35.286  1.00  0.00     0.023 A 
ATOM     67  C   UNL A   1      40.565  33.052  35.391  1.00  0.00     0.012 A 
ATOM     68  C   UNL A   1      39.029  31.380  36.254  1.00  0.00     0.148 A 
ATOM     69  C   UNL A   1      40.243  33.901  36.451  1.00  0.00     0.002 A 
ATOM     70  C   UNL A   1      38.673  32.253  37.276  1.00  0.00     0.091 A 
ATOM     71  F   UNL A   1      38.495  30.154  36.157  1.00  0.00    -0.205 F 
ATOM     72  C   UNL A   1      39.289  33.509  37.385  1.00  0.00     0.022 A 
BRANCH  70  73
ATOM     73  S   UNL A   1      37.354  31.866  38.433  1.00  0.00     0.127 S 
ATOM     74  O   UNL A   1      37.972  32.191  39.714  1.00  0.00    -0.237 OA
ATOM     75  O   UNL A   1      36.291  32.780  38.012  1.00  0.00    -0.237 OA
ATOM     76  O   UNL A   1      37.049  30.459  38.206  1.00  0.00    -0.744 OA
ENDBRANCH  70  73
ENDBRANCH  42  66
BRANCH  54  77
ATOM     77  C   UNL A   1      45.241  27.369  34.081  1.00  0.00     0.023 A 
ATOM     78  C   UNL A   1      46.446  28.095  34.019  1.00  0.00     0.012 A 
ATOM     79  C   UNL A   1      45.129  26.289  34.978  1.00  0.00     0.148 A 
ATOM     80  C   UNL A   1      47.532  27.737  34.819  1.00  0.00     0.002 A 
ATOM     81  C   UNL A   1      46.202  25.961  35.799  1.00  0.00     0.091 A 
ATOM     82  F   UNL A   1      43.982  25.593  35.006  1.00  0.00    -0.205 F 
ATOM     83  C   UNL A   1      47.406  26.679  35.716  1.00  0.00     0.022 A 
BRANCH  81  84
ATOM     84  S   UNL A   1      46.086  24.663  37.037  1.00  0.00     0.127 S 
ATOM     85  O   UNL A   1      45.889  23.475  36.209  1.00  0.00    -0.237 OA
ATOM     86  O   UNL A   1      47.390  24.735  37.699  1.00  0.00    -0.237 OA
ATOM     87  O   UNL A   1      44.964  25.039  37.888  1.00  0.00    -0.744 OA
ENDBRANCH  81  84
ENDBRANCH  54  77
ENDBRANCH  28  29
ENDBRANCH  21  23
ENDBRANCH  20  21
ENDBRANCH   1  20
TORSDOF 16
ENDMDL
