MODEL 1
REMARK VINA RESULT:     -10.5      0.000      0.000
REMARK SMILES COc1ncnc(N2CCCC[C@H]2CC(=O)OCCOC(=O)c2ccc(-c3c4nc(c(-c5cccc(S(=O)(=O)[O-])c5F)c5ccc([nH]5)c(-c5cccc(S(=O)(=O)[O-])c5F)c5nc(c(-c6cccc(S(=O)(=O)[O-])c6F)c6ccc3[nH]6)C=C5)C=C4)cc2)c1[N+](=O)[O-]
REMARK SMILES IDX 18 1 17 2 15 3 16 4 14 5 13 6 8 7 9 8 10 9 12 10 11 11 7 12
REMARK SMILES IDX 3 13 4 14 86 15 5 16 6 17 2 18 1 19 87 20 88 21 89 22 19 23
REMARK SMILES IDX 20 24 21 25 22 26 23 27 24 28 85 29 25 30 84 31 26 32 27 33
REMARK SMILES IDX 28 34 78 35 29 36 83 37 77 38 79 39 30 40 82 41 76 42 75 43
REMARK SMILES IDX 31 45 63 46 43 47 62 48 44 49 47 50 61 51 80 52 45 53 46 54
REMARK SMILES IDX 60 56 81 57 48 58 32 59 33 60 41 61 34 62 36 63 42 64 35 65
REMARK SMILES IDX 37 66 38 67 39 68 40 69 64 70 65 71 73 72 66 73 68 74 74 75
REMARK SMILES IDX 67 76 69 77 70 78 71 79 72 80 49 81 50 82 58 83 51 84 53 85
REMARK SMILES IDX 59 86 52 87 54 88 55 89 56 90 57 91
REMARK H PARENT 79 44 47 55
REMARK Flexibility Score: inf
ROOT
ATOM      1  C   UNL A   1      31.787  29.535  23.855  1.00  0.00     0.274 C 
ENDROOT
BRANCH   1   2
ATOM      2  O   UNL A   1      33.085  28.953  23.606  1.00  0.00    -0.462 OA
BRANCH   2   3
ATOM      3  C   UNL A   1      33.083  27.838  22.839  1.00  0.00     0.307 C 
ATOM      4  O   UNL A   1      34.006  27.502  22.102  1.00  0.00    -0.252 OA
BRANCH   3   5
ATOM      5  C   UNL A   1      31.782  27.082  22.858  1.00  0.00     0.147 C 
BRANCH   5   6
ATOM      6  C   UNL A   1      31.756  25.620  23.371  1.00  0.00     0.095 C 
ATOM      7  N   UNL A   1      32.383  25.448  24.714  1.00  0.00    -0.347 N 
ATOM      8  C   UNL A   1      31.749  26.243  25.790  1.00  0.00     0.118 C 
ATOM      9  C   UNL A   1      30.242  25.968  25.898  1.00  0.00     0.022 C 
ATOM     10  C   UNL A   1      30.275  25.171  23.499  1.00  0.00     0.026 C 
ATOM     11  C   UNL A   1      29.525  25.994  24.550  1.00  0.00     0.004 C 
BRANCH   7  12
ATOM     12  C   UNL A   1      32.815  24.171  25.114  1.00  0.00     0.215 A 
ATOM     13  C   UNL A   1      33.923  22.057  24.939  1.00  0.00     0.299 A 
ATOM     14  N   UNL A   1      33.639  21.733  26.210  1.00  0.00    -0.196 NA
ATOM     15  C   UNL A   1      33.503  23.243  24.347  1.00  0.00     0.372 A 
ATOM     16  C   UNL A   1      32.951  22.651  26.883  1.00  0.00     0.228 A 
ATOM     17  N   UNL A   1      32.553  23.840  26.405  1.00  0.00    -0.212 NA
BRANCH  13  18
ATOM     18  O   UNL A   1      34.622  21.072  24.290  1.00  0.00    -0.476 OA
ATOM     19  C   UNL A   1      35.779  20.633  25.001  1.00  0.00     0.280 C 
ENDBRANCH  13  18
BRANCH  15  20
ATOM     20  N   UNL A   1      33.951  23.482  23.019  1.00  0.00     0.072 N 
ATOM     21  O   UNL A   1      35.046  24.051  22.890  1.00  0.00    -0.258 OA
ATOM     22  O   UNL A   1      33.319  22.918  22.112  1.00  0.00    -0.258 OA
ENDBRANCH  15  20
ENDBRANCH   7  12
ENDBRANCH   5   6
ENDBRANCH   3   5
ENDBRANCH   2   3
ENDBRANCH   1   2
BRANCH   1  23
ATOM     23  C   UNL A   1      31.558  29.989  25.309  1.00  0.00     0.275 C 
BRANCH  23  24
ATOM     24  O   UNL A   1      32.650  29.712  26.211  1.00  0.00    -0.458 OA
BRANCH  24  25
ATOM     25  C   UNL A   1      33.161  30.818  26.785  1.00  0.00     0.338 C 
ATOM     26  O   UNL A   1      32.610  31.907  26.864  1.00  0.00    -0.246 OA
BRANCH  25  27
ATOM     27  C   UNL A   1      34.437  30.641  27.466  1.00  0.00     0.060 A 
ATOM     28  C   UNL A   1      34.629  29.403  28.094  1.00  0.00     0.016 A 
ATOM     29  C   UNL A   1      35.334  31.691  27.649  1.00  0.00     0.016 A 
ATOM     30  C   UNL A   1      35.725  29.208  28.913  1.00  0.00     0.010 A 
ATOM     31  C   UNL A   1      36.453  31.485  28.459  1.00  0.00     0.010 A 
ATOM     32  C   UNL A   1      36.651  30.244  29.089  1.00  0.00    -0.014 A 
BRANCH  32  33
ATOM     33  C   UNL A   1      37.890  29.942  29.830  1.00  0.00     0.031 A 
ATOM     34  C   UNL A   1      38.130  30.479  31.204  1.00  0.00     0.074 A 
ATOM     35  C   UNL A   1      38.776  29.128  29.230  1.00  0.00     0.049 A 
ATOM     36  N   UNL A   1      39.128  30.234  32.010  1.00  0.00    -0.248 NA
ATOM     37  C   UNL A   1      37.130  31.413  31.746  1.00  0.00     0.031 C 
ATOM     38  C   UNL A   1      38.626  28.583  27.877  1.00  0.00     0.029 A 
ATOM     39  N   UNL A   1      39.965  28.613  29.669  1.00  0.00    -0.354 N 
ATOM     40  C   UNL A   1      38.903  31.006  33.140  1.00  0.00     0.074 A 
ATOM     41  C   UNL A   1      37.664  31.725  32.921  1.00  0.00     0.031 C 
ATOM     42  C   UNL A   1      39.681  27.805  27.599  1.00  0.00     0.029 A 
ATOM     43  C   UNL A   1      40.588  27.814  28.741  1.00  0.00     0.049 A 
ATOM     44  H   UNL A   1      40.337  28.797  30.562  1.00  0.00     0.167 HD
ATOM     45  C   UNL A   1      39.664  31.096  34.256  1.00  0.00     0.034 A 
ATOM     46  C   UNL A   1      41.761  27.161  28.805  1.00  0.00     0.034 A 
ATOM     47  C   UNL A   1      40.872  30.342  34.466  1.00  0.00     0.049 A 
ATOM     48  C   UNL A   1      42.546  27.230  30.081  1.00  0.00     0.074 A 
ATOM     49  C   UNL A   1      41.682  30.306  35.588  1.00  0.00     0.029 A 
ATOM     50  N   UNL A   1      41.450  29.495  33.531  1.00  0.00    -0.354 N 
ATOM     51  N   UNL A   1      42.246  27.853  31.196  1.00  0.00    -0.248 NA
ATOM     52  C   UNL A   1      43.810  26.486  30.125  1.00  0.00     0.031 C 
ATOM     53  C   UNL A   1      42.754  29.444  35.327  1.00  0.00     0.029 A 
ATOM     54  C   UNL A   1      42.611  28.941  34.042  1.00  0.00     0.049 A 
ATOM     55  H   UNL A   1      41.088  29.315  32.634  1.00  0.00     0.167 HD
ATOM     56  C   UNL A   1      43.284  27.578  32.076  1.00  0.00     0.074 A 
ATOM     57  C   UNL A   1      44.197  26.694  31.376  1.00  0.00     0.031 C 
ATOM     58  C   UNL A   1      43.484  28.039  33.334  1.00  0.00     0.034 A 
BRANCH  45  59
ATOM     59  C   UNL A   1      39.198  32.012  35.354  1.00  0.00     0.023 A 
ATOM     60  C   UNL A   1      38.249  31.548  36.286  1.00  0.00     0.012 A 
ATOM     61  C   UNL A   1      39.752  33.297  35.510  1.00  0.00     0.148 A 
ATOM     62  C   UNL A   1      37.846  32.356  37.350  1.00  0.00     0.002 A 
ATOM     63  C   UNL A   1      39.368  34.086  36.589  1.00  0.00     0.091 A 
ATOM     64  F   UNL A   1      40.634  33.729  34.597  1.00  0.00    -0.205 F 
ATOM     65  C   UNL A   1      38.413  33.619  37.507  1.00  0.00     0.022 A 
BRANCH  63  66
ATOM     66  S   UNL A   1      40.084  35.703  36.907  1.00  0.00     0.127 S 
ATOM     67  O   UNL A   1      39.650  36.454  35.730  1.00  0.00    -0.237 OA
ATOM     68  O   UNL A   1      39.427  36.095  38.156  1.00  0.00    -0.237 OA
ATOM     69  O   UNL A   1      41.519  35.489  37.021  1.00  0.00    -0.744 OA
ENDBRANCH  63  66
ENDBRANCH  45  59
BRANCH  46  70
ATOM     70  C   UNL A   1      42.208  26.348  27.642  1.00  0.00     0.023 A 
ATOM     71  C   UNL A   1      43.152  26.881  26.744  1.00  0.00     0.012 A 
ATOM     72  C   UNL A   1      41.775  25.019  27.474  1.00  0.00     0.148 A 
ATOM     73  C   UNL A   1      43.646  26.107  25.693  1.00  0.00     0.002 A 
ATOM     74  C   UNL A   1      42.316  24.235  26.461  1.00  0.00     0.091 A 
ATOM     75  F   UNL A   1      40.859  24.529  28.323  1.00  0.00    -0.205 F 
ATOM     76  C   UNL A   1      43.242  24.780  25.560  1.00  0.00     0.022 A 
BRANCH  74  77
ATOM     77  S   UNL A   1      41.948  22.480  26.358  1.00  0.00     0.127 S 
ATOM     78  O   UNL A   1      40.502  22.482  26.160  1.00  0.00    -0.237 OA
ATOM     79  O   UNL A   1      42.726  22.056  25.192  1.00  0.00    -0.237 OA
ATOM     80  O   UNL A   1      42.430  21.930  27.620  1.00  0.00    -0.744 OA
ENDBRANCH  74  77
ENDBRANCH  46  70
BRANCH  58  81
ATOM     81  C   UNL A   1      44.755  27.618  34.015  1.00  0.00     0.023 A 
ATOM     82  C   UNL A   1      45.897  28.436  33.895  1.00  0.00     0.012 A 
ATOM     83  C   UNL A   1      44.816  26.452  34.800  1.00  0.00     0.148 A 
ATOM     84  C   UNL A   1      47.089  28.083  34.525  1.00  0.00     0.002 A 
ATOM     85  C   UNL A   1      45.999  26.127  35.455  1.00  0.00     0.091 A 
ATOM     86  F   UNL A   1      43.729  25.671  34.881  1.00  0.00    -0.205 F 
ATOM     87  C   UNL A   1      47.138  26.936  35.313  1.00  0.00     0.022 A 
BRANCH  85  88
ATOM     88  S   UNL A   1      46.100  24.704  36.545  1.00  0.00     0.127 S 
ATOM     89  O   UNL A   1      45.894  23.596  35.615  1.00  0.00    -0.237 OA
ATOM     90  O   UNL A   1      47.458  24.803  37.082  1.00  0.00    -0.237 OA
ATOM     91  O   UNL A   1      45.052  24.907  37.537  1.00  0.00    -0.744 OA
ENDBRANCH  85  88
ENDBRANCH  58  81
ENDBRANCH  32  33
ENDBRANCH  25  27
ENDBRANCH  24  25
ENDBRANCH  23  24
ENDBRANCH   1  23
TORSDOF 18
ENDMDL
MODEL 2
REMARK VINA RESULT:     -10.4      4.967      9.803
REMARK SMILES COc1ncnc(N2CCCC[C@H]2CC(=O)OCCOC(=O)c2ccc(-c3c4nc(c(-c5cccc(S(=O)(=O)[O-])c5F)c5ccc([nH]5)c(-c5cccc(S(=O)(=O)[O-])c5F)c5nc(c(-c6cccc(S(=O)(=O)[O-])c6F)c6ccc3[nH]6)C=C5)C=C4)cc2)c1[N+](=O)[O-]
REMARK SMILES IDX 18 1 17 2 15 3 16 4 14 5 13 6 8 7 9 8 10 9 12 10 11 11 7 12
REMARK SMILES IDX 3 13 4 14 86 15 5 16 6 17 2 18 1 19 87 20 88 21 89 22 19 23
REMARK SMILES IDX 20 24 21 25 22 26 23 27 24 28 85 29 25 30 84 31 26 32 27 33
REMARK SMILES IDX 28 34 78 35 29 36 83 37 77 38 79 39 30 40 82 41 76 42 75 43
REMARK SMILES IDX 31 45 63 46 43 47 62 48 44 49 47 50 61 51 80 52 45 53 46 54
REMARK SMILES IDX 60 56 81 57 48 58 32 59 33 60 41 61 34 62 36 63 42 64 35 65
REMARK SMILES IDX 37 66 38 67 39 68 40 69 64 70 65 71 73 72 66 73 68 74 74 75
REMARK SMILES IDX 67 76 69 77 70 78 71 79 72 80 49 81 50 82 58 83 51 84 53 85
REMARK SMILES IDX 59 86 52 87 54 88 55 89 56 90 57 91
REMARK H PARENT 79 44 47 55
REMARK Flexibility Score: inf
ROOT
ATOM      1  C   UNL A   1      36.660  22.767  24.382  1.00  0.00     0.274 C 
ENDROOT
BRANCH   1   2
ATOM      2  O   UNL A   1      36.016  22.685  23.093  1.00  0.00    -0.462 OA
BRANCH   2   3
ATOM      3  C   UNL A   1      34.729  23.103  23.059  1.00  0.00     0.307 C 
ATOM      4  O   UNL A   1      34.112  23.363  22.030  1.00  0.00    -0.252 OA
BRANCH   3   5
ATOM      5  C   UNL A   1      34.130  23.353  24.416  1.00  0.00     0.147 C 
BRANCH   5   6
ATOM      6  C   UNL A   1      33.214  24.586  24.630  1.00  0.00     0.095 C 
ATOM      7  N   UNL A   1      31.897  24.476  23.941  1.00  0.00    -0.347 N 
ATOM      8  C   UNL A   1      31.081  23.315  24.363  1.00  0.00     0.118 C 
ATOM      9  C   UNL A   1      30.859  23.289  25.882  1.00  0.00     0.022 C 
ATOM     10  C   UNL A   1      32.924  24.723  26.149  1.00  0.00     0.026 C 
ATOM     11  C   UNL A   1      32.138  23.522  26.684  1.00  0.00     0.004 C 
BRANCH   7  12
ATOM     12  C   UNL A   1      31.155  25.643  23.684  1.00  0.00     0.215 A 
ATOM     13  C   UNL A   1      30.685  27.810  22.785  1.00  0.00     0.299 A 
ATOM     14  N   UNL A   1      29.418  27.787  23.226  1.00  0.00    -0.196 NA
ATOM     15  C   UNL A   1      31.589  26.781  23.021  1.00  0.00     0.372 A 
ATOM     16  C   UNL A   1      29.072  26.683  23.881  1.00  0.00     0.228 A 
ATOM     17  N   UNL A   1      29.863  25.623  24.105  1.00  0.00    -0.212 NA
BRANCH  13  18
ATOM     18  O   UNL A   1      30.992  28.976  22.129  1.00  0.00    -0.476 OA
ATOM     19  C   UNL A   1      29.878  29.856  21.986  1.00  0.00     0.280 C 
ENDBRANCH  13  18
BRANCH  15  20
ATOM     20  N   UNL A   1      32.871  26.912  22.421  1.00  0.00     0.072 N 
ATOM     21  O   UNL A   1      33.757  27.452  23.102  1.00  0.00    -0.258 OA
ATOM     22  O   UNL A   1      33.052  26.293  21.361  1.00  0.00    -0.258 OA
ENDBRANCH  15  20
ENDBRANCH   7  12
ENDBRANCH   5   6
ENDBRANCH   3   5
ENDBRANCH   2   3
ENDBRANCH   1   2
BRANCH   1  23
ATOM     23  C   UNL A   1      37.470  21.516  24.774  1.00  0.00     0.275 C 
BRANCH  23  24
ATOM     24  O   UNL A   1      37.890  21.473  26.154  1.00  0.00    -0.458 OA
BRANCH  24  25
ATOM     25  C   UNL A   1      39.228  21.516  26.306  1.00  0.00     0.338 C 
ATOM     26  O   UNL A   1      40.003  20.588  26.119  1.00  0.00    -0.246 OA
BRANCH  25  27
ATOM     27  C   UNL A   1      39.785  22.828  26.607  1.00  0.00     0.060 A 
ATOM     28  C   UNL A   1      40.729  22.868  27.642  1.00  0.00     0.016 A 
ATOM     29  C   UNL A   1      39.282  23.998  26.042  1.00  0.00     0.016 A 
ATOM     30  C   UNL A   1      41.177  24.085  28.119  1.00  0.00     0.010 A 
ATOM     31  C   UNL A   1      39.752  25.226  26.510  1.00  0.00     0.010 A 
ATOM     32  C   UNL A   1      40.702  25.272  27.546  1.00  0.00    -0.014 A 
BRANCH  32  33
ATOM     33  C   UNL A   1      41.329  26.539  27.965  1.00  0.00     0.031 A 
ATOM     34  C   UNL A   1      42.758  26.845  27.654  1.00  0.00     0.074 A 
ATOM     35  C   UNL A   1      40.544  27.425  28.605  1.00  0.00     0.049 A 
ATOM     36  N   UNL A   1      43.422  27.947  27.882  1.00  0.00    -0.248 NA
ATOM     37  C   UNL A   1      43.549  25.785  27.009  1.00  0.00     0.031 C 
ATOM     38  C   UNL A   1      39.144  27.188  28.969  1.00  0.00     0.029 A 
ATOM     39  N   UNL A   1      40.799  28.690  29.055  1.00  0.00    -0.354 N 
ATOM     40  C   UNL A   1      44.717  27.708  27.446  1.00  0.00     0.074 A 
ATOM     41  C   UNL A   1      44.745  26.355  26.927  1.00  0.00     0.031 C 
ATOM     42  C   UNL A   1      38.662  28.277  29.583  1.00  0.00     0.029 A 
ATOM     43  C   UNL A   1      39.721  29.275  29.674  1.00  0.00     0.049 A 
ATOM     44  H   UNL A   1      41.670  29.138  28.947  1.00  0.00     0.167 HD
ATOM     45  C   UNL A   1      45.776  28.550  27.473  1.00  0.00     0.034 A 
ATOM     46  C   UNL A   1      39.601  30.484  30.250  1.00  0.00     0.034 A 
ATOM     47  C   UNL A   1      45.714  29.904  27.959  1.00  0.00     0.049 A 
ATOM     48  C   UNL A   1      40.776  31.415  30.205  1.00  0.00     0.074 A 
ATOM     49  C   UNL A   1      46.711  30.863  27.968  1.00  0.00     0.029 A 
ATOM     50  N   UNL A   1      44.592  30.490  28.528  1.00  0.00    -0.354 N 
ATOM     51  N   UNL A   1      41.953  31.225  29.658  1.00  0.00    -0.248 NA
ATOM     52  C   UNL A   1      40.602  32.735  30.822  1.00  0.00     0.031 C 
ATOM     53  C   UNL A   1      46.194  32.026  28.552  1.00  0.00     0.029 A 
ATOM     54  C   UNL A   1      44.873  31.792  28.904  1.00  0.00     0.049 A 
ATOM     55  H   UNL A   1      43.722  30.044  28.648  1.00  0.00     0.167 HD
ATOM     56  C   UNL A   1      42.663  32.398  29.866  1.00  0.00     0.074 A 
ATOM     57  C   UNL A   1      41.764  33.311  30.549  1.00  0.00     0.031 C 
ATOM     58  C   UNL A   1      43.950  32.687  29.553  1.00  0.00     0.034 A 
BRANCH  45  59
ATOM     59  C   UNL A   1      47.088  28.049  26.933  1.00  0.00     0.023 A 
ATOM     60  C   UNL A   1      48.095  27.640  27.829  1.00  0.00     0.012 A 
ATOM     61  C   UNL A   1      47.296  27.911  25.547  1.00  0.00     0.148 A 
ATOM     62  C   UNL A   1      49.296  27.114  27.354  1.00  0.00     0.002 A 
ATOM     63  C   UNL A   1      48.484  27.360  25.081  1.00  0.00     0.091 A 
ATOM     64  F   UNL A   1      46.335  28.330  24.711  1.00  0.00    -0.205 F 
ATOM     65  C   UNL A   1      49.486  26.965  25.982  1.00  0.00     0.022 A 
BRANCH  63  66
ATOM     66  S   UNL A   1      48.797  27.074  23.334  1.00  0.00     0.127 S 
ATOM     67  O   UNL A   1      48.152  25.778  23.128  1.00  0.00    -0.237 OA
ATOM     68  O   UNL A   1      48.110  28.203  22.706  1.00  0.00    -0.237 OA
ATOM     69  O   UNL A   1      50.245  27.087  23.180  1.00  0.00    -0.744 OA
ENDBRANCH  63  66
ENDBRANCH  45  59
BRANCH  46  70
ATOM     70  C   UNL A   1      38.299  30.878  30.853  1.00  0.00     0.023 A 
ATOM     71  C   UNL A   1      38.088  30.692  32.232  1.00  0.00     0.012 A 
ATOM     72  C   UNL A   1      37.308  31.521  30.088  1.00  0.00     0.148 A 
ATOM     73  C   UNL A   1      36.907  31.129  32.834  1.00  0.00     0.002 A 
ATOM     74  C   UNL A   1      36.160  32.007  30.705  1.00  0.00     0.091 A 
ATOM     75  F   UNL A   1      37.511  31.674  28.771  1.00  0.00    -0.205 F 
ATOM     76  C   UNL A   1      35.950  31.800  32.075  1.00  0.00     0.022 A 
BRANCH  74  77
ATOM     77  S   UNL A   1      34.985  33.020  29.799  1.00  0.00     0.127 S 
ATOM     78  O   UNL A   1      35.849  34.039  29.212  1.00  0.00    -0.237 OA
ATOM     79  O   UNL A   1      34.415  32.071  28.840  1.00  0.00    -0.237 OA
ATOM     80  O   UNL A   1      34.038  33.475  30.811  1.00  0.00    -0.744 OA
ENDBRANCH  74  77
ENDBRANCH  46  70
BRANCH  58  81
ATOM     81  C   UNL A   1      44.463  34.034  29.978  1.00  0.00     0.023 A 
ATOM     82  C   UNL A   1      45.131  34.150  31.214  1.00  0.00     0.012 A 
ATOM     83  C   UNL A   1      44.329  35.165  29.153  1.00  0.00     0.148 A 
ATOM     84  C   UNL A   1      45.633  35.381  31.634  1.00  0.00     0.002 A 
ATOM     85  C   UNL A   1      44.864  36.381  29.563  1.00  0.00     0.091 A 
ATOM     86  F   UNL A   1      43.666  35.043  27.993  1.00  0.00    -0.205 F 
ATOM     87  C   UNL A   1      45.510  36.493  30.805  1.00  0.00     0.022 A 
BRANCH  85  88
ATOM     88  S   UNL A   1      44.804  37.831  28.505  1.00  0.00     0.127 S 
ATOM     89  O   UNL A   1      45.439  37.339  27.284  1.00  0.00    -0.237 OA
ATOM     90  O   UNL A   1      43.368  38.084  28.383  1.00  0.00    -0.237 OA
ATOM     91  O   UNL A   1      45.531  38.864  29.231  1.00  0.00    -0.744 OA
ENDBRANCH  85  88
ENDBRANCH  58  81
ENDBRANCH  32  33
ENDBRANCH  25  27
ENDBRANCH  24  25
ENDBRANCH  23  24
ENDBRANCH   1  23
TORSDOF 18
ENDMDL
MODEL 3
REMARK VINA RESULT:     -10.0      4.792      7.403
REMARK SMILES COc1ncnc(N2CCCC[C@H]2CC(=O)OCCOC(=O)c2ccc(-c3c4nc(c(-c5cccc(S(=O)(=O)[O-])c5F)c5ccc([nH]5)c(-c5cccc(S(=O)(=O)[O-])c5F)c5nc(c(-c6cccc(S(=O)(=O)[O-])c6F)c6ccc3[nH]6)C=C5)C=C4)cc2)c1[N+](=O)[O-]
REMARK SMILES IDX 18 1 17 2 15 3 16 4 14 5 13 6 8 7 9 8 10 9 12 10 11 11 7 12
REMARK SMILES IDX 3 13 4 14 86 15 5 16 6 17 2 18 1 19 87 20 88 21 89 22 19 23
REMARK SMILES IDX 20 24 21 25 22 26 23 27 24 28 85 29 25 30 84 31 26 32 27 33
REMARK SMILES IDX 28 34 78 35 29 36 83 37 77 38 79 39 30 40 82 41 76 42 75 43
REMARK SMILES IDX 31 45 63 46 43 47 62 48 44 49 47 50 61 51 80 52 45 53 46 54
REMARK SMILES IDX 60 56 81 57 48 58 32 59 33 60 41 61 34 62 36 63 42 64 35 65
REMARK SMILES IDX 37 66 38 67 39 68 40 69 64 70 65 71 73 72 66 73 68 74 74 75
REMARK SMILES IDX 67 76 69 77 70 78 71 79 72 80 49 81 50 82 58 83 51 84 53 85
REMARK SMILES IDX 59 86 52 87 54 88 55 89 56 90 57 91
REMARK H PARENT 79 44 47 55
REMARK Flexibility Score: inf
ROOT
ATOM      1  C   UNL A   1      35.663  21.049  24.688  1.00  0.00     0.274 C 
ENDROOT
BRANCH   1   2
ATOM      2  O   UNL A   1      35.032  22.313  24.390  1.00  0.00    -0.462 OA
BRANCH   2   3
ATOM      3  C   UNL A   1      35.538  22.977  23.325  1.00  0.00     0.307 C 
ATOM      4  O   UNL A   1      36.732  23.205  23.154  1.00  0.00    -0.252 OA
BRANCH   3   5
ATOM      5  C   UNL A   1      34.492  23.542  22.401  1.00  0.00     0.147 C 
BRANCH   5   6
ATOM      6  C   UNL A   1      33.088  23.887  22.959  1.00  0.00     0.095 C 
ATOM      7  N   UNL A   1      33.127  24.664  24.232  1.00  0.00    -0.347 N 
ATOM      8  C   UNL A   1      33.829  25.963  24.133  1.00  0.00     0.118 C 
ATOM      9  C   UNL A   1      33.251  26.848  23.020  1.00  0.00     0.022 C 
ATOM     10  C   UNL A   1      32.346  24.762  21.913  1.00  0.00     0.026 C 
ATOM     11  C   UNL A   1      33.051  26.105  21.700  1.00  0.00     0.004 C 
BRANCH   7  12
ATOM     12  C   UNL A   1      31.993  24.679  25.064  1.00  0.00     0.215 A 
ATOM     13  C   UNL A   1      30.480  23.915  26.753  1.00  0.00     0.299 A 
ATOM     14  N   UNL A   1      29.733  25.028  26.676  1.00  0.00    -0.196 NA
ATOM     15  C   UNL A   1      31.589  23.689  25.946  1.00  0.00     0.372 A 
ATOM     16  C   UNL A   1      30.155  25.925  25.789  1.00  0.00     0.228 A 
ATOM     17  N   UNL A   1      31.241  25.810  25.011  1.00  0.00    -0.212 NA
BRANCH  13  18
ATOM     18  O   UNL A   1      29.994  23.020  27.672  1.00  0.00    -0.476 OA
ATOM     19  C   UNL A   1      28.797  22.366  27.249  1.00  0.00     0.280 C 
ENDBRANCH  13  18
BRANCH  15  20
ATOM     20  N   UNL A   1      32.327  22.500  26.201  1.00  0.00     0.072 N 
ATOM     21  O   UNL A   1      33.115  22.523  27.159  1.00  0.00    -0.258 OA
ATOM     22  O   UNL A   1      31.969  21.485  25.585  1.00  0.00    -0.258 OA
ENDBRANCH  15  20
ENDBRANCH   7  12
ENDBRANCH   5   6
ENDBRANCH   3   5
ENDBRANCH   2   3
ENDBRANCH   1   2
BRANCH   1  23
ATOM     23  C   UNL A   1      36.791  21.128  25.734  1.00  0.00     0.275 C 
BRANCH  23  24
ATOM     24  O   UNL A   1      38.127  21.025  25.196  1.00  0.00    -0.458 OA
BRANCH  24  25
ATOM     25  C   UNL A   1      39.089  21.133  26.132  1.00  0.00     0.338 C 
ATOM     26  O   UNL A   1      39.615  20.205  26.732  1.00  0.00    -0.246 OA
BRANCH  25  27
ATOM     27  C   UNL A   1      39.611  22.476  26.346  1.00  0.00     0.060 A 
ATOM     28  C   UNL A   1      40.774  22.563  27.122  1.00  0.00     0.016 A 
ATOM     29  C   UNL A   1      38.906  23.617  25.970  1.00  0.00     0.016 A 
ATOM     30  C   UNL A   1      41.241  23.798  27.530  1.00  0.00     0.010 A 
ATOM     31  C   UNL A   1      39.391  24.866  26.363  1.00  0.00     0.010 A 
ATOM     32  C   UNL A   1      40.560  24.959  27.140  1.00  0.00    -0.014 A 
BRANCH  32  33
ATOM     33  C   UNL A   1      41.181  26.259  27.449  1.00  0.00     0.031 A 
ATOM     34  C   UNL A   1      40.504  27.261  28.327  1.00  0.00     0.074 A 
ATOM     35  C   UNL A   1      42.404  26.488  26.938  1.00  0.00     0.049 A 
ATOM     36  N   UNL A   1      40.960  28.408  28.756  1.00  0.00    -0.248 NA
ATOM     37  C   UNL A   1      39.141  26.944  28.783  1.00  0.00     0.031 C 
ATOM     38  C   UNL A   1      43.122  25.570  26.049  1.00  0.00     0.029 A 
ATOM     39  N   UNL A   1      43.259  27.544  27.090  1.00  0.00    -0.354 N 
ATOM     40  C   UNL A   1      39.934  28.971  29.500  1.00  0.00     0.074 A 
ATOM     41  C   UNL A   1      38.830  28.033  29.475  1.00  0.00     0.031 C 
ATOM     42  C   UNL A   1      44.312  26.101  25.739  1.00  0.00     0.029 A 
ATOM     43  C   UNL A   1      44.431  27.401  26.387  1.00  0.00     0.049 A 
ATOM     44  H   UNL A   1      43.055  28.330  27.648  1.00  0.00     0.167 HD
ATOM     45  C   UNL A   1      39.927  30.160  30.148  1.00  0.00     0.034 A 
ATOM     46  C   UNL A   1      45.485  28.230  26.278  1.00  0.00     0.034 A 
ATOM     47  C   UNL A   1      41.052  31.058  30.190  1.00  0.00     0.049 A 
ATOM     48  C   UNL A   1      45.470  29.509  27.061  1.00  0.00     0.074 A 
ATOM     49  C   UNL A   1      41.174  32.255  30.873  1.00  0.00     0.029 A 
ATOM     50  N   UNL A   1      42.248  30.861  29.514  1.00  0.00    -0.354 N 
ATOM     51  N   UNL A   1      44.548  29.960  27.877  1.00  0.00    -0.248 NA
ATOM     52  C   UNL A   1      46.647  30.377  26.937  1.00  0.00     0.031 C 
ATOM     53  C   UNL A   1      42.441  32.785  30.603  1.00  0.00     0.029 A 
ATOM     54  C   UNL A   1      43.109  31.917  29.753  1.00  0.00     0.049 A 
ATOM     55  H   UNL A   1      42.454  30.083  28.948  1.00  0.00     0.167 HD
ATOM     56  C   UNL A   1      45.030  31.167  28.365  1.00  0.00     0.074 A 
ATOM     57  C   UNL A   1      46.348  31.350  27.786  1.00  0.00     0.031 C 
ATOM     58  C   UNL A   1      44.428  32.059  29.189  1.00  0.00     0.034 A 
BRANCH  45  59
ATOM     59  C   UNL A   1      38.680  30.547  30.895  1.00  0.00     0.023 A 
ATOM     60  C   UNL A   1      38.580  30.258  32.270  1.00  0.00     0.012 A 
ATOM     61  C   UNL A   1      37.646  31.261  30.259  1.00  0.00     0.148 A 
ATOM     62  C   UNL A   1      37.461  30.662  33.000  1.00  0.00     0.002 A 
ATOM     63  C   UNL A   1      36.547  31.685  30.999  1.00  0.00     0.091 A 
ATOM     64  F   UNL A   1      37.750  31.503  28.945  1.00  0.00    -0.205 F 
ATOM     65  C   UNL A   1      36.452  31.383  32.367  1.00  0.00     0.022 A 
BRANCH  63  66
ATOM     66  S   UNL A   1      35.224  32.670  30.285  1.00  0.00     0.127 S 
ATOM     67  O   UNL A   1      34.804  31.830  29.164  1.00  0.00    -0.237 OA
ATOM     68  O   UNL A   1      34.261  32.741  31.386  1.00  0.00    -0.237 OA
ATOM     69  O   UNL A   1      35.825  33.945  29.924  1.00  0.00    -0.744 OA
ENDBRANCH  63  66
ENDBRANCH  45  59
BRANCH  46  70
ATOM     70  C   UNL A   1      46.646  27.824  25.442  1.00  0.00     0.023 A 
ATOM     71  C   UNL A   1      46.631  28.083  24.059  1.00  0.00     0.012 A 
ATOM     72  C   UNL A   1      47.804  27.271  26.023  1.00  0.00     0.148 A 
ATOM     73  C   UNL A   1      47.743  27.786  23.269  1.00  0.00     0.002 A 
ATOM     74  C   UNL A   1      48.929  27.033  25.241  1.00  0.00     0.091 A 
ATOM     75  F   UNL A   1      47.799  27.010  27.339  1.00  0.00    -0.205 F 
ATOM     76  C   UNL A   1      48.897  27.277  23.861  1.00  0.00     0.022 A 
BRANCH  74  77
ATOM     77  S   UNL A   1      50.484  26.537  25.990  1.00  0.00     0.127 S 
ATOM     78  O   UNL A   1      50.139  25.249  26.585  1.00  0.00    -0.237 OA
ATOM     79  O   UNL A   1      51.385  26.459  24.839  1.00  0.00    -0.237 OA
ATOM     80  O   UNL A   1      50.804  27.616  26.918  1.00  0.00    -0.744 OA
ENDBRANCH  74  77
ENDBRANCH  46  70
BRANCH  58  81
ATOM     81  C   UNL A   1      45.182  33.325  29.481  1.00  0.00     0.023 A 
ATOM     82  C   UNL A   1      46.055  33.359  30.587  1.00  0.00     0.012 A 
ATOM     83  C   UNL A   1      45.068  34.456  28.653  1.00  0.00     0.148 A 
ATOM     84  C   UNL A   1      46.782  34.511  30.881  1.00  0.00     0.002 A 
ATOM     85  C   UNL A   1      45.824  35.589  28.931  1.00  0.00     0.091 A 
ATOM     86  F   UNL A   1      44.212  34.416  27.621  1.00  0.00    -0.205 F 
ATOM     87  C   UNL A   1      46.675  35.622  30.048  1.00  0.00     0.022 A 
BRANCH  85  88
ATOM     88  S   UNL A   1      45.786  37.023  27.850  1.00  0.00     0.127 S 
ATOM     89  O   UNL A   1      46.392  36.496  26.629  1.00  0.00    -0.237 OA
ATOM     90  O   UNL A   1      44.355  37.311  27.744  1.00  0.00    -0.237 OA
ATOM     91  O   UNL A   1      46.549  38.049  28.550  1.00  0.00    -0.744 OA
ENDBRANCH  85  88
ENDBRANCH  58  81
ENDBRANCH  32  33
ENDBRANCH  25  27
ENDBRANCH  24  25
ENDBRANCH  23  24
ENDBRANCH   1  23
TORSDOF 18
ENDMDL
