MODEL 1
REMARK VINA RESULT:     -12.6      0.000      0.000
REMARK SMILES Cc1ccc(-c2c[nH]c(=O)cc2C(=O)OCCOC(=O)c2ccc(-c3c4nc(c(-c5cccc(S(=O)(=O)[O-])c5F)c5ccc([nH]5)c(-c5cccc(S(=O)(=O)[O-])c5F)c5nc(c(-c6cccc(S(=O)(=O)[O-])c6F)c6ccc3[nH]6)C=C5)C=C4)cc2)cc1Cl
REMARK SMILES IDX 17 1 16 2 15 3 13 4 14 5 12 6 6 7 7 8 8 9 11 10 9 11 10 13
REMARK SMILES IDX 5 14 1 15 2 16 3 17 85 18 4 19 84 20 86 21 18 22 19 23 20 24
REMARK SMILES IDX 21 25 22 26 83 27 23 28 82 29 24 30 25 31 26 32 76 33 27 34
REMARK SMILES IDX 81 35 75 36 77 37 28 38 80 39 74 40 73 41 29 43 61 44 41 45
REMARK SMILES IDX 60 46 42 47 45 48 59 49 78 50 43 51 44 52 58 54 79 55 46 56
REMARK SMILES IDX 30 57 31 58 39 59 32 60 34 61 40 62 33 63 35 64 36 65 37 66
REMARK SMILES IDX 38 67 62 68 63 69 71 70 64 71 66 72 72 73 65 74 67 75 68 76
REMARK SMILES IDX 69 77 70 78 47 79 48 80 56 81 49 82 51 83 57 84 50 85 52 86
REMARK SMILES IDX 53 87 54 88 55 89
REMARK H PARENT 8 12 77 42 45 53
REMARK Flexibility Score: inf
ROOT
ATOM      1  C   UNL A   1      31.563  29.733  26.064  1.00  0.00     0.275 C 
ENDROOT
BRANCH   1   2
ATOM      2  C   UNL A   1      31.632  28.557  27.031  1.00  0.00     0.275 C 
BRANCH   2   3
ATOM      3  O   UNL A   1      32.048  27.363  26.330  1.00  0.00    -0.458 OA
BRANCH   3   4
ATOM      4  C   UNL A   1      31.046  26.576  25.859  1.00  0.00     0.339 C 
ATOM      5  O   UNL A   1      30.273  25.919  26.540  1.00  0.00    -0.246 OA
BRANCH   4   6
ATOM      6  C   UNL A   1      31.047  26.535  24.378  1.00  0.00     0.074 A 
ATOM      7  C   UNL A   1      31.933  25.662  23.595  1.00  0.00     0.013 A 
ATOM      8  C   UNL A   1      32.068  25.921  22.283  1.00  0.00     0.095 A 
ATOM      9  N   UNL A   1      31.359  26.941  21.693  1.00  0.00    -0.328 N 
ATOM     10  C   UNL A   1      30.339  27.521  23.806  1.00  0.00     0.087 A 
ATOM     11  C   UNL A   1      30.480  27.761  22.355  1.00  0.00     0.248 A 
ATOM     12  H   UNL A   1      31.492  27.093  20.729  1.00  0.00     0.169 HD
ATOM     13  O   UNL A   1      29.871  28.673  21.808  1.00  0.00    -0.270 OA
BRANCH   7  14
ATOM     14  C   UNL A   1      32.834  24.668  24.198  1.00  0.00    -0.015 A 
ATOM     15  C   UNL A   1      35.945  20.571  25.046  1.00  0.00     0.046 C 
ATOM     16  C   UNL A   1      35.115  21.751  24.646  1.00  0.00    -0.032 A 
ATOM     17  C   UNL A   1      35.760  23.392  24.967  1.00  0.00     0.005 A 
ATOM     18  C   UNL A   1      33.443  21.610  24.155  1.00  0.00     0.044 A 
ATOM     19  C   UNL A   1      34.526  24.986  24.768  1.00  0.00     0.009 A 
ATOM     20  C   UNL A   1      32.353  22.987  23.933  1.00  0.00     0.029 A 
ATOM     21  Cl  UNL A   1      32.744  20.043  23.966  1.00  0.00    -0.084 Cl
ENDBRANCH   7  14
ENDBRANCH   4   6
ENDBRANCH   3   4
ENDBRANCH   2   3
ENDBRANCH   1   2
BRANCH   1  22
ATOM     22  O   UNL A   1      32.818  30.434  26.102  1.00  0.00    -0.458 OA
BRANCH  22  23
ATOM     23  C   UNL A   1      32.824  31.492  26.936  1.00  0.00     0.338 C 
ATOM     24  O   UNL A   1      31.964  32.351  27.053  1.00  0.00    -0.246 OA
BRANCH  23  25
ATOM     25  C   UNL A   1      33.978  31.450  27.834  1.00  0.00     0.060 A 
ATOM     26  C   UNL A   1      35.075  32.865  27.961  1.00  0.00     0.016 A 
ATOM     27  C   UNL A   1      34.639  29.856  28.149  1.00  0.00     0.016 A 
ATOM     28  C   UNL A   1      37.022  32.521  28.399  1.00  0.00     0.010 A 
ATOM     29  C   UNL A   1      36.330  29.572  28.604  1.00  0.00     0.010 A 
ATOM     30  C   UNL A   1      37.567  30.837  28.756  1.00  0.00    -0.014 A 
BRANCH  30  31
ATOM     31  C   UNL A   1      38.886  30.528  29.473  1.00  0.00     0.031 A 
ATOM     32  C   UNL A   1      39.855  29.488  28.913  1.00  0.00     0.074 A 
ATOM     33  C   UNL A   1      39.168  31.005  30.715  1.00  0.00     0.049 A 
ATOM     34  N   UNL A   1      40.810  28.819  29.520  1.00  0.00    -0.248 NA
ATOM     35  C   UNL A   1      39.700  29.111  27.502  1.00  0.00     0.031 C 
ATOM     36  C   UNL A   1      38.394  31.970  31.482  1.00  0.00     0.029 A 
ATOM     37  N   UNL A   1      40.185  30.689  31.604  1.00  0.00    -0.354 N 
ATOM     38  C   UNL A   1      41.279  27.879  28.602  1.00  0.00     0.074 A 
ATOM     39  C   UNL A   1      40.453  28.022  27.421  1.00  0.00     0.031 C 
ATOM     40  C   UNL A   1      38.912  32.163  32.692  1.00  0.00     0.029 A 
ATOM     41  C   UNL A   1      40.045  31.287  32.845  1.00  0.00     0.049 A 
ATOM     42  H   UNL A   1      40.934  30.094  31.375  1.00  0.00     0.167 HD
ATOM     43  C   UNL A   1      42.334  27.026  28.688  1.00  0.00     0.034 A 
ATOM     44  C   UNL A   1      40.699  31.173  34.016  1.00  0.00     0.034 A 
ATOM     45  C   UNL A   1      43.269  27.011  29.786  1.00  0.00     0.049 A 
ATOM     46  C   UNL A   1      41.907  30.307  34.068  1.00  0.00     0.074 A 
ATOM     47  C   UNL A   1      44.462  26.314  29.895  1.00  0.00     0.029 A 
ATOM     48  N   UNL A   1      43.139  27.752  30.951  1.00  0.00    -0.354 N 
ATOM     49  N   UNL A   1      42.368  29.502  33.147  1.00  0.00    -0.248 NA
ATOM     50  C   UNL A   1      42.729  30.394  35.279  1.00  0.00     0.031 C 
ATOM     51  C   UNL A   1      45.049  26.631  31.126  1.00  0.00     0.029 A 
ATOM     52  C   UNL A   1      44.233  27.542  31.775  1.00  0.00     0.049 A 
ATOM     53  H   UNL A   1      42.380  28.342  31.162  1.00  0.00     0.167 HD
ATOM     54  C   UNL A   1      43.574  29.032  33.638  1.00  0.00     0.074 A 
ATOM     55  C   UNL A   1      43.766  29.644  34.938  1.00  0.00     0.031 C 
ATOM     56  C   UNL A   1      44.442  28.176  33.050  1.00  0.00     0.034 A 
BRANCH  43  57
ATOM     57  C   UNL A   1      42.603  26.099  27.516  1.00  0.00     0.023 A 
ATOM     58  C   UNL A   1      43.367  26.554  26.421  1.00  0.00     0.012 A 
ATOM     59  C   UNL A   1      42.138  24.765  27.511  1.00  0.00     0.148 A 
ATOM     60  C   UNL A   1      43.596  25.737  25.313  1.00  0.00     0.002 A 
ATOM     61  C   UNL A   1      42.419  23.937  26.426  1.00  0.00     0.091 A 
ATOM     62  F   UNL A   1      41.423  24.332  28.558  1.00  0.00    -0.205 F 
ATOM     63  C   UNL A   1      43.126  24.428  25.318  1.00  0.00     0.022 A 
BRANCH  61  64
ATOM     64  S   UNL A   1      41.945  22.203  26.368  1.00  0.00     0.127 S 
ATOM     65  O   UNL A   1      42.492  21.706  27.631  1.00  0.00    -0.237 OA
ATOM     66  O   UNL A   1      40.485  22.283  26.328  1.00  0.00    -0.237 OA
ATOM     67  O   UNL A   1      42.557  21.659  25.165  1.00  0.00    -0.744 OA
ENDBRANCH  61  64
ENDBRANCH  43  57
BRANCH  44  68
ATOM     68  C   UNL A   1      40.283  32.021  35.175  1.00  0.00     0.023 A 
ATOM     69  C   UNL A   1      40.736  33.353  35.238  1.00  0.00     0.012 A 
ATOM     70  C   UNL A   1      39.359  31.563  36.137  1.00  0.00     0.148 A 
ATOM     71  C   UNL A   1      40.300  34.207  36.251  1.00  0.00     0.002 A 
ATOM     72  C   UNL A   1      38.894  32.433  37.119  1.00  0.00     0.091 A 
ATOM     73  F   UNL A   1      38.923  30.298  36.048  1.00  0.00    -0.205 F 
ATOM     74  C   UNL A   1      39.373  33.751  37.184  1.00  0.00     0.022 A 
BRANCH  72  75
ATOM     75  S   UNL A   1      37.606  31.978  38.289  1.00  0.00     0.127 S 
ATOM     76  O   UNL A   1      38.290  32.158  39.568  1.00  0.00    -0.237 OA
ATOM     77  O   UNL A   1      36.568  32.969  38.002  1.00  0.00    -0.237 OA
ATOM     78  O   UNL A   1      37.238  30.609  37.955  1.00  0.00    -0.744 OA
ENDBRANCH  72  75
ENDBRANCH  44  68
BRANCH  56  79
ATOM     79  C   UNL A   1      45.717  27.896  33.791  1.00  0.00     0.023 A 
ATOM     80  C   UNL A   1      46.851  28.704  33.577  1.00  0.00     0.012 A 
ATOM     81  C   UNL A   1      45.781  26.836  34.714  1.00  0.00     0.148 A 
ATOM     82  C   UNL A   1      48.045  28.434  34.244  1.00  0.00     0.002 A 
ATOM     83  C   UNL A   1      46.956  26.608  35.416  1.00  0.00     0.091 A 
ATOM     84  F   UNL A   1      44.697  26.061  34.875  1.00  0.00    -0.205 F 
ATOM     85  C   UNL A   1      48.093  27.395  35.171  1.00  0.00     0.022 A 
BRANCH  83  86
ATOM     86  S   UNL A   1      47.079  25.357  36.697  1.00  0.00     0.127 S 
ATOM     87  O   UNL A   1      48.456  25.531  37.155  1.00  0.00    -0.237 OA
ATOM     88  O   UNL A   1      46.057  25.791  37.650  1.00  0.00    -0.237 OA
ATOM     89  O   UNL A   1      46.794  24.085  36.045  1.00  0.00    -0.744 OA
ENDBRANCH  83  86
ENDBRANCH  56  79
ENDBRANCH  30  31
ENDBRANCH  23  25
ENDBRANCH  22  23
ENDBRANCH   1  22
TORSDOF 15
ENDMDL
MODEL 2
REMARK VINA RESULT:     -12.5      1.779      2.406
REMARK SMILES Cc1ccc(-c2c[nH]c(=O)cc2C(=O)OCCOC(=O)c2ccc(-c3c4nc(c(-c5cccc(S(=O)(=O)[O-])c5F)c5ccc([nH]5)c(-c5cccc(S(=O)(=O)[O-])c5F)c5nc(c(-c6cccc(S(=O)(=O)[O-])c6F)c6ccc3[nH]6)C=C5)C=C4)cc2)cc1Cl
REMARK SMILES IDX 17 1 16 2 15 3 13 4 14 5 12 6 6 7 7 8 8 9 11 10 9 11 10 13
REMARK SMILES IDX 5 14 1 15 2 16 3 17 85 18 4 19 84 20 86 21 18 22 19 23 20 24
REMARK SMILES IDX 21 25 22 26 83 27 23 28 82 29 24 30 25 31 26 32 76 33 27 34
REMARK SMILES IDX 81 35 75 36 77 37 28 38 80 39 74 40 73 41 29 43 61 44 41 45
REMARK SMILES IDX 60 46 42 47 45 48 59 49 78 50 43 51 44 52 58 54 79 55 46 56
REMARK SMILES IDX 30 57 31 58 39 59 32 60 34 61 40 62 33 63 35 64 36 65 37 66
REMARK SMILES IDX 38 67 62 68 63 69 71 70 64 71 66 72 72 73 65 74 67 75 68 76
REMARK SMILES IDX 69 77 70 78 47 79 48 80 56 81 49 82 51 83 57 84 50 85 52 86
REMARK SMILES IDX 53 87 54 88 55 89
REMARK H PARENT 8 12 77 42 45 53
REMARK Flexibility Score: inf
ROOT
ATOM      1  C   UNL A   1      31.879  28.958  24.982  1.00  0.00     0.275 C 
ENDROOT
BRANCH   1   2
ATOM      2  C   UNL A   1      32.509  28.039  23.942  1.00  0.00     0.275 C 
BRANCH   2   3
ATOM      3  O   UNL A   1      32.896  26.789  24.555  1.00  0.00    -0.458 OA
BRANCH   3   4
ATOM      4  C   UNL A   1      32.220  25.690  24.130  1.00  0.00     0.339 C 
ATOM      5  O   UNL A   1      32.102  25.328  22.969  1.00  0.00    -0.246 OA
BRANCH   4   6
ATOM      6  C   UNL A   1      31.549  25.004  25.259  1.00  0.00     0.074 A 
ATOM      7  C   UNL A   1      31.973  23.695  25.776  1.00  0.00     0.013 A 
ATOM      8  C   UNL A   1      31.124  23.035  26.582  1.00  0.00     0.095 A 
ATOM      9  N   UNL A   1      29.921  23.596  26.945  1.00  0.00    -0.328 N 
ATOM     10  C   UNL A   1      30.385  25.565  25.622  1.00  0.00     0.087 A 
ATOM     11  C   UNL A   1      29.487  24.832  26.538  1.00  0.00     0.248 A 
ATOM     12  H   UNL A   1      29.332  23.074  27.536  1.00  0.00     0.169 HD
ATOM     13  O   UNL A   1      28.403  25.303  26.864  1.00  0.00    -0.270 OA
BRANCH   7  14
ATOM     14  C   UNL A   1      33.165  22.980  25.296  1.00  0.00    -0.015 A 
ATOM     15  C   UNL A   1      37.768  20.556  24.956  1.00  0.00     0.046 C 
ATOM     16  C   UNL A   1      36.432  21.181  25.206  1.00  0.00    -0.032 A 
ATOM     17  C   UNL A   1      34.967  20.314  24.645  1.00  0.00     0.005 A 
ATOM     18  C   UNL A   1      36.246  22.833  25.751  1.00  0.00     0.044 A 
ATOM     19  C   UNL A   1      33.190  21.286  24.648  1.00  0.00     0.009 A 
ATOM     20  C   UNL A   1      34.702  23.694  25.804  1.00  0.00     0.029 A 
ATOM     21  Cl  UNL A   1      37.648  23.749  26.173  1.00  0.00    -0.084 Cl
ENDBRANCH   7  14
ENDBRANCH   4   6
ENDBRANCH   3   4
ENDBRANCH   2   3
ENDBRANCH   1   2
BRANCH   1  22
ATOM     22  O   UNL A   1      32.756  30.076  25.200  1.00  0.00    -0.458 OA
BRANCH  22  23
ATOM     23  C   UNL A   1      32.427  30.827  26.269  1.00  0.00     0.338 C 
ATOM     24  O   UNL A   1      31.361  31.381  26.487  1.00  0.00    -0.246 OA
BRANCH  23  25
ATOM     25  C   UNL A   1      33.493  30.817  27.270  1.00  0.00     0.060 A 
ATOM     26  C   UNL A   1      34.410  32.318  27.626  1.00  0.00     0.016 A 
ATOM     27  C   UNL A   1      34.297  29.276  27.511  1.00  0.00     0.016 A 
ATOM     28  C   UNL A   1      36.337  32.135  28.223  1.00  0.00     0.010 A 
ATOM     29  C   UNL A   1      35.961  29.125  28.105  1.00  0.00     0.010 A 
ATOM     30  C   UNL A   1      37.031  30.490  28.487  1.00  0.00    -0.014 A 
BRANCH  30  31
ATOM     31  C   UNL A   1      38.307  30.251  29.302  1.00  0.00     0.031 A 
ATOM     32  C   UNL A   1      39.388  29.296  28.799  1.00  0.00     0.074 A 
ATOM     33  C   UNL A   1      38.455  30.708  30.575  1.00  0.00     0.049 A 
ATOM     34  N   UNL A   1      40.336  28.676  29.466  1.00  0.00    -0.248 NA
ATOM     35  C   UNL A   1      39.374  28.951  27.371  1.00  0.00     0.031 C 
ATOM     36  C   UNL A   1      37.556  31.595  31.299  1.00  0.00     0.029 A 
ATOM     37  N   UNL A   1      39.416  30.436  31.536  1.00  0.00    -0.354 N 
ATOM     38  C   UNL A   1      40.943  27.798  28.567  1.00  0.00     0.074 A 
ATOM     39  C   UNL A   1      40.206  27.919  27.326  1.00  0.00     0.031 C 
ATOM     40  C   UNL A   1      37.960  31.787  32.551  1.00  0.00     0.029 A 
ATOM     41  C   UNL A   1      39.136  30.986  32.775  1.00  0.00     0.049 A 
ATOM     42  H   UNL A   1      40.222  29.901  31.356  1.00  0.00     0.167 HD
ATOM     43  C   UNL A   1      42.045  27.017  28.719  1.00  0.00     0.034 A 
ATOM     44  C   UNL A   1      39.700  30.882  33.993  1.00  0.00     0.034 A 
ATOM     45  C   UNL A   1      42.888  27.033  29.889  1.00  0.00     0.049 A 
ATOM     46  C   UNL A   1      40.958  30.100  34.123  1.00  0.00     0.074 A 
ATOM     47  C   UNL A   1      44.114  26.416  30.078  1.00  0.00     0.029 A 
ATOM     48  N   UNL A   1      42.613  27.728  31.057  1.00  0.00    -0.354 N 
ATOM     49  N   UNL A   1      41.547  29.356  33.224  1.00  0.00    -0.248 NA
ATOM     50  C   UNL A   1      41.672  30.207  35.399  1.00  0.00     0.031 C 
ATOM     51  C   UNL A   1      44.577  26.736  31.361  1.00  0.00     0.029 A 
ATOM     52  C   UNL A   1      43.650  27.569  31.963  1.00  0.00     0.049 A 
ATOM     53  H   UNL A   1      41.800  28.258  31.219  1.00  0.00     0.167 HD
ATOM     54  C   UNL A   1      42.740  28.955  33.800  1.00  0.00     0.074 A 
ATOM     55  C   UNL A   1      42.784  29.540  35.126  1.00  0.00     0.031 C 
ATOM     56  C   UNL A   1      43.711  28.178  33.266  1.00  0.00     0.034 A 
BRANCH  43  57
ATOM     57  C   UNL A   1      42.471  26.146  27.551  1.00  0.00     0.023 A 
ATOM     58  C   UNL A   1      43.318  26.673  26.553  1.00  0.00     0.012 A 
ATOM     59  C   UNL A   1      42.073  24.794  27.457  1.00  0.00     0.148 A 
ATOM     60  C   UNL A   1      43.694  25.908  25.448  1.00  0.00     0.002 A 
ATOM     61  C   UNL A   1      42.498  24.019  26.380  1.00  0.00     0.091 A 
ATOM     62  F   UNL A   1      41.279  24.292  28.413  1.00  0.00    -0.205 F 
ATOM     63  C   UNL A   1      43.287  24.580  25.365  1.00  0.00     0.022 A 
BRANCH  61  64
ATOM     64  S   UNL A   1      42.115  22.268  26.220  1.00  0.00     0.127 S 
ATOM     65  O   UNL A   1      42.843  21.918  25.001  1.00  0.00    -0.237 OA
ATOM     66  O   UNL A   1      42.684  21.715  27.449  1.00  0.00    -0.237 OA
ATOM     67  O   UNL A   1      40.665  22.181  26.129  1.00  0.00    -0.744 OA
ENDBRANCH  61  64
ENDBRANCH  43  57
BRANCH  44  68
ATOM     68  C   UNL A   1      39.134  31.665  35.134  1.00  0.00     0.023 A 
ATOM     69  C   UNL A   1      38.257  31.022  36.029  1.00  0.00     0.012 A 
ATOM     70  C   UNL A   1      39.544  32.987  35.405  1.00  0.00     0.148 A 
ATOM     71  C   UNL A   1      37.777  31.685  37.157  1.00  0.00     0.002 A 
ATOM     72  C   UNL A   1      39.096  33.628  36.557  1.00  0.00     0.091 A 
ATOM     73  F   UNL A   1      40.396  33.576  34.553  1.00  0.00    -0.205 F 
ATOM     74  C   UNL A   1      38.204  32.983  37.427  1.00  0.00     0.022 A 
BRANCH  72  75
ATOM     75  S   UNL A   1      39.688  35.251  37.056  1.00  0.00     0.127 S 
ATOM     76  O   UNL A   1      39.279  36.078  35.923  1.00  0.00    -0.237 OA
ATOM     77  O   UNL A   1      38.935  35.485  38.289  1.00  0.00    -0.237 OA
ATOM     78  O   UNL A   1      41.124  35.105  37.247  1.00  0.00    -0.744 OA
ENDBRANCH  72  75
ENDBRANCH  44  68
BRANCH  56  79
ATOM     79  C   UNL A   1      44.938  27.964  34.101  1.00  0.00     0.023 A 
ATOM     80  C   UNL A   1      45.971  28.921  34.098  1.00  0.00     0.012 A 
ATOM     81  C   UNL A   1      45.056  26.814  34.904  1.00  0.00     0.148 A 
ATOM     82  C   UNL A   1      47.124  28.716  34.854  1.00  0.00     0.002 A 
ATOM     83  C   UNL A   1      46.182  26.644  35.697  1.00  0.00     0.091 A 
ATOM     84  F   UNL A   1      44.074  25.901  34.863  1.00  0.00    -0.205 F 
ATOM     85  C   UNL A   1      47.224  27.585  35.662  1.00  0.00     0.022 A 
BRANCH  83  86
ATOM     86  S   UNL A   1      46.352  25.269  36.838  1.00  0.00     0.127 S 
ATOM     87  O   UNL A   1      46.352  24.124  35.929  1.00  0.00    -0.237 OA
ATOM     88  O   UNL A   1      47.641  25.550  37.469  1.00  0.00    -0.237 OA
ATOM     89  O   UNL A   1      45.209  25.350  37.739  1.00  0.00    -0.744 OA
ENDBRANCH  83  86
ENDBRANCH  56  79
ENDBRANCH  30  31
ENDBRANCH  23  25
ENDBRANCH  22  23
ENDBRANCH   1  22
TORSDOF 15
ENDMDL
MODEL 3
REMARK VINA RESULT:     -12.4      5.137      9.643
REMARK SMILES Cc1ccc(-c2c[nH]c(=O)cc2C(=O)OCCOC(=O)c2ccc(-c3c4nc(c(-c5cccc(S(=O)(=O)[O-])c5F)c5ccc([nH]5)c(-c5cccc(S(=O)(=O)[O-])c5F)c5nc(c(-c6cccc(S(=O)(=O)[O-])c6F)c6ccc3[nH]6)C=C5)C=C4)cc2)cc1Cl
REMARK SMILES IDX 17 1 16 2 15 3 13 4 14 5 12 6 6 7 7 8 8 9 11 10 9 11 10 13
REMARK SMILES IDX 5 14 1 15 2 16 3 17 85 18 4 19 84 20 86 21 18 22 19 23 20 24
REMARK SMILES IDX 21 25 22 26 83 27 23 28 82 29 24 30 25 31 26 32 76 33 27 34
REMARK SMILES IDX 81 35 75 36 77 37 28 38 80 39 74 40 73 41 29 43 61 44 41 45
REMARK SMILES IDX 60 46 42 47 45 48 59 49 78 50 43 51 44 52 58 54 79 55 46 56
REMARK SMILES IDX 30 57 31 58 39 59 32 60 34 61 40 62 33 63 35 64 36 65 37 66
REMARK SMILES IDX 38 67 62 68 63 69 71 70 64 71 66 72 72 73 65 74 67 75 68 76
REMARK SMILES IDX 69 77 70 78 47 79 48 80 56 81 49 82 51 83 57 84 50 85 52 86
REMARK SMILES IDX 53 87 54 88 55 89
REMARK H PARENT 8 12 77 42 45 53
REMARK Flexibility Score: inf
ROOT
ATOM      1  C   UNL A   1      35.043  21.463  26.548  1.00  0.00     0.275 C 
ENDROOT
BRANCH   1   2
ATOM      2  C   UNL A   1      34.258  22.697  26.978  1.00  0.00     0.275 C 
BRANCH   2   3
ATOM      3  O   UNL A   1      32.839  22.438  26.891  1.00  0.00    -0.458 OA
BRANCH   3   4
ATOM      4  C   UNL A   1      32.125  23.310  26.132  1.00  0.00     0.339 C 
ATOM      5  O   UNL A   1      31.266  24.076  26.542  1.00  0.00    -0.246 OA
BRANCH   4   6
ATOM      6  C   UNL A   1      32.455  23.166  24.695  1.00  0.00     0.074 A 
ATOM      7  C   UNL A   1      32.791  24.302  23.826  1.00  0.00     0.013 A 
ATOM      8  C   UNL A   1      32.772  24.101  22.497  1.00  0.00     0.095 A 
ATOM      9  N   UNL A   1      32.494  22.857  21.979  1.00  0.00    -0.328 N 
ATOM     10  C   UNL A   1      32.199  21.945  24.198  1.00  0.00     0.087 A 
ATOM     11  C   UNL A   1      32.219  21.745  22.735  1.00  0.00     0.248 A 
ATOM     12  H   UNL A   1      32.490  22.759  21.000  1.00  0.00     0.169 HD
ATOM     13  O   UNL A   1      31.960  20.650  22.248  1.00  0.00    -0.270 OA
BRANCH   7  14
ATOM     14  C   UNL A   1      32.936  25.682  24.313  1.00  0.00    -0.015 A 
ATOM     15  C   UNL A   1      32.091  30.388  26.391  1.00  0.00     0.046 C 
ATOM     16  C   UNL A   1      32.230  28.977  25.912  1.00  0.00    -0.032 A 
ATOM     17  C   UNL A   1      33.571  27.984  26.566  1.00  0.00     0.005 A 
ATOM     18  C   UNL A   1      31.336  28.348  24.547  1.00  0.00     0.044 A 
ATOM     19  C   UNL A   1      33.996  26.210  25.687  1.00  0.00     0.009 A 
ATOM     20  C   UNL A   1      31.657  26.784  23.784  1.00  0.00     0.029 A 
ATOM     21  Cl  UNL A   1      30.126  29.328  23.802  1.00  0.00    -0.084 Cl
ENDBRANCH   7  14
ENDBRANCH   4   6
ENDBRANCH   3   4
ENDBRANCH   2   3
ENDBRANCH   1   2
BRANCH   1  22
ATOM     22  O   UNL A   1      35.828  21.798  25.391  1.00  0.00    -0.458 OA
BRANCH  22  23
ATOM     23  C   UNL A   1      37.030  21.189  25.355  1.00  0.00     0.338 C 
ATOM     24  O   UNL A   1      37.268  20.035  25.035  1.00  0.00    -0.246 OA
BRANCH  23  25
ATOM     25  C   UNL A   1      38.109  22.135  25.635  1.00  0.00     0.060 A 
ATOM     26  C   UNL A   1      39.575  21.595  26.518  1.00  0.00     0.016 A 
ATOM     27  C   UNL A   1      37.631  23.817  25.772  1.00  0.00     0.016 A 
ATOM     28  C   UNL A   1      40.547  22.951  27.667  1.00  0.00     0.010 A 
ATOM     29  C   UNL A   1      38.531  25.016  26.722  1.00  0.00     0.010 A 
ATOM     30  C   UNL A   1      39.985  24.667  27.679  1.00  0.00    -0.014 A 
BRANCH  30  31
ATOM     31  C   UNL A   1      40.863  25.821  28.176  1.00  0.00     0.031 A 
ATOM     32  C   UNL A   1      40.254  26.986  28.955  1.00  0.00     0.074 A 
ATOM     33  C   UNL A   1      42.160  25.968  27.792  1.00  0.00     0.049 A 
ATOM     34  N   UNL A   1      40.715  28.203  29.140  1.00  0.00    -0.248 NA
ATOM     35  C   UNL A   1      38.933  26.776  29.563  1.00  0.00     0.031 C 
ATOM     36  C   UNL A   1      42.958  25.028  27.019  1.00  0.00     0.029 A 
ATOM     37  N   UNL A   1      43.045  27.022  27.956  1.00  0.00    -0.354 N 
ATOM     38  C   UNL A   1      39.700  28.917  29.778  1.00  0.00     0.074 A 
ATOM     39  C   UNL A   1      38.575  28.012  29.882  1.00  0.00     0.031 C 
ATOM     40  C   UNL A   1      44.168  25.514  26.755  1.00  0.00     0.029 A 
ATOM     41  C   UNL A   1      44.245  26.850  27.286  1.00  0.00     0.049 A 
ATOM     42  H   UNL A   1      42.841  27.818  28.496  1.00  0.00     0.167 HD
ATOM     43  C   UNL A   1      39.710  30.175  30.294  1.00  0.00     0.034 A 
ATOM     44  C   UNL A   1      45.312  27.640  27.063  1.00  0.00     0.034 A 
ATOM     45  C   UNL A   1      40.884  31.010  30.357  1.00  0.00     0.049 A 
ATOM     46  C   UNL A   1      45.348  28.977  27.713  1.00  0.00     0.074 A 
ATOM     47  C   UNL A   1      41.047  32.222  31.008  1.00  0.00     0.029 A 
ATOM     48  N   UNL A   1      42.107  30.707  29.777  1.00  0.00    -0.354 N 
ATOM     49  N   UNL A   1      44.401  29.579  28.383  1.00  0.00    -0.248 NA
ATOM     50  C   UNL A   1      46.619  29.707  27.650  1.00  0.00     0.031 C 
ATOM     51  C   UNL A   1      42.367  32.652  30.819  1.00  0.00     0.029 A 
ATOM     52  C   UNL A   1      43.031  31.698  30.068  1.00  0.00     0.049 A 
ATOM     53  H   UNL A   1      42.292  29.905  29.238  1.00  0.00     0.167 HD
ATOM     54  C   UNL A   1      44.978  30.734  28.882  1.00  0.00     0.074 A 
ATOM     55  C   UNL A   1      46.357  30.743  28.433  1.00  0.00     0.031 C 
ATOM     56  C   UNL A   1      44.409  31.691  29.652  1.00  0.00     0.034 A 
BRANCH  43  57
ATOM     57  C   UNL A   1      38.434  30.697  30.932  1.00  0.00     0.023 A 
ATOM     58  C   UNL A   1      38.205  30.497  32.310  1.00  0.00     0.012 A 
ATOM     59  C   UNL A   1      37.480  31.421  30.184  1.00  0.00     0.148 A 
ATOM     60  C   UNL A   1      37.024  30.931  32.914  1.00  0.00     0.002 A 
ATOM     61  C   UNL A   1      36.329  31.900  30.806  1.00  0.00     0.091 A 
ATOM     62  F   UNL A   1      37.707  31.619  28.878  1.00  0.00    -0.205 F 
ATOM     63  C   UNL A   1      36.089  31.636  32.163  1.00  0.00     0.022 A 
BRANCH  61  64
ATOM     64  S   UNL A   1      35.102  32.905  29.957  1.00  0.00     0.127 S 
ATOM     65  O   UNL A   1      34.595  31.967  28.956  1.00  0.00    -0.237 OA
ATOM     66  O   UNL A   1      34.160  33.213  31.033  1.00  0.00    -0.237 OA
ATOM     67  O   UNL A   1      35.820  34.056  29.429  1.00  0.00    -0.744 OA
ENDBRANCH  61  64
ENDBRANCH  43  57
BRANCH  44  68
ATOM     68  C   UNL A   1      46.478  27.100  26.300  1.00  0.00     0.023 A 
ATOM     69  C   UNL A   1      46.530  27.303  24.907  1.00  0.00     0.012 A 
ATOM     70  C   UNL A   1      47.579  26.501  26.947  1.00  0.00     0.148 A 
ATOM     71  C   UNL A   1      47.641  26.898  24.168  1.00  0.00     0.002 A 
ATOM     72  C   UNL A   1      48.703  26.140  26.210  1.00  0.00     0.091 A 
ATOM     73  F   UNL A   1      47.521  26.335  28.277  1.00  0.00    -0.205 F 
ATOM     74  C   UNL A   1      48.730  26.326  24.820  1.00  0.00     0.022 A 
BRANCH  72  75
ATOM     75  S   UNL A   1      50.205  25.512  26.976  1.00  0.00     0.127 S 
ATOM     76  O   UNL A   1      51.090  25.373  25.821  1.00  0.00    -0.237 OA
ATOM     77  O   UNL A   1      50.557  26.598  27.892  1.00  0.00    -0.237 OA
ATOM     78  O   UNL A   1      49.822  24.271  27.634  1.00  0.00    -0.744 OA
ENDBRANCH  72  75
ENDBRANCH  44  68
BRANCH  56  79
ATOM     79  C   UNL A   1      45.303  32.806  30.109  1.00  0.00     0.023 A 
ATOM     80  C   UNL A   1      46.017  32.690  31.317  1.00  0.00     0.012 A 
ATOM     81  C   UNL A   1      45.444  33.966  29.325  1.00  0.00     0.148 A 
ATOM     82  C   UNL A   1      46.830  33.732  31.759  1.00  0.00     0.002 A 
ATOM     83  C   UNL A   1      46.298  34.977  29.744  1.00  0.00     0.091 A 
ATOM     84  F   UNL A   1      44.727  34.067  28.196  1.00  0.00    -0.205 F 
ATOM     85  C   UNL A   1      46.980  34.869  30.967  1.00  0.00     0.022 A 
BRANCH  83  86
ATOM     86  S   UNL A   1      46.626  36.430  28.743  1.00  0.00     0.127 S 
ATOM     87  O   UNL A   1      47.800  36.993  29.407  1.00  0.00    -0.237 OA
ATOM     88  O   UNL A   1      46.889  35.844  27.428  1.00  0.00    -0.237 OA
ATOM     89  O   UNL A   1      45.420  37.245  28.810  1.00  0.00    -0.744 OA
ENDBRANCH  83  86
ENDBRANCH  56  79
ENDBRANCH  30  31
ENDBRANCH  23  25
ENDBRANCH  22  23
ENDBRANCH   1  22
TORSDOF 15
ENDMDL
