MODEL 1
REMARK VINA RESULT:     -12.2      0.000      0.000
REMARK SMILES Cc1cccc(-c2cccc(C(=O)OCCOC(=O)c3ccc(-c4c5nc(c(-c6cccc(S(=O)(=O)[O-])c6F)c6ccc([nH]6)c(-c6cccc(S(=O)(=O)[O-])c6F)c6nc(c(-c7cccc(S(=O)(=O)[O-])c7F)c7ccc4[nH]7)C=C6)C=C5)cc3)c2)c1
REMARK SMILES IDX 16 1 15 2 14 3 12 4 13 5 11 6 7 7 8 8 83 9 9 10 10 11 6 12
REMARK SMILES IDX 1 13 2 14 3 15 84 16 4 17 5 18 17 19 18 20 19 21 20 22 21 23
REMARK SMILES IDX 82 24 22 25 81 26 23 27 24 28 25 29 75 30 26 31 80 32 74 33
REMARK SMILES IDX 76 34 27 35 79 36 73 37 72 38 28 40 60 41 40 42 59 43 41 44
REMARK SMILES IDX 44 45 58 46 77 47 42 48 43 49 57 51 78 52 45 53 29 54 30 55
REMARK SMILES IDX 38 56 31 57 33 58 39 59 32 60 34 61 35 62 36 63 37 64 61 65
REMARK SMILES IDX 62 66 70 67 63 68 65 69 71 70 64 71 66 72 67 73 68 74 69 75
REMARK SMILES IDX 46 76 47 77 55 78 48 79 50 80 56 81 49 82 51 83 52 84 53 85
REMARK SMILES IDX 54 86
REMARK H PARENT 76 39 44 50
REMARK Flexibility Score: inf
ROOT
ATOM      1  C   UNL A   1      44.098  19.080  24.844  1.00  0.00     0.275 C 
ENDROOT
BRANCH   1   2
ATOM      2  C   UNL A   1      42.842  19.111  25.729  1.00  0.00     0.275 C 
BRANCH   2   3
ATOM      3  O   UNL A   1      42.036  20.306  25.647  1.00  0.00    -0.458 OA
BRANCH   3   4
ATOM      4  C   UNL A   1      41.245  20.419  26.755  1.00  0.00     0.338 C 
ATOM      5  O   UNL A   1      41.274  19.607  27.677  1.00  0.00    -0.246 OA
BRANCH   4   6
ATOM      6  C   UNL A   1      40.272  21.557  26.801  1.00  0.00     0.060 A 
ATOM      7  C   UNL A   1      38.363  22.924  26.052  1.00  0.00    -0.018 A 
ATOM      8  C   UNL A   1      38.841  23.953  26.891  1.00  0.00     0.009 A 
ATOM      9  C   UNL A   1      39.075  21.691  26.065  1.00  0.00     0.024 A 
ATOM     10  C   UNL A   1      39.994  23.816  27.651  1.00  0.00     0.002 A 
ATOM     11  C   UNL A   1      40.710  22.632  27.591  1.00  0.00     0.016 A 
BRANCH   7  12
ATOM     12  C   UNL A   1      37.185  23.225  25.182  1.00  0.00    -0.018 A 
ATOM     13  C   UNL A   1      33.992  25.372  25.408  1.00  0.00     0.044 C 
ATOM     14  C   UNL A   1      35.023  24.413  24.888  1.00  0.00    -0.051 A 
ATOM     15  C   UNL A   1      34.841  23.775  23.663  1.00  0.00     0.003 A 
ATOM     16  C   UNL A   1      36.191  24.140  25.620  1.00  0.00     0.012 A 
ATOM     17  C   UNL A   1      35.818  22.903  23.181  1.00  0.00     0.001 A 
ATOM     18  C   UNL A   1      36.975  22.629  23.932  1.00  0.00     0.009 A 
ENDBRANCH   7  12
ENDBRANCH   4   6
ENDBRANCH   3   4
ENDBRANCH   2   3
ENDBRANCH   1   2
BRANCH   1  19
ATOM     19  O   UNL A   1      44.586  20.324  24.279  1.00  0.00    -0.458 OA
BRANCH  19  20
ATOM     20  C   UNL A   1      45.628  21.091  24.712  1.00  0.00     0.338 C 
ATOM     21  O   UNL A   1      46.779  20.731  24.627  1.00  0.00    -0.246 OA
BRANCH  20  22
ATOM     22  C   UNL A   1      45.271  22.395  25.285  1.00  0.00     0.060 A 
ATOM     23  C   UNL A   1      45.587  23.568  24.584  1.00  0.00     0.016 A 
ATOM     24  C   UNL A   1      44.527  22.422  26.457  1.00  0.00     0.016 A 
ATOM     25  C   UNL A   1      45.098  24.788  25.025  1.00  0.00     0.010 A 
ATOM     26  C   UNL A   1      43.901  23.588  26.798  1.00  0.00     0.010 A 
ATOM     27  C   UNL A   1      44.282  24.777  26.147  1.00  0.00    -0.014 A 
BRANCH  27  28
ATOM     28  C   UNL A   1      44.133  25.933  27.007  1.00  0.00     0.031 A 
ATOM     29  C   UNL A   1      42.950  26.787  26.957  1.00  0.00     0.074 A 
ATOM     30  C   UNL A   1      45.098  25.937  27.959  1.00  0.00     0.049 A 
ATOM     31  N   UNL A   1      42.906  27.950  27.500  1.00  0.00    -0.248 NA
ATOM     32  C   UNL A   1      41.724  26.436  26.247  1.00  0.00     0.031 C 
ATOM     33  C   UNL A   1      45.134  26.502  29.287  1.00  0.00     0.029 A 
ATOM     34  N   UNL A   1      46.371  25.355  27.814  1.00  0.00    -0.354 N 
ATOM     35  C   UNL A   1      41.577  28.316  27.548  1.00  0.00     0.074 A 
ATOM     36  C   UNL A   1      40.924  27.453  26.596  1.00  0.00     0.031 C 
ATOM     37  C   UNL A   1      46.411  26.477  29.726  1.00  0.00     0.029 A 
ATOM     38  C   UNL A   1      47.256  26.079  28.601  1.00  0.00     0.049 A 
ATOM     39  H   UNL A   1      46.595  24.575  27.255  1.00  0.00     0.167 HD
ATOM     40  C   UNL A   1      41.188  29.142  28.562  1.00  0.00     0.034 A 
ATOM     41  C   UNL A   1      48.256  26.813  28.021  1.00  0.00     0.034 A 
ATOM     42  C   UNL A   1      42.379  29.556  29.333  1.00  0.00     0.049 A 
ATOM     43  C   UNL A   1      47.987  28.297  28.238  1.00  0.00     0.074 A 
ATOM     44  C   UNL A   1      42.929  29.077  30.512  1.00  0.00     0.029 A 
ATOM     45  N   UNL A   1      43.375  30.313  28.721  1.00  0.00    -0.354 N 
ATOM     46  N   UNL A   1      46.847  28.780  28.650  1.00  0.00    -0.248 NA
ATOM     47  C   UNL A   1      48.966  29.344  27.978  1.00  0.00     0.031 C 
ATOM     48  C   UNL A   1      44.299  29.462  30.545  1.00  0.00     0.029 A 
ATOM     49  C   UNL A   1      44.579  30.200  29.407  1.00  0.00     0.049 A 
ATOM     50  H   UNL A   1      43.244  30.857  27.911  1.00  0.00     0.167 HD
ATOM     51  C   UNL A   1      46.880  30.142  28.648  1.00  0.00     0.074 A 
ATOM     52  C   UNL A   1      48.252  30.447  28.267  1.00  0.00     0.031 C 
ATOM     53  C   UNL A   1      45.769  30.896  28.918  1.00  0.00     0.034 A 
BRANCH  40  54
ATOM     54  C   UNL A   1      39.769  29.332  29.100  1.00  0.00     0.023 A 
ATOM     55  C   UNL A   1      38.768  29.611  28.136  1.00  0.00     0.012 A 
ATOM     56  C   UNL A   1      39.328  29.329  30.447  1.00  0.00     0.148 A 
ATOM     57  C   UNL A   1      37.449  29.933  28.474  1.00  0.00     0.002 A 
ATOM     58  C   UNL A   1      38.005  29.648  30.791  1.00  0.00     0.091 A 
ATOM     59  F   UNL A   1      40.171  29.006  31.428  1.00  0.00    -0.205 F 
ATOM     60  C   UNL A   1      37.067  29.963  29.805  1.00  0.00     0.022 A 
BRANCH  58  61
ATOM     61  S   UNL A   1      37.406  29.691  32.494  1.00  0.00     0.127 S 
ATOM     62  O   UNL A   1      36.050  30.219  32.330  1.00  0.00    -0.237 OA
ATOM     63  O   UNL A   1      37.462  28.281  32.882  1.00  0.00    -0.237 OA
ATOM     64  O   UNL A   1      38.311  30.563  33.232  1.00  0.00    -0.744 OA
ENDBRANCH  58  61
ENDBRANCH  40  54
BRANCH  41  65
ATOM     65  C   UNL A   1      48.769  26.239  26.718  1.00  0.00     0.023 A 
ATOM     66  C   UNL A   1      48.084  26.566  25.514  1.00  0.00     0.012 A 
ATOM     67  C   UNL A   1      50.088  25.773  26.618  1.00  0.00     0.148 A 
ATOM     68  C   UNL A   1      48.754  26.597  24.285  1.00  0.00     0.002 A 
ATOM     69  C   UNL A   1      50.758  25.846  25.400  1.00  0.00     0.091 A 
ATOM     70  F   UNL A   1      50.714  25.323  27.712  1.00  0.00    -0.205 F 
ATOM     71  C   UNL A   1      50.105  26.274  24.236  1.00  0.00     0.022 A 
BRANCH  69  72
ATOM     72  S   UNL A   1      52.546  25.664  25.389  1.00  0.00     0.127 S 
ATOM     73  O   UNL A   1      52.710  24.251  25.716  1.00  0.00    -0.237 OA
ATOM     74  O   UNL A   1      52.912  26.000  24.018  1.00  0.00    -0.237 OA
ATOM     75  O   UNL A   1      52.957  26.602  26.428  1.00  0.00    -0.744 OA
ENDBRANCH  69  72
ENDBRANCH  41  65
BRANCH  53  76
ATOM     76  C   UNL A   1      45.698  32.397  28.764  1.00  0.00     0.023 A 
ATOM     77  C   UNL A   1      45.743  33.271  29.865  1.00  0.00     0.012 A 
ATOM     78  C   UNL A   1      45.725  32.986  27.475  1.00  0.00     0.148 A 
ATOM     79  C   UNL A   1      45.716  34.659  29.702  1.00  0.00     0.002 A 
ATOM     80  C   UNL A   1      45.847  34.360  27.319  1.00  0.00     0.091 A 
ATOM     81  F   UNL A   1      45.610  32.219  26.382  1.00  0.00    -0.205 F 
ATOM     82  C   UNL A   1      45.792  35.203  28.428  1.00  0.00     0.022 A 
BRANCH  80  83
ATOM     83  S   UNL A   1      46.249  35.075  25.720  1.00  0.00     0.127 S 
ATOM     84  O   UNL A   1      46.394  36.490  26.049  1.00  0.00    -0.237 OA
ATOM     85  O   UNL A   1      47.502  34.395  25.384  1.00  0.00    -0.237 OA
ATOM     86  O   UNL A   1      45.133  34.728  24.850  1.00  0.00    -0.744 OA
ENDBRANCH  80  83
ENDBRANCH  53  76
ENDBRANCH  27  28
ENDBRANCH  20  22
ENDBRANCH  19  20
ENDBRANCH   1  19
TORSDOF 15
ENDMDL
MODEL 2
REMARK VINA RESULT:     -11.9      5.678     12.312
REMARK SMILES Cc1cccc(-c2cccc(C(=O)OCCOC(=O)c3ccc(-c4c5nc(c(-c6cccc(S(=O)(=O)[O-])c6F)c6ccc([nH]6)c(-c6cccc(S(=O)(=O)[O-])c6F)c6nc(c(-c7cccc(S(=O)(=O)[O-])c7F)c7ccc4[nH]7)C=C6)C=C5)cc3)c2)c1
REMARK SMILES IDX 16 1 15 2 14 3 12 4 13 5 11 6 7 7 8 8 83 9 9 10 10 11 6 12
REMARK SMILES IDX 1 13 2 14 3 15 84 16 4 17 5 18 17 19 18 20 19 21 20 22 21 23
REMARK SMILES IDX 82 24 22 25 81 26 23 27 24 28 25 29 75 30 26 31 80 32 74 33
REMARK SMILES IDX 76 34 27 35 79 36 73 37 72 38 28 40 60 41 40 42 59 43 41 44
REMARK SMILES IDX 44 45 58 46 77 47 42 48 43 49 57 51 78 52 45 53 29 54 30 55
REMARK SMILES IDX 38 56 31 57 33 58 39 59 32 60 34 61 35 62 36 63 37 64 61 65
REMARK SMILES IDX 62 66 70 67 63 68 65 69 71 70 64 71 66 72 67 73 68 74 69 75
REMARK SMILES IDX 46 76 47 77 55 78 48 79 50 80 56 81 49 82 51 83 52 84 53 85
REMARK SMILES IDX 54 86
REMARK H PARENT 76 39 44 50
REMARK Flexibility Score: inf
ROOT
ATOM      1  C   UNL A   1      32.807  36.121  30.996  1.00  0.00     0.275 C 
ENDROOT
BRANCH   1   2
ATOM      2  C   UNL A   1      32.744  35.751  29.506  1.00  0.00     0.275 C 
BRANCH   2   3
ATOM      3  O   UNL A   1      32.997  34.367  29.183  1.00  0.00    -0.458 OA
BRANCH   3   4
ATOM      4  C   UNL A   1      34.090  34.263  28.370  1.00  0.00     0.338 C 
ATOM      5  O   UNL A   1      34.683  35.244  27.927  1.00  0.00    -0.246 OA
BRANCH   4   6
ATOM      6  C   UNL A   1      34.532  32.889  27.973  1.00  0.00     0.060 A 
ATOM      7  C   UNL A   1      34.259  30.500  27.429  1.00  0.00    -0.018 A 
ATOM      8  C   UNL A   1      35.653  30.358  27.598  1.00  0.00     0.009 A 
ATOM      9  C   UNL A   1      33.717  31.808  27.569  1.00  0.00     0.024 A 
ATOM     10  C   UNL A   1      36.470  31.422  27.955  1.00  0.00     0.002 A 
ATOM     11  C   UNL A   1      35.908  32.671  28.156  1.00  0.00     0.016 A 
BRANCH   7  12
ATOM     12  C   UNL A   1      33.460  29.264  27.170  1.00  0.00    -0.018 A 
ATOM     13  C   UNL A   1      34.006  25.869  25.427  1.00  0.00     0.044 C 
ATOM     14  C   UNL A   1      33.339  26.999  26.158  1.00  0.00    -0.051 A 
ATOM     15  C   UNL A   1      31.995  26.913  26.513  1.00  0.00     0.003 A 
ATOM     16  C   UNL A   1      34.051  28.160  26.500  1.00  0.00     0.012 A 
ATOM     17  C   UNL A   1      31.393  27.960  27.213  1.00  0.00     0.001 A 
ATOM     18  C   UNL A   1      32.115  29.122  27.535  1.00  0.00     0.009 A 
ENDBRANCH   7  12
ENDBRANCH   4   6
ENDBRANCH   3   4
ENDBRANCH   2   3
ENDBRANCH   1   2
BRANCH   1  19
ATOM     19  O   UNL A   1      33.899  35.605  31.799  1.00  0.00    -0.458 OA
BRANCH  19  20
ATOM     20  C   UNL A   1      33.997  34.382  32.396  1.00  0.00     0.338 C 
ATOM     21  O   UNL A   1      33.058  33.846  32.937  1.00  0.00    -0.246 OA
BRANCH  20  22
ATOM     22  C   UNL A   1      35.317  33.741  32.336  1.00  0.00     0.060 A 
ATOM     23  C   UNL A   1      36.248  34.166  31.378  1.00  0.00     0.016 A 
ATOM     24  C   UNL A   1      35.644  32.806  33.310  1.00  0.00     0.016 A 
ATOM     25  C   UNL A   1      37.552  33.698  31.429  1.00  0.00     0.010 A 
ATOM     26  C   UNL A   1      36.959  32.476  33.471  1.00  0.00     0.010 A 
ATOM     27  C   UNL A   1      37.876  32.834  32.465  1.00  0.00    -0.014 A 
BRANCH  27  28
ATOM     28  C   UNL A   1      38.968  31.886  32.370  1.00  0.00     0.031 A 
ATOM     29  C   UNL A   1      38.826  30.609  31.679  1.00  0.00     0.074 A 
ATOM     30  C   UNL A   1      40.123  32.458  32.791  1.00  0.00     0.049 A 
ATOM     31  N   UNL A   1      39.669  29.649  31.807  1.00  0.00    -0.248 NA
ATOM     32  C   UNL A   1      37.695  30.270  30.820  1.00  0.00     0.031 C 
ATOM     33  C   UNL A   1      41.503  32.191  32.459  1.00  0.00     0.029 A 
ATOM     34  N   UNL A   1      40.206  33.501  33.731  1.00  0.00    -0.354 N 
ATOM     35  C   UNL A   1      39.412  28.755  30.787  1.00  0.00     0.074 A 
ATOM     36  C   UNL A   1      38.081  29.080  30.341  1.00  0.00     0.031 C 
ATOM     37  C   UNL A   1      42.287  32.840  33.347  1.00  0.00     0.029 A 
ATOM     38  C   UNL A   1      41.418  33.373  34.395  1.00  0.00     0.049 A 
ATOM     39  H   UNL A   1      39.527  34.197  33.890  1.00  0.00     0.167 HD
ATOM     40  C   UNL A   1      40.461  28.022  30.315  1.00  0.00     0.034 A 
ATOM     41  C   UNL A   1      41.447  33.061  35.728  1.00  0.00     0.034 A 
ATOM     42  C   UNL A   1      41.657  28.298  31.140  1.00  0.00     0.049 A 
ATOM     43  C   UNL A   1      42.031  31.665  35.910  1.00  0.00     0.074 A 
ATOM     44  C   UNL A   1      42.730  29.156  30.953  1.00  0.00     0.029 A 
ATOM     45  N   UNL A   1      41.663  27.959  32.491  1.00  0.00    -0.354 N 
ATOM     46  N   UNL A   1      42.196  30.811  34.938  1.00  0.00    -0.248 NA
ATOM     47  C   UNL A   1      42.440  31.120  37.198  1.00  0.00     0.031 C 
ATOM     48  C   UNL A   1      43.312  29.414  32.226  1.00  0.00     0.029 A 
ATOM     49  C   UNL A   1      42.617  28.695  33.185  1.00  0.00     0.049 A 
ATOM     50  H   UNL A   1      41.071  27.286  32.900  1.00  0.00     0.167 HD
ATOM     51  C   UNL A   1      42.640  29.619  35.425  1.00  0.00     0.074 A 
ATOM     52  C   UNL A   1      42.826  29.881  36.845  1.00  0.00     0.031 C 
ATOM     53  C   UNL A   1      42.774  28.513  34.628  1.00  0.00     0.034 A 
BRANCH  40  54
ATOM     54  C   UNL A   1      40.559  27.326  28.956  1.00  0.00     0.023 A 
ATOM     55  C   UNL A   1      39.655  26.258  28.735  1.00  0.00     0.012 A 
ATOM     56  C   UNL A   1      41.480  27.568  27.905  1.00  0.00     0.148 A 
ATOM     57  C   UNL A   1      39.698  25.441  27.600  1.00  0.00     0.002 A 
ATOM     58  C   UNL A   1      41.524  26.753  26.763  1.00  0.00     0.091 A 
ATOM     59  F   UNL A   1      42.326  28.595  27.977  1.00  0.00    -0.205 F 
ATOM     60  C   UNL A   1      40.641  25.681  26.615  1.00  0.00     0.022 A 
BRANCH  58  61
ATOM     61  S   UNL A   1      42.701  27.000  25.414  1.00  0.00     0.127 S 
ATOM     62  O   UNL A   1      43.966  27.157  26.135  1.00  0.00    -0.237 OA
ATOM     63  O   UNL A   1      42.585  25.750  24.664  1.00  0.00    -0.237 OA
ATOM     64  O   UNL A   1      42.263  28.189  24.692  1.00  0.00    -0.744 OA
ENDBRANCH  58  61
ENDBRANCH  40  54
BRANCH  41  65
ATOM     65  C   UNL A   1      40.259  33.578  36.510  1.00  0.00     0.023 A 
ATOM     66  C   UNL A   1      39.239  32.659  36.883  1.00  0.00     0.012 A 
ATOM     67  C   UNL A   1      40.345  34.787  37.216  1.00  0.00     0.148 A 
ATOM     68  C   UNL A   1      38.460  32.866  38.029  1.00  0.00     0.002 A 
ATOM     69  C   UNL A   1      39.597  34.966  38.377  1.00  0.00     0.091 A 
ATOM     70  F   UNL A   1      41.197  35.733  36.805  1.00  0.00    -0.205 F 
ATOM     71  C   UNL A   1      38.669  34.004  38.799  1.00  0.00     0.022 A 
BRANCH  69  72
ATOM     72  S   UNL A   1      40.040  36.308  39.488  1.00  0.00     0.127 S 
ATOM     73  O   UNL A   1      39.670  37.484  38.707  1.00  0.00    -0.237 OA
ATOM     74  O   UNL A   1      39.191  36.078  40.651  1.00  0.00    -0.237 OA
ATOM     75  O   UNL A   1      41.473  36.098  39.668  1.00  0.00    -0.744 OA
ENDBRANCH  69  72
ENDBRANCH  41  65
BRANCH  53  76
ATOM     76  C   UNL A   1      43.094  27.127  35.136  1.00  0.00     0.023 A 
ATOM     77  C   UNL A   1      42.229  26.417  35.987  1.00  0.00     0.012 A 
ATOM     78  C   UNL A   1      44.230  26.432  34.648  1.00  0.00     0.148 A 
ATOM     79  C   UNL A   1      42.523  25.120  36.415  1.00  0.00     0.002 A 
ATOM     80  C   UNL A   1      44.438  25.095  34.960  1.00  0.00     0.091 A 
ATOM     81  F   UNL A   1      45.136  27.068  33.893  1.00  0.00    -0.205 F 
ATOM     82  C   UNL A   1      43.615  24.449  35.882  1.00  0.00     0.022 A 
BRANCH  80  83
ATOM     83  S   UNL A   1      45.650  24.117  34.064  1.00  0.00     0.127 S 
ATOM     84  O   UNL A   1      45.362  22.767  34.541  1.00  0.00    -0.237 OA
ATOM     85  O   UNL A   1      45.278  24.365  32.669  1.00  0.00    -0.237 OA
ATOM     86  O   UNL A   1      46.945  24.669  34.440  1.00  0.00    -0.744 OA
ENDBRANCH  80  83
ENDBRANCH  53  76
ENDBRANCH  27  28
ENDBRANCH  20  22
ENDBRANCH  19  20
ENDBRANCH   1  19
TORSDOF 15
ENDMDL
MODEL 3
REMARK VINA RESULT:     -11.8      5.620     12.494
REMARK SMILES Cc1cccc(-c2cccc(C(=O)OCCOC(=O)c3ccc(-c4c5nc(c(-c6cccc(S(=O)(=O)[O-])c6F)c6ccc([nH]6)c(-c6cccc(S(=O)(=O)[O-])c6F)c6nc(c(-c7cccc(S(=O)(=O)[O-])c7F)c7ccc4[nH]7)C=C6)C=C5)cc3)c2)c1
REMARK SMILES IDX 16 1 15 2 14 3 12 4 13 5 11 6 7 7 8 8 83 9 9 10 10 11 6 12
REMARK SMILES IDX 1 13 2 14 3 15 84 16 4 17 5 18 17 19 18 20 19 21 20 22 21 23
REMARK SMILES IDX 82 24 22 25 81 26 23 27 24 28 25 29 75 30 26 31 80 32 74 33
REMARK SMILES IDX 76 34 27 35 79 36 73 37 72 38 28 40 60 41 40 42 59 43 41 44
REMARK SMILES IDX 44 45 58 46 77 47 42 48 43 49 57 51 78 52 45 53 29 54 30 55
REMARK SMILES IDX 38 56 31 57 33 58 39 59 32 60 34 61 35 62 36 63 37 64 61 65
REMARK SMILES IDX 62 66 70 67 63 68 65 69 71 70 64 71 66 72 67 73 68 74 69 75
REMARK SMILES IDX 46 76 47 77 55 78 48 79 50 80 56 81 49 82 51 83 52 84 53 85
REMARK SMILES IDX 54 86
REMARK H PARENT 76 39 44 50
REMARK Flexibility Score: inf
ROOT
ATOM      1  C   UNL A   1      32.505  35.804  31.489  1.00  0.00     0.275 C 
ENDROOT
BRANCH   1   2
ATOM      2  C   UNL A   1      33.087  35.697  30.071  1.00  0.00     0.275 C 
BRANCH   2   3
ATOM      3  O   UNL A   1      32.953  34.413  29.424  1.00  0.00    -0.458 OA
BRANCH   3   4
ATOM      4  C   UNL A   1      33.893  34.280  28.442  1.00  0.00     0.338 C 
ATOM      5  O   UNL A   1      34.417  35.244  27.888  1.00  0.00    -0.246 OA
BRANCH   4   6
ATOM      6  C   UNL A   1      34.244  32.892  28.001  1.00  0.00     0.060 A 
ATOM      7  C   UNL A   1      33.808  30.601  27.200  1.00  0.00    -0.018 A 
ATOM      8  C   UNL A   1      35.125  30.274  27.589  1.00  0.00     0.009 A 
ATOM      9  C   UNL A   1      33.399  31.954  27.366  1.00  0.00     0.024 A 
ATOM     10  C   UNL A   1      35.977  31.198  28.176  1.00  0.00     0.002 A 
ATOM     11  C   UNL A   1      35.531  32.491  28.393  1.00  0.00     0.016 A 
BRANCH   7  12
ATOM     12  C   UNL A   1      32.935  29.497  26.696  1.00  0.00    -0.018 A 
ATOM     13  C   UNL A   1      30.693  28.856  23.627  1.00  0.00     0.044 C 
ATOM     14  C   UNL A   1      31.384  28.661  24.946  1.00  0.00    -0.051 A 
ATOM     15  C   UNL A   1      31.154  27.513  25.700  1.00  0.00     0.003 A 
ATOM     16  C   UNL A   1      32.276  29.625  25.445  1.00  0.00     0.012 A 
ATOM     17  C   UNL A   1      31.820  27.334  26.914  1.00  0.00     0.001 A 
ATOM     18  C   UNL A   1      32.698  28.314  27.407  1.00  0.00     0.009 A 
ENDBRANCH   7  12
ENDBRANCH   4   6
ENDBRANCH   3   4
ENDBRANCH   2   3
ENDBRANCH   1   2
BRANCH   1  19
ATOM     19  O   UNL A   1      33.140  35.066  32.563  1.00  0.00    -0.458 OA
BRANCH  19  20
ATOM     20  C   UNL A   1      34.308  35.357  33.206  1.00  0.00     0.338 C 
ATOM     21  O   UNL A   1      34.442  36.339  33.898  1.00  0.00    -0.246 OA
BRANCH  20  22
ATOM     22  C   UNL A   1      35.403  34.397  33.015  1.00  0.00     0.060 A 
ATOM     23  C   UNL A   1      35.640  33.418  33.991  1.00  0.00     0.016 A 
ATOM     24  C   UNL A   1      36.101  34.417  31.815  1.00  0.00     0.016 A 
ATOM     25  C   UNL A   1      36.548  32.400  33.740  1.00  0.00     0.010 A 
ATOM     26  C   UNL A   1      36.862  33.330  31.493  1.00  0.00     0.010 A 
ATOM     27  C   UNL A   1      37.165  32.393  32.498  1.00  0.00    -0.014 A 
BRANCH  27  28
ATOM     28  C   UNL A   1      38.452  31.764  32.276  1.00  0.00     0.031 A 
ATOM     29  C   UNL A   1      38.571  30.430  31.695  1.00  0.00     0.074 A 
ATOM     30  C   UNL A   1      39.451  32.661  32.462  1.00  0.00     0.049 A 
ATOM     31  N   UNL A   1      39.657  29.746  31.736  1.00  0.00    -0.248 NA
ATOM     32  C   UNL A   1      37.465  29.718  31.060  1.00  0.00     0.031 C 
ATOM     33  C   UNL A   1      40.786  32.736  31.920  1.00  0.00     0.029 A 
ATOM     34  N   UNL A   1      39.377  33.780  33.313  1.00  0.00    -0.354 N 
ATOM     35  C   UNL A   1      39.513  28.717  30.828  1.00  0.00     0.074 A 
ATOM     36  C   UNL A   1      38.094  28.630  30.594  1.00  0.00     0.031 C 
ATOM     37  C   UNL A   1      41.480  33.657  32.623  1.00  0.00     0.029 A 
ATOM     38  C   UNL A   1      40.660  34.046  33.769  1.00  0.00     0.049 A 
ATOM     39  H   UNL A   1      38.561  34.283  33.543  1.00  0.00     0.167 HD
ATOM     40  C   UNL A   1      40.644  28.243  30.229  1.00  0.00     0.034 A 
ATOM     41  C   UNL A   1      40.968  33.891  35.095  1.00  0.00     0.034 A 
ATOM     42  C   UNL A   1      41.822  28.910  30.824  1.00  0.00     0.049 A 
ATOM     43  C   UNL A   1      41.936  32.726  35.257  1.00  0.00     0.074 A 
ATOM     44  C   UNL A   1      42.576  29.997  30.409  1.00  0.00     0.029 A 
ATOM     45  N   UNL A   1      42.119  28.724  32.172  1.00  0.00    -0.354 N 
ATOM     46  N   UNL A   1      42.189  31.851  34.323  1.00  0.00    -0.248 NA
ATOM     47  C   UNL A   1      42.664  32.444  36.488  1.00  0.00     0.031 C 
ATOM     48  C   UNL A   1      43.242  30.529  31.549  1.00  0.00     0.029 A 
ATOM     49  C   UNL A   1      42.922  29.754  32.651  1.00  0.00     0.049 A 
ATOM     50  H   UNL A   1      41.803  27.964  32.714  1.00  0.00     0.167 HD
ATOM     51  C   UNL A   1      43.013  30.875  34.798  1.00  0.00     0.074 A 
ATOM     52  C   UNL A   1      43.324  31.322  36.149  1.00  0.00     0.031 C 
ATOM     53  C   UNL A   1      43.332  29.769  34.056  1.00  0.00     0.034 A 
BRANCH  40  54
ATOM     54  C   UNL A   1      40.732  27.463  28.917  1.00  0.00     0.023 A 
ATOM     55  C   UNL A   1      39.845  26.366  28.782  1.00  0.00     0.012 A 
ATOM     56  C   UNL A   1      41.630  27.653  27.836  1.00  0.00     0.148 A 
ATOM     57  C   UNL A   1      39.885  25.478  27.701  1.00  0.00     0.002 A 
ATOM     58  C   UNL A   1      41.671  26.766  26.748  1.00  0.00     0.091 A 
ATOM     59  F   UNL A   1      42.456  28.698  27.826  1.00  0.00    -0.205 F 
ATOM     60  C   UNL A   1      40.806  25.671  26.686  1.00  0.00     0.022 A 
BRANCH  58  61
ATOM     61  S   UNL A   1      42.819  26.947  25.365  1.00  0.00     0.127 S 
ATOM     62  O   UNL A   1      44.114  27.004  26.046  1.00  0.00    -0.237 OA
ATOM     63  O   UNL A   1      42.590  25.718  24.605  1.00  0.00    -0.237 OA
ATOM     64  O   UNL A   1      42.444  28.173  24.671  1.00  0.00    -0.744 OA
ENDBRANCH  58  61
ENDBRANCH  40  54
BRANCH  41  65
ATOM     65  C   UNL A   1      39.810  34.152  36.034  1.00  0.00     0.023 A 
ATOM     66  C   UNL A   1      38.907  33.088  36.312  1.00  0.00     0.012 A 
ATOM     67  C   UNL A   1      39.852  35.230  36.930  1.00  0.00     0.148 A 
ATOM     68  C   UNL A   1      38.214  33.026  37.527  1.00  0.00     0.002 A 
ATOM     69  C   UNL A   1      39.192  35.140  38.152  1.00  0.00     0.091 A 
ATOM     70  F   UNL A   1      40.583  36.310  36.630  1.00  0.00    -0.205 F 
ATOM     71  C   UNL A   1      38.388  34.036  38.465  1.00  0.00     0.022 A 
BRANCH  69  72
ATOM     72  S   UNL A   1      39.610  36.318  39.445  1.00  0.00     0.127 S 
ATOM     73  O   UNL A   1      38.875  35.787  40.589  1.00  0.00    -0.237 OA
ATOM     74  O   UNL A   1      41.058  36.192  39.562  1.00  0.00    -0.237 OA
ATOM     75  O   UNL A   1      39.101  37.570  38.897  1.00  0.00    -0.744 OA
ENDBRANCH  69  72
ENDBRANCH  41  65
BRANCH  53  76
ATOM     76  C   UNL A   1      44.095  28.577  34.583  1.00  0.00     0.023 A 
ATOM     77  C   UNL A   1      45.499  28.512  34.565  1.00  0.00     0.012 A 
ATOM     78  C   UNL A   1      43.412  27.531  35.253  1.00  0.00     0.148 A 
ATOM     79  C   UNL A   1      46.190  27.418  35.094  1.00  0.00     0.002 A 
ATOM     80  C   UNL A   1      44.110  26.523  35.905  1.00  0.00     0.091 A 
ATOM     81  F   UNL A   1      42.072  27.489  35.247  1.00  0.00    -0.205 F 
ATOM     82  C   UNL A   1      45.496  26.435  35.786  1.00  0.00     0.022 A 
BRANCH  80  83
ATOM     83  S   UNL A   1      43.278  25.417  37.051  1.00  0.00     0.127 S 
ATOM     84  O   UNL A   1      42.656  26.356  37.980  1.00  0.00    -0.237 OA
ATOM     85  O   UNL A   1      42.339  24.713  36.174  1.00  0.00    -0.237 OA
ATOM     86  O   UNL A   1      44.328  24.569  37.600  1.00  0.00    -0.744 OA
ENDBRANCH  80  83
ENDBRANCH  53  76
ENDBRANCH  27  28
ENDBRANCH  20  22
ENDBRANCH  19  20
ENDBRANCH   1  19
TORSDOF 15
ENDMDL
