MODEL 1
REMARK VINA RESULT:     -12.5      0.000      0.000
REMARK SMILES COc1ccc(-c2nc3cc(N4C[C@@H](C(=O)OCCOC(=O)c5ccc(-c6c7nc(c(-c8cccc(S(=O)(=O)[O-])c8F)c8ccc([nH]8)c(-c8cccc(S(=O)(=O)[O-])c8F)c8nc(c(-c9cccc(S(=O)(=O)[O-])c9F)c9ccc6[nH]9)C=C8)C=C7)cc5)CC4=O)ccc3o2)cc1
REMARK SMILES IDX 18 1 17 2 15 3 16 4 14 5 12 6 13 7 87 8 86 9 88 10 11 11
REMARK SMILES IDX 7 12 8 13 92 14 9 15 91 16 10 17 90 18 89 19 6 20 3 21 4 22
REMARK SMILES IDX 94 23 5 24 93 25 2 26 1 27 19 28 20 29 21 30 22 31 23 32
REMARK SMILES IDX 24 33 85 34 25 35 84 36 26 37 27 38 28 39 78 40 29 41 83 42
REMARK SMILES IDX 77 43 79 44 30 45 82 46 76 47 75 48 31 50 63 51 43 52 62 53
REMARK SMILES IDX 44 54 47 55 61 56 80 57 45 58 46 59 60 61 81 62 48 63 32 64
REMARK SMILES IDX 33 65 41 66 34 67 36 68 42 69 35 70 37 71 38 72 39 73 40 74
REMARK SMILES IDX 64 75 65 76 73 77 66 78 68 79 74 80 67 81 69 82 70 83 71 84
REMARK SMILES IDX 72 85 49 86 50 87 58 88 51 89 53 90 59 91 52 92 54 93 55 94
REMARK SMILES IDX 56 95 57 96
REMARK H PARENT 79 49 47 60
REMARK Flexibility Score: inf
ROOT
ATOM      1  C   UNL A   1      35.053  20.353  25.204  1.00  0.00     0.274 C 
ENDROOT
BRANCH   1   2
ATOM      2  O   UNL A   1      34.013  21.176  24.643  1.00  0.00    -0.462 OA
BRANCH   2   3
ATOM      3  C   UNL A   1      32.755  20.697  24.772  1.00  0.00     0.311 C 
ATOM      4  O   UNL A   1      32.443  19.514  24.683  1.00  0.00    -0.252 OA
BRANCH   3   5
ATOM      5  C   UNL A   1      31.731  21.759  25.044  1.00  0.00     0.128 C 
ATOM      6  N   UNL A   1      31.511  23.956  25.723  1.00  0.00    -0.311 N 
ATOM      7  C   UNL A   1      32.447  23.083  25.064  1.00  0.00     0.141 C 
ATOM      8  C   UNL A   1      30.683  23.231  26.587  1.00  0.00     0.227 C 
ATOM      9  C   UNL A   1      30.963  21.756  26.358  1.00  0.00     0.117 C 
ATOM     10  O   UNL A   1      29.849  23.655  27.372  1.00  0.00    -0.274 OA
BRANCH   6  11
ATOM     11  C   UNL A   1      31.466  25.344  25.476  1.00  0.00     0.046 A 
ATOM     12  C   UNL A   1      30.111  29.116  23.526  1.00  0.00     0.227 A 
ATOM     13  N   UNL A   1      29.890  27.852  23.231  1.00  0.00    -0.209 NA
ATOM     14  O   UNL A   1      30.988  29.327  24.564  1.00  0.00    -0.436 OA
ATOM     15  C   UNL A   1      30.621  27.176  24.158  1.00  0.00     0.112 A 
ATOM     16  C   UNL A   1      31.281  28.058  24.993  1.00  0.00     0.155 A 
ATOM     17  C   UNL A   1      30.730  25.805  24.373  1.00  0.00     0.058 A 
ATOM     18  C   UNL A   1      32.049  27.661  26.080  1.00  0.00     0.051 A 
ATOM     19  C   UNL A   1      32.098  26.272  26.322  1.00  0.00     0.030 A 
BRANCH  12  20
ATOM     20  C   UNL A   1      29.414  30.265  22.981  1.00  0.00     0.037 A 
ATOM     21  C   UNL A   1      28.175  32.477  21.768  1.00  0.00     0.118 A 
ATOM     22  C   UNL A   1      28.532  32.511  23.121  1.00  0.00     0.047 A 
ATOM     23  C   UNL A   1      28.447  31.334  21.019  1.00  0.00     0.047 A 
ATOM     24  C   UNL A   1      29.136  31.406  23.733  1.00  0.00     0.017 A 
ATOM     25  C   UNL A   1      29.070  30.241  21.622  1.00  0.00     0.017 A 
BRANCH  21  26
ATOM     26  O   UNL A   1      27.594  33.618  21.288  1.00  0.00    -0.497 OA
ATOM     27  C   UNL A   1      27.307  33.633  19.892  1.00  0.00     0.278 C 
ENDBRANCH  21  26
ENDBRANCH  12  20
ENDBRANCH   6  11
ENDBRANCH   3   5
ENDBRANCH   2   3
ENDBRANCH   1   2
BRANCH   1  28
ATOM     28  C   UNL A   1      36.439  20.863  24.797  1.00  0.00     0.275 C 
BRANCH  28  29
ATOM     29  O   UNL A   1      37.129  21.517  25.880  1.00  0.00    -0.458 OA
BRANCH  29  30
ATOM     30  C   UNL A   1      38.473  21.355  25.890  1.00  0.00     0.338 C 
ATOM     31  O   UNL A   1      39.106  20.440  25.390  1.00  0.00    -0.246 OA
BRANCH  30  32
ATOM     32  C   UNL A   1      39.125  22.533  26.486  1.00  0.00     0.060 A 
ATOM     33  C   UNL A   1      38.741  23.794  26.026  1.00  0.00     0.016 A 
ATOM     34  C   UNL A   1      40.171  22.402  27.401  1.00  0.00     0.016 A 
ATOM     35  C   UNL A   1      39.418  24.932  26.449  1.00  0.00     0.010 A 
ATOM     36  C   UNL A   1      40.838  23.551  27.841  1.00  0.00     0.010 A 
ATOM     37  C   UNL A   1      40.478  24.819  27.354  1.00  0.00    -0.014 A 
BRANCH  37  38
ATOM     38  C   UNL A   1      41.221  26.037  27.758  1.00  0.00     0.031 A 
ATOM     39  C   UNL A   1      40.543  27.093  28.584  1.00  0.00     0.074 A 
ATOM     40  C   UNL A   1      42.508  26.181  27.393  1.00  0.00     0.049 A 
ATOM     41  N   UNL A   1      41.006  28.248  28.983  1.00  0.00    -0.248 NA
ATOM     42  C   UNL A   1      39.164  26.816  29.014  1.00  0.00     0.031 C 
ATOM     43  C   UNL A   1      43.273  25.212  26.604  1.00  0.00     0.029 A 
ATOM     44  N   UNL A   1      43.396  27.200  27.623  1.00  0.00    -0.354 N 
ATOM     45  C   UNL A   1      39.966  28.856  29.675  1.00  0.00     0.074 A 
ATOM     46  C   UNL A   1      38.845  27.940  29.642  1.00  0.00     0.031 C 
ATOM     47  C   UNL A   1      44.512  25.690  26.407  1.00  0.00     0.029 A 
ATOM     48  C   UNL A   1      44.616  27.011  27.019  1.00  0.00     0.049 A 
ATOM     49  H   UNL A   1      43.180  27.990  28.168  1.00  0.00     0.167 HD
ATOM     50  C   UNL A   1      39.952  30.061  30.293  1.00  0.00     0.034 A 
ATOM     51  C   UNL A   1      45.689  27.822  26.945  1.00  0.00     0.034 A 
ATOM     52  C   UNL A   1      41.083  30.946  30.362  1.00  0.00     0.049 A 
ATOM     53  C   UNL A   1      45.642  29.159  27.635  1.00  0.00     0.074 A 
ATOM     54  C   UNL A   1      41.180  32.170  30.999  1.00  0.00     0.029 A 
ATOM     55  N   UNL A   1      42.315  30.703  29.774  1.00  0.00    -0.354 N 
ATOM     56  N   UNL A   1      44.682  29.678  28.361  1.00  0.00    -0.248 NA
ATOM     57  C   UNL A   1      46.833  30.010  27.517  1.00  0.00     0.031 C 
ATOM     58  C   UNL A   1      42.468  32.672  30.788  1.00  0.00     0.029 A 
ATOM     59  C   UNL A   1      43.178  31.756  30.028  1.00  0.00     0.049 A 
ATOM     60  H   UNL A   1      42.544  29.900  29.253  1.00  0.00     0.167 HD
ATOM     61  C   UNL A   1      45.160  30.906  28.804  1.00  0.00     0.074 A 
ATOM     62  C   UNL A   1      46.507  31.039  28.288  1.00  0.00     0.031 C 
ATOM     63  C   UNL A   1      44.534  31.847  29.552  1.00  0.00     0.034 A 
BRANCH  50  64
ATOM     64  C   UNL A   1      38.679  30.481  30.977  1.00  0.00     0.023 A 
ATOM     65  C   UNL A   1      38.515  30.230  32.354  1.00  0.00     0.012 A 
ATOM     66  C   UNL A   1      37.674  31.174  30.274  1.00  0.00     0.148 A 
ATOM     67  C   UNL A   1      37.360  30.644  33.016  1.00  0.00     0.002 A 
ATOM     68  C   UNL A   1      36.541  31.614  30.949  1.00  0.00     0.091 A 
ATOM     69  F   UNL A   1      37.839  31.379  28.959  1.00  0.00    -0.205 F 
ATOM     70  C   UNL A   1      36.380  31.344  32.318  1.00  0.00     0.022 A 
BRANCH  68  71
ATOM     71  S   UNL A   1      35.256  32.580  30.148  1.00  0.00     0.127 S 
ATOM     72  O   UNL A   1      34.275  32.713  31.224  1.00  0.00    -0.237 OA
ATOM     73  O   UNL A   1      35.961  33.817  29.810  1.00  0.00    -0.237 OA
ATOM     74  O   UNL A   1      34.825  31.797  28.998  1.00  0.00    -0.744 OA
ENDBRANCH  68  71
ENDBRANCH  50  64
BRANCH  51  75
ATOM     75  C   UNL A   1      46.907  27.376  26.213  1.00  0.00     0.023 A 
ATOM     76  C   UNL A   1      47.047  27.686  24.847  1.00  0.00     0.012 A 
ATOM     77  C   UNL A   1      47.943  26.680  26.869  1.00  0.00     0.148 A 
ATOM     78  C   UNL A   1      48.185  27.292  24.142  1.00  0.00     0.002 A 
ATOM     79  C   UNL A   1      49.098  26.341  26.175  1.00  0.00     0.091 A 
ATOM     80  F   UNL A   1      47.781  26.371  28.163  1.00  0.00    -0.205 F 
ATOM     81  C   UNL A   1      49.216  26.633  24.808  1.00  0.00     0.022 A 
BRANCH  79  82
ATOM     82  S   UNL A   1      50.520  25.614  26.996  1.00  0.00     0.127 S 
ATOM     83  O   UNL A   1      51.492  25.546  25.909  1.00  0.00    -0.237 OA
ATOM     84  O   UNL A   1      50.821  26.607  28.029  1.00  0.00    -0.237 OA
ATOM     85  O   UNL A   1      50.052  24.337  27.517  1.00  0.00    -0.744 OA
ENDBRANCH  79  82
ENDBRANCH  51  75
BRANCH  63  86
ATOM     86  C   UNL A   1      45.302  33.102  29.873  1.00  0.00     0.023 A 
ATOM     87  C   UNL A   1      46.181  33.111  30.973  1.00  0.00     0.012 A 
ATOM     88  C   UNL A   1      45.210  34.238  29.048  1.00  0.00     0.148 A 
ATOM     89  C   UNL A   1      46.939  34.244  31.264  1.00  0.00     0.002 A 
ATOM     90  C   UNL A   1      46.000  35.350  29.319  1.00  0.00     0.091 A 
ATOM     91  F   UNL A   1      44.351  34.217  28.019  1.00  0.00    -0.205 F 
ATOM     92  C   UNL A   1      46.858  35.358  30.431  1.00  0.00     0.022 A 
BRANCH  90  93
ATOM     93  S   UNL A   1      46.022  36.792  28.248  1.00  0.00     0.127 S 
ATOM     94  O   UNL A   1      44.959  37.611  28.826  1.00  0.00    -0.237 OA
ATOM     95  O   UNL A   1      47.374  37.315  28.451  1.00  0.00    -0.237 OA
ATOM     96  O   UNL A   1      45.770  36.290  26.903  1.00  0.00    -0.744 OA
ENDBRANCH  90  93
ENDBRANCH  63  86
ENDBRANCH  37  38
ENDBRANCH  30  32
ENDBRANCH  29  30
ENDBRANCH  28  29
ENDBRANCH   1  28
TORSDOF 17
ENDMDL
MODEL 2
REMARK VINA RESULT:     -12.4      5.276      9.111
REMARK SMILES COc1ccc(-c2nc3cc(N4C[C@@H](C(=O)OCCOC(=O)c5ccc(-c6c7nc(c(-c8cccc(S(=O)(=O)[O-])c8F)c8ccc([nH]8)c(-c8cccc(S(=O)(=O)[O-])c8F)c8nc(c(-c9cccc(S(=O)(=O)[O-])c9F)c9ccc6[nH]9)C=C8)C=C7)cc5)CC4=O)ccc3o2)cc1
REMARK SMILES IDX 18 1 17 2 15 3 16 4 14 5 12 6 13 7 87 8 86 9 88 10 11 11
REMARK SMILES IDX 7 12 8 13 92 14 9 15 91 16 10 17 90 18 89 19 6 20 3 21 4 22
REMARK SMILES IDX 94 23 5 24 93 25 2 26 1 27 19 28 20 29 21 30 22 31 23 32
REMARK SMILES IDX 24 33 85 34 25 35 84 36 26 37 27 38 28 39 78 40 29 41 83 42
REMARK SMILES IDX 77 43 79 44 30 45 82 46 76 47 75 48 31 50 63 51 43 52 62 53
REMARK SMILES IDX 44 54 47 55 61 56 80 57 45 58 46 59 60 61 81 62 48 63 32 64
REMARK SMILES IDX 33 65 41 66 34 67 36 68 42 69 35 70 37 71 38 72 39 73 40 74
REMARK SMILES IDX 64 75 65 76 73 77 66 78 68 79 74 80 67 81 69 82 70 83 71 84
REMARK SMILES IDX 72 85 49 86 50 87 58 88 51 89 53 90 59 91 52 92 54 93 55 94
REMARK SMILES IDX 56 95 57 96
REMARK H PARENT 79 49 47 60
REMARK Flexibility Score: inf
ROOT
ATOM      1  C   UNL A   1      32.083  30.537  26.188  1.00  0.00     0.274 C 
ENDROOT
BRANCH   1   2
ATOM      2  O   UNL A   1      33.443  30.084  26.045  1.00  0.00    -0.462 OA
BRANCH   2   3
ATOM      3  C   UNL A   1      33.625  28.746  26.133  1.00  0.00     0.311 C 
ATOM      4  O   UNL A   1      34.132  28.169  27.088  1.00  0.00    -0.252 OA
BRANCH   3   5
ATOM      5  C   UNL A   1      33.141  27.994  24.928  1.00  0.00     0.128 C 
ATOM      6  N   UNL A   1      33.320  25.960  23.848  1.00  0.00    -0.311 N 
ATOM      7  C   UNL A   1      33.419  26.533  25.165  1.00  0.00     0.141 C 
ATOM      8  C   UNL A   1      33.629  26.911  22.870  1.00  0.00     0.227 C 
ATOM      9  C   UNL A   1      33.768  28.254  23.567  1.00  0.00     0.117 C 
ATOM     10  O   UNL A   1      33.741  26.751  21.665  1.00  0.00    -0.274 OA
BRANCH   6  11
ATOM     11  C   UNL A   1      32.939  24.619  23.632  1.00  0.00     0.046 A 
ATOM     12  C   UNL A   1      33.249  20.180  23.884  1.00  0.00     0.227 A 
ATOM     13  N   UNL A   1      34.102  21.134  24.195  1.00  0.00    -0.209 NA
ATOM     14  O   UNL A   1      32.086  20.609  23.290  1.00  0.00    -0.436 OA
ATOM     15  C   UNL A   1      33.450  22.273  23.836  1.00  0.00     0.112 A 
ATOM     16  C   UNL A   1      32.211  21.975  23.301  1.00  0.00     0.155 A 
ATOM     17  C   UNL A   1      33.841  23.602  23.980  1.00  0.00     0.058 A 
ATOM     18  C   UNL A   1      31.289  22.937  22.909  1.00  0.00     0.051 A 
ATOM     19  C   UNL A   1      31.674  24.277  23.121  1.00  0.00     0.030 A 
BRANCH  12  20
ATOM     20  C   UNL A   1      33.352  18.779  24.246  1.00  0.00     0.037 A 
ATOM     21  C   UNL A   1      33.536  16.119  25.133  1.00  0.00     0.118 A 
ATOM     22  C   UNL A   1      34.387  16.599  24.130  1.00  0.00     0.047 A 
ATOM     23  C   UNL A   1      32.595  16.977  25.698  1.00  0.00     0.047 A 
ATOM     24  C   UNL A   1      34.290  17.919  23.676  1.00  0.00     0.017 A 
ATOM     25  C   UNL A   1      32.512  18.299  25.262  1.00  0.00     0.017 A 
BRANCH  21  26
ATOM     26  O   UNL A   1      33.732  14.813  25.490  1.00  0.00    -0.497 OA
ATOM     27  C   UNL A   1      32.566  14.089  25.873  1.00  0.00     0.278 C 
ENDBRANCH  21  26
ENDBRANCH  12  20
ENDBRANCH   6  11
ENDBRANCH   3   5
ENDBRANCH   2   3
ENDBRANCH   1   2
BRANCH   1  28
ATOM     28  C   UNL A   1      32.035  32.015  26.589  1.00  0.00     0.275 C 
BRANCH  28  29
ATOM     29  O   UNL A   1      32.712  32.274  27.834  1.00  0.00    -0.458 OA
BRANCH  29  30
ATOM     30  C   UNL A   1      33.765  33.121  27.753  1.00  0.00     0.338 C 
ATOM     31  O   UNL A   1      33.736  34.302  27.448  1.00  0.00    -0.246 OA
BRANCH  30  32
ATOM     32  C   UNL A   1      34.993  32.458  28.223  1.00  0.00     0.060 A 
ATOM     33  C   UNL A   1      34.871  31.187  28.789  1.00  0.00     0.016 A 
ATOM     34  C   UNL A   1      36.226  33.111  28.209  1.00  0.00     0.016 A 
ATOM     35  C   UNL A   1      35.971  30.572  29.375  1.00  0.00     0.010 A 
ATOM     36  C   UNL A   1      37.337  32.481  28.782  1.00  0.00     0.010 A 
ATOM     37  C   UNL A   1      37.211  31.217  29.385  1.00  0.00    -0.014 A 
BRANCH  37  38
ATOM     38  C   UNL A   1      38.363  30.569  30.056  1.00  0.00     0.031 A 
ATOM     39  C   UNL A   1      38.710  30.930  31.472  1.00  0.00     0.074 A 
ATOM     40  C   UNL A   1      39.084  29.646  29.393  1.00  0.00     0.049 A 
ATOM     41  N   UNL A   1      39.710  30.517  32.205  1.00  0.00    -0.248 NA
ATOM     42  C   UNL A   1      37.817  31.881  32.153  1.00  0.00     0.031 C 
ATOM     43  C   UNL A   1      38.829  29.205  28.019  1.00  0.00     0.029 A 
ATOM     44  N   UNL A   1      40.185  28.923  29.776  1.00  0.00    -0.354 N 
ATOM     45  C   UNL A   1      39.596  31.186  33.417  1.00  0.00     0.074 A 
ATOM     46  C   UNL A   1      38.425  32.033  33.322  1.00  0.00     0.031 C 
ATOM     47  C   UNL A   1      39.754  28.296  27.672  1.00  0.00     0.029 A 
ATOM     48  C   UNL A   1      40.688  28.121  28.781  1.00  0.00     0.049 A 
ATOM     49  H   UNL A   1      40.576  28.975  30.678  1.00  0.00     0.167 HD
ATOM     50  C   UNL A   1      40.385  31.092  34.513  1.00  0.00     0.034 A 
ATOM     51  C   UNL A   1      41.792  27.349  28.756  1.00  0.00     0.034 A 
ATOM     52  C   UNL A   1      41.519  30.214  34.617  1.00  0.00     0.049 A 
ATOM     53  C   UNL A   1      42.655  27.270  29.986  1.00  0.00     0.074 A 
ATOM     54  C   UNL A   1      42.358  30.017  35.700  1.00  0.00     0.029 A 
ATOM     55  N   UNL A   1      41.975  29.385  33.604  1.00  0.00    -0.354 N 
ATOM     56  N   UNL A   1      42.481  27.840  31.153  1.00  0.00    -0.248 NA
ATOM     57  C   UNL A   1      43.853  26.423  29.904  1.00  0.00     0.031 C 
ATOM     58  C   UNL A   1      43.327  29.076  35.337  1.00  0.00     0.029 A 
ATOM     59  C   UNL A   1      43.086  28.679  34.032  1.00  0.00     0.049 A 
ATOM     60  H   UNL A   1      41.568  29.309  32.710  1.00  0.00     0.167 HD
ATOM     61  C   UNL A   1      43.532  27.406  31.951  1.00  0.00     0.074 A 
ATOM     62  C   UNL A   1      44.323  26.500  31.142  1.00  0.00     0.031 C 
ATOM     63  C   UNL A   1      43.829  27.741  33.231  1.00  0.00     0.034 A 
BRANCH  50  64
ATOM     64  C   UNL A   1      40.031  31.939  35.705  1.00  0.00     0.023 A 
ATOM     65  C   UNL A   1      40.714  33.151  35.923  1.00  0.00     0.012 A 
ATOM     66  C   UNL A   1      38.986  31.566  36.573  1.00  0.00     0.148 A 
ATOM     67  C   UNL A   1      40.378  33.970  37.000  1.00  0.00     0.002 A 
ATOM     68  C   UNL A   1      38.633  32.405  37.624  1.00  0.00     0.091 A 
ATOM     69  F   UNL A   1      38.366  30.396  36.363  1.00  0.00    -0.205 F 
ATOM     70  C   UNL A   1      39.332  33.603  37.843  1.00  0.00     0.022 A 
BRANCH  68  71
ATOM     71  S   UNL A   1      37.258  32.048  38.723  1.00  0.00     0.127 S 
ATOM     72  O   UNL A   1      37.800  32.459  40.017  1.00  0.00    -0.237 OA
ATOM     73  O   UNL A   1      36.206  32.921  38.199  1.00  0.00    -0.237 OA
ATOM     74  O   UNL A   1      36.989  30.624  38.578  1.00  0.00    -0.744 OA
ENDBRANCH  68  71
ENDBRANCH  50  64
BRANCH  51  75
ATOM     75  C   UNL A   1      42.124  26.569  27.531  1.00  0.00     0.023 A 
ATOM     76  C   UNL A   1      42.770  27.209  26.456  1.00  0.00     0.012 A 
ATOM     77  C   UNL A   1      41.837  25.193  27.438  1.00  0.00     0.148 A 
ATOM     78  C   UNL A   1      43.105  26.496  25.303  1.00  0.00     0.002 A 
ATOM     79  C   UNL A   1      42.223  24.477  26.311  1.00  0.00     0.091 A 
ATOM     80  F   UNL A   1      41.198  24.606  28.461  1.00  0.00    -0.205 F 
ATOM     81  C   UNL A   1      42.844  25.130  25.236  1.00  0.00     0.022 A 
BRANCH  79  82
ATOM     82  S   UNL A   1      42.045  22.693  26.211  1.00  0.00     0.127 S 
ATOM     83  O   UNL A   1      40.595  22.541  26.127  1.00  0.00    -0.237 OA
ATOM     84  O   UNL A   1      42.769  22.379  24.979  1.00  0.00    -0.237 OA
ATOM     85  O   UNL A   1      42.673  22.175  27.419  1.00  0.00    -0.744 OA
ENDBRANCH  79  82
ENDBRANCH  51  75
BRANCH  63  86
ATOM     86  C   UNL A   1      45.053  27.116  33.845  1.00  0.00     0.023 A 
ATOM     87  C   UNL A   1      46.289  27.785  33.758  1.00  0.00     0.012 A 
ATOM     88  C   UNL A   1      44.965  25.912  34.569  1.00  0.00     0.148 A 
ATOM     89  C   UNL A   1      47.428  27.251  34.360  1.00  0.00     0.002 A 
ATOM     90  C   UNL A   1      46.095  25.406  35.202  1.00  0.00     0.091 A 
ATOM     91  F   UNL A   1      43.784  25.279  34.621  1.00  0.00    -0.205 F 
ATOM     92  C   UNL A   1      47.328  26.069  35.092  1.00  0.00     0.022 A 
BRANCH  90  93
ATOM     93  S   UNL A   1      46.036  23.938  36.236  1.00  0.00     0.127 S 
ATOM     94  O   UNL A   1      47.367  23.943  36.839  1.00  0.00    -0.237 OA
ATOM     95  O   UNL A   1      44.945  24.247  37.162  1.00  0.00    -0.237 OA
ATOM     96  O   UNL A   1      45.759  22.828  35.332  1.00  0.00    -0.744 OA
ENDBRANCH  90  93
ENDBRANCH  63  86
ENDBRANCH  37  38
ENDBRANCH  30  32
ENDBRANCH  29  30
ENDBRANCH  28  29
ENDBRANCH   1  28
TORSDOF 17
ENDMDL
MODEL 3
REMARK VINA RESULT:     -12.2      1.807      2.077
REMARK SMILES COc1ccc(-c2nc3cc(N4C[C@@H](C(=O)OCCOC(=O)c5ccc(-c6c7nc(c(-c8cccc(S(=O)(=O)[O-])c8F)c8ccc([nH]8)c(-c8cccc(S(=O)(=O)[O-])c8F)c8nc(c(-c9cccc(S(=O)(=O)[O-])c9F)c9ccc6[nH]9)C=C8)C=C7)cc5)CC4=O)ccc3o2)cc1
REMARK SMILES IDX 18 1 17 2 15 3 16 4 14 5 12 6 13 7 87 8 86 9 88 10 11 11
REMARK SMILES IDX 7 12 8 13 92 14 9 15 91 16 10 17 90 18 89 19 6 20 3 21 4 22
REMARK SMILES IDX 94 23 5 24 93 25 2 26 1 27 19 28 20 29 21 30 22 31 23 32
REMARK SMILES IDX 24 33 85 34 25 35 84 36 26 37 27 38 28 39 78 40 29 41 83 42
REMARK SMILES IDX 77 43 79 44 30 45 82 46 76 47 75 48 31 50 63 51 43 52 62 53
REMARK SMILES IDX 44 54 47 55 61 56 80 57 45 58 46 59 60 61 81 62 48 63 32 64
REMARK SMILES IDX 33 65 41 66 34 67 36 68 42 69 35 70 37 71 38 72 39 73 40 74
REMARK SMILES IDX 64 75 65 76 73 77 66 78 68 79 74 80 67 81 69 82 70 83 71 84
REMARK SMILES IDX 72 85 49 86 50 87 58 88 51 89 53 90 59 91 52 92 54 93 55 94
REMARK SMILES IDX 56 95 57 96
REMARK H PARENT 79 49 47 60
REMARK Flexibility Score: inf
ROOT
ATOM      1  C   UNL A   1      35.868  20.037  25.032  1.00  0.00     0.274 C 
ENDROOT
BRANCH   1   2
ATOM      2  O   UNL A   1      34.763  20.830  24.557  1.00  0.00    -0.462 OA
BRANCH   2   3
ATOM      3  C   UNL A   1      33.543  20.458  25.006  1.00  0.00     0.311 C 
ATOM      4  O   UNL A   1      33.206  19.304  25.244  1.00  0.00    -0.252 OA
BRANCH   3   5
ATOM      5  C   UNL A   1      32.597  21.607  25.199  1.00  0.00     0.128 C 
ATOM      6  N   UNL A   1      32.530  23.907  25.396  1.00  0.00    -0.311 N 
ATOM      7  C   UNL A   1      33.325  22.864  24.803  1.00  0.00     0.141 C 
ATOM      8  C   UNL A   1      31.854  23.433  26.525  1.00  0.00     0.227 C 
ATOM      9  C   UNL A   1      32.069  21.931  26.589  1.00  0.00     0.117 C 
ATOM     10  O   UNL A   1      31.176  24.061  27.323  1.00  0.00    -0.274 OA
BRANCH   6  11
ATOM     11  C   UNL A   1      32.462  25.208  24.856  1.00  0.00     0.046 A 
ATOM     12  C   UNL A   1      30.531  28.812  23.082  1.00  0.00     0.227 A 
ATOM     13  N   UNL A   1      30.070  27.600  23.315  1.00  0.00    -0.209 NA
ATOM     14  O   UNL A   1      31.869  28.987  23.342  1.00  0.00    -0.436 OA
ATOM     15  C   UNL A   1      31.152  26.940  23.809  1.00  0.00     0.112 A 
ATOM     16  C   UNL A   1      32.253  27.774  23.852  1.00  0.00     0.155 A 
ATOM     17  C   UNL A   1      31.253  25.634  24.284  1.00  0.00     0.058 A 
ATOM     18  C   UNL A   1      33.483  27.399  24.376  1.00  0.00     0.051 A 
ATOM     19  C   UNL A   1      33.551  26.096  24.911  1.00  0.00     0.030 A 
BRANCH  12  20
ATOM     20  C   UNL A   1      29.745  29.982  22.740  1.00  0.00     0.037 A 
ATOM     21  C   UNL A   1      28.327  32.264  21.914  1.00  0.00     0.118 A 
ATOM     22  C   UNL A   1      28.767  32.135  23.237  1.00  0.00     0.047 A 
ATOM     23  C   UNL A   1      28.606  31.250  21.001  1.00  0.00     0.047 A 
ATOM     24  C   UNL A   1      29.461  30.995  23.656  1.00  0.00     0.017 A 
ATOM     25  C   UNL A   1      29.317  30.122  21.411  1.00  0.00     0.017 A 
BRANCH  21  26
ATOM     26  O   UNL A   1      27.662  33.425  21.629  1.00  0.00    -0.497 OA
ATOM     27  C   UNL A   1      27.303  33.620  20.264  1.00  0.00     0.278 C 
ENDBRANCH  21  26
ENDBRANCH  12  20
ENDBRANCH   6  11
ENDBRANCH   3   5
ENDBRANCH   2   3
ENDBRANCH   1   2
BRANCH   1  28
ATOM     28  C   UNL A   1      37.208  20.662  24.627  1.00  0.00     0.275 C 
BRANCH  28  29
ATOM     29  O   UNL A   1      37.703  21.595  25.608  1.00  0.00    -0.458 OA
BRANCH  29  30
ATOM     30  C   UNL A   1      38.946  21.334  26.077  1.00  0.00     0.338 C 
ATOM     31  O   UNL A   1      39.572  20.294  25.959  1.00  0.00    -0.246 OA
BRANCH  30  32
ATOM     32  C   UNL A   1      39.538  22.549  26.659  1.00  0.00     0.060 A 
ATOM     33  C   UNL A   1      39.083  23.784  26.193  1.00  0.00     0.016 A 
ATOM     34  C   UNL A   1      40.596  22.482  27.566  1.00  0.00     0.016 A 
ATOM     35  C   UNL A   1      39.700  24.960  26.602  1.00  0.00     0.010 A 
ATOM     36  C   UNL A   1      41.204  23.669  27.993  1.00  0.00     0.010 A 
ATOM     37  C   UNL A   1      40.772  24.913  27.499  1.00  0.00    -0.014 A 
BRANCH  37  38
ATOM     38  C   UNL A   1      41.451  26.171  27.889  1.00  0.00     0.031 A 
ATOM     39  C   UNL A   1      40.712  27.212  28.681  1.00  0.00     0.074 A 
ATOM     40  C   UNL A   1      42.736  26.368  27.539  1.00  0.00     0.049 A 
ATOM     41  N   UNL A   1      41.115  28.394  29.063  1.00  0.00    -0.248 NA
ATOM     42  C   UNL A   1      39.340  26.879  29.098  1.00  0.00     0.031 C 
ATOM     43  C   UNL A   1      43.558  25.420  26.783  1.00  0.00     0.029 A 
ATOM     44  N   UNL A   1      43.572  27.432  27.761  1.00  0.00    -0.354 N 
ATOM     45  C   UNL A   1      40.037  28.967  29.727  1.00  0.00     0.074 A 
ATOM     46  C   UNL A   1      38.960  28.000  29.697  1.00  0.00     0.031 C 
ATOM     47  C   UNL A   1      44.776  25.951  26.594  1.00  0.00     0.029 A 
ATOM     48  C   UNL A   1      44.809  27.288  27.180  1.00  0.00     0.049 A 
ATOM     49  H   UNL A   1      43.311  28.222  28.286  1.00  0.00     0.167 HD
ATOM     50  C   UNL A   1      39.957  30.182  30.319  1.00  0.00     0.034 A 
ATOM     51  C   UNL A   1      45.844  28.147  27.104  1.00  0.00     0.034 A 
ATOM     52  C   UNL A   1      41.045  31.121  30.386  1.00  0.00     0.049 A 
ATOM     53  C   UNL A   1      45.724  29.493  27.765  1.00  0.00     0.074 A 
ATOM     54  C   UNL A   1      41.075  32.361  30.999  1.00  0.00     0.029 A 
ATOM     55  N   UNL A   1      42.295  30.924  29.822  1.00  0.00    -0.354 N 
ATOM     56  N   UNL A   1      44.730  29.982  28.465  1.00  0.00    -0.248 NA
ATOM     57  C   UNL A   1      46.876  30.397  27.646  1.00  0.00     0.031 C 
ATOM     58  C   UNL A   1      42.341  32.918  30.796  1.00  0.00     0.029 A 
ATOM     59  C   UNL A   1      43.104  32.021  30.065  1.00  0.00     0.049 A 
ATOM     60  H   UNL A   1      42.570  30.121  29.321  1.00  0.00     0.167 HD
ATOM     61  C   UNL A   1      45.143  31.239  28.889  1.00  0.00     0.074 A 
ATOM     62  C   UNL A   1      46.490  31.425  28.391  1.00  0.00     0.031 C 
ATOM     63  C   UNL A   1      44.462  32.166  29.607  1.00  0.00     0.034 A 
BRANCH  50  64
ATOM     64  C   UNL A   1      38.655  30.557  30.975  1.00  0.00     0.023 A 
ATOM     65  C   UNL A   1      38.452  30.254  32.336  1.00  0.00     0.012 A 
ATOM     66  C   UNL A   1      37.662  31.258  30.264  1.00  0.00     0.148 A 
ATOM     67  C   UNL A   1      37.268  30.624  32.974  1.00  0.00     0.002 A 
ATOM     68  C   UNL A   1      36.500  31.654  30.916  1.00  0.00     0.091 A 
ATOM     69  F   UNL A   1      37.865  31.513  28.964  1.00  0.00    -0.205 F 
ATOM     70  C   UNL A   1      36.299  31.332  32.269  1.00  0.00     0.022 A 
BRANCH  68  71
ATOM     71  S   UNL A   1      35.224  32.626  30.109  1.00  0.00     0.127 S 
ATOM     72  O   UNL A   1      34.298  32.874  31.213  1.00  0.00    -0.237 OA
ATOM     73  O   UNL A   1      35.967  33.805  29.661  1.00  0.00    -0.237 OA
ATOM     74  O   UNL A   1      34.708  31.793  29.031  1.00  0.00    -0.744 OA
ENDBRANCH  68  71
ENDBRANCH  50  64
BRANCH  51  75
ATOM     75  C   UNL A   1      47.093  27.744  26.400  1.00  0.00     0.023 A 
ATOM     76  C   UNL A   1      48.127  27.122  27.125  1.00  0.00     0.012 A 
ATOM     77  C   UNL A   1      47.248  27.939  25.013  1.00  0.00     0.148 A 
ATOM     78  C   UNL A   1      49.301  26.722  26.486  1.00  0.00     0.002 A 
ATOM     79  C   UNL A   1      48.396  27.487  24.373  1.00  0.00     0.091 A 
ATOM     80  F   UNL A   1      46.264  28.556  24.343  1.00  0.00    -0.205 F 
ATOM     81  C   UNL A   1      49.430  26.891  25.109  1.00  0.00     0.022 A 
BRANCH  79  82
ATOM     82  S   UNL A   1      48.573  27.546  22.587  1.00  0.00     0.127 S 
ATOM     83  O   UNL A   1      48.585  26.129  22.239  1.00  0.00    -0.237 OA
ATOM     84  O   UNL A   1      47.367  28.270  22.180  1.00  0.00    -0.237 OA
ATOM     85  O   UNL A   1      49.813  28.274  22.347  1.00  0.00    -0.744 OA
ENDBRANCH  79  82
ENDBRANCH  51  75
BRANCH  63  86
ATOM     86  C   UNL A   1      45.165  33.461  29.914  1.00  0.00     0.023 A 
ATOM     87  C   UNL A   1      45.041  34.544  29.022  1.00  0.00     0.012 A 
ATOM     88  C   UNL A   1      45.883  33.629  31.113  1.00  0.00     0.148 A 
ATOM     89  C   UNL A   1      45.643  35.769  29.305  1.00  0.00     0.002 A 
ATOM     90  C   UNL A   1      46.446  34.865  31.409  1.00  0.00     0.091 A 
ATOM     91  F   UNL A   1      46.009  32.580  31.938  1.00  0.00    -0.205 F 
ATOM     92  C   UNL A   1      46.334  35.933  30.504  1.00  0.00     0.022 A 
BRANCH  90  93
ATOM     93  S   UNL A   1      47.278  35.188  32.969  1.00  0.00     0.127 S 
ATOM     94  O   UNL A   1      48.352  34.198  32.946  1.00  0.00    -0.237 OA
ATOM     95  O   UNL A   1      47.721  36.574  32.809  1.00  0.00    -0.237 OA
ATOM     96  O   UNL A   1      46.268  34.997  34.003  1.00  0.00    -0.744 OA
ENDBRANCH  90  93
ENDBRANCH  63  86
ENDBRANCH  37  38
ENDBRANCH  30  32
ENDBRANCH  29  30
ENDBRANCH  28  29
ENDBRANCH   1  28
TORSDOF 17
ENDMDL
