MODEL 1
REMARK VINA RESULT:     -11.3      0.000      0.000
REMARK SMILES Cc1nc(C)c(C(=O)N[C@@H](CCS(C)(=O)=O)C(=O)OCCOC(=O)c2ccc(-c3c4nc(c(-c5cccc(S(=O)(=O)[O-])c5F)c5ccc([nH]5)c(-c5cccc(S(=O)(=O)[O-])c5F)c5nc(c(-c6cccc(S(=O)(=O)[O-])c6F)c6ccc3[nH]6)C=C5)C=C4)cc2)s1
REMARK SMILES IDX 20 1 19 2 17 3 18 4 10 5 9 6 7 7 8 8 6 10 1 11 2 12 3 13
REMARK SMILES IDX 88 14 4 15 5 16 11 17 12 18 13 19 14 20 15 21 16 22 21 23
REMARK SMILES IDX 22 24 23 25 24 26 25 27 26 28 87 29 27 30 86 31 28 32 29 33
REMARK SMILES IDX 30 34 80 35 31 36 85 37 79 38 81 39 32 40 84 41 78 42 77 43
REMARK SMILES IDX 33 45 65 46 45 47 64 48 46 49 49 50 63 51 82 52 47 53 48 54
REMARK SMILES IDX 62 56 83 57 50 58 34 59 35 60 43 61 36 62 38 63 44 64 37 65
REMARK SMILES IDX 39 66 40 67 41 68 42 69 66 70 67 71 75 72 68 73 70 74 76 75
REMARK SMILES IDX 69 76 71 77 72 78 73 79 74 80 51 81 52 82 60 83 53 84 55 85
REMARK SMILES IDX 61 86 54 87 56 88 57 89 58 90 59 91
REMARK H PARENT 9 9 81 44 49 55
REMARK Flexibility Score: inf
ROOT
ATOM      1  C   UNL A   1      32.119  29.344  25.341  1.00  0.00     0.274 C 
ENDROOT
BRANCH   1   2
ATOM      2  O   UNL A   1      31.140  28.336  25.683  1.00  0.00    -0.461 OA
BRANCH   2   3
ATOM      3  C   UNL A   1      31.466  27.511  26.702  1.00  0.00     0.328 C 
ATOM      4  O   UNL A   1      31.453  27.822  27.888  1.00  0.00    -0.250 OA
BRANCH   3   5
ATOM      5  C   UNL A   1      31.963  26.133  26.245  1.00  0.00     0.193 C 
BRANCH   5   6
ATOM      6  N   UNL A   1      31.384  24.961  26.900  1.00  0.00    -0.338 N 
ATOM      7  C   UNL A   1      31.692  23.614  26.921  1.00  0.00     0.263 C 
ATOM      8  O   UNL A   1      30.911  22.949  27.611  1.00  0.00    -0.268 OA
ATOM      9  H   UNL A   1      30.599  25.181  27.451  1.00  0.00     0.164 HD
BRANCH   7  10
ATOM     10  C   UNL A   1      32.828  22.990  26.239  1.00  0.00     0.115 A 
ATOM     11  C   UNL A   1      36.246  21.241  25.521  1.00  0.00     0.079 C 
ATOM     12  C   UNL A   1      34.919  21.922  25.543  1.00  0.00     0.091 A 
ATOM     13  N   UNL A   1      34.033  21.824  24.584  1.00  0.00    -0.246 NA
ATOM     14  S   UNL A   1      34.437  22.917  26.850  1.00  0.00    -0.113 S 
ATOM     15  C   UNL A   1      32.852  22.461  24.944  1.00  0.00     0.061 A 
ATOM     16  C   UNL A   1      31.785  22.450  23.903  1.00  0.00     0.068 C 
ENDBRANCH   7  10
ENDBRANCH   5   6
BRANCH   5  17
ATOM     17  C   UNL A   1      31.912  25.999  24.709  1.00  0.00     0.053 C 
BRANCH  17  18
ATOM     18  C   UNL A   1      33.222  26.018  23.924  1.00  0.00     0.139 C 
BRANCH  18  19
ATOM     19  S   UNL A   1      33.183  25.969  22.138  1.00  0.00     0.147 S 
ATOM     20  C   UNL A   1      31.498  26.166  21.593  1.00  0.00     0.158 C 
ATOM     21  O   UNL A   1      33.911  27.133  21.664  1.00  0.00    -0.229 OA
ATOM     22  O   UNL A   1      33.629  24.648  21.739  1.00  0.00    -0.229 OA
ENDBRANCH  18  19
ENDBRANCH  17  18
ENDBRANCH   5  17
ENDBRANCH   3   5
ENDBRANCH   2   3
ENDBRANCH   1   2
BRANCH   1  23
ATOM     23  C   UNL A   1      31.740  30.691  25.953  1.00  0.00     0.275 C 
BRANCH  23  24
ATOM     24  O   UNL A   1      32.392  30.864  27.222  1.00  0.00    -0.458 OA
BRANCH  24  25
ATOM     25  C   UNL A   1      33.128  31.991  27.323  1.00  0.00     0.338 C 
ATOM     26  O   UNL A   1      32.739  33.151  27.231  1.00  0.00    -0.246 OA
BRANCH  25  27
ATOM     27  C   UNL A   1      34.469  31.644  27.789  1.00  0.00     0.060 A 
ATOM     28  C   UNL A   1      34.687  30.321  28.165  1.00  0.00     0.016 A 
ATOM     29  C   UNL A   1      35.467  32.602  27.945  1.00  0.00     0.016 A 
ATOM     30  C   UNL A   1      35.886  29.949  28.748  1.00  0.00     0.010 A 
ATOM     31  C   UNL A   1      36.683  32.222  28.523  1.00  0.00     0.010 A 
ATOM     32  C   UNL A   1      36.886  30.900  28.962  1.00  0.00    -0.014 A 
BRANCH  32  33
ATOM     33  C   UNL A   1      38.088  30.522  29.743  1.00  0.00     0.031 A 
ATOM     34  C   UNL A   1      39.107  29.607  29.125  1.00  0.00     0.074 A 
ATOM     35  C   UNL A   1      38.292  31.030  30.973  1.00  0.00     0.049 A 
ATOM     36  N   UNL A   1      40.132  29.019  29.682  1.00  0.00    -0.248 NA
ATOM     37  C   UNL A   1      38.945  29.309  27.692  1.00  0.00     0.031 C 
ATOM     38  C   UNL A   1      37.414  31.984  31.652  1.00  0.00     0.029 A 
ATOM     39  N   UNL A   1      39.301  30.805  31.875  1.00  0.00    -0.354 N 
ATOM     40  C   UNL A   1      40.689  28.218  28.691  1.00  0.00     0.074 A 
ATOM     41  C   UNL A   1      39.899  28.411  27.494  1.00  0.00     0.031 C 
ATOM     42  C   UNL A   1      37.920  32.261  32.864  1.00  0.00     0.029 A 
ATOM     43  C   UNL A   1      39.111  31.447  33.078  1.00  0.00     0.049 A 
ATOM     44  H   UNL A   1      40.084  30.240  31.682  1.00  0.00     0.167 HD
ATOM     45  C   UNL A   1      41.765  27.401  28.774  1.00  0.00     0.034 A 
ATOM     46  C   UNL A   1      39.789  31.347  34.238  1.00  0.00     0.034 A 
ATOM     47  C   UNL A   1      42.587  27.276  29.947  1.00  0.00     0.049 A 
ATOM     48  C   UNL A   1      40.969  30.417  34.311  1.00  0.00     0.074 A 
ATOM     49  C   UNL A   1      43.716  26.498  30.128  1.00  0.00     0.029 A 
ATOM     50  N   UNL A   1      42.375  27.958  31.136  1.00  0.00    -0.354 N 
ATOM     51  N   UNL A   1      41.497  29.677  33.365  1.00  0.00    -0.248 NA
ATOM     52  C   UNL A   1      41.653  30.313  35.607  1.00  0.00     0.031 C 
ATOM     53  C   UNL A   1      44.179  26.698  31.434  1.00  0.00     0.029 A 
ATOM     54  C   UNL A   1      43.351  27.618  32.057  1.00  0.00     0.049 A 
ATOM     55  H   UNL A   1      41.640  28.591  31.301  1.00  0.00     0.167 HD
ATOM     56  C   UNL A   1      42.587  29.038  33.943  1.00  0.00     0.074 A 
ATOM     57  C   UNL A   1      42.660  29.502  35.315  1.00  0.00     0.031 C 
ATOM     58  C   UNL A   1      43.437  28.132  33.400  1.00  0.00     0.034 A 
BRANCH  45  59
ATOM     59  C   UNL A   1      42.119  26.581  27.562  1.00  0.00     0.023 A 
ATOM     60  C   UNL A   1      42.829  27.165  26.494  1.00  0.00     0.012 A 
ATOM     61  C   UNL A   1      41.789  25.212  27.506  1.00  0.00     0.148 A 
ATOM     62  C   UNL A   1      43.177  26.407  25.376  1.00  0.00     0.002 A 
ATOM     63  C   UNL A   1      42.178  24.452  26.409  1.00  0.00     0.091 A 
ATOM     64  F   UNL A   1      41.091  24.680  28.520  1.00  0.00    -0.205 F 
ATOM     65  C   UNL A   1      42.863  25.050  25.339  1.00  0.00     0.022 A 
BRANCH  63  66
ATOM     66  S   UNL A   1      41.888  22.682  26.305  1.00  0.00     0.127 S 
ATOM     67  O   UNL A   1      42.554  22.347  25.048  1.00  0.00    -0.237 OA
ATOM     68  O   UNL A   1      42.564  22.187  27.505  1.00  0.00    -0.237 OA
ATOM     69  O   UNL A   1      40.442  22.512  26.311  1.00  0.00    -0.744 OA
ENDBRANCH  63  66
ENDBRANCH  45  59
BRANCH  46  70
ATOM     70  C   UNL A   1      39.363  32.146  35.422  1.00  0.00     0.023 A 
ATOM     71  C   UNL A   1      38.509  31.568  36.380  1.00  0.00     0.012 A 
ATOM     72  C   UNL A   1      39.825  33.462  35.620  1.00  0.00     0.148 A 
ATOM     73  C   UNL A   1      38.105  32.294  37.502  1.00  0.00     0.002 A 
ATOM     74  C   UNL A   1      39.472  34.156  36.771  1.00  0.00     0.091 A 
ATOM     75  F   UNL A   1      40.617  34.007  34.685  1.00  0.00    -0.205 F 
ATOM     76  C   UNL A   1      38.598  33.580  37.705  1.00  0.00     0.022 A 
BRANCH  74  77
ATOM     77  S   UNL A   1      40.183  35.754  37.182  1.00  0.00     0.127 S 
ATOM     78  O   UNL A   1      39.697  36.588  36.087  1.00  0.00    -0.237 OA
ATOM     79  O   UNL A   1      39.578  36.029  38.486  1.00  0.00    -0.237 OA
ATOM     80  O   UNL A   1      41.624  35.538  37.229  1.00  0.00    -0.744 OA
ENDBRANCH  74  77
ENDBRANCH  46  70
BRANCH  58  81
ATOM     81  C   UNL A   1      44.542  27.606  34.276  1.00  0.00     0.023 A 
ATOM     82  C   UNL A   1      45.756  28.313  34.369  1.00  0.00     0.012 A 
ATOM     83  C   UNL A   1      44.349  26.449  35.056  1.00  0.00     0.148 A 
ATOM     84  C   UNL A   1      46.776  27.860  35.206  1.00  0.00     0.002 A 
ATOM     85  C   UNL A   1      45.352  26.031  35.923  1.00  0.00     0.091 A 
ATOM     86  F   UNL A   1      43.194  25.781  34.936  1.00  0.00    -0.205 F 
ATOM     87  C   UNL A   1      46.570  26.727  35.990  1.00  0.00     0.022 A 
BRANCH  85  88
ATOM     88  S   UNL A   1      45.139  24.638  37.037  1.00  0.00     0.127 S 
ATOM     89  O   UNL A   1      46.432  24.598  37.715  1.00  0.00    -0.237 OA
ATOM     90  O   UNL A   1      44.023  25.079  37.876  1.00  0.00    -0.237 OA
ATOM     91  O   UNL A   1      44.839  23.491  36.191  1.00  0.00    -0.744 OA
ENDBRANCH  85  88
ENDBRANCH  58  81
ENDBRANCH  32  33
ENDBRANCH  25  27
ENDBRANCH  24  25
ENDBRANCH  23  24
ENDBRANCH   1  23
TORSDOF 19
ENDMDL
MODEL 2
REMARK VINA RESULT:     -11.0      1.977      2.504
REMARK SMILES Cc1nc(C)c(C(=O)N[C@@H](CCS(C)(=O)=O)C(=O)OCCOC(=O)c2ccc(-c3c4nc(c(-c5cccc(S(=O)(=O)[O-])c5F)c5ccc([nH]5)c(-c5cccc(S(=O)(=O)[O-])c5F)c5nc(c(-c6cccc(S(=O)(=O)[O-])c6F)c6ccc3[nH]6)C=C5)C=C4)cc2)s1
REMARK SMILES IDX 20 1 19 2 17 3 18 4 10 5 9 6 7 7 8 8 6 10 1 11 2 12 3 13
REMARK SMILES IDX 88 14 4 15 5 16 11 17 12 18 13 19 14 20 15 21 16 22 21 23
REMARK SMILES IDX 22 24 23 25 24 26 25 27 26 28 87 29 27 30 86 31 28 32 29 33
REMARK SMILES IDX 30 34 80 35 31 36 85 37 79 38 81 39 32 40 84 41 78 42 77 43
REMARK SMILES IDX 33 45 65 46 45 47 64 48 46 49 49 50 63 51 82 52 47 53 48 54
REMARK SMILES IDX 62 56 83 57 50 58 34 59 35 60 43 61 36 62 38 63 44 64 37 65
REMARK SMILES IDX 39 66 40 67 41 68 42 69 66 70 67 71 75 72 68 73 70 74 76 75
REMARK SMILES IDX 69 76 71 77 72 78 73 79 74 80 51 81 52 82 60 83 53 84 55 85
REMARK SMILES IDX 61 86 54 87 56 88 57 89 58 90 59 91
REMARK H PARENT 9 9 81 44 49 55
REMARK Flexibility Score: inf
ROOT
ATOM      1  C   UNL A   1      33.032  29.461  24.918  1.00  0.00     0.274 C 
ENDROOT
BRANCH   1   2
ATOM      2  O   UNL A   1      32.942  28.132  25.479  1.00  0.00    -0.461 OA
BRANCH   2   3
ATOM      3  C   UNL A   1      31.763  27.493  25.312  1.00  0.00     0.328 C 
ATOM      4  O   UNL A   1      31.041  27.103  26.223  1.00  0.00    -0.250 OA
BRANCH   3   5
ATOM      5  C   UNL A   1      31.426  27.195  23.844  1.00  0.00     0.193 C 
BRANCH   5   6
ATOM      6  N   UNL A   1      30.897  25.868  23.535  1.00  0.00    -0.338 N 
ATOM      7  C   UNL A   1      31.335  24.576  23.761  1.00  0.00     0.263 C 
ATOM      8  O   UNL A   1      30.569  23.719  23.307  1.00  0.00    -0.268 OA
ATOM      9  H   UNL A   1      30.036  25.901  23.060  1.00  0.00     0.164 HD
BRANCH   7  10
ATOM     10  C   UNL A   1      32.554  24.205  24.482  1.00  0.00     0.115 A 
ATOM     11  C   UNL A   1      36.301  23.765  25.497  1.00  0.00     0.079 C 
ATOM     12  C   UNL A   1      34.820  23.787  25.310  1.00  0.00     0.091 A 
ATOM     13  N   UNL A   1      33.960  23.641  26.286  1.00  0.00    -0.246 NA
ATOM     14  S   UNL A   1      34.108  24.001  23.768  1.00  0.00    -0.113 S 
ATOM     15  C   UNL A   1      32.664  23.834  25.826  1.00  0.00     0.061 A 
ATOM     16  C   UNL A   1      31.596  23.646  26.850  1.00  0.00     0.068 C 
ENDBRANCH   7  10
ENDBRANCH   5   6
BRANCH   5  17
ATOM     17  C   UNL A   1      30.546  28.306  23.234  1.00  0.00     0.053 C 
BRANCH  17  18
ATOM     18  C   UNL A   1      29.031  28.111  23.203  1.00  0.00     0.139 C 
BRANCH  18  19
ATOM     19  S   UNL A   1      27.975  29.472  22.726  1.00  0.00     0.147 S 
ATOM     20  C   UNL A   1      28.530  30.949  23.554  1.00  0.00     0.158 C 
ATOM     21  O   UNL A   1      28.179  29.691  21.305  1.00  0.00    -0.229 OA
ATOM     22  O   UNL A   1      26.642  29.165  23.208  1.00  0.00    -0.229 OA
ENDBRANCH  18  19
ENDBRANCH  17  18
ENDBRANCH   5  17
ENDBRANCH   3   5
ENDBRANCH   2   3
ENDBRANCH   1   2
BRANCH   1  23
ATOM     23  C   UNL A   1      32.314  30.471  25.810  1.00  0.00     0.275 C 
BRANCH  23  24
ATOM     24  O   UNL A   1      32.875  30.456  27.132  1.00  0.00    -0.458 OA
BRANCH  24  25
ATOM     25  C   UNL A   1      33.524  31.589  27.477  1.00  0.00     0.338 C 
ATOM     26  O   UNL A   1      33.051  32.712  27.612  1.00  0.00    -0.246 OA
BRANCH  25  27
ATOM     27  C   UNL A   1      34.883  31.250  27.896  1.00  0.00     0.060 A 
ATOM     28  C   UNL A   1      35.111  29.940  28.310  1.00  0.00     0.016 A 
ATOM     29  C   UNL A   1      35.892  32.205  27.972  1.00  0.00     0.016 A 
ATOM     30  C   UNL A   1      36.332  29.581  28.854  1.00  0.00     0.010 A 
ATOM     31  C   UNL A   1      37.130  31.839  28.509  1.00  0.00     0.010 A 
ATOM     32  C   UNL A   1      37.345  30.533  28.987  1.00  0.00    -0.014 A 
BRANCH  32  33
ATOM     33  C   UNL A   1      38.579  30.175  29.729  1.00  0.00     0.031 A 
ATOM     34  C   UNL A   1      39.567  29.234  29.099  1.00  0.00     0.074 A 
ATOM     35  C   UNL A   1      38.839  30.724  30.930  1.00  0.00     0.049 A 
ATOM     36  N   UNL A   1      40.613  28.660  29.630  1.00  0.00    -0.248 NA
ATOM     37  C   UNL A   1      39.341  28.888  27.685  1.00  0.00     0.031 C 
ATOM     38  C   UNL A   1      37.995  31.705  31.613  1.00  0.00     0.029 A 
ATOM     39  N   UNL A   1      39.884  30.525  31.795  1.00  0.00    -0.354 N 
ATOM     40  C   UNL A   1      41.123  27.823  28.644  1.00  0.00     0.074 A 
ATOM     41  C   UNL A   1      40.282  27.979  27.476  1.00  0.00     0.031 C 
ATOM     42  C   UNL A   1      38.553  32.021  32.792  1.00  0.00     0.029 A 
ATOM     43  C   UNL A   1      39.750  31.208  32.982  1.00  0.00     0.049 A 
ATOM     44  H   UNL A   1      40.656  29.950  31.588  1.00  0.00     0.167 HD
ATOM     45  C   UNL A   1      42.198  27.004  28.708  1.00  0.00     0.034 A 
ATOM     46  C   UNL A   1      40.477  31.145  34.114  1.00  0.00     0.034 A 
ATOM     47  C   UNL A   1      43.071  26.915  29.848  1.00  0.00     0.049 A 
ATOM     48  C   UNL A   1      41.656  30.212  34.167  1.00  0.00     0.074 A 
ATOM     49  C   UNL A   1      44.203  26.137  30.007  1.00  0.00     0.029 A 
ATOM     50  N   UNL A   1      42.913  27.638  31.021  1.00  0.00    -0.354 N 
ATOM     51  N   UNL A   1      42.139  29.437  33.225  1.00  0.00    -0.248 NA
ATOM     52  C   UNL A   1      42.396  30.149  35.435  1.00  0.00     0.031 C 
ATOM     53  C   UNL A   1      44.723  26.379  31.283  1.00  0.00     0.029 A 
ATOM     54  C   UNL A   1      43.927  27.325  31.910  1.00  0.00     0.049 A 
ATOM     55  H   UNL A   1      42.188  28.280  31.196  1.00  0.00     0.167 HD
ATOM     56  C   UNL A   1      43.251  28.812  33.778  1.00  0.00     0.074 A 
ATOM     57  C   UNL A   1      43.386  29.322  35.128  1.00  0.00     0.031 C 
ATOM     58  C   UNL A   1      44.073  27.884  33.229  1.00  0.00     0.034 A 
BRANCH  45  59
ATOM     59  C   UNL A   1      42.496  26.141  27.511  1.00  0.00     0.023 A 
ATOM     60  C   UNL A   1      43.261  26.650  26.443  1.00  0.00     0.012 A 
ATOM     61  C   UNL A   1      42.056  24.802  27.469  1.00  0.00     0.148 A 
ATOM     62  C   UNL A   1      43.558  25.851  25.339  1.00  0.00     0.002 A 
ATOM     63  C   UNL A   1      42.394  23.998  26.387  1.00  0.00     0.091 A 
ATOM     64  F   UNL A   1      41.308  24.343  28.483  1.00  0.00    -0.205 F 
ATOM     65  C   UNL A   1      43.135  24.524  25.316  1.00  0.00     0.022 A 
BRANCH  63  66
ATOM     66  S   UNL A   1      41.961  22.256  26.303  1.00  0.00     0.127 S 
ATOM     67  O   UNL A   1      40.504  22.319  26.193  1.00  0.00    -0.237 OA
ATOM     68  O   UNL A   1      42.647  21.827  25.084  1.00  0.00    -0.237 OA
ATOM     69  O   UNL A   1      42.470  21.657  27.528  1.00  0.00    -0.744 OA
ENDBRANCH  63  66
ENDBRANCH  45  59
BRANCH  46  70
ATOM     70  C   UNL A   1      40.106  31.985  35.287  1.00  0.00     0.023 A 
ATOM     71  C   UNL A   1      40.666  33.269  35.429  1.00  0.00     0.012 A 
ATOM     72  C   UNL A   1      39.177  31.532  36.246  1.00  0.00     0.148 A 
ATOM     73  C   UNL A   1      40.326  34.077  36.515  1.00  0.00     0.002 A 
ATOM     74  C   UNL A   1      38.794  32.367  37.289  1.00  0.00     0.091 A 
ATOM     75  F   UNL A   1      38.674  30.297  36.111  1.00  0.00    -0.205 F 
ATOM     76  C   UNL A   1      39.379  33.633  37.435  1.00  0.00     0.022 A 
BRANCH  74  77
ATOM     77  S   UNL A   1      37.472  31.931  38.426  1.00  0.00     0.127 S 
ATOM     78  O   UNL A   1      38.120  32.114  39.721  1.00  0.00    -0.237 OA
ATOM     79  O   UNL A   1      36.451  32.928  38.099  1.00  0.00    -0.237 OA
ATOM     80  O   UNL A   1      37.101  30.564  38.086  1.00  0.00    -0.744 OA
ENDBRANCH  74  77
ENDBRANCH  46  70
BRANCH  58  81
ATOM     81  C   UNL A   1      45.214  27.382  34.074  1.00  0.00     0.023 A 
ATOM     82  C   UNL A   1      46.448  28.061  34.057  1.00  0.00     0.012 A 
ATOM     83  C   UNL A   1      45.038  26.281  34.934  1.00  0.00     0.148 A 
ATOM     84  C   UNL A   1      47.502  27.632  34.862  1.00  0.00     0.002 A 
ATOM     85  C   UNL A   1      46.079  25.888  35.768  1.00  0.00     0.091 A 
ATOM     86  F   UNL A   1      43.863  25.637  34.919  1.00  0.00    -0.205 F 
ATOM     87  C   UNL A   1      47.315  26.555  35.725  1.00  0.00     0.022 A 
BRANCH  85  88
ATOM     88  S   UNL A   1      45.896  24.571  36.976  1.00  0.00     0.127 S 
ATOM     89  O   UNL A   1      45.769  23.396  36.117  1.00  0.00    -0.237 OA
ATOM     90  O   UNL A   1      47.156  24.652  37.717  1.00  0.00    -0.237 OA
ATOM     91  O   UNL A   1      44.715  24.907  37.759  1.00  0.00    -0.744 OA
ENDBRANCH  85  88
ENDBRANCH  58  81
ENDBRANCH  32  33
ENDBRANCH  25  27
ENDBRANCH  24  25
ENDBRANCH  23  24
ENDBRANCH   1  23
TORSDOF 19
ENDMDL
MODEL 3
REMARK VINA RESULT:     -10.7      1.897      3.277
REMARK SMILES Cc1nc(C)c(C(=O)N[C@@H](CCS(C)(=O)=O)C(=O)OCCOC(=O)c2ccc(-c3c4nc(c(-c5cccc(S(=O)(=O)[O-])c5F)c5ccc([nH]5)c(-c5cccc(S(=O)(=O)[O-])c5F)c5nc(c(-c6cccc(S(=O)(=O)[O-])c6F)c6ccc3[nH]6)C=C5)C=C4)cc2)s1
REMARK SMILES IDX 20 1 19 2 17 3 18 4 10 5 9 6 7 7 8 8 6 10 1 11 2 12 3 13
REMARK SMILES IDX 88 14 4 15 5 16 11 17 12 18 13 19 14 20 15 21 16 22 21 23
REMARK SMILES IDX 22 24 23 25 24 26 25 27 26 28 87 29 27 30 86 31 28 32 29 33
REMARK SMILES IDX 30 34 80 35 31 36 85 37 79 38 81 39 32 40 84 41 78 42 77 43
REMARK SMILES IDX 33 45 65 46 45 47 64 48 46 49 49 50 63 51 82 52 47 53 48 54
REMARK SMILES IDX 62 56 83 57 50 58 34 59 35 60 43 61 36 62 38 63 44 64 37 65
REMARK SMILES IDX 39 66 40 67 41 68 42 69 66 70 67 71 75 72 68 73 70 74 76 75
REMARK SMILES IDX 69 76 71 77 72 78 73 79 74 80 51 81 52 82 60 83 53 84 55 85
REMARK SMILES IDX 61 86 54 87 56 88 57 89 58 90 59 91
REMARK H PARENT 9 9 81 44 49 55
REMARK Flexibility Score: inf
ROOT
ATOM      1  C   UNL A   1      31.778  28.545  27.494  1.00  0.00     0.274 C 
ENDROOT
BRANCH   1   2
ATOM      2  O   UNL A   1      31.418  27.550  26.510  1.00  0.00    -0.461 OA
BRANCH   2   3
ATOM      3  C   UNL A   1      32.377  26.653  26.191  1.00  0.00     0.328 C 
ATOM      4  O   UNL A   1      33.583  26.875  26.221  1.00  0.00    -0.250 OA
BRANCH   3   5
ATOM      5  C   UNL A   1      31.826  25.316  25.677  1.00  0.00     0.193 C 
BRANCH   5   6
ATOM      6  N   UNL A   1      31.931  25.056  24.242  1.00  0.00    -0.338 N 
ATOM      7  C   UNL A   1      31.688  25.803  23.103  1.00  0.00     0.263 C 
ATOM      8  O   UNL A   1      31.896  25.175  22.060  1.00  0.00    -0.268 OA
ATOM      9  H   UNL A   1      32.246  24.146  24.041  1.00  0.00     0.164 HD
BRANCH   7  10
ATOM     10  C   UNL A   1      31.255  27.201  23.079  1.00  0.00     0.115 A 
ATOM     11  C   UNL A   1      29.144  30.461  23.501  1.00  0.00     0.079 C 
ATOM     12  C   UNL A   1      30.117  29.365  23.220  1.00  0.00     0.091 A 
ATOM     13  N   UNL A   1      31.403  29.552  23.071  1.00  0.00    -0.246 NA
ATOM     14  S   UNL A   1      29.617  27.735  23.057  1.00  0.00    -0.113 S 
ATOM     15  C   UNL A   1      32.063  28.336  22.948  1.00  0.00     0.061 A 
ATOM     16  C   UNL A   1      33.534  28.434  22.727  1.00  0.00     0.068 C 
ENDBRANCH   7  10
ENDBRANCH   5   6
BRANCH   5  17
ATOM     17  C   UNL A   1      32.367  24.131  26.503  1.00  0.00     0.053 C 
BRANCH  17  18
ATOM     18  C   UNL A   1      33.660  23.451  26.055  1.00  0.00     0.139 C 
BRANCH  18  19
ATOM     19  S   UNL A   1      33.690  21.680  25.819  1.00  0.00     0.147 S 
ATOM     20  C   UNL A   1      32.153  21.171  25.073  1.00  0.00     0.158 C 
ATOM     21  O   UNL A   1      34.735  21.398  24.849  1.00  0.00    -0.229 OA
ATOM     22  O   UNL A   1      33.769  21.076  27.134  1.00  0.00    -0.229 OA
ENDBRANCH  18  19
ENDBRANCH  17  18
ENDBRANCH   5  17
ENDBRANCH   3   5
ENDBRANCH   2   3
ENDBRANCH   1   2
BRANCH   1  23
ATOM     23  C   UNL A   1      31.785  29.939  26.872  1.00  0.00     0.275 C 
BRANCH  23  24
ATOM     24  O   UNL A   1      33.127  30.333  26.543  1.00  0.00    -0.458 OA
BRANCH  24  25
ATOM     25  C   UNL A   1      33.590  31.387  27.250  1.00  0.00     0.338 C 
ATOM     26  O   UNL A   1      32.963  32.373  27.621  1.00  0.00    -0.246 OA
BRANCH  25  27
ATOM     27  C   UNL A   1      34.940  31.088  27.722  1.00  0.00     0.060 A 
ATOM     28  C   UNL A   1      35.242  29.752  27.976  1.00  0.00     0.016 A 
ATOM     29  C   UNL A   1      35.864  32.091  27.999  1.00  0.00     0.016 A 
ATOM     30  C   UNL A   1      36.450  29.407  28.558  1.00  0.00     0.010 A 
ATOM     31  C   UNL A   1      37.090  31.740  28.575  1.00  0.00     0.010 A 
ATOM     32  C   UNL A   1      37.375  30.399  28.892  1.00  0.00    -0.014 A 
BRANCH  32  33
ATOM     33  C   UNL A   1      38.581  30.028  29.670  1.00  0.00     0.031 A 
ATOM     34  C   UNL A   1      39.574  29.071  29.075  1.00  0.00     0.074 A 
ATOM     35  C   UNL A   1      38.814  30.581  30.876  1.00  0.00     0.049 A 
ATOM     36  N   UNL A   1      40.596  28.485  29.639  1.00  0.00    -0.248 NA
ATOM     37  C   UNL A   1      39.384  28.719  27.657  1.00  0.00     0.031 C 
ATOM     38  C   UNL A   1      37.964  31.578  31.529  1.00  0.00     0.029 A 
ATOM     39  N   UNL A   1      39.832  30.373  31.771  1.00  0.00    -0.354 N 
ATOM     40  C   UNL A   1      41.123  27.636  28.673  1.00  0.00     0.074 A 
ATOM     41  C   UNL A   1      40.318  27.796  27.481  1.00  0.00     0.031 C 
ATOM     42  C   UNL A   1      38.493  31.893  32.721  1.00  0.00     0.029 A 
ATOM     43  C   UNL A   1      39.672  31.065  32.950  1.00  0.00     0.049 A 
ATOM     44  H   UNL A   1      40.601  29.786  31.590  1.00  0.00     0.167 HD
ATOM     45  C   UNL A   1      42.184  26.802  28.773  1.00  0.00     0.034 A 
ATOM     46  C   UNL A   1      40.366  30.999  34.103  1.00  0.00     0.034 A 
ATOM     47  C   UNL A   1      43.022  26.708  29.938  1.00  0.00     0.049 A 
ATOM     48  C   UNL A   1      41.530  30.050  34.196  1.00  0.00     0.074 A 
ATOM     49  C   UNL A   1      44.139  25.916  30.134  1.00  0.00     0.029 A 
ATOM     50  N   UNL A   1      42.841  27.440  31.102  1.00  0.00    -0.354 N 
ATOM     51  N   UNL A   1      42.029  29.263  33.273  1.00  0.00    -0.248 NA
ATOM     52  C   UNL A   1      42.231  29.984  35.485  1.00  0.00     0.031 C 
ATOM     53  C   UNL A   1      44.625  26.158  31.423  1.00  0.00     0.029 A 
ATOM     54  C   UNL A   1      43.824  27.118  32.021  1.00  0.00     0.049 A 
ATOM     55  H   UNL A   1      42.120  28.093  31.252  1.00  0.00     0.167 HD
ATOM     56  C   UNL A   1      43.115  28.626  33.860  1.00  0.00     0.074 A 
ATOM     57  C   UNL A   1      43.219  29.142  35.211  1.00  0.00     0.031 C 
ATOM     58  C   UNL A   1      43.940  27.684  33.341  1.00  0.00     0.034 A 
BRANCH  45  59
ATOM     59  C   UNL A   1      42.504  25.928  27.589  1.00  0.00     0.023 A 
ATOM     60  C   UNL A   1      43.333  26.409  26.557  1.00  0.00     0.012 A 
ATOM     61  C   UNL A   1      42.021  24.605  27.528  1.00  0.00     0.148 A 
ATOM     62  C   UNL A   1      43.650  25.599  25.466  1.00  0.00     0.002 A 
ATOM     63  C   UNL A   1      42.377  23.789  26.461  1.00  0.00     0.091 A 
ATOM     64  F   UNL A   1      41.214  24.173  28.507  1.00  0.00    -0.205 F 
ATOM     65  C   UNL A   1      43.182  24.287  25.424  1.00  0.00     0.022 A 
BRANCH  63  66
ATOM     66  S   UNL A   1      41.889  22.063  26.358  1.00  0.00     0.127 S 
ATOM     67  O   UNL A   1      42.704  21.592  25.239  1.00  0.00    -0.237 OA
ATOM     68  O   UNL A   1      42.293  21.548  27.666  1.00  0.00    -0.237 OA
ATOM     69  O   UNL A   1      40.451  22.066  26.126  1.00  0.00    -0.744 OA
ENDBRANCH  63  66
ENDBRANCH  45  59
BRANCH  46  70
ATOM     70  C   UNL A   1      39.973  31.851  35.261  1.00  0.00     0.023 A 
ATOM     71  C   UNL A   1      40.486  33.157  35.370  1.00  0.00     0.012 A 
ATOM     72  C   UNL A   1      39.068  31.386  36.237  1.00  0.00     0.148 A 
ATOM     73  C   UNL A   1      40.125  33.976  36.440  1.00  0.00     0.002 A 
ATOM     74  C   UNL A   1      38.662  32.229  37.264  1.00  0.00     0.091 A 
ATOM     75  F   UNL A   1      38.609  30.131  36.133  1.00  0.00    -0.205 F 
ATOM     76  C   UNL A   1      39.202  33.519  37.378  1.00  0.00     0.022 A 
BRANCH  74  77
ATOM     77  S   UNL A   1      37.365  31.772  38.420  1.00  0.00     0.127 S 
ATOM     78  O   UNL A   1      37.110  30.383  38.049  1.00  0.00    -0.237 OA
ATOM     79  O   UNL A   1      38.032  31.955  39.711  1.00  0.00    -0.237 OA
ATOM     80  O   UNL A   1      36.276  32.708  38.175  1.00  0.00    -0.744 OA
ENDBRANCH  74  77
ENDBRANCH  46  70
BRANCH  58  81
ATOM     81  C   UNL A   1      45.049  27.171  34.221  1.00  0.00     0.023 A 
ATOM     82  C   UNL A   1      46.286  27.843  34.249  1.00  0.00     0.012 A 
ATOM     83  C   UNL A   1      44.839  26.066  35.069  1.00  0.00     0.148 A 
ATOM     84  C   UNL A   1      47.311  27.404  35.087  1.00  0.00     0.002 A 
ATOM     85  C   UNL A   1      45.848  25.664  35.936  1.00  0.00     0.091 A 
ATOM     86  F   UNL A   1      43.661  25.429  35.011  1.00  0.00    -0.205 F 
ATOM     87  C   UNL A   1      47.088  26.324  35.938  1.00  0.00     0.022 A 
BRANCH  85  88
ATOM     88  S   UNL A   1      45.618  24.342  37.130  1.00  0.00     0.127 S 
ATOM     89  O   UNL A   1      44.468  24.826  37.891  1.00  0.00    -0.237 OA
ATOM     90  O   UNL A   1      45.339  23.191  36.269  1.00  0.00    -0.237 OA
ATOM     91  O   UNL A   1      46.867  24.250  37.872  1.00  0.00    -0.744 OA
ENDBRANCH  85  88
ENDBRANCH  58  81
ENDBRANCH  32  33
ENDBRANCH  25  27
ENDBRANCH  24  25
ENDBRANCH  23  24
ENDBRANCH   1  23
TORSDOF 19
ENDMDL
