MODEL 1
REMARK VINA RESULT:     -12.7      0.000      0.000
REMARK SMILES Cc1c(C(=O)Nc2ccc(C(=O)Nc3ccccc3C(=O)OCCOC(=O)c3ccc(-c4c5nc(c(-c6cccc(S(=O)(=O)[O-])c6F)c6ccc([nH]6)c(-c6cccc(S(=O)(=O)[O-])c6F)c6nc(c(-c7cccc(S(=O)(=O)[O-])c7F)c7ccc4[nH]7)C=C6)C=C5)cc3)cc2)cccc1[N+](=O)[O-]
REMARK SMILES IDX 23 1 22 2 20 3 21 4 19 5 14 6 15 7 16 8 18 9 17 10 13 11
REMARK SMILES IDX 11 12 12 13 10 15 7 16 8 17 92 18 9 19 91 20 6 21 4 22 5 23
REMARK SMILES IDX 3 25 1 26 2 27 96 28 93 29 95 30 94 31 97 32 98 33 99 34
REMARK SMILES IDX 24 35 25 36 26 37 27 38 28 39 29 40 90 41 30 42 89 43 31 44
REMARK SMILES IDX 32 45 33 46 83 47 34 48 88 49 82 50 84 51 35 52 87 53 81 54
REMARK SMILES IDX 80 55 36 57 68 58 48 59 67 60 49 61 52 62 66 63 85 64 50 65
REMARK SMILES IDX 51 66 65 68 86 69 53 70 37 71 38 72 46 73 39 74 41 75 47 76
REMARK SMILES IDX 40 77 42 78 43 79 44 80 45 81 69 82 70 83 78 84 71 85 73 86
REMARK SMILES IDX 79 87 72 88 74 89 75 90 76 91 77 92 54 93 55 94 63 95 56 96
REMARK SMILES IDX 58 97 64 98 57 99 59 100 60 101 61 102 62 103
REMARK H PARENT 13 14 6 24 84 56 52 67
REMARK Flexibility Score: inf
ROOT
ATOM      1  C   UNL A   1      41.662  19.245  26.183  1.00  0.00     0.275 C 
ENDROOT
BRANCH   1   2
ATOM      2  O   UNL A   1      40.410  19.966  26.002  1.00  0.00    -0.458 OA
BRANCH   2   3
ATOM      3  C   UNL A   1      40.171  21.005  26.827  1.00  0.00     0.340 C 
ATOM      4  O   UNL A   1      40.776  21.090  27.862  1.00  0.00    -0.246 OA
BRANCH   3   5
ATOM      5  C   UNL A   1      39.213  22.066  26.376  1.00  0.00     0.083 A 
ATOM      6  C   UNL A   1      38.093  21.810  25.520  1.00  0.00     0.056 A 
ATOM      7  C   UNL A   1      37.287  22.900  25.140  1.00  0.00     0.027 A 
ATOM      8  C   UNL A   1      37.494  24.179  25.651  1.00  0.00     0.002 A 
ATOM      9  C   UNL A   1      39.428  23.377  26.849  1.00  0.00     0.018 A 
ATOM     10  C   UNL A   1      38.561  24.418  26.507  1.00  0.00     0.001 A 
BRANCH   6  11
ATOM     11  N   UNL A   1      37.582  20.571  25.007  1.00  0.00    -0.321 N 
ATOM     12  C   UNL A   1      36.317  19.992  24.933  1.00  0.00     0.255 C 
ATOM     13  O   UNL A   1      36.171  18.848  24.497  1.00  0.00    -0.269 OA
ATOM     14  H   UNL A   1      38.284  20.002  24.617  1.00  0.00     0.170 HD
BRANCH  12  15
ATOM     15  C   UNL A   1      35.091  20.731  25.329  1.00  0.00     0.040 A 
ATOM     16  C   UNL A   1      32.702  21.652  26.414  1.00  0.00     0.041 A 
ATOM     17  C   UNL A   1      33.847  21.583  27.185  1.00  0.00     0.027 A 
ATOM     18  C   UNL A   1      32.692  21.095  25.133  1.00  0.00     0.027 A 
ATOM     19  C   UNL A   1      35.060  21.340  26.573  1.00  0.00     0.016 A 
ATOM     20  C   UNL A   1      33.897  20.610  24.593  1.00  0.00     0.016 A 
BRANCH  16  21
ATOM     21  N   UNL A   1      31.645  22.457  26.861  1.00  0.00    -0.322 N 
ATOM     22  C   UNL A   1      31.415  23.789  26.512  1.00  0.00     0.256 C 
ATOM     23  O   UNL A   1      30.511  24.413  27.070  1.00  0.00    -0.269 OA
ATOM     24  H   UNL A   1      31.003  22.042  27.482  1.00  0.00     0.170 HD
BRANCH  22  25
ATOM     25  C   UNL A   1      32.261  24.516  25.476  1.00  0.00     0.049 A 
ATOM     26  C   UNL A   1      30.706  24.121  23.498  1.00  0.00     0.053 C 
ATOM     27  C   UNL A   1      32.061  24.485  24.060  1.00  0.00     0.039 A 
ATOM     28  C   UNL A   1      33.172  24.830  23.235  1.00  0.00     0.273 A 
ATOM     29  C   UNL A   1      33.413  25.128  26.004  1.00  0.00     0.014 A 
ATOM     30  C   UNL A   1      34.321  25.418  23.798  1.00  0.00     0.086 A 
ATOM     31  C   UNL A   1      34.413  25.618  25.170  1.00  0.00     0.008 A 
BRANCH  28  32
ATOM     32  N   UNL A   1      33.280  24.468  21.791  1.00  0.00     0.063 N 
ATOM     33  O   UNL A   1      33.460  23.271  21.519  1.00  0.00    -0.258 OA
ATOM     34  O   UNL A   1      33.173  25.351  20.936  1.00  0.00    -0.258 OA
ENDBRANCH  28  32
ENDBRANCH  22  25
ENDBRANCH  16  21
ENDBRANCH  12  15
ENDBRANCH   6  11
ENDBRANCH   3   5
ENDBRANCH   2   3
ENDBRANCH   1   2
BRANCH   1  35
ATOM     35  C   UNL A   1      43.035  19.499  25.441  1.00  0.00     0.275 C 
BRANCH  35  36
ATOM     36  O   UNL A   1      43.683  20.705  24.866  1.00  0.00    -0.458 OA
BRANCH  36  37
ATOM     37  C   UNL A   1      44.922  21.249  24.770  1.00  0.00     0.338 C 
ATOM     38  O   UNL A   1      45.835  20.749  24.123  1.00  0.00    -0.246 OA
BRANCH  37  39
ATOM     39  C   UNL A   1      45.110  22.484  25.499  1.00  0.00     0.060 A 
ATOM     40  C   UNL A   1      45.005  22.483  26.909  1.00  0.00     0.016 A 
ATOM     41  C   UNL A   1      45.673  23.516  24.769  1.00  0.00     0.016 A 
ATOM     42  C   UNL A   1      45.624  23.486  27.629  1.00  0.00     0.010 A 
ATOM     43  C   UNL A   1      46.337  24.478  25.466  1.00  0.00     0.010 A 
ATOM     44  C   UNL A   1      46.202  24.500  26.877  1.00  0.00    -0.014 A 
BRANCH  44  45
ATOM     45  C   UNL A   1      46.013  25.873  27.301  1.00  0.00     0.031 A 
ATOM     46  C   UNL A   1      44.638  26.392  27.271  1.00  0.00     0.074 A 
ATOM     47  C   UNL A   1      47.054  26.083  28.156  1.00  0.00     0.049 A 
ATOM     48  N   UNL A   1      44.301  27.585  27.597  1.00  0.00    -0.248 NA
ATOM     49  C   UNL A   1      43.487  25.597  26.809  1.00  0.00     0.031 C 
ATOM     50  C   UNL A   1      47.119  26.583  29.514  1.00  0.00     0.029 A 
ATOM     51  N   UNL A   1      48.374  25.616  27.976  1.00  0.00    -0.354 N 
ATOM     52  C   UNL A   1      42.951  27.510  27.893  1.00  0.00     0.074 A 
ATOM     53  C   UNL A   1      42.460  26.389  27.136  1.00  0.00     0.031 C 
ATOM     54  C   UNL A   1      48.425  26.728  29.850  1.00  0.00     0.029 A 
ATOM     55  C   UNL A   1      49.223  26.466  28.651  1.00  0.00     0.049 A 
ATOM     56  H   UNL A   1      48.642  24.821  27.460  1.00  0.00     0.167 HD
ATOM     57  C   UNL A   1      42.504  28.161  29.007  1.00  0.00     0.034 A 
ATOM     58  C   UNL A   1      49.932  27.360  27.890  1.00  0.00     0.034 A 
ATOM     59  C   UNL A   1      43.662  28.800  29.680  1.00  0.00     0.049 A 
ATOM     60  C   UNL A   1      49.345  28.744  28.099  1.00  0.00     0.074 A 
ATOM     61  C   UNL A   1      44.404  28.441  30.794  1.00  0.00     0.029 A 
ATOM     62  N   UNL A   1      44.434  29.734  28.992  1.00  0.00    -0.354 N 
ATOM     63  N   UNL A   1      48.154  28.968  28.581  1.00  0.00    -0.248 NA
ATOM     64  C   UNL A   1      50.067  29.972  27.810  1.00  0.00     0.031 C 
ATOM     65  C   UNL A   1      45.655  29.126  30.730  1.00  0.00     0.029 A 
ATOM     66  C   UNL A   1      45.691  29.881  29.569  1.00  0.00     0.049 A 
ATOM     67  H   UNL A   1      44.128  30.228  28.197  1.00  0.00     0.167 HD
ATOM     68  C   UNL A   1      47.898  30.301  28.627  1.00  0.00     0.074 A 
ATOM     69  C   UNL A   1      49.161  30.890  28.191  1.00  0.00     0.031 C 
ATOM     70  C   UNL A   1      46.666  30.797  28.966  1.00  0.00     0.034 A 
BRANCH  57  71
ATOM     71  C   UNL A   1      41.160  27.975  29.713  1.00  0.00     0.023 A 
ATOM     72  C   UNL A   1      40.281  27.021  29.142  1.00  0.00     0.012 A 
ATOM     73  C   UNL A   1      40.676  28.623  30.879  1.00  0.00     0.148 A 
ATOM     74  C   UNL A   1      39.002  26.760  29.644  1.00  0.00     0.002 A 
ATOM     75  C   UNL A   1      39.387  28.373  31.377  1.00  0.00     0.091 A 
ATOM     76  F   UNL A   1      41.466  29.455  31.558  1.00  0.00    -0.205 F 
ATOM     77  C   UNL A   1      38.548  27.443  30.757  1.00  0.00     0.022 A 
BRANCH  75  78
ATOM     78  S   UNL A   1      38.699  29.213  32.822  1.00  0.00     0.127 S 
ATOM     79  O   UNL A   1      37.441  28.491  33.028  1.00  0.00    -0.237 OA
ATOM     80  O   UNL A   1      39.714  28.960  33.844  1.00  0.00    -0.237 OA
ATOM     81  O   UNL A   1      38.532  30.610  32.445  1.00  0.00    -0.744 OA
ENDBRANCH  75  78
ENDBRANCH  57  71
BRANCH  58  82
ATOM     82  C   UNL A   1      50.361  26.816  26.529  1.00  0.00     0.023 A 
ATOM     83  C   UNL A   1      49.750  27.366  25.369  1.00  0.00     0.012 A 
ATOM     84  C   UNL A   1      51.575  26.120  26.354  1.00  0.00     0.148 A 
ATOM     85  C   UNL A   1      50.384  27.331  24.118  1.00  0.00     0.002 A 
ATOM     86  C   UNL A   1      52.216  26.116  25.105  1.00  0.00     0.091 A 
ATOM     87  F   UNL A   1      52.135  25.519  27.412  1.00  0.00    -0.205 F 
ATOM     88  C   UNL A   1      51.631  26.733  23.992  1.00  0.00     0.022 A 
BRANCH  86  89
ATOM     89  S   UNL A   1      53.921  25.543  24.957  1.00  0.00     0.127 S 
ATOM     90  O   UNL A   1      54.612  26.251  26.041  1.00  0.00    -0.237 OA
ATOM     91  O   UNL A   1      53.825  24.108  25.179  1.00  0.00    -0.237 OA
ATOM     92  O   UNL A   1      54.277  25.981  23.612  1.00  0.00    -0.744 OA
ENDBRANCH  86  89
ENDBRANCH  58  82
BRANCH  70  93
ATOM     93  C   UNL A   1      46.257  32.235  28.741  1.00  0.00     0.023 A 
ATOM     94  C   UNL A   1      46.037  33.122  29.811  1.00  0.00     0.012 A 
ATOM     95  C   UNL A   1      46.221  32.792  27.438  1.00  0.00     0.148 A 
ATOM     96  C   UNL A   1      45.673  34.452  29.607  1.00  0.00     0.002 A 
ATOM     97  C   UNL A   1      46.021  34.151  27.249  1.00  0.00     0.091 A 
ATOM     98  F   UNL A   1      46.359  32.006  26.360  1.00  0.00    -0.205 F 
ATOM     99  C   UNL A   1      45.688  34.975  28.325  1.00  0.00     0.022 A 
BRANCH  97 100
ATOM    100  S   UNL A   1      46.351  34.921  25.661  1.00  0.00     0.127 S 
ATOM    101  O   UNL A   1      47.698  34.438  25.366  1.00  0.00    -0.237 OA
ATOM    102  O   UNL A   1      45.299  34.351  24.817  1.00  0.00    -0.237 OA
ATOM    103  O   UNL A   1      46.216  36.353  25.893  1.00  0.00    -0.744 OA
ENDBRANCH  97 100
ENDBRANCH  70  93
ENDBRANCH  44  45
ENDBRANCH  37  39
ENDBRANCH  36  37
ENDBRANCH  35  36
ENDBRANCH   1  35
TORSDOF 19
ENDMDL
MODEL 2
REMARK VINA RESULT:     -12.0      5.391     11.253
REMARK SMILES Cc1c(C(=O)Nc2ccc(C(=O)Nc3ccccc3C(=O)OCCOC(=O)c3ccc(-c4c5nc(c(-c6cccc(S(=O)(=O)[O-])c6F)c6ccc([nH]6)c(-c6cccc(S(=O)(=O)[O-])c6F)c6nc(c(-c7cccc(S(=O)(=O)[O-])c7F)c7ccc4[nH]7)C=C6)C=C5)cc3)cc2)cccc1[N+](=O)[O-]
REMARK SMILES IDX 23 1 22 2 20 3 21 4 19 5 14 6 15 7 16 8 18 9 17 10 13 11
REMARK SMILES IDX 11 12 12 13 10 15 7 16 8 17 92 18 9 19 91 20 6 21 4 22 5 23
REMARK SMILES IDX 3 25 1 26 2 27 96 28 93 29 95 30 94 31 97 32 98 33 99 34
REMARK SMILES IDX 24 35 25 36 26 37 27 38 28 39 29 40 90 41 30 42 89 43 31 44
REMARK SMILES IDX 32 45 33 46 83 47 34 48 88 49 82 50 84 51 35 52 87 53 81 54
REMARK SMILES IDX 80 55 36 57 68 58 48 59 67 60 49 61 52 62 66 63 85 64 50 65
REMARK SMILES IDX 51 66 65 68 86 69 53 70 37 71 38 72 46 73 39 74 41 75 47 76
REMARK SMILES IDX 40 77 42 78 43 79 44 80 45 81 69 82 70 83 78 84 71 85 73 86
REMARK SMILES IDX 79 87 72 88 74 89 75 90 76 91 77 92 54 93 55 94 63 95 56 96
REMARK SMILES IDX 58 97 64 98 57 99 59 100 60 101 61 102 62 103
REMARK H PARENT 13 14 6 24 84 56 52 67
REMARK Flexibility Score: inf
ROOT
ATOM      1  C   UNL A   1      33.846  34.086  28.221  1.00  0.00     0.275 C 
ENDROOT
BRANCH   1   2
ATOM      2  O   UNL A   1      33.958  32.649  28.016  1.00  0.00    -0.458 OA
BRANCH   2   3
ATOM      3  C   UNL A   1      32.967  32.044  27.333  1.00  0.00     0.340 C 
ATOM      4  O   UNL A   1      32.022  32.690  26.966  1.00  0.00    -0.246 OA
BRANCH   3   5
ATOM      5  C   UNL A   1      33.124  30.595  26.983  1.00  0.00     0.083 A 
ATOM      6  C   UNL A   1      32.217  29.884  26.132  1.00  0.00     0.056 A 
ATOM      7  C   UNL A   1      32.455  28.514  25.907  1.00  0.00     0.027 A 
ATOM      8  C   UNL A   1      33.591  27.876  26.404  1.00  0.00     0.002 A 
ATOM      9  C   UNL A   1      34.244  29.919  27.508  1.00  0.00     0.018 A 
ATOM     10  C   UNL A   1      34.486  28.578  27.200  1.00  0.00     0.001 A 
BRANCH   6  11
ATOM     11  N   UNL A   1      31.089  30.353  25.380  1.00  0.00    -0.321 N 
ATOM     12  C   UNL A   1      30.530  30.022  24.147  1.00  0.00     0.255 C 
ATOM     13  O   UNL A   1      29.576  30.659  23.695  1.00  0.00    -0.269 OA
ATOM     14  H   UNL A   1      30.597  31.071  25.840  1.00  0.00     0.170 HD
BRANCH  12  15
ATOM     15  C   UNL A   1      31.021  28.871  23.347  1.00  0.00     0.040 A 
ATOM     16  C   UNL A   1      32.088  26.496  22.370  1.00  0.00     0.041 A 
ATOM     17  C   UNL A   1      30.899  26.499  23.074  1.00  0.00     0.027 A 
ATOM     18  C   UNL A   1      32.854  27.663  22.294  1.00  0.00     0.027 A 
ATOM     19  C   UNL A   1      30.280  27.701  23.350  1.00  0.00     0.016 A 
ATOM     20  C   UNL A   1      32.321  28.859  22.808  1.00  0.00     0.016 A 
BRANCH  16  21
ATOM     21  N   UNL A   1      32.394  25.378  21.582  1.00  0.00    -0.322 N 
ATOM     22  C   UNL A   1      33.045  24.218  22.007  1.00  0.00     0.256 C 
ATOM     23  O   UNL A   1      33.352  23.360  21.179  1.00  0.00    -0.269 OA
ATOM     24  H   UNL A   1      32.122  25.415  20.635  1.00  0.00     0.170 HD
BRANCH  22  25
ATOM     25  C   UNL A   1      33.417  23.983  23.464  1.00  0.00     0.049 A 
ATOM     26  C   UNL A   1      31.235  22.860  24.145  1.00  0.00     0.053 C 
ATOM     27  C   UNL A   1      32.523  23.567  24.499  1.00  0.00     0.039 A 
ATOM     28  C   UNL A   1      32.914  23.830  25.846  1.00  0.00     0.273 A 
ATOM     29  C   UNL A   1      34.730  24.371  23.790  1.00  0.00     0.014 A 
ATOM     30  C   UNL A   1      34.229  24.241  26.137  1.00  0.00     0.086 A 
ATOM     31  C   UNL A   1      35.146  24.452  25.116  1.00  0.00     0.008 A 
BRANCH  28  32
ATOM     32  N   UNL A   1      31.967  23.848  26.999  1.00  0.00     0.063 N 
ATOM     33  O   UNL A   1      31.959  22.853  27.742  1.00  0.00    -0.258 OA
ATOM     34  O   UNL A   1      31.252  24.837  27.179  1.00  0.00    -0.258 OA
ENDBRANCH  28  32
ENDBRANCH  22  25
ENDBRANCH  16  21
ENDBRANCH  12  15
ENDBRANCH   6  11
ENDBRANCH   3   5
ENDBRANCH   2   3
ENDBRANCH   1   2
BRANCH   1  35
ATOM     35  C   UNL A   1      34.219  34.904  29.523  1.00  0.00     0.275 C 
BRANCH  35  36
ATOM     36  O   UNL A   1      34.675  34.518  30.882  1.00  0.00    -0.458 OA
BRANCH  36  37
ATOM     37  C   UNL A   1      34.773  33.400  31.645  1.00  0.00     0.338 C 
ATOM     38  O   UNL A   1      33.810  32.836  32.150  1.00  0.00    -0.246 OA
BRANCH  37  39
ATOM     39  C   UNL A   1      36.117  32.900  31.835  1.00  0.00     0.060 A 
ATOM     40  C   UNL A   1      37.126  33.246  30.907  1.00  0.00     0.016 A 
ATOM     41  C   UNL A   1      36.370  32.360  33.084  1.00  0.00     0.016 A 
ATOM     42  C   UNL A   1      38.448  33.190  31.302  1.00  0.00     0.010 A 
ATOM     43  C   UNL A   1      37.664  32.357  33.506  1.00  0.00     0.010 A 
ATOM     44  C   UNL A   1      38.679  32.666  32.567  1.00  0.00    -0.014 A 
BRANCH  44  45
ATOM     45  C   UNL A   1      39.772  31.730  32.742  1.00  0.00     0.031 A 
ATOM     46  C   UNL A   1      39.594  30.390  32.165  1.00  0.00     0.074 A 
ATOM     47  C   UNL A   1      40.862  32.541  32.862  1.00  0.00     0.049 A 
ATOM     48  N   UNL A   1      40.453  29.442  32.244  1.00  0.00    -0.248 NA
ATOM     49  C   UNL A   1      38.368  29.971  31.464  1.00  0.00     0.031 C 
ATOM     50  C   UNL A   1      42.140  32.568  32.181  1.00  0.00     0.029 A 
ATOM     51  N   UNL A   1      40.908  33.760  33.573  1.00  0.00    -0.354 N 
ATOM     52  C   UNL A   1      40.136  28.581  31.209  1.00  0.00     0.074 A 
ATOM     53  C   UNL A   1      38.733  28.785  30.964  1.00  0.00     0.031 C 
ATOM     54  C   UNL A   1      42.923  33.496  32.786  1.00  0.00     0.029 A 
ATOM     55  C   UNL A   1      42.209  33.972  33.972  1.00  0.00     0.049 A 
ATOM     56  H   UNL A   1      40.144  34.355  33.751  1.00  0.00     0.167 HD
ATOM     57  C   UNL A   1      41.159  28.085  30.453  1.00  0.00     0.034 A 
ATOM     58  C   UNL A   1      42.496  33.731  35.291  1.00  0.00     0.034 A 
ATOM     59  C   UNL A   1      42.435  28.658  30.948  1.00  0.00     0.049 A 
ATOM     60  C   UNL A   1      43.306  32.451  35.382  1.00  0.00     0.074 A 
ATOM     61  C   UNL A   1      43.241  29.682  30.473  1.00  0.00     0.029 A 
ATOM     62  N   UNL A   1      42.820  28.453  32.271  1.00  0.00    -0.354 N 
ATOM     63  N   UNL A   1      43.362  31.551  34.439  1.00  0.00    -0.248 NA
ATOM     64  C   UNL A   1      44.135  32.107  36.526  1.00  0.00     0.031 C 
ATOM     65  C   UNL A   1      44.069  30.127  31.548  1.00  0.00     0.029 A 
ATOM     66  C   UNL A   1      43.754  29.397  32.684  1.00  0.00     0.049 A 
ATOM     67  H   UNL A   1      42.475  27.729  32.843  1.00  0.00     0.167 HD
ATOM     68  C   UNL A   1      44.145  30.508  34.817  1.00  0.00     0.074 A 
ATOM     69  C   UNL A   1      44.659  30.939  36.114  1.00  0.00     0.031 C 
ATOM     70  C   UNL A   1      44.258  29.369  34.062  1.00  0.00     0.034 A 
BRANCH  57  71
ATOM     71  C   UNL A   1      41.057  27.393  29.093  1.00  0.00     0.023 A 
ATOM     72  C   UNL A   1      39.958  26.517  28.919  1.00  0.00     0.012 A 
ATOM     73  C   UNL A   1      41.914  27.522  27.968  1.00  0.00     0.148 A 
ATOM     74  C   UNL A   1      39.742  25.780  27.749  1.00  0.00     0.002 A 
ATOM     75  C   UNL A   1      41.707  26.773  26.798  1.00  0.00     0.091 A 
ATOM     76  F   UNL A   1      42.914  28.405  27.986  1.00  0.00    -0.205 F 
ATOM     77  C   UNL A   1      40.622  25.898  26.690  1.00  0.00     0.022 A 
BRANCH  75  78
ATOM     78  S   UNL A   1      42.799  26.854  25.360  1.00  0.00     0.127 S 
ATOM     79  O   UNL A   1      42.316  28.054  24.674  1.00  0.00    -0.237 OA
ATOM     80  O   UNL A   1      44.118  27.000  25.976  1.00  0.00    -0.237 OA
ATOM     81  O   UNL A   1      42.594  25.617  24.617  1.00  0.00    -0.744 OA
ENDBRANCH  75  78
ENDBRANCH  57  71
BRANCH  58  82
ATOM     82  C   UNL A   1      41.363  34.089  36.250  1.00  0.00     0.023 A 
ATOM     83  C   UNL A   1      40.948  35.448  36.312  1.00  0.00     0.012 A 
ATOM     84  C   UNL A   1      40.472  33.115  36.748  1.00  0.00     0.148 A 
ATOM     85  C   UNL A   1      39.658  35.803  36.734  1.00  0.00     0.002 A 
ATOM     86  C   UNL A   1      39.174  33.477  37.139  1.00  0.00     0.091 A 
ATOM     87  F   UNL A   1      40.865  31.835  36.780  1.00  0.00    -0.205 F 
ATOM     88  C   UNL A   1      38.760  34.815  37.119  1.00  0.00     0.022 A 
BRANCH  86  89
ATOM     89  S   UNL A   1      37.923  32.209  37.434  1.00  0.00     0.127 S 
ATOM     90  O   UNL A   1      38.114  31.868  38.849  1.00  0.00    -0.237 OA
ATOM     91  O   UNL A   1      36.666  32.895  37.174  1.00  0.00    -0.237 OA
ATOM     92  O   UNL A   1      38.314  31.167  36.492  1.00  0.00    -0.744 OA
ENDBRANCH  86  89
ENDBRANCH  58  82
BRANCH  70  93
ATOM     93  C   UNL A   1      44.866  28.085  34.579  1.00  0.00     0.023 A 
ATOM     94  C   UNL A   1      46.196  27.724  34.296  1.00  0.00     0.012 A 
ATOM     95  C   UNL A   1      44.165  27.260  35.494  1.00  0.00     0.148 A 
ATOM     96  C   UNL A   1      46.763  26.547  34.782  1.00  0.00     0.002 A 
ATOM     97  C   UNL A   1      44.790  26.181  36.103  1.00  0.00     0.091 A 
ATOM     98  F   UNL A   1      42.875  27.496  35.772  1.00  0.00    -0.205 F 
ATOM     99  C   UNL A   1      46.068  25.786  35.707  1.00  0.00     0.022 A 
BRANCH  97 100
ATOM    100  S   UNL A   1      44.055  25.372  37.528  1.00  0.00     0.127 S 
ATOM    101  O   UNL A   1      43.879  26.491  38.451  1.00  0.00    -0.237 OA
ATOM    102  O   UNL A   1      42.811  24.837  36.971  1.00  0.00    -0.237 OA
ATOM    103  O   UNL A   1      45.015  24.352  37.927  1.00  0.00    -0.744 OA
ENDBRANCH  97 100
ENDBRANCH  70  93
ENDBRANCH  44  45
ENDBRANCH  37  39
ENDBRANCH  36  37
ENDBRANCH  35  36
ENDBRANCH   1  35
TORSDOF 19
ENDMDL
MODEL 3
REMARK VINA RESULT:     -11.9      6.266      9.624
REMARK SMILES Cc1c(C(=O)Nc2ccc(C(=O)Nc3ccccc3C(=O)OCCOC(=O)c3ccc(-c4c5nc(c(-c6cccc(S(=O)(=O)[O-])c6F)c6ccc([nH]6)c(-c6cccc(S(=O)(=O)[O-])c6F)c6nc(c(-c7cccc(S(=O)(=O)[O-])c7F)c7ccc4[nH]7)C=C6)C=C5)cc3)cc2)cccc1[N+](=O)[O-]
REMARK SMILES IDX 23 1 22 2 20 3 21 4 19 5 14 6 15 7 16 8 18 9 17 10 13 11
REMARK SMILES IDX 11 12 12 13 10 15 7 16 8 17 92 18 9 19 91 20 6 21 4 22 5 23
REMARK SMILES IDX 3 25 1 26 2 27 96 28 93 29 95 30 94 31 97 32 98 33 99 34
REMARK SMILES IDX 24 35 25 36 26 37 27 38 28 39 29 40 90 41 30 42 89 43 31 44
REMARK SMILES IDX 32 45 33 46 83 47 34 48 88 49 82 50 84 51 35 52 87 53 81 54
REMARK SMILES IDX 80 55 36 57 68 58 48 59 67 60 49 61 52 62 66 63 85 64 50 65
REMARK SMILES IDX 51 66 65 68 86 69 53 70 37 71 38 72 46 73 39 74 41 75 47 76
REMARK SMILES IDX 40 77 42 78 43 79 44 80 45 81 69 82 70 83 78 84 71 85 73 86
REMARK SMILES IDX 79 87 72 88 74 89 75 90 76 91 77 92 54 93 55 94 63 95 56 96
REMARK SMILES IDX 58 97 64 98 57 99 59 100 60 101 61 102 62 103
REMARK H PARENT 13 14 6 24 84 56 52 67
REMARK Flexibility Score: inf
ROOT
ATOM      1  C   UNL A   1      33.577  30.700  27.594  1.00  0.00     0.275 C 
ENDROOT
BRANCH   1   2
ATOM      2  O   UNL A   1      33.501  29.403  26.935  1.00  0.00    -0.458 OA
BRANCH   2   3
ATOM      3  C   UNL A   1      32.274  28.924  26.654  1.00  0.00     0.340 C 
ATOM      4  O   UNL A   1      31.448  28.865  27.525  1.00  0.00    -0.246 OA
BRANCH   3   5
ATOM      5  C   UNL A   1      31.959  28.561  25.234  1.00  0.00     0.083 A 
ATOM      6  C   UNL A   1      31.014  27.549  24.866  1.00  0.00     0.056 A 
ATOM      7  C   UNL A   1      30.832  27.278  23.496  1.00  0.00     0.027 A 
ATOM      8  C   UNL A   1      31.466  28.030  22.509  1.00  0.00     0.002 A 
ATOM      9  C   UNL A   1      32.620  29.282  24.218  1.00  0.00     0.018 A 
ATOM     10  C   UNL A   1      32.357  29.033  22.869  1.00  0.00     0.001 A 
BRANCH   6  11
ATOM     11  N   UNL A   1      30.128  26.768  25.680  1.00  0.00    -0.321 N 
ATOM     12  C   UNL A   1      30.202  25.511  26.277  1.00  0.00     0.255 C 
ATOM     13  O   UNL A   1      29.234  25.039  26.877  1.00  0.00    -0.269 OA
ATOM     14  H   UNL A   1      29.274  27.224  25.859  1.00  0.00     0.170 HD
BRANCH  12  15
ATOM     15  C   UNL A   1      31.451  24.707  26.260  1.00  0.00     0.040 A 
ATOM     16  C   UNL A   1      33.779  23.289  26.808  1.00  0.00     0.041 A 
ATOM     17  C   UNL A   1      32.546  22.797  27.192  1.00  0.00     0.027 A 
ATOM     18  C   UNL A   1      33.882  24.586  26.297  1.00  0.00     0.027 A 
ATOM     19  C   UNL A   1      31.400  23.400  26.716  1.00  0.00     0.016 A 
ATOM     20  C   UNL A   1      32.704  25.310  26.041  1.00  0.00     0.016 A 
BRANCH  16  21
ATOM     21  N   UNL A   1      34.863  22.402  26.752  1.00  0.00    -0.322 N 
ATOM     22  C   UNL A   1      35.146  21.505  25.719  1.00  0.00     0.256 C 
ATOM     23  O   UNL A   1      36.070  20.702  25.853  1.00  0.00    -0.269 OA
ATOM     24  H   UNL A   1      35.486  22.413  27.515  1.00  0.00     0.170 HD
BRANCH  22  25
ATOM     25  C   UNL A   1      34.334  21.464  24.432  1.00  0.00     0.049 A 
ATOM     26  C   UNL A   1      35.592  23.326  23.233  1.00  0.00     0.053 C 
ATOM     27  C   UNL A   1      34.382  22.433  23.381  1.00  0.00     0.039 A 
ATOM     28  C   UNL A   1      33.267  22.490  22.493  1.00  0.00     0.273 A 
ATOM     29  C   UNL A   1      33.361  20.449  24.401  1.00  0.00     0.014 A 
ATOM     30  C   UNL A   1      32.296  21.470  22.504  1.00  0.00     0.086 A 
ATOM     31  C   UNL A   1      32.378  20.425  23.415  1.00  0.00     0.008 A 
BRANCH  28  32
ATOM     32  N   UNL A   1      32.955  23.663  21.625  1.00  0.00     0.063 N 
ATOM     33  O   UNL A   1      32.276  24.574  22.126  1.00  0.00    -0.258 OA
ATOM     34  O   UNL A   1      33.386  23.693  20.469  1.00  0.00    -0.258 OA
ENDBRANCH  28  32
ENDBRANCH  22  25
ENDBRANCH  16  21
ENDBRANCH  12  15
ENDBRANCH   6  11
ENDBRANCH   3   5
ENDBRANCH   2   3
ENDBRANCH   1   2
BRANCH   1  35
ATOM     35  C   UNL A   1      34.850  31.623  27.759  1.00  0.00     0.275 C 
BRANCH  35  36
ATOM     36  O   UNL A   1      36.089  31.526  28.572  1.00  0.00    -0.458 OA
BRANCH  36  37
ATOM     37  C   UNL A   1      36.531  30.885  29.683  1.00  0.00     0.338 C 
ATOM     38  O   UNL A   1      36.110  29.796  30.052  1.00  0.00    -0.246 OA
BRANCH  37  39
ATOM     39  C   UNL A   1      37.554  31.584  30.430  1.00  0.00     0.060 A 
ATOM     40  C   UNL A   1      38.250  30.908  31.458  1.00  0.00     0.016 A 
ATOM     41  C   UNL A   1      37.972  32.780  29.873  1.00  0.00     0.016 A 
ATOM     42  C   UNL A   1      39.495  31.369  31.840  1.00  0.00     0.010 A 
ATOM     43  C   UNL A   1      39.222  33.210  30.197  1.00  0.00     0.010 A 
ATOM     44  C   UNL A   1      39.906  32.558  31.253  1.00  0.00    -0.014 A 
BRANCH  44  45
ATOM     45  C   UNL A   1      40.537  33.562  32.086  1.00  0.00     0.031 A 
ATOM     46  C   UNL A   1      39.715  34.147  33.155  1.00  0.00     0.074 A 
ATOM     47  C   UNL A   1      41.860  33.239  32.017  1.00  0.00     0.049 A 
ATOM     48  N   UNL A   1      40.113  35.055  33.966  1.00  0.00    -0.248 NA
ATOM     49  C   UNL A   1      38.306  33.779  33.380  1.00  0.00     0.031 C 
ATOM     50  C   UNL A   1      42.864  33.009  33.036  1.00  0.00     0.029 A 
ATOM     51  N   UNL A   1      42.544  32.806  30.861  1.00  0.00    -0.354 N 
ATOM     52  C   UNL A   1      39.263  34.963  35.055  1.00  0.00     0.074 A 
ATOM     53  C   UNL A   1      38.045  34.398  34.537  1.00  0.00     0.031 C 
ATOM     54  C   UNL A   1      44.064  32.858  32.422  1.00  0.00     0.029 A 
ATOM     55  C   UNL A   1      43.872  33.144  30.999  1.00  0.00     0.049 A 
ATOM     56  H   UNL A   1      42.142  32.342  30.091  1.00  0.00     0.167 HD
ATOM     57  C   UNL A   1      39.814  35.026  36.303  1.00  0.00     0.034 A 
ATOM     58  C   UNL A   1      44.309  34.230  30.284  1.00  0.00     0.034 A 
ATOM     59  C   UNL A   1      41.286  35.155  36.166  1.00  0.00     0.049 A 
ATOM     60  C   UNL A   1      44.532  35.383  31.246  1.00  0.00     0.074 A 
ATOM     61  C   UNL A   1      42.316  34.237  36.300  1.00  0.00     0.029 A 
ATOM     62  N   UNL A   1      41.825  36.235  35.470  1.00  0.00    -0.354 N 
ATOM     63  N   UNL A   1      44.019  35.447  32.443  1.00  0.00    -0.248 NA
ATOM     64  C   UNL A   1      45.372  36.529  30.941  1.00  0.00     0.031 C 
ATOM     65  C   UNL A   1      43.460  34.755  35.621  1.00  0.00     0.029 A 
ATOM     66  C   UNL A   1      43.125  35.974  35.051  1.00  0.00     0.049 A 
ATOM     67  H   UNL A   1      41.346  37.077  35.297  1.00  0.00     0.167 HD
ATOM     68  C   UNL A   1      44.373  36.606  33.056  1.00  0.00     0.074 A 
ATOM     69  C   UNL A   1      45.279  37.221  32.090  1.00  0.00     0.031 C 
ATOM     70  C   UNL A   1      43.854  36.979  34.269  1.00  0.00     0.034 A 
BRANCH  57  71
ATOM     71  C   UNL A   1      39.156  34.638  37.628  1.00  0.00     0.023 A 
ATOM     72  C   UNL A   1      39.430  35.482  38.733  1.00  0.00     0.012 A 
ATOM     73  C   UNL A   1      38.288  33.547  37.899  1.00  0.00     0.148 A 
ATOM     74  C   UNL A   1      38.937  35.245  40.020  1.00  0.00     0.002 A 
ATOM     75  C   UNL A   1      37.803  33.299  39.194  1.00  0.00     0.091 A 
ATOM     76  F   UNL A   1      37.877  32.758  36.906  1.00  0.00    -0.205 F 
ATOM     77  C   UNL A   1      38.130  34.146  40.256  1.00  0.00     0.022 A 
BRANCH  75  78
ATOM     78  S   UNL A   1      36.745  31.893  39.606  1.00  0.00     0.127 S 
ATOM     79  O   UNL A   1      36.765  31.911  41.070  1.00  0.00    -0.237 OA
ATOM     80  O   UNL A   1      35.465  32.279  39.013  1.00  0.00    -0.237 OA
ATOM     81  O   UNL A   1      37.374  30.718  39.014  1.00  0.00    -0.744 OA
ENDBRANCH  75  78
ENDBRANCH  57  71
BRANCH  58  82
ATOM     82  C   UNL A   1      43.648  34.381  28.916  1.00  0.00     0.023 A 
ATOM     83  C   UNL A   1      42.730  35.452  28.734  1.00  0.00     0.012 A 
ATOM     84  C   UNL A   1      44.190  33.787  27.757  1.00  0.00     0.148 A 
ATOM     85  C   UNL A   1      42.465  35.985  27.464  1.00  0.00     0.002 A 
ATOM     86  C   UNL A   1      43.943  34.347  26.493  1.00  0.00     0.091 A 
ATOM     87  F   UNL A   1      44.993  32.724  27.889  1.00  0.00    -0.205 F 
ATOM     88  C   UNL A   1      43.095  35.452  26.346  1.00  0.00     0.022 A 
BRANCH  86  89
ATOM     89  S   UNL A   1      44.906  33.822  25.060  1.00  0.00     0.127 S 
ATOM     90  O   UNL A   1      46.245  34.355  25.338  1.00  0.00    -0.237 OA
ATOM     91  O   UNL A   1      44.845  32.369  25.114  1.00  0.00    -0.237 OA
ATOM     92  O   UNL A   1      44.202  34.472  23.961  1.00  0.00    -0.744 OA
ENDBRANCH  86  89
ENDBRANCH  58  82
BRANCH  70  93
ATOM     93  C   UNL A   1      43.985  38.374  34.836  1.00  0.00     0.023 A 
ATOM     94  C   UNL A   1      44.660  38.626  36.044  1.00  0.00     0.012 A 
ATOM     95  C   UNL A   1      43.559  39.508  34.098  1.00  0.00     0.148 A 
ATOM     96  C   UNL A   1      44.794  39.913  36.563  1.00  0.00     0.002 A 
ATOM     97  C   UNL A   1      43.842  40.792  34.540  1.00  0.00     0.091 A 
ATOM     98  F   UNL A   1      42.855  39.357  32.967  1.00  0.00    -0.205 F 
ATOM     99  C   UNL A   1      44.406  41.001  35.799  1.00  0.00     0.022 A 
BRANCH  97 100
ATOM    100  S   UNL A   1      43.655  42.206  33.449  1.00  0.00     0.127 S 
ATOM    101  O   UNL A   1      42.234  42.141  33.114  1.00  0.00    -0.237 OA
ATOM    102  O   UNL A   1      44.027  43.321  34.322  1.00  0.00    -0.237 OA
ATOM    103  O   UNL A   1      44.588  41.972  32.355  1.00  0.00    -0.744 OA
ENDBRANCH  97 100
ENDBRANCH  70  93
ENDBRANCH  44  45
ENDBRANCH  37  39
ENDBRANCH  36  37
ENDBRANCH  35  36
ENDBRANCH   1  35
TORSDOF 19
ENDMDL
