MODEL 1
REMARK VINA RESULT:     -11.9      0.000      0.000
REMARK SMILES O=C(OCCOC(=O)[C@H]1C[C@H]2CCCC[C@@H]2[N@@H+]1CC[C@@H]1CCCO1)c1ccc(-c2c3nc(c(-c4cccc(S(=O)(=O)[O-])c4F)c4ccc([nH]4)c(-c4cccc(S(=O)(=O)[O-])c4F)c4nc(c(-c5cccc(S(=O)(=O)[O-])c5F)c5ccc2[nH]5)C=C4)C=C3)cc1
REMARK SMILES IDX 4 1 3 2 2 3 1 4 25 5 26 6 87 7 27 8 86 9 28 10 29 11 30 12
REMARK SMILES IDX 80 13 31 14 85 15 79 16 81 17 32 18 84 19 78 20 77 21 33 23
REMARK SMILES IDX 65 24 45 25 64 26 46 27 49 28 63 29 82 30 47 31 48 32 62 34
REMARK SMILES IDX 83 35 50 36 34 37 35 38 43 39 36 40 38 41 44 42 37 43 39 44
REMARK SMILES IDX 40 45 41 46 42 47 66 48 67 49 75 50 68 51 70 52 76 53 69 54
REMARK SMILES IDX 71 55 72 56 73 57 74 58 51 59 52 60 60 61 53 62 55 63 61 64
REMARK SMILES IDX 54 65 56 66 57 67 58 68 59 69 5 70 6 71 7 72 8 73 9 74 10 75
REMARK SMILES IDX 17 76 11 77 16 78 12 80 15 81 13 82 14 83 18 84 19 85 20 86
REMARK SMILES IDX 21 87 24 88 22 89 23 90
REMARK H PARENT 81 22 49 33 17 79
REMARK Flexibility Score: inf
ROOT
ATOM      1  C   UNL A   1      31.848  32.387  27.224  1.00  0.00     0.275 C 
ENDROOT
BRANCH   1   2
ATOM      2  O   UNL A   1      32.507  33.659  27.380  1.00  0.00    -0.458 OA
BRANCH   2   3
ATOM      3  C   UNL A   1      33.185  34.154  28.446  1.00  0.00     0.338 C 
ATOM      4  O   UNL A   1      32.882  35.270  28.869  1.00  0.00    -0.246 OA
BRANCH   3   5
ATOM      5  C   UNL A   1      34.395  33.492  29.036  1.00  0.00     0.060 A 
ATOM      6  C   UNL A   1      34.389  32.455  29.972  1.00  0.00     0.016 A 
ATOM      7  C   UNL A   1      35.645  33.922  28.548  1.00  0.00     0.016 A 
ATOM      8  C   UNL A   1      35.566  31.798  30.337  1.00  0.00     0.010 A 
ATOM      9  C   UNL A   1      36.828  33.260  28.901  1.00  0.00     0.010 A 
ATOM     10  C   UNL A   1      36.791  32.190  29.803  1.00  0.00    -0.014 A 
BRANCH  10  11
ATOM     11  C   UNL A   1      38.028  31.601  30.365  1.00  0.00     0.031 A 
ATOM     12  C   UNL A   1      38.417  32.010  31.753  1.00  0.00     0.074 A 
ATOM     13  C   UNL A   1      38.725  30.657  29.703  1.00  0.00     0.049 A 
ATOM     14  N   UNL A   1      39.370  31.543  32.510  1.00  0.00    -0.248 NA
ATOM     15  C   UNL A   1      37.596  33.055  32.392  1.00  0.00     0.031 C 
ATOM     16  C   UNL A   1      38.389  30.127  28.384  1.00  0.00     0.029 A 
ATOM     17  N   UNL A   1      39.868  29.979  30.042  1.00  0.00    -0.354 N 
ATOM     18  C   UNL A   1      39.245  32.211  33.719  1.00  0.00     0.074 A 
ATOM     19  C   UNL A   1      38.170  33.165  33.578  1.00  0.00     0.031 C 
ATOM     20  C   UNL A   1      39.348  29.275  27.984  1.00  0.00     0.029 A 
ATOM     21  C   UNL A   1      40.346  29.163  29.041  1.00  0.00     0.049 A 
ATOM     22  H   UNL A   1      40.307  30.068  30.919  1.00  0.00     0.167 HD
ATOM     23  C   UNL A   1      39.929  32.009  34.864  1.00  0.00     0.034 A 
ATOM     24  C   UNL A   1      41.456  28.400  28.995  1.00  0.00     0.034 A 
ATOM     25  C   UNL A   1      41.009  31.075  34.987  1.00  0.00     0.049 A 
ATOM     26  C   UNL A   1      42.274  28.274  30.254  1.00  0.00     0.074 A 
ATOM     27  C   UNL A   1      41.794  30.804  36.089  1.00  0.00     0.029 A 
ATOM     28  N   UNL A   1      41.469  30.271  33.953  1.00  0.00    -0.354 N 
ATOM     29  N   UNL A   1      42.072  28.830  31.425  1.00  0.00    -0.248 NA
ATOM     30  C   UNL A   1      43.426  27.362  30.214  1.00  0.00     0.031 C 
ATOM     31  C   UNL A   1      42.753  29.858  35.713  1.00  0.00     0.029 A 
ATOM     32  C   UNL A   1      42.537  29.508  34.388  1.00  0.00     0.049 A 
ATOM     33  H   UNL A   1      41.091  30.246  33.045  1.00  0.00     0.167 HD
ATOM     34  C   UNL A   1      43.032  28.295  32.274  1.00  0.00     0.074 A 
ATOM     35  C   UNL A   1      43.807  27.359  31.484  1.00  0.00     0.031 C 
ATOM     36  C   UNL A   1      43.257  28.552  33.587  1.00  0.00     0.034 A 
BRANCH  23  37
ATOM     37  C   UNL A   1      39.499  32.810  36.060  1.00  0.00     0.023 A 
ATOM     38  C   UNL A   1      40.021  34.108  36.254  1.00  0.00     0.012 A 
ATOM     39  C   UNL A   1      38.602  32.277  37.002  1.00  0.00     0.148 A 
ATOM     40  C   UNL A   1      39.687  34.845  37.387  1.00  0.00     0.002 A 
ATOM     41  C   UNL A   1      38.239  33.035  38.107  1.00  0.00     0.091 A 
ATOM     42  F   UNL A   1      38.143  31.031  36.812  1.00  0.00    -0.205 F 
ATOM     43  C   UNL A   1      38.791  34.312  38.309  1.00  0.00     0.022 A 
BRANCH  41  44
ATOM     44  S   UNL A   1      37.048  32.466  39.323  1.00  0.00     0.127 S 
ATOM     45  O   UNL A   1      37.243  33.434  40.402  1.00  0.00    -0.237 OA
ATOM     46  O   UNL A   1      35.786  32.605  38.597  1.00  0.00    -0.237 OA
ATOM     47  O   UNL A   1      37.422  31.096  39.645  1.00  0.00    -0.744 OA
ENDBRANCH  41  44
ENDBRANCH  23  37
BRANCH  24  48
ATOM     48  C   UNL A   1      41.822  27.649  27.758  1.00  0.00     0.023 A 
ATOM     49  C   UNL A   1      42.266  28.341  26.613  1.00  0.00     0.012 A 
ATOM     50  C   UNL A   1      41.702  26.244  27.700  1.00  0.00     0.148 A 
ATOM     51  C   UNL A   1      42.533  27.658  25.424  1.00  0.00     0.002 A 
ATOM     52  C   UNL A   1      42.014  25.565  26.526  1.00  0.00     0.091 A 
ATOM     53  F   UNL A   1      41.270  25.599  28.793  1.00  0.00    -0.205 F 
ATOM     54  C   UNL A   1      42.411  26.273  25.380  1.00  0.00     0.022 A 
BRANCH  52  55
ATOM     55  S   UNL A   1      41.980  23.772  26.405  1.00  0.00     0.127 S 
ATOM     56  O   UNL A   1      40.547  23.496  26.461  1.00  0.00    -0.237 OA
ATOM     57  O   UNL A   1      42.599  23.546  25.098  1.00  0.00    -0.237 OA
ATOM     58  O   UNL A   1      42.764  23.286  27.531  1.00  0.00    -0.744 OA
ENDBRANCH  52  55
ENDBRANCH  24  48
BRANCH  36  59
ATOM     59  C   UNL A   1      44.358  27.782  34.263  1.00  0.00     0.023 A 
ATOM     60  C   UNL A   1      45.674  28.283  34.264  1.00  0.00     0.012 A 
ATOM     61  C   UNL A   1      44.065  26.598  34.968  1.00  0.00     0.148 A 
ATOM     62  C   UNL A   1      46.690  27.597  34.924  1.00  0.00     0.002 A 
ATOM     63  C   UNL A   1      45.070  25.951  35.673  1.00  0.00     0.091 A 
ATOM     64  F   UNL A   1      42.808  26.129  34.940  1.00  0.00    -0.205 F 
ATOM     65  C   UNL A   1      46.386  26.440  35.639  1.00  0.00     0.022 A 
BRANCH  63  66
ATOM     66  S   UNL A   1      44.749  24.522  36.711  1.00  0.00     0.127 S 
ATOM     67  O   UNL A   1      44.256  23.552  35.736  1.00  0.00    -0.237 OA
ATOM     68  O   UNL A   1      46.077  24.227  37.249  1.00  0.00    -0.237 OA
ATOM     69  O   UNL A   1      43.777  24.957  37.705  1.00  0.00    -0.744 OA
ENDBRANCH  63  66
ENDBRANCH  36  59
ENDBRANCH  10  11
ENDBRANCH   3   5
ENDBRANCH   2   3
ENDBRANCH   1   2
BRANCH   1  70
ATOM     70  C   UNL A   1      32.794  31.210  26.959  1.00  0.00     0.274 C 
BRANCH  70  71
ATOM     71  O   UNL A   1      32.318  30.348  25.916  1.00  0.00    -0.458 OA
BRANCH  71  72
ATOM     72  C   UNL A   1      32.010  29.074  26.308  1.00  0.00     0.365 C 
ATOM     73  O   UNL A   1      31.647  28.784  27.446  1.00  0.00    -0.245 OA
BRANCH  72  74
ATOM     74  C   UNL A   1      32.133  28.097  25.115  1.00  0.00     0.295 C 
ATOM     75  C   UNL A   1      33.332  27.153  25.267  1.00  0.00     0.087 C 
ATOM     76  N   UNL A   1      30.926  27.238  25.057  1.00  0.00    -0.320 N 
ATOM     77  C   UNL A   1      32.715  25.764  25.289  1.00  0.00     0.054 C 
ATOM     78  C   UNL A   1      31.313  26.041  25.789  1.00  0.00     0.188 C 
ATOM     79  H   UNL A   1      30.106  27.641  25.510  1.00  0.00     0.349 HD
ATOM     80  C   UNL A   1      33.427  24.723  26.134  1.00  0.00     0.010 C 
ATOM     81  C   UNL A   1      30.435  24.812  25.777  1.00  0.00     0.065 C 
ATOM     82  C   UNL A   1      32.577  23.459  26.305  1.00  0.00     0.001 C 
ATOM     83  C   UNL A   1      31.093  23.711  26.616  1.00  0.00     0.006 C 
BRANCH  76  84
ATOM     84  C   UNL A   1      30.260  27.142  23.755  1.00  0.00     0.265 C 
BRANCH  84  85
ATOM     85  C   UNL A   1      30.622  28.026  22.534  1.00  0.00     0.093 C 
BRANCH  85  86
ATOM     86  C   UNL A   1      30.145  29.490  22.423  1.00  0.00     0.123 C 
ATOM     87  C   UNL A   1      29.471  30.168  23.602  1.00  0.00     0.034 C 
ATOM     88  O   UNL A   1      29.312  29.647  21.276  1.00  0.00    -0.378 OA
ATOM     89  C   UNL A   1      28.212  30.792  23.046  1.00  0.00     0.031 C 
ATOM     90  C   UNL A   1      28.086  30.263  21.639  1.00  0.00     0.160 C 
ENDBRANCH  85  86
ENDBRANCH  84  85
ENDBRANCH  76  84
ENDBRANCH  72  74
ENDBRANCH  71  72
ENDBRANCH  70  71
ENDBRANCH   1  70
TORSDOF 17
ENDMDL
MODEL 2
REMARK VINA RESULT:     -11.7      1.849      2.119
REMARK SMILES O=C(OCCOC(=O)[C@H]1C[C@H]2CCCC[C@@H]2[N@@H+]1CC[C@@H]1CCCO1)c1ccc(-c2c3nc(c(-c4cccc(S(=O)(=O)[O-])c4F)c4ccc([nH]4)c(-c4cccc(S(=O)(=O)[O-])c4F)c4nc(c(-c5cccc(S(=O)(=O)[O-])c5F)c5ccc2[nH]5)C=C4)C=C3)cc1
REMARK SMILES IDX 4 1 3 2 2 3 1 4 25 5 26 6 87 7 27 8 86 9 28 10 29 11 30 12
REMARK SMILES IDX 80 13 31 14 85 15 79 16 81 17 32 18 84 19 78 20 77 21 33 23
REMARK SMILES IDX 65 24 45 25 64 26 46 27 49 28 63 29 82 30 47 31 48 32 62 34
REMARK SMILES IDX 83 35 50 36 34 37 35 38 43 39 36 40 38 41 44 42 37 43 39 44
REMARK SMILES IDX 40 45 41 46 42 47 66 48 67 49 75 50 68 51 70 52 76 53 69 54
REMARK SMILES IDX 71 55 72 56 73 57 74 58 51 59 52 60 60 61 53 62 55 63 61 64
REMARK SMILES IDX 54 65 56 66 57 67 58 68 59 69 5 70 6 71 7 72 8 73 9 74 10 75
REMARK SMILES IDX 17 76 11 77 16 78 12 80 15 81 13 82 14 83 18 84 19 85 20 86
REMARK SMILES IDX 21 87 24 88 22 89 23 90
REMARK H PARENT 81 22 49 33 17 79
REMARK Flexibility Score: inf
ROOT
ATOM      1  C   UNL A   1      31.715  30.735  26.549  1.00  0.00     0.275 C 
ENDROOT
BRANCH   1   2
ATOM      2  O   UNL A   1      32.923  31.519  26.491  1.00  0.00    -0.458 OA
BRANCH   2   3
ATOM      3  C   UNL A   1      33.585  32.158  27.488  1.00  0.00     0.338 C 
ATOM      4  O   UNL A   1      33.244  33.305  27.779  1.00  0.00    -0.246 OA
BRANCH   3   5
ATOM      5  C   UNL A   1      34.818  31.612  28.146  1.00  0.00     0.060 A 
ATOM      6  C   UNL A   1      34.994  30.303  28.601  1.00  0.00     0.016 A 
ATOM      7  C   UNL A   1      35.913  32.492  28.251  1.00  0.00     0.016 A 
ATOM      8  C   UNL A   1      36.235  29.851  29.052  1.00  0.00     0.010 A 
ATOM      9  C   UNL A   1      37.165  32.042  28.691  1.00  0.00     0.010 A 
ATOM     10  C   UNL A   1      37.330  30.712  29.096  1.00  0.00    -0.014 A 
BRANCH  10  11
ATOM     11  C   UNL A   1      38.568  30.248  29.763  1.00  0.00     0.031 A 
ATOM     12  C   UNL A   1      38.845  30.769  31.141  1.00  0.00     0.074 A 
ATOM     13  C   UNL A   1      39.365  29.317  29.205  1.00  0.00     0.049 A 
ATOM     14  N   UNL A   1      39.780  30.418  31.978  1.00  0.00    -0.248 NA
ATOM     15  C   UNL A   1      37.919  31.790  31.663  1.00  0.00     0.031 C 
ATOM     16  C   UNL A   1      39.144  28.683  27.908  1.00  0.00     0.029 A 
ATOM     17  N   UNL A   1      40.528  28.743  29.651  1.00  0.00    -0.354 N 
ATOM     18  C   UNL A   1      39.539  31.150  33.132  1.00  0.00     0.074 A 
ATOM     19  C   UNL A   1      38.413  32.015  32.869  1.00  0.00     0.031 C 
ATOM     20  C   UNL A   1      40.180  27.878  27.618  1.00  0.00     0.029 A 
ATOM     21  C   UNL A   1      41.118  27.902  28.734  1.00  0.00     0.049 A 
ATOM     22  H   UNL A   1      40.907  28.917  30.543  1.00  0.00     0.167 HD
ATOM     23  C   UNL A   1      40.166  31.068  34.324  1.00  0.00     0.034 A 
ATOM     24  C   UNL A   1      42.277  27.218  28.799  1.00  0.00     0.034 A 
ATOM     25  C   UNL A   1      41.296  30.222  34.567  1.00  0.00     0.049 A 
ATOM     26  C   UNL A   1      43.026  27.229  30.107  1.00  0.00     0.074 A 
ATOM     27  C   UNL A   1      42.031  30.077  35.727  1.00  0.00     0.029 A 
ATOM     28  N   UNL A   1      41.871  29.389  33.616  1.00  0.00    -0.354 N 
ATOM     29  N   UNL A   1      42.718  27.841  31.226  1.00  0.00    -0.248 NA
ATOM     30  C   UNL A   1      44.236  26.400  30.191  1.00  0.00     0.031 C 
ATOM     31  C   UNL A   1      43.072  29.179  35.468  1.00  0.00     0.029 A 
ATOM     32  C   UNL A   1      42.959  28.733  34.159  1.00  0.00     0.049 A 
ATOM     33  H   UNL A   1      41.549  29.282  32.692  1.00  0.00     0.167 HD
ATOM     34  C   UNL A   1      43.659  27.429  32.160  1.00  0.00     0.074 A 
ATOM     35  C   UNL A   1      44.541  26.503  31.477  1.00  0.00     0.031 C 
ATOM     36  C   UNL A   1      43.788  27.782  33.463  1.00  0.00     0.034 A 
BRANCH  23  37
ATOM     37  C   UNL A   1      39.612  31.909  35.439  1.00  0.00     0.023 A 
ATOM     38  C   UNL A   1      38.643  31.363  36.308  1.00  0.00     0.012 A 
ATOM     39  C   UNL A   1      40.029  33.240  35.614  1.00  0.00     0.148 A 
ATOM     40  C   UNL A   1      38.067  32.143  37.309  1.00  0.00     0.002 A 
ATOM     41  C   UNL A   1      39.484  33.998  36.642  1.00  0.00     0.091 A 
ATOM     42  F   UNL A   1      40.929  33.745  34.758  1.00  0.00    -0.205 F 
ATOM     43  C   UNL A   1      38.493  33.457  37.481  1.00  0.00     0.022 A 
BRANCH  41  44
ATOM     44  S   UNL A   1      40.005  35.680  36.986  1.00  0.00     0.127 S 
ATOM     45  O   UNL A   1      41.450  35.515  37.143  1.00  0.00    -0.237 OA
ATOM     46  O   UNL A   1      39.598  36.378  35.767  1.00  0.00    -0.237 OA
ATOM     47  O   UNL A   1      39.294  36.086  38.191  1.00  0.00    -0.744 OA
ENDBRANCH  41  44
ENDBRANCH  23  37
BRANCH  24  48
ATOM     48  C   UNL A   1      42.766  26.419  27.636  1.00  0.00     0.023 A 
ATOM     49  C   UNL A   1      43.620  27.006  26.681  1.00  0.00     0.012 A 
ATOM     50  C   UNL A   1      42.361  25.080  27.455  1.00  0.00     0.148 A 
ATOM     51  C   UNL A   1      44.018  26.296  25.545  1.00  0.00     0.002 A 
ATOM     52  C   UNL A   1      42.799  24.363  26.345  1.00  0.00     0.091 A 
ATOM     53  F   UNL A   1      41.542  24.536  28.367  1.00  0.00    -0.205 F 
ATOM     54  C   UNL A   1      43.611  24.976  25.379  1.00  0.00     0.022 A 
BRANCH  52  55
ATOM     55  S   UNL A   1      42.406  22.627  26.097  1.00  0.00     0.127 S 
ATOM     56  O   UNL A   1      40.952  22.626  26.237  1.00  0.00    -0.237 OA
ATOM     57  O   UNL A   1      42.893  22.399  24.735  1.00  0.00    -0.237 OA
ATOM     58  O   UNL A   1      43.143  21.905  27.125  1.00  0.00    -0.744 OA
ENDBRANCH  52  55
ENDBRANCH  24  48
BRANCH  36  59
ATOM     59  C   UNL A   1      44.895  27.135  34.249  1.00  0.00     0.023 A 
ATOM     60  C   UNL A   1      46.186  27.697  34.244  1.00  0.00     0.012 A 
ATOM     61  C   UNL A   1      44.629  26.012  35.056  1.00  0.00     0.148 A 
ATOM     62  C   UNL A   1      47.207  27.128  35.002  1.00  0.00     0.002 A 
ATOM     63  C   UNL A   1      45.635  25.486  35.855  1.00  0.00     0.091 A 
ATOM     64  F   UNL A   1      43.396  25.482  35.032  1.00  0.00    -0.205 F 
ATOM     65  C   UNL A   1      46.928  26.033  35.817  1.00  0.00     0.022 A 
BRANCH  63  66
ATOM     66  S   UNL A   1      45.339  24.151  37.017  1.00  0.00     0.127 S 
ATOM     67  O   UNL A   1      44.756  23.127  36.152  1.00  0.00    -0.237 OA
ATOM     68  O   UNL A   1      46.690  23.851  37.494  1.00  0.00    -0.237 OA
ATOM     69  O   UNL A   1      44.446  24.692  38.034  1.00  0.00    -0.744 OA
ENDBRANCH  63  66
ENDBRANCH  36  59
ENDBRANCH  10  11
ENDBRANCH   3   5
ENDBRANCH   2   3
ENDBRANCH   1   2
BRANCH   1  70
ATOM     70  C   UNL A   1      31.633  29.616  25.505  1.00  0.00     0.274 C 
BRANCH  70  71
ATOM     71  O   UNL A   1      32.851  29.471  24.760  1.00  0.00    -0.458 OA
BRANCH  71  72
ATOM     72  C   UNL A   1      33.263  28.181  24.563  1.00  0.00     0.365 C 
ATOM     73  O   UNL A   1      33.911  27.544  25.391  1.00  0.00    -0.245 OA
BRANCH  72  74
ATOM     74  C   UNL A   1      32.752  27.652  23.203  1.00  0.00     0.295 C 
ATOM     75  C   UNL A   1      33.689  26.594  22.609  1.00  0.00     0.087 C 
ATOM     76  N   UNL A   1      31.438  26.991  23.395  1.00  0.00    -0.320 N 
ATOM     77  C   UNL A   1      32.825  25.349  22.495  1.00  0.00     0.054 C 
ATOM     78  C   UNL A   1      31.777  25.585  23.561  1.00  0.00     0.188 C 
ATOM     79  H   UNL A   1      30.934  27.301  24.225  1.00  0.00     0.349 HD
ATOM     80  C   UNL A   1      33.533  24.018  22.676  1.00  0.00     0.010 C 
ATOM     81  C   UNL A   1      30.698  24.528  23.565  1.00  0.00     0.065 C 
ATOM     82  C   UNL A   1      32.534  22.864  22.819  1.00  0.00     0.001 C 
ATOM     83  C   UNL A   1      31.341  23.148  23.744  1.00  0.00     0.006 C 
BRANCH  76  84
ATOM     84  C   UNL A   1      30.365  27.405  22.487  1.00  0.00     0.265 C 
BRANCH  84  85
ATOM     85  C   UNL A   1      29.274  28.442  22.857  1.00  0.00     0.093 C 
BRANCH  85  86
ATOM     86  C   UNL A   1      29.450  29.946  22.559  1.00  0.00     0.123 C 
ATOM     87  C   UNL A   1      28.798  30.986  23.453  1.00  0.00     0.034 C 
ATOM     88  O   UNL A   1      29.087  30.222  21.208  1.00  0.00    -0.378 OA
ATOM     89  C   UNL A   1      28.079  31.931  22.518  1.00  0.00     0.031 C 
ATOM     90  C   UNL A   1      28.146  31.283  21.158  1.00  0.00     0.160 C 
ENDBRANCH  85  86
ENDBRANCH  84  85
ENDBRANCH  76  84
ENDBRANCH  72  74
ENDBRANCH  71  72
ENDBRANCH  70  71
ENDBRANCH   1  70
TORSDOF 17
ENDMDL
MODEL 3
REMARK VINA RESULT:     -11.7      5.423     10.763
REMARK SMILES O=C(OCCOC(=O)[C@H]1C[C@H]2CCCC[C@@H]2[N@@H+]1CC[C@@H]1CCCO1)c1ccc(-c2c3nc(c(-c4cccc(S(=O)(=O)[O-])c4F)c4ccc([nH]4)c(-c4cccc(S(=O)(=O)[O-])c4F)c4nc(c(-c5cccc(S(=O)(=O)[O-])c5F)c5ccc2[nH]5)C=C4)C=C3)cc1
REMARK SMILES IDX 4 1 3 2 2 3 1 4 25 5 26 6 87 7 27 8 86 9 28 10 29 11 30 12
REMARK SMILES IDX 80 13 31 14 85 15 79 16 81 17 32 18 84 19 78 20 77 21 33 23
REMARK SMILES IDX 65 24 45 25 64 26 46 27 49 28 63 29 82 30 47 31 48 32 62 34
REMARK SMILES IDX 83 35 50 36 34 37 35 38 43 39 36 40 38 41 44 42 37 43 39 44
REMARK SMILES IDX 40 45 41 46 42 47 66 48 67 49 75 50 68 51 70 52 76 53 69 54
REMARK SMILES IDX 71 55 72 56 73 57 74 58 51 59 52 60 60 61 53 62 55 63 61 64
REMARK SMILES IDX 54 65 56 66 57 67 58 68 59 69 5 70 6 71 7 72 8 73 9 74 10 75
REMARK SMILES IDX 17 76 11 77 16 78 12 80 15 81 13 82 14 83 18 84 19 85 20 86
REMARK SMILES IDX 21 87 24 88 22 89 23 90
REMARK H PARENT 81 22 49 33 17 79
REMARK Flexibility Score: inf
ROOT
ATOM      1  C   UNL A   1      37.192  21.311  24.342  1.00  0.00     0.275 C 
ENDROOT
BRANCH   1   2
ATOM      2  O   UNL A   1      37.748  21.280  25.671  1.00  0.00    -0.458 OA
BRANCH   2   3
ATOM      3  C   UNL A   1      39.032  21.456  26.073  1.00  0.00     0.338 C 
ATOM      4  O   UNL A   1      39.741  20.462  26.227  1.00  0.00    -0.246 OA
BRANCH   3   5
ATOM      5  C   UNL A   1      39.589  22.781  26.502  1.00  0.00     0.060 A 
ATOM      6  C   UNL A   1      39.125  24.036  26.101  1.00  0.00     0.016 A 
ATOM      7  C   UNL A   1      40.637  22.745  27.443  1.00  0.00     0.016 A 
ATOM      8  C   UNL A   1      39.607  25.210  26.682  1.00  0.00     0.010 A 
ATOM      9  C   UNL A   1      41.119  23.918  28.039  1.00  0.00     0.010 A 
ATOM     10  C   UNL A   1      40.602  25.161  27.657  1.00  0.00    -0.014 A 
BRANCH  10  11
ATOM     11  C   UNL A   1      41.221  26.431  28.100  1.00  0.00     0.031 A 
ATOM     12  C   UNL A   1      42.658  26.661  27.740  1.00  0.00     0.074 A 
ATOM     13  C   UNL A   1      40.501  27.393  28.711  1.00  0.00     0.049 A 
ATOM     14  N   UNL A   1      43.381  27.734  27.893  1.00  0.00    -0.248 NA
ATOM     15  C   UNL A   1      43.362  25.547  27.078  1.00  0.00     0.031 C 
ATOM     16  C   UNL A   1      39.079  27.308  29.033  1.00  0.00     0.029 A 
ATOM     17  N   UNL A   1      40.865  28.629  29.179  1.00  0.00    -0.354 N 
ATOM     18  C   UNL A   1      44.610  27.437  27.324  1.00  0.00     0.074 A 
ATOM     19  C   UNL A   1      44.563  26.064  26.881  1.00  0.00     0.031 C 
ATOM     20  C   UNL A   1      38.709  28.398  29.725  1.00  0.00     0.029 A 
ATOM     21  C   UNL A   1      39.860  29.284  29.855  1.00  0.00     0.049 A 
ATOM     22  H   UNL A   1      41.762  29.013  29.046  1.00  0.00     0.167 HD
ATOM     23  C   UNL A   1      45.668  28.255  27.136  1.00  0.00     0.034 A 
ATOM     24  C   UNL A   1      39.868  30.473  30.490  1.00  0.00     0.034 A 
ATOM     25  C   UNL A   1      45.712  29.610  27.599  1.00  0.00     0.049 A 
ATOM     26  C   UNL A   1      41.102  31.328  30.364  1.00  0.00     0.074 A 
ATOM     27  C   UNL A   1      46.740  30.525  27.491  1.00  0.00     0.029 A 
ATOM     28  N   UNL A   1      44.680  30.238  28.283  1.00  0.00    -0.354 N 
ATOM     29  N   UNL A   1      42.218  31.072  29.721  1.00  0.00    -0.248 NA
ATOM     30  C   UNL A   1      41.058  32.660  30.981  1.00  0.00     0.031 C 
ATOM     31  C   UNL A   1      46.342  31.699  28.140  1.00  0.00     0.029 A 
ATOM     32  C   UNL A   1      45.050  31.527  28.614  1.00  0.00     0.049 A 
ATOM     33  H   UNL A   1      43.813  29.825  28.500  1.00  0.00     0.167 HD
ATOM     34  C   UNL A   1      42.983  32.227  29.807  1.00  0.00     0.074 A 
ATOM     35  C   UNL A   1      42.196  33.190  30.554  1.00  0.00     0.031 C 
ATOM     36  C   UNL A   1      44.223  32.475  29.318  1.00  0.00     0.034 A 
BRANCH  23  37
ATOM     37  C   UNL A   1      46.836  27.687  26.382  1.00  0.00     0.023 A 
ATOM     38  C   UNL A   1      46.901  27.839  24.979  1.00  0.00     0.012 A 
ATOM     39  C   UNL A   1      47.855  26.986  27.050  1.00  0.00     0.148 A 
ATOM     40  C   UNL A   1      47.941  27.267  24.250  1.00  0.00     0.002 A 
ATOM     41  C   UNL A   1      48.911  26.456  26.322  1.00  0.00     0.091 A 
ATOM     42  F   UNL A   1      47.756  26.829  28.378  1.00  0.00    -0.205 F 
ATOM     43  C   UNL A   1      48.949  26.583  24.922  1.00  0.00     0.022 A 
BRANCH  41  44
ATOM     44  S   UNL A   1      50.291  25.608  27.095  1.00  0.00     0.127 S 
ATOM     45  O   UNL A   1      49.649  24.389  27.587  1.00  0.00    -0.237 OA
ATOM     46  O   UNL A   1      51.195  25.408  25.963  1.00  0.00    -0.237 OA
ATOM     47  O   UNL A   1      50.790  26.505  28.128  1.00  0.00    -0.744 OA
ENDBRANCH  41  44
ENDBRANCH  23  37
BRANCH  24  48
ATOM     48  C   UNL A   1      38.667  30.956  31.234  1.00  0.00     0.023 A 
ATOM     49  C   UNL A   1      38.568  30.759  32.626  1.00  0.00     0.012 A 
ATOM     50  C   UNL A   1      37.601  31.586  30.558  1.00  0.00     0.148 A 
ATOM     51  C   UNL A   1      37.415  31.132  33.321  1.00  0.00     0.002 A 
ATOM     52  C   UNL A   1      36.474  31.997  31.264  1.00  0.00     0.091 A 
ATOM     53  F   UNL A   1      37.703  31.759  29.233  1.00  0.00    -0.205 F 
ATOM     54  C   UNL A   1      36.371  31.752  32.642  1.00  0.00     0.022 A 
BRANCH  52  55
ATOM     55  S   UNL A   1      35.120  32.892  30.492  1.00  0.00     0.127 S 
ATOM     56  O   UNL A   1      35.792  34.099  30.017  1.00  0.00    -0.237 OA
ATOM     57  O   UNL A   1      34.705  31.964  29.439  1.00  0.00    -0.237 OA
ATOM     58  O   UNL A   1      34.128  33.090  31.541  1.00  0.00    -0.744 OA
ENDBRANCH  52  55
ENDBRANCH  24  48
BRANCH  36  59
ATOM     59  C   UNL A   1      44.791  33.851  29.535  1.00  0.00     0.023 A 
ATOM     60  C   UNL A   1      45.516  34.139  30.707  1.00  0.00     0.012 A 
ATOM     61  C   UNL A   1      44.670  34.834  28.533  1.00  0.00     0.148 A 
ATOM     62  C   UNL A   1      46.080  35.398  30.897  1.00  0.00     0.002 A 
ATOM     63  C   UNL A   1      45.285  36.066  28.702  1.00  0.00     0.091 A 
ATOM     64  F   UNL A   1      43.960  34.544  27.432  1.00  0.00    -0.205 F 
ATOM     65  C   UNL A   1      45.977  36.356  29.890  1.00  0.00     0.022 A 
BRANCH  63  66
ATOM     66  S   UNL A   1      45.300  37.317  27.415  1.00  0.00     0.127 S 
ATOM     67  O   UNL A   1      46.071  36.655  26.365  1.00  0.00    -0.237 OA
ATOM     68  O   UNL A   1      43.874  37.472  27.120  1.00  0.00    -0.237 OA
ATOM     69  O   UNL A   1      45.927  38.493  28.003  1.00  0.00    -0.744 OA
ENDBRANCH  63  66
ENDBRANCH  36  59
ENDBRANCH  10  11
ENDBRANCH   3   5
ENDBRANCH   2   3
ENDBRANCH   1   2
BRANCH   1  70
ATOM     70  C   UNL A   1      36.859  22.715  23.826  1.00  0.00     0.274 C 
BRANCH  70  71
ATOM     71  O   UNL A   1      35.637  22.747  23.074  1.00  0.00    -0.458 OA
BRANCH  71  72
ATOM     72  C   UNL A   1      34.771  23.752  23.410  1.00  0.00     0.365 C 
ATOM     73  O   UNL A   1      34.413  24.627  22.625  1.00  0.00    -0.245 OA
BRANCH  72  74
ATOM     74  C   UNL A   1      34.289  23.584  24.869  1.00  0.00     0.295 C 
ATOM     75  C   UNL A   1      34.422  24.883  25.672  1.00  0.00     0.087 C 
ATOM     76  N   UNL A   1      32.847  23.234  24.872  1.00  0.00    -0.320 N 
ATOM     77  C   UNL A   1      33.000  25.209  26.099  1.00  0.00     0.054 C 
ATOM     78  C   UNL A   1      32.177  24.516  25.034  1.00  0.00     0.188 C 
ATOM     79  H   UNL A   1      32.521  22.807  24.006  1.00  0.00     0.349 HD
ATOM     80  C   UNL A   1      32.653  26.682  26.219  1.00  0.00     0.010 C 
ATOM     81  C   UNL A   1      30.693  24.581  25.307  1.00  0.00     0.065 C 
ATOM     82  C   UNL A   1      31.143  26.894  26.378  1.00  0.00     0.001 C 
ATOM     83  C   UNL A   1      30.266  26.047  25.443  1.00  0.00     0.006 C 
BRANCH  76  84
ATOM     84  C   UNL A   1      32.463  22.076  25.684  1.00  0.00     0.265 C 
BRANCH  84  85
ATOM     85  C   UNL A   1      32.153  20.675  25.096  1.00  0.00     0.093 C 
BRANCH  85  86
ATOM     86  C   UNL A   1      33.022  19.445  25.432  1.00  0.00     0.123 C 
ATOM     87  C   UNL A   1      34.227  19.100  24.574  1.00  0.00     0.034 C 
ATOM     88  O   UNL A   1      32.202  18.283  25.543  1.00  0.00    -0.378 OA
ATOM     89  C   UNL A   1      34.085  17.632  24.246  1.00  0.00     0.031 C 
ATOM     90  C   UNL A   1      32.709  17.242  24.722  1.00  0.00     0.160 C 
ENDBRANCH  85  86
ENDBRANCH  84  85
ENDBRANCH  76  84
ENDBRANCH  72  74
ENDBRANCH  71  72
ENDBRANCH  70  71
ENDBRANCH   1  70
TORSDOF 17
ENDMDL
