MODEL 1
REMARK VINA RESULT:     -11.5      0.000      0.000
REMARK SMILES O=C(Cc1csc(NC(=O)[C@H]2CC(=O)N(C3CC3)C2)n1)OCCOC(=O)c1ccc(-c2c3nc(c(-c4cccc(S(=O)(=O)[O-])c4F)c4ccc([nH]4)c(-c4cccc(S(=O)(=O)[O-])c4F)c4nc(c(-c5cccc(S(=O)(=O)[O-])c5F)c5ccc2[nH]5)C=C4)C=C3)cc1
REMARK SMILES IDX 22 1 21 2 2 3 1 4 3 5 4 6 5 7 20 8 6 9 7 10 8 11 9 12 10 14
REMARK SMILES IDX 11 15 12 16 19 17 13 18 15 19 14 20 16 21 17 22 18 23 23 24
REMARK SMILES IDX 24 25 25 26 26 27 27 28 28 29 89 30 29 31 88 32 30 33 31 34
REMARK SMILES IDX 32 35 82 36 33 37 87 38 81 39 83 40 34 41 86 42 80 43 79 44
REMARK SMILES IDX 35 46 67 47 47 48 66 49 48 50 51 51 65 52 84 53 49 54 50 55
REMARK SMILES IDX 64 57 85 58 52 59 36 60 37 61 45 62 38 63 40 64 46 65 39 66
REMARK SMILES IDX 41 67 42 68 43 69 44 70 68 71 69 72 77 73 70 74 72 75 78 76
REMARK SMILES IDX 71 77 73 78 74 79 75 80 76 81 53 82 54 83 62 84 55 85 57 86
REMARK SMILES IDX 63 87 56 88 58 89 59 90 60 91 61 92
REMARK H PARENT 8 13 83 45 51 56
REMARK Flexibility Score: inf
ROOT
ATOM      1  C   UNL A   1      31.471  30.440  25.790  1.00  0.00     0.274 C 
ENDROOT
BRANCH   1   2
ATOM      2  O   UNL A   1      32.773  30.002  25.345  1.00  0.00    -0.462 OA
BRANCH   2   3
ATOM      3  C   UNL A   1      33.006  28.987  24.476  1.00  0.00     0.312 C 
ATOM      4  O   UNL A   1      34.035  28.318  24.576  1.00  0.00    -0.252 OA
BRANCH   3   5
ATOM      5  C   UNL A   1      32.004  28.697  23.386  1.00  0.00     0.179 C 
BRANCH   5   6
ATOM      6  C   UNL A   1      31.615  27.271  23.391  1.00  0.00     0.065 A 
ATOM      7  C   UNL A   1      31.597  26.403  22.318  1.00  0.00     0.093 A 
ATOM      8  N   UNL A   1      31.179  26.727  24.581  1.00  0.00    -0.224 NA
ATOM      9  S   UNL A   1      31.231  24.830  22.886  1.00  0.00    -0.105 S 
ATOM     10  C   UNL A   1      30.846  25.476  24.401  1.00  0.00     0.189 A 
BRANCH  10  11
ATOM     11  N   UNL A   1      30.341  24.772  25.444  1.00  0.00    -0.302 N 
ATOM     12  C   UNL A   1      30.836  23.971  26.401  1.00  0.00     0.231 C 
ATOM     13  H   UNL A   1      29.364  24.875  25.518  1.00  0.00     0.172 HD
ATOM     14  O   UNL A   1      30.024  23.682  27.296  1.00  0.00    -0.274 OA
BRANCH  12  15
ATOM     15  C   UNL A   1      32.251  23.431  26.500  1.00  0.00     0.107 C 
ATOM     16  C   UNL A   1      32.377  22.277  25.484  1.00  0.00     0.115 C 
ATOM     17  C   UNL A   1      33.423  24.303  26.089  1.00  0.00     0.133 C 
ATOM     18  C   UNL A   1      33.854  22.173  25.225  1.00  0.00     0.223 C 
ATOM     19  N   UNL A   1      34.422  23.377  25.621  1.00  0.00    -0.339 N 
ATOM     20  O   UNL A   1      34.390  21.194  24.732  1.00  0.00    -0.275 OA
BRANCH  19  21
ATOM     21  C   UNL A   1      35.811  23.717  25.698  1.00  0.00     0.085 C 
ATOM     22  C   UNL A   1      36.926  22.719  25.802  1.00  0.00     0.027 C 
ATOM     23  C   UNL A   1      36.734  23.502  24.535  1.00  0.00     0.027 C 
ENDBRANCH  19  21
ENDBRANCH  12  15
ENDBRANCH  10  11
ENDBRANCH   5   6
ENDBRANCH   3   5
ENDBRANCH   2   3
ENDBRANCH   1   2
BRANCH   1  24
ATOM     24  C   UNL A   1      31.523  31.823  26.443  1.00  0.00     0.275 C 
BRANCH  24  25
ATOM     25  O   UNL A   1      32.361  31.800  27.611  1.00  0.00    -0.458 OA
BRANCH  25  26
ATOM     26  C   UNL A   1      33.232  32.840  27.718  1.00  0.00     0.338 C 
ATOM     27  O   UNL A   1      32.949  34.018  27.742  1.00  0.00    -0.246 OA
BRANCH  26  28
ATOM     28  C   UNL A   1      34.584  32.311  28.031  1.00  0.00     0.060 A 
ATOM     29  C   UNL A   1      34.691  30.945  28.323  1.00  0.00     0.016 A 
ATOM     30  C   UNL A   1      35.729  33.114  28.006  1.00  0.00     0.016 A 
ATOM     31  C   UNL A   1      35.929  30.393  28.650  1.00  0.00     0.010 A 
ATOM     32  C   UNL A   1      36.970  32.560  28.339  1.00  0.00     0.010 A 
ATOM     33  C   UNL A   1      37.067  31.208  28.712  1.00  0.00    -0.014 A 
BRANCH  33  34
ATOM     34  C   UNL A   1      38.275  30.697  29.406  1.00  0.00     0.031 A 
ATOM     35  C   UNL A   1      38.530  31.167  30.815  1.00  0.00     0.074 A 
ATOM     36  C   UNL A   1      39.107  29.806  28.837  1.00  0.00     0.049 A 
ATOM     37  N   UNL A   1      39.447  30.785  31.664  1.00  0.00    -0.248 NA
ATOM     38  C   UNL A   1      37.626  32.208  31.335  1.00  0.00     0.031 C 
ATOM     39  C   UNL A   1      38.989  29.276  27.481  1.00  0.00     0.029 A 
ATOM     40  N   UNL A   1      40.229  29.193  29.342  1.00  0.00    -0.354 N 
ATOM     41  C   UNL A   1      39.239  31.545  32.809  1.00  0.00     0.074 A 
ATOM     42  C   UNL A   1      38.130  32.432  32.536  1.00  0.00     0.031 C 
ATOM     43  C   UNL A   1      40.006  28.423  27.257  1.00  0.00     0.029 A 
ATOM     44  C   UNL A   1      40.849  28.350  28.451  1.00  0.00     0.049 A 
ATOM     45  H   UNL A   1      40.558  29.344  30.257  1.00  0.00     0.167 HD
ATOM     46  C   UNL A   1      39.892  31.498  33.992  1.00  0.00     0.034 A 
ATOM     47  C   UNL A   1      41.964  27.602  28.587  1.00  0.00     0.034 A 
ATOM     48  C   UNL A   1      40.990  30.617  34.275  1.00  0.00     0.049 A 
ATOM     49  C   UNL A   1      42.687  27.579  29.913  1.00  0.00     0.074 A 
ATOM     50  C   UNL A   1      41.686  30.463  35.461  1.00  0.00     0.029 A 
ATOM     51  N   UNL A   1      41.568  29.756  33.356  1.00  0.00    -0.354 N 
ATOM     52  N   UNL A   1      42.386  28.193  31.032  1.00  0.00    -0.248 NA
ATOM     53  C   UNL A   1      43.877  26.720  30.006  1.00  0.00     0.031 C 
ATOM     54  C   UNL A   1      42.711  29.536  35.249  1.00  0.00     0.029 A 
ATOM     55  C   UNL A   1      42.622  29.077  33.944  1.00  0.00     0.049 A 
ATOM     56  H   UNL A   1      41.273  29.643  32.424  1.00  0.00     0.167 HD
ATOM     57  C   UNL A   1      43.313  27.751  31.973  1.00  0.00     0.074 A 
ATOM     58  C   UNL A   1      44.180  26.810  31.295  1.00  0.00     0.031 C 
ATOM     59  C   UNL A   1      43.440  28.095  33.280  1.00  0.00     0.034 A 
BRANCH  46  60
ATOM     60  C   UNL A   1      39.421  32.425  35.080  1.00  0.00     0.023 A 
ATOM     61  C   UNL A   1      38.435  31.994  35.992  1.00  0.00     0.012 A 
ATOM     62  C   UNL A   1      39.978  33.709  35.219  1.00  0.00     0.148 A 
ATOM     63  C   UNL A   1      37.986  32.842  37.003  1.00  0.00     0.002 A 
ATOM     64  C   UNL A   1      39.561  34.531  36.258  1.00  0.00     0.091 A 
ATOM     65  F   UNL A   1      40.893  34.110  34.324  1.00  0.00    -0.205 F 
ATOM     66  C   UNL A   1      38.556  34.104  37.142  1.00  0.00     0.022 A 
BRANCH  64  67
ATOM     67  S   UNL A   1      40.290  36.141  36.569  1.00  0.00     0.127 S 
ATOM     68  O   UNL A   1      39.917  36.872  35.358  1.00  0.00    -0.237 OA
ATOM     69  O   UNL A   1      39.587  36.567  37.780  1.00  0.00    -0.237 OA
ATOM     70  O   UNL A   1      41.717  35.909  36.744  1.00  0.00    -0.744 OA
ENDBRANCH  64  67
ENDBRANCH  46  60
BRANCH  47  71
ATOM     71  C   UNL A   1      42.448  26.757  27.456  1.00  0.00     0.023 A 
ATOM     72  C   UNL A   1      43.259  27.328  26.455  1.00  0.00     0.012 A 
ATOM     73  C   UNL A   1      42.091  25.399  27.358  1.00  0.00     0.148 A 
ATOM     74  C   UNL A   1      43.667  26.574  25.354  1.00  0.00     0.002 A 
ATOM     75  C   UNL A   1      42.549  24.638  26.288  1.00  0.00     0.091 A 
ATOM     76  F   UNL A   1      41.309  24.878  28.313  1.00  0.00    -0.205 F 
ATOM     77  C   UNL A   1      43.320  25.229  25.274  1.00  0.00     0.022 A 
BRANCH  75  78
ATOM     78  S   UNL A   1      42.258  22.871  26.168  1.00  0.00     0.127 S 
ATOM     79  O   UNL A   1      42.975  22.368  27.337  1.00  0.00    -0.237 OA
ATOM     80  O   UNL A   1      40.799  22.803  26.259  1.00  0.00    -0.237 OA
ATOM     81  O   UNL A   1      42.798  22.469  24.875  1.00  0.00    -0.744 OA
ENDBRANCH  75  78
ENDBRANCH  47  71
BRANCH  59  82
ATOM     82  C   UNL A   1      44.505  27.406  34.096  1.00  0.00     0.023 A 
ATOM     83  C   UNL A   1      45.809  27.933  34.158  1.00  0.00     0.012 A 
ATOM     84  C   UNL A   1      44.184  26.266  34.862  1.00  0.00     0.148 A 
ATOM     85  C   UNL A   1      46.788  27.311  34.935  1.00  0.00     0.002 A 
ATOM     86  C   UNL A   1      45.150  25.686  35.676  1.00  0.00     0.091 A 
ATOM     87  F   UNL A   1      42.943  25.766  34.779  1.00  0.00    -0.205 F 
ATOM     88  C   UNL A   1      46.457  26.197  35.702  1.00  0.00     0.022 A 
BRANCH  86  89
ATOM     89  S   UNL A   1      44.780  24.314  36.775  1.00  0.00     0.127 S 
ATOM     90  O   UNL A   1      43.745  24.889  37.632  1.00  0.00    -0.237 OA
ATOM     91  O   UNL A   1      44.302  23.289  35.846  1.00  0.00    -0.237 OA
ATOM     92  O   UNL A   1      46.035  23.984  37.438  1.00  0.00    -0.744 OA
ENDBRANCH  86  89
ENDBRANCH  59  82
ENDBRANCH  33  34
ENDBRANCH  26  28
ENDBRANCH  25  26
ENDBRANCH  24  25
ENDBRANCH   1  24
TORSDOF 18
ENDMDL
MODEL 2
REMARK VINA RESULT:     -11.3      1.793      2.232
REMARK SMILES O=C(Cc1csc(NC(=O)[C@H]2CC(=O)N(C3CC3)C2)n1)OCCOC(=O)c1ccc(-c2c3nc(c(-c4cccc(S(=O)(=O)[O-])c4F)c4ccc([nH]4)c(-c4cccc(S(=O)(=O)[O-])c4F)c4nc(c(-c5cccc(S(=O)(=O)[O-])c5F)c5ccc2[nH]5)C=C4)C=C3)cc1
REMARK SMILES IDX 22 1 21 2 2 3 1 4 3 5 4 6 5 7 20 8 6 9 7 10 8 11 9 12 10 14
REMARK SMILES IDX 11 15 12 16 19 17 13 18 15 19 14 20 16 21 17 22 18 23 23 24
REMARK SMILES IDX 24 25 25 26 26 27 27 28 28 29 89 30 29 31 88 32 30 33 31 34
REMARK SMILES IDX 32 35 82 36 33 37 87 38 81 39 83 40 34 41 86 42 80 43 79 44
REMARK SMILES IDX 35 46 67 47 47 48 66 49 48 50 51 51 65 52 84 53 49 54 50 55
REMARK SMILES IDX 64 57 85 58 52 59 36 60 37 61 45 62 38 63 40 64 46 65 39 66
REMARK SMILES IDX 41 67 42 68 43 69 44 70 68 71 69 72 77 73 70 74 72 75 78 76
REMARK SMILES IDX 71 77 73 78 74 79 75 80 76 81 53 82 54 83 62 84 55 85 57 86
REMARK SMILES IDX 63 87 56 88 58 89 59 90 60 91 61 92
REMARK H PARENT 8 13 83 45 51 56
REMARK Flexibility Score: inf
ROOT
ATOM      1  C   UNL A   1      31.798  31.220  26.427  1.00  0.00     0.274 C 
ENDROOT
BRANCH   1   2
ATOM      2  O   UNL A   1      31.500  30.051  27.219  1.00  0.00    -0.462 OA
BRANCH   2   3
ATOM      3  C   UNL A   1      31.997  28.807  27.004  1.00  0.00     0.312 C 
ATOM      4  O   UNL A   1      31.660  27.877  27.737  1.00  0.00    -0.252 OA
BRANCH   3   5
ATOM      5  C   UNL A   1      32.970  28.581  25.874  1.00  0.00     0.179 C 
BRANCH   5   6
ATOM      6  C   UNL A   1      32.282  28.037  24.685  1.00  0.00     0.065 A 
ATOM      7  C   UNL A   1      30.977  28.261  24.296  1.00  0.00     0.093 A 
ATOM      8  N   UNL A   1      32.985  27.172  23.873  1.00  0.00    -0.224 NA
ATOM      9  S   UNL A   1      30.725  27.536  22.765  1.00  0.00    -0.105 S 
ATOM     10  C   UNL A   1      32.223  26.762  22.894  1.00  0.00     0.189 A 
BRANCH  10  11
ATOM     11  N   UNL A   1      32.714  25.861  22.009  1.00  0.00    -0.302 N 
ATOM     12  C   UNL A   1      33.055  24.562  22.039  1.00  0.00     0.231 C 
ATOM     13  H   UNL A   1      32.858  26.258  21.119  1.00  0.00     0.172 HD
ATOM     14  O   UNL A   1      33.286  24.068  20.922  1.00  0.00    -0.274 OA
BRANCH  12  15
ATOM     15  C   UNL A   1      33.150  23.671  23.264  1.00  0.00     0.107 C 
ATOM     16  C   UNL A   1      32.319  22.403  22.980  1.00  0.00     0.115 C 
ATOM     17  C   UNL A   1      34.483  23.057  23.651  1.00  0.00     0.133 C 
ATOM     18  C   UNL A   1      32.882  21.373  23.918  1.00  0.00     0.223 C 
ATOM     19  N   UNL A   1      34.141  21.818  24.300  1.00  0.00    -0.339 N 
ATOM     20  O   UNL A   1      32.302  20.345  24.226  1.00  0.00    -0.275 OA
BRANCH  19  21
ATOM     21  C   UNL A   1      35.016  21.256  25.284  1.00  0.00     0.085 C 
ATOM     22  C   UNL A   1      36.055  20.210  25.002  1.00  0.00     0.027 C 
ATOM     23  C   UNL A   1      36.473  21.615  25.332  1.00  0.00     0.027 C 
ENDBRANCH  19  21
ENDBRANCH  12  15
ENDBRANCH  10  11
ENDBRANCH   5   6
ENDBRANCH   3   5
ENDBRANCH   2   3
ENDBRANCH   1   2
BRANCH   1  24
ATOM     24  C   UNL A   1      31.782  32.501  27.264  1.00  0.00     0.275 C 
BRANCH  24  25
ATOM     25  O   UNL A   1      33.050  33.174  27.183  1.00  0.00    -0.458 OA
BRANCH  25  26
ATOM     26  C   UNL A   1      33.572  33.567  28.377  1.00  0.00     0.338 C 
ATOM     27  O   UNL A   1      33.017  34.232  29.223  1.00  0.00    -0.246 OA
BRANCH  26  28
ATOM     28  C   UNL A   1      34.862  32.865  28.596  1.00  0.00     0.060 A 
ATOM     29  C   UNL A   1      34.808  31.550  29.078  1.00  0.00     0.016 A 
ATOM     30  C   UNL A   1      36.096  33.454  28.306  1.00  0.00     0.016 A 
ATOM     31  C   UNL A   1      35.986  30.846  29.328  1.00  0.00     0.010 A 
ATOM     32  C   UNL A   1      37.278  32.750  28.562  1.00  0.00     0.010 A 
ATOM     33  C   UNL A   1      37.228  31.461  29.122  1.00  0.00    -0.014 A 
BRANCH  33  34
ATOM     34  C   UNL A   1      38.437  30.850  29.730  1.00  0.00     0.031 A 
ATOM     35  C   UNL A   1      38.808  31.267  31.130  1.00  0.00     0.074 A 
ATOM     36  C   UNL A   1      39.168  29.917  29.094  1.00  0.00     0.049 A 
ATOM     37  N   UNL A   1      39.745  30.802  31.914  1.00  0.00    -0.248 NA
ATOM     38  C   UNL A   1      38.013  32.356  31.725  1.00  0.00     0.031 C 
ATOM     39  C   UNL A   1      38.932  29.430  27.737  1.00  0.00     0.029 A 
ATOM     40  N   UNL A   1      40.272  29.216  29.516  1.00  0.00    -0.354 N 
ATOM     41  C   UNL A   1      39.661  31.547  33.084  1.00  0.00     0.074 A 
ATOM     42  C   UNL A   1      38.603  32.515  32.898  1.00  0.00     0.031 C 
ATOM     43  C   UNL A   1      39.871  28.515  27.434  1.00  0.00     0.029 A 
ATOM     44  C   UNL A   1      40.776  28.354  28.572  1.00  0.00     0.049 A 
ATOM     45  H   UNL A   1      40.665  29.322  30.412  1.00  0.00     0.167 HD
ATOM     46  C   UNL A   1      40.379  31.426  34.224  1.00  0.00     0.034 A 
ATOM     47  C   UNL A   1      41.841  27.528  28.624  1.00  0.00     0.034 A 
ATOM     48  C   UNL A   1      41.427  30.464  34.421  1.00  0.00     0.049 A 
ATOM     49  C   UNL A   1      42.639  27.423  29.903  1.00  0.00     0.074 A 
ATOM     50  C   UNL A   1      42.180  30.234  35.558  1.00  0.00     0.029 A 
ATOM     51  N   UNL A   1      41.886  29.587  33.451  1.00  0.00    -0.354 N 
ATOM     52  N   UNL A   1      42.450  28.028  31.050  1.00  0.00    -0.248 NA
ATOM     53  C   UNL A   1      43.769  26.480  29.905  1.00  0.00     0.031 C 
ATOM     54  C   UNL A   1      43.122  29.243  35.264  1.00  0.00     0.029 A 
ATOM     55  C   UNL A   1      42.922  28.823  33.959  1.00  0.00     0.049 A 
ATOM     56  H   UNL A   1      41.529  29.518  32.536  1.00  0.00     0.167 HD
ATOM     57  C   UNL A   1      43.399  27.500  31.923  1.00  0.00     0.074 A 
ATOM     58  C   UNL A   1      44.154  26.518  31.174  1.00  0.00     0.031 C 
ATOM     59  C   UNL A   1      43.627  27.803  33.226  1.00  0.00     0.034 A 
BRANCH  46  60
ATOM     60  C   UNL A   1      40.041  32.356  35.357  1.00  0.00     0.023 A 
ATOM     61  C   UNL A   1      40.703  33.596  35.470  1.00  0.00     0.012 A 
ATOM     62  C   UNL A   1      39.043  32.018  36.289  1.00  0.00     0.148 A 
ATOM     63  C   UNL A   1      40.403  34.467  36.516  1.00  0.00     0.002 A 
ATOM     64  C   UNL A   1      38.714  32.912  37.300  1.00  0.00     0.091 A 
ATOM     65  F   UNL A   1      38.445  30.822  36.180  1.00  0.00    -0.205 F 
ATOM     66  C   UNL A   1      39.403  34.131  37.422  1.00  0.00     0.022 A 
BRANCH  64  67
ATOM     67  S   UNL A   1      37.387  32.605  38.467  1.00  0.00     0.127 S 
ATOM     68  O   UNL A   1      37.782  33.451  39.593  1.00  0.00    -0.237 OA
ATOM     69  O   UNL A   1      36.214  33.078  37.730  1.00  0.00    -0.237 OA
ATOM     70  O   UNL A   1      37.404  31.172  38.728  1.00  0.00    -0.744 OA
ENDBRANCH  64  67
ENDBRANCH  46  60
BRANCH  47  71
ATOM     71  C   UNL A   1      42.196  26.679  27.450  1.00  0.00     0.023 A 
ATOM     72  C   UNL A   1      42.812  27.264  26.325  1.00  0.00     0.012 A 
ATOM     73  C   UNL A   1      41.905  25.301  27.433  1.00  0.00     0.148 A 
ATOM     74  C   UNL A   1      43.091  26.502  25.190  1.00  0.00     0.002 A 
ATOM     75  C   UNL A   1      42.238  24.536  26.320  1.00  0.00     0.091 A 
ATOM     76  F   UNL A   1      41.306  24.766  28.505  1.00  0.00    -0.205 F 
ATOM     77  C   UNL A   1      42.812  25.139  25.189  1.00  0.00     0.022 A 
BRANCH  75  78
ATOM     78  S   UNL A   1      42.032  22.754  26.279  1.00  0.00     0.127 S 
ATOM     79  O   UNL A   1      42.651  22.410  25.001  1.00  0.00    -0.237 OA
ATOM     80  O   UNL A   1      42.785  22.339  27.463  1.00  0.00    -0.237 OA
ATOM     81  O   UNL A   1      40.596  22.521  26.369  1.00  0.00    -0.744 OA
ENDBRANCH  75  78
ENDBRANCH  47  71
BRANCH  59  82
ATOM     82  C   UNL A   1      44.688  27.022  33.961  1.00  0.00     0.023 A 
ATOM     83  C   UNL A   1      46.031  27.445  33.937  1.00  0.00     0.012 A 
ATOM     84  C   UNL A   1      44.332  25.901  34.738  1.00  0.00     0.148 A 
ATOM     85  C   UNL A   1      47.009  26.738  34.639  1.00  0.00     0.002 A 
ATOM     86  C   UNL A   1      45.302  25.236  35.479  1.00  0.00     0.091 A 
ATOM     87  F   UNL A   1      43.052  25.500  34.738  1.00  0.00    -0.205 F 
ATOM     88  C   UNL A   1      46.644  25.643  35.419  1.00  0.00     0.022 A 
BRANCH  86  89
ATOM     89  S   UNL A   1      44.901  23.883  36.591  1.00  0.00     0.127 S 
ATOM     90  O   UNL A   1      44.158  22.983  35.710  1.00  0.00    -0.237 OA
ATOM     91  O   UNL A   1      46.224  23.397  36.983  1.00  0.00    -0.237 OA
ATOM     92  O   UNL A   1      44.132  24.474  37.678  1.00  0.00    -0.744 OA
ENDBRANCH  86  89
ENDBRANCH  59  82
ENDBRANCH  33  34
ENDBRANCH  26  28
ENDBRANCH  25  26
ENDBRANCH  24  25
ENDBRANCH   1  24
TORSDOF 18
ENDMDL
MODEL 3
REMARK VINA RESULT:     -11.1      4.585     10.173
REMARK SMILES O=C(Cc1csc(NC(=O)[C@H]2CC(=O)N(C3CC3)C2)n1)OCCOC(=O)c1ccc(-c2c3nc(c(-c4cccc(S(=O)(=O)[O-])c4F)c4ccc([nH]4)c(-c4cccc(S(=O)(=O)[O-])c4F)c4nc(c(-c5cccc(S(=O)(=O)[O-])c5F)c5ccc2[nH]5)C=C4)C=C3)cc1
REMARK SMILES IDX 22 1 21 2 2 3 1 4 3 5 4 6 5 7 20 8 6 9 7 10 8 11 9 12 10 14
REMARK SMILES IDX 11 15 12 16 19 17 13 18 15 19 14 20 16 21 17 22 18 23 23 24
REMARK SMILES IDX 24 25 25 26 26 27 27 28 28 29 89 30 29 31 88 32 30 33 31 34
REMARK SMILES IDX 32 35 82 36 33 37 87 38 81 39 83 40 34 41 86 42 80 43 79 44
REMARK SMILES IDX 35 46 67 47 47 48 66 49 48 50 51 51 65 52 84 53 49 54 50 55
REMARK SMILES IDX 64 57 85 58 52 59 36 60 37 61 45 62 38 63 40 64 46 65 39 66
REMARK SMILES IDX 41 67 42 68 43 69 44 70 68 71 69 72 77 73 70 74 72 75 78 76
REMARK SMILES IDX 71 77 73 78 74 79 75 80 76 81 53 82 54 83 62 84 55 85 57 86
REMARK SMILES IDX 63 87 56 88 58 89 59 90 60 91 61 92
REMARK H PARENT 8 13 83 45 51 56
REMARK Flexibility Score: inf
ROOT
ATOM      1  C   UNL A   1      36.525  19.509  25.001  1.00  0.00     0.274 C 
ENDROOT
BRANCH   1   2
ATOM      2  O   UNL A   1      35.192  20.064  24.972  1.00  0.00    -0.462 OA
BRANCH   2   3
ATOM      3  C   UNL A   1      34.064  19.383  24.651  1.00  0.00     0.312 C 
ATOM      4  O   UNL A   1      34.101  18.158  24.528  1.00  0.00    -0.252 OA
BRANCH   3   5
ATOM      5  C   UNL A   1      32.776  20.138  24.437  1.00  0.00     0.179 C 
BRANCH   5   6
ATOM      6  C   UNL A   1      33.015  21.596  24.417  1.00  0.00     0.065 A 
ATOM      7  C   UNL A   1      33.166  22.437  25.501  1.00  0.00     0.093 A 
ATOM      8  N   UNL A   1      33.058  22.225  23.189  1.00  0.00    -0.224 NA
ATOM      9  S   UNL A   1      33.586  23.997  24.936  1.00  0.00    -0.105 S 
ATOM     10  C   UNL A   1      33.243  23.508  23.353  1.00  0.00     0.189 A 
BRANCH  10  11
ATOM     11  N   UNL A   1      33.264  24.315  22.265  1.00  0.00    -0.302 N 
ATOM     12  C   UNL A   1      32.894  25.576  21.988  1.00  0.00     0.231 C 
ATOM     13  H   UNL A   1      33.648  23.863  21.478  1.00  0.00     0.172 HD
ATOM     14  O   UNL A   1      33.280  25.991  20.882  1.00  0.00    -0.274 OA
BRANCH  12  15
ATOM     15  C   UNL A   1      32.101  26.512  22.882  1.00  0.00     0.107 C 
ATOM     16  C   UNL A   1      33.097  27.507  23.510  1.00  0.00     0.115 C 
ATOM     17  C   UNL A   1      31.091  27.466  22.272  1.00  0.00     0.133 C 
ATOM     18  C   UNL A   1      32.250  28.686  23.895  1.00  0.00     0.223 C 
ATOM     19  N   UNL A   1      31.076  28.600  23.159  1.00  0.00    -0.339 N 
ATOM     20  O   UNL A   1      32.597  29.541  24.694  1.00  0.00    -0.275 OA
BRANCH  19  21
ATOM     21  C   UNL A   1      29.900  29.411  23.270  1.00  0.00     0.085 C 
ATOM     22  C   UNL A   1      29.246  30.123  22.124  1.00  0.00     0.027 C 
ATOM     23  C   UNL A   1      28.572  28.938  22.755  1.00  0.00     0.027 C 
ENDBRANCH  19  21
ENDBRANCH  12  15
ENDBRANCH  10  11
ENDBRANCH   5   6
ENDBRANCH   3   5
ENDBRANCH   2   3
ENDBRANCH   1   2
BRANCH   1  24
ATOM     24  C   UNL A   1      37.586  20.539  24.608  1.00  0.00     0.275 C 
BRANCH  24  25
ATOM     25  O   UNL A   1      37.955  21.342  25.742  1.00  0.00    -0.458 OA
BRANCH  25  26
ATOM     26  C   UNL A   1      39.256  21.236  26.126  1.00  0.00     0.338 C 
ATOM     27  O   UNL A   1      40.027  20.351  25.826  1.00  0.00    -0.246 OA
BRANCH  26  28
ATOM     28  C   UNL A   1      39.670  22.496  26.793  1.00  0.00     0.060 A 
ATOM     29  C   UNL A   1      38.940  23.654  26.495  1.00  0.00     0.016 A 
ATOM     30  C   UNL A   1      40.719  22.548  27.717  1.00  0.00     0.016 A 
ATOM     31  C   UNL A   1      39.295  24.874  27.071  1.00  0.00     0.010 A 
ATOM     32  C   UNL A   1      41.078  23.773  28.290  1.00  0.00     0.010 A 
ATOM     33  C   UNL A   1      40.399  24.951  27.930  1.00  0.00    -0.014 A 
BRANCH  33  34
ATOM     34  C   UNL A   1      40.978  26.284  28.232  1.00  0.00     0.031 A 
ATOM     35  C   UNL A   1      42.341  26.602  27.674  1.00  0.00     0.074 A 
ATOM     36  C   UNL A   1      40.310  27.213  28.939  1.00  0.00     0.049 A 
ATOM     37  N   UNL A   1      43.008  27.725  27.704  1.00  0.00    -0.248 NA
ATOM     38  C   UNL A   1      43.044  25.504  26.988  1.00  0.00     0.031 C 
ATOM     39  C   UNL A   1      38.994  27.037  29.547  1.00  0.00     0.029 A 
ATOM     40  N   UNL A   1      40.664  28.500  29.267  1.00  0.00    -0.354 N 
ATOM     41  C   UNL A   1      44.210  27.466  27.057  1.00  0.00     0.074 A 
ATOM     42  C   UNL A   1      44.195  26.073  26.671  1.00  0.00     0.031 C 
ATOM     43  C   UNL A   1      38.654  28.173  30.185  1.00  0.00     0.029 A 
ATOM     44  C   UNL A   1      39.729  29.154  30.034  1.00  0.00     0.049 A 
ATOM     45  H   UNL A   1      41.509  28.915  28.981  1.00  0.00     0.167 HD
ATOM     46  C   UNL A   1      45.229  28.313  26.782  1.00  0.00     0.034 A 
ATOM     47  C   UNL A   1      39.739  30.401  30.549  1.00  0.00     0.034 A 
ATOM     48  C   UNL A   1      45.251  29.699  27.155  1.00  0.00     0.049 A 
ATOM     49  C   UNL A   1      40.897  31.322  30.243  1.00  0.00     0.074 A 
ATOM     50  C   UNL A   1      46.219  30.648  26.880  1.00  0.00     0.029 A 
ATOM     51  N   UNL A   1      44.271  30.331  27.903  1.00  0.00    -0.354 N 
ATOM     52  N   UNL A   1      41.956  31.105  29.501  1.00  0.00    -0.248 NA
ATOM     53  C   UNL A   1      40.833  32.679  30.807  1.00  0.00     0.031 C 
ATOM     54  C   UNL A   1      45.843  31.846  27.494  1.00  0.00     0.029 A 
ATOM     55  C   UNL A   1      44.617  31.655  28.111  1.00  0.00     0.049 A 
ATOM     56  H   UNL A   1      43.451  29.902  28.237  1.00  0.00     0.167 HD
ATOM     57  C   UNL A   1      42.653  32.311  29.465  1.00  0.00     0.074 A 
ATOM     58  C   UNL A   1      41.890  33.257  30.251  1.00  0.00     0.031 C 
ATOM     59  C   UNL A   1      43.821  32.607  28.841  1.00  0.00     0.034 A 
BRANCH  46  60
ATOM     60  C   UNL A   1      46.405  27.757  26.025  1.00  0.00     0.023 A 
ATOM     61  C   UNL A   1      46.499  27.952  24.632  1.00  0.00     0.012 A 
ATOM     62  C   UNL A   1      47.432  27.070  26.699  1.00  0.00     0.148 A 
ATOM     63  C   UNL A   1      47.581  27.441  23.916  1.00  0.00     0.002 A 
ATOM     64  C   UNL A   1      48.531  26.606  25.987  1.00  0.00     0.091 A 
ATOM     65  F   UNL A   1      47.309  26.871  28.019  1.00  0.00    -0.205 F 
ATOM     66  C   UNL A   1      48.600  26.779  24.594  1.00  0.00     0.022 A 
BRANCH  64  67
ATOM     67  S   UNL A   1      49.931  25.812  26.781  1.00  0.00     0.127 S 
ATOM     68  O   UNL A   1      50.855  25.655  25.658  1.00  0.00    -0.237 OA
ATOM     69  O   UNL A   1      50.334  26.816  27.767  1.00  0.00    -0.237 OA
ATOM     70  O   UNL A   1      49.421  24.572  27.349  1.00  0.00    -0.744 OA
ENDBRANCH  64  67
ENDBRANCH  46  60
BRANCH  47  71
ATOM     71  C   UNL A   1      38.590  30.890  31.365  1.00  0.00     0.023 A 
ATOM     72  C   UNL A   1      38.622  30.755  32.767  1.00  0.00     0.012 A 
ATOM     73  C   UNL A   1      37.458  31.465  30.757  1.00  0.00     0.148 A 
ATOM     74  C   UNL A   1      37.530  31.144  33.544  1.00  0.00     0.002 A 
ATOM     75  C   UNL A   1      36.397  31.904  31.542  1.00  0.00     0.091 A 
ATOM     76  F   UNL A   1      37.441  31.572  29.421  1.00  0.00    -0.205 F 
ATOM     77  C   UNL A   1      36.422  31.724  32.934  1.00  0.00     0.022 A 
BRANCH  75  78
ATOM     78  S   UNL A   1      34.986  32.775  30.856  1.00  0.00     0.127 S 
ATOM     79  O   UNL A   1      34.029  32.708  31.957  1.00  0.00    -0.237 OA
ATOM     80  O   UNL A   1      35.549  34.103  30.606  1.00  0.00    -0.237 OA
ATOM     81  O   UNL A   1      34.617  32.043  29.652  1.00  0.00    -0.744 OA
ENDBRANCH  75  78
ENDBRANCH  47  71
BRANCH  59  82
ATOM     82  C   UNL A   1      44.323  34.028  28.913  1.00  0.00     0.023 A 
ATOM     83  C   UNL A   1      43.918  34.978  27.955  1.00  0.00     0.012 A 
ATOM     84  C   UNL A   1      45.147  34.436  29.982  1.00  0.00     0.148 A 
ATOM     85  C   UNL A   1      44.361  36.299  28.035  1.00  0.00     0.002 A 
ATOM     86  C   UNL A   1      45.538  35.765  30.086  1.00  0.00     0.091 A 
ATOM     87  F   UNL A   1      45.538  33.517  30.877  1.00  0.00    -0.205 F 
ATOM     88  C   UNL A   1      45.159  36.695  29.106  1.00  0.00     0.022 A 
BRANCH  86  89
ATOM     89  S   UNL A   1      46.478  36.382  31.488  1.00  0.00     0.127 S 
ATOM     90  O   UNL A   1      47.675  35.546  31.435  1.00  0.00    -0.237 OA
ATOM     91  O   UNL A   1      46.695  37.783  31.127  1.00  0.00    -0.237 OA
ATOM     92  O   UNL A   1      45.626  36.189  32.655  1.00  0.00    -0.744 OA
ENDBRANCH  86  89
ENDBRANCH  59  82
ENDBRANCH  33  34
ENDBRANCH  26  28
ENDBRANCH  25  26
ENDBRANCH  24  25
ENDBRANCH   1  24
TORSDOF 18
ENDMDL
