MODEL 1
REMARK VINA RESULT:     -11.2      0.000      0.000
REMARK SMILES Cc1nsc(N(C)S(=O)(=O)c2cn[nH]c2C)c1C(=O)OCCOC(=O)c1ccc(-c2c3nc(c(-c4cccc(S(=O)(=O)[O-])c4F)c4ccc([nH]4)c(-c4cccc(S(=O)(=O)[O-])c4F)c4nc(c(-c5cccc(S(=O)(=O)[O-])c5F)c5ccc2[nH]5)C=C4)C=C3)cc1
REMARK SMILES IDX 21 1 20 2 18 3 19 4 17 5 1 6 2 7 3 8 4 9 5 10 6 11 7 12 8 13
REMARK SMILES IDX 9 14 10 15 11 16 12 17 15 18 13 19 14 20 16 21 22 23 23 24
REMARK SMILES IDX 24 25 25 26 26 27 27 28 88 29 28 30 87 31 29 32 30 33 31 34
REMARK SMILES IDX 81 35 32 36 86 37 80 38 82 39 33 40 85 41 79 42 78 43 34 45
REMARK SMILES IDX 66 46 46 47 65 48 47 49 50 50 64 51 83 52 48 53 49 54 63 56
REMARK SMILES IDX 84 57 51 58 35 59 36 60 44 61 37 62 39 63 45 64 38 65 40 66
REMARK SMILES IDX 41 67 42 68 43 69 67 70 68 71 76 72 69 73 71 74 77 75 70 76
REMARK SMILES IDX 72 77 73 78 74 79 75 80 52 81 53 82 61 83 54 84 56 85 62 86
REMARK SMILES IDX 55 87 57 88 58 89 59 90 60 91
REMARK H PARENT 14 22 82 44 50 55
REMARK Flexibility Score: inf
ROOT
ATOM      1  C   UNL A   1      33.600  29.329  25.637  1.00  0.00     0.275 C 
ENDROOT
BRANCH   1   2
ATOM      2  O   UNL A   1      32.667  29.722  24.624  1.00  0.00    -0.458 OA
BRANCH   2   3
ATOM      3  C   UNL A   1      32.501  28.919  23.540  1.00  0.00     0.343 C 
ATOM      4  O   UNL A   1      33.259  28.892  22.577  1.00  0.00    -0.246 OA
BRANCH   3   5
ATOM      5  C   UNL A   1      31.247  28.189  23.613  1.00  0.00     0.118 A 
ATOM      6  C   UNL A   1      29.905  29.934  22.116  1.00  0.00     0.069 C 
ATOM      7  C   UNL A   1      30.059  28.676  22.909  1.00  0.00     0.068 A 
ATOM      8  N   UNL A   1      28.983  27.899  22.956  1.00  0.00    -0.195 NA
ATOM      9  S   UNL A   1      29.278  26.655  23.963  1.00  0.00    -0.017 S 
ATOM     10  C   UNL A   1      30.940  27.024  24.334  1.00  0.00     0.140 A 
BRANCH  10  11
ATOM     11  N   UNL A   1      31.660  26.186  25.315  1.00  0.00    -0.258 N 
ATOM     12  C   UNL A   1      31.576  26.531  26.754  1.00  0.00     0.165 C 
BRANCH  11  13
ATOM     13  S   UNL A   1      31.995  24.546  24.983  1.00  0.00     0.268 S 
ATOM     14  O   UNL A   1      33.212  24.196  25.686  1.00  0.00    -0.201 OA
ATOM     15  O   UNL A   1      30.768  23.797  25.129  1.00  0.00    -0.201 OA
BRANCH  13  16
ATOM     16  C   UNL A   1      32.428  24.243  23.326  1.00  0.00     0.128 A 
ATOM     17  C   UNL A   1      32.979  25.172  22.423  1.00  0.00     0.157 A 
ATOM     18  C   UNL A   1      32.481  23.038  22.633  1.00  0.00     0.053 A 
ATOM     19  N   UNL A   1      33.270  24.640  21.235  1.00  0.00    -0.183 NA
ATOM     20  N   UNL A   1      32.936  23.349  21.376  1.00  0.00    -0.281 N 
ATOM     21  C   UNL A   1      32.210  21.625  22.989  1.00  0.00     0.067 C 
ATOM     22  H   UNL A   1      33.010  22.690  20.649  1.00  0.00     0.190 HD
ENDBRANCH  13  16
ENDBRANCH  11  13
ENDBRANCH  10  11
ENDBRANCH   3   5
ENDBRANCH   2   3
ENDBRANCH   1   2
BRANCH   1  23
ATOM     23  C   UNL A   1      33.428  30.295  26.800  1.00  0.00     0.275 C 
BRANCH  23  24
ATOM     24  O   UNL A   1      34.540  30.173  27.678  1.00  0.00    -0.458 OA
BRANCH  24  25
ATOM     25  C   UNL A   1      35.236  31.286  28.005  1.00  0.00     0.338 C 
ATOM     26  O   UNL A   1      35.048  32.427  27.622  1.00  0.00    -0.246 OA
BRANCH  25  27
ATOM     27  C   UNL A   1      36.404  30.844  28.781  1.00  0.00     0.060 A 
ATOM     28  C   UNL A   1      37.477  31.725  28.931  1.00  0.00     0.016 A 
ATOM     29  C   UNL A   1      36.505  29.488  29.123  1.00  0.00     0.016 A 
ATOM     30  C   UNL A   1      38.718  31.188  29.200  1.00  0.00     0.010 A 
ATOM     31  C   UNL A   1      37.734  28.953  29.379  1.00  0.00     0.010 A 
ATOM     32  C   UNL A   1      38.831  29.798  29.309  1.00  0.00    -0.014 A 
BRANCH  32  33
ATOM     33  C   UNL A   1      40.137  29.191  29.353  1.00  0.00     0.031 A 
ATOM     34  C   UNL A   1      40.639  29.044  30.733  1.00  0.00     0.074 A 
ATOM     35  C   UNL A   1      40.701  28.688  28.237  1.00  0.00     0.049 A 
ATOM     36  N   UNL A   1      41.517  29.779  31.330  1.00  0.00    -0.248 NA
ATOM     37  C   UNL A   1      39.908  28.135  31.632  1.00  0.00     0.031 C 
ATOM     38  C   UNL A   1      40.078  28.487  26.921  1.00  0.00     0.029 A 
ATOM     39  N   UNL A   1      41.922  28.122  28.079  1.00  0.00    -0.354 N 
ATOM     40  C   UNL A   1      41.651  29.208  32.592  1.00  0.00     0.074 A 
ATOM     41  C   UNL A   1      40.462  28.431  32.808  1.00  0.00     0.031 C 
ATOM     42  C   UNL A   1      40.836  27.632  26.194  1.00  0.00     0.029 A 
ATOM     43  C   UNL A   1      42.055  27.351  26.930  1.00  0.00     0.049 A 
ATOM     44  H   UNL A   1      42.655  28.247  28.725  1.00  0.00     0.167 HD
ATOM     45  C   UNL A   1      42.875  29.122  33.182  1.00  0.00     0.034 A 
ATOM     46  C   UNL A   1      43.066  26.485  26.663  1.00  0.00     0.034 A 
ATOM     47  C   UNL A   1      43.820  29.991  32.522  1.00  0.00     0.049 A 
ATOM     48  C   UNL A   1      44.193  26.854  27.550  1.00  0.00     0.074 A 
ATOM     49  C   UNL A   1      43.930  31.347  32.297  1.00  0.00     0.029 A 
ATOM     50  N   UNL A   1      44.643  29.376  31.610  1.00  0.00    -0.354 N 
ATOM     51  N   UNL A   1      44.821  27.996  27.482  1.00  0.00    -0.248 NA
ATOM     52  C   UNL A   1      44.326  26.142  28.811  1.00  0.00     0.031 C 
ATOM     53  C   UNL A   1      44.502  31.462  30.994  1.00  0.00     0.029 A 
ATOM     54  C   UNL A   1      44.779  30.180  30.513  1.00  0.00     0.049 A 
ATOM     55  H   UNL A   1      45.068  28.496  31.729  1.00  0.00     0.167 HD
ATOM     56  C   UNL A   1      45.025  28.358  28.808  1.00  0.00     0.074 A 
ATOM     57  C   UNL A   1      44.817  27.126  29.569  1.00  0.00     0.031 C 
ATOM     58  C   UNL A   1      45.042  29.673  29.179  1.00  0.00     0.034 A 
BRANCH  45  59
ATOM     59  C   UNL A   1      43.352  27.943  34.013  1.00  0.00     0.023 A 
ATOM     60  C   UNL A   1      43.800  28.236  35.321  1.00  0.00     0.012 A 
ATOM     61  C   UNL A   1      43.658  26.655  33.513  1.00  0.00     0.148 A 
ATOM     62  C   UNL A   1      44.568  27.327  36.058  1.00  0.00     0.002 A 
ATOM     63  C   UNL A   1      44.359  25.727  34.276  1.00  0.00     0.091 A 
ATOM     64  F   UNL A   1      43.398  26.339  32.244  1.00  0.00    -0.205 F 
ATOM     65  C   UNL A   1      44.845  26.070  35.538  1.00  0.00     0.022 A 
BRANCH  63  66
ATOM     66  S   UNL A   1      44.718  24.076  33.660  1.00  0.00     0.127 S 
ATOM     67  O   UNL A   1      43.390  23.469  33.667  1.00  0.00    -0.237 OA
ATOM     68  O   UNL A   1      45.261  24.368  32.333  1.00  0.00    -0.237 OA
ATOM     69  O   UNL A   1      45.687  23.507  34.589  1.00  0.00    -0.744 OA
ENDBRANCH  63  66
ENDBRANCH  45  59
BRANCH  46  70
ATOM     70  C   UNL A   1      42.999  25.167  25.986  1.00  0.00     0.023 A 
ATOM     71  C   UNL A   1      43.988  24.794  25.054  1.00  0.00     0.012 A 
ATOM     72  C   UNL A   1      42.126  24.163  26.466  1.00  0.00     0.148 A 
ATOM     73  C   UNL A   1      44.113  23.465  24.625  1.00  0.00     0.002 A 
ATOM     74  C   UNL A   1      42.248  22.846  26.032  1.00  0.00     0.091 A 
ATOM     75  F   UNL A   1      41.237  24.487  27.413  1.00  0.00    -0.205 F 
ATOM     76  C   UNL A   1      43.249  22.491  25.119  1.00  0.00     0.022 A 
BRANCH  74  77
ATOM     77  S   UNL A   1      41.183  21.529  26.638  1.00  0.00     0.127 S 
ATOM     78  O   UNL A   1      41.357  21.649  28.086  1.00  0.00    -0.237 OA
ATOM     79  O   UNL A   1      39.873  21.944  26.142  1.00  0.00    -0.237 OA
ATOM     80  O   UNL A   1      41.709  20.295  26.069  1.00  0.00    -0.744 OA
ENDBRANCH  74  77
ENDBRANCH  46  70
BRANCH  58  81
ATOM     81  C   UNL A   1      45.150  30.709  28.086  1.00  0.00     0.023 A 
ATOM     82  C   UNL A   1      44.032  31.225  27.396  1.00  0.00     0.012 A 
ATOM     83  C   UNL A   1      46.410  31.287  27.864  1.00  0.00     0.148 A 
ATOM     84  C   UNL A   1      44.176  32.285  26.492  1.00  0.00     0.002 A 
ATOM     85  C   UNL A   1      46.542  32.367  27.002  1.00  0.00     0.091 A 
ATOM     86  F   UNL A   1      47.459  30.786  28.533  1.00  0.00    -0.205 F 
ATOM     87  C   UNL A   1      45.430  32.864  26.305  1.00  0.00     0.022 A 
BRANCH  85  88
ATOM     88  S   UNL A   1      48.104  33.227  26.815  1.00  0.00     0.127 S 
ATOM     89  O   UNL A   1      48.294  33.808  28.142  1.00  0.00    -0.237 OA
ATOM     90  O   UNL A   1      49.024  32.138  26.485  1.00  0.00    -0.237 OA
ATOM     91  O   UNL A   1      47.908  34.186  25.734  1.00  0.00    -0.744 OA
ENDBRANCH  85  88
ENDBRANCH  58  81
ENDBRANCH  32  33
ENDBRANCH  25  27
ENDBRANCH  24  25
ENDBRANCH  23  24
ENDBRANCH   1  23
TORSDOF 17
ENDMDL
MODEL 2
REMARK VINA RESULT:     -11.2      1.464      1.753
REMARK SMILES Cc1nsc(N(C)S(=O)(=O)c2cn[nH]c2C)c1C(=O)OCCOC(=O)c1ccc(-c2c3nc(c(-c4cccc(S(=O)(=O)[O-])c4F)c4ccc([nH]4)c(-c4cccc(S(=O)(=O)[O-])c4F)c4nc(c(-c5cccc(S(=O)(=O)[O-])c5F)c5ccc2[nH]5)C=C4)C=C3)cc1
REMARK SMILES IDX 21 1 20 2 18 3 19 4 17 5 1 6 2 7 3 8 4 9 5 10 6 11 7 12 8 13
REMARK SMILES IDX 9 14 10 15 11 16 12 17 15 18 13 19 14 20 16 21 22 23 23 24
REMARK SMILES IDX 24 25 25 26 26 27 27 28 88 29 28 30 87 31 29 32 30 33 31 34
REMARK SMILES IDX 81 35 32 36 86 37 80 38 82 39 33 40 85 41 79 42 78 43 34 45
REMARK SMILES IDX 66 46 46 47 65 48 47 49 50 50 64 51 83 52 48 53 49 54 63 56
REMARK SMILES IDX 84 57 51 58 35 59 36 60 44 61 37 62 39 63 45 64 38 65 40 66
REMARK SMILES IDX 41 67 42 68 43 69 67 70 68 71 76 72 69 73 71 74 77 75 70 76
REMARK SMILES IDX 72 77 73 78 74 79 75 80 52 81 53 82 61 83 54 84 56 85 62 86
REMARK SMILES IDX 55 87 57 88 58 89 59 90 60 91
REMARK H PARENT 14 22 82 44 50 55
REMARK Flexibility Score: inf
ROOT
ATOM      1  C   UNL A   1      32.765  29.180  27.144  1.00  0.00     0.275 C 
ENDROOT
BRANCH   1   2
ATOM      2  O   UNL A   1      32.659  28.524  25.875  1.00  0.00    -0.458 OA
BRANCH   2   3
ATOM      3  C   UNL A   1      31.644  27.643  25.677  1.00  0.00     0.343 C 
ATOM      4  O   UNL A   1      30.922  27.208  26.568  1.00  0.00    -0.246 OA
BRANCH   3   5
ATOM      5  C   UNL A   1      31.603  27.187  24.298  1.00  0.00     0.118 A 
ATOM      6  C   UNL A   1      29.763  28.959  23.551  1.00  0.00     0.069 C 
ATOM      7  C   UNL A   1      30.734  27.845  23.321  1.00  0.00     0.068 A 
ATOM      8  N   UNL A   1      30.828  27.423  22.066  1.00  0.00    -0.195 NA
ATOM      9  S   UNL A   1      31.816  26.131  22.020  1.00  0.00    -0.017 S 
ATOM     10  C   UNL A   1      32.277  26.110  23.699  1.00  0.00     0.140 A 
BRANCH  10  11
ATOM     11  N   UNL A   1      33.147  25.022  24.193  1.00  0.00    -0.258 N 
ATOM     12  C   UNL A   1      34.435  25.370  24.841  1.00  0.00     0.165 C 
BRANCH  11  13
ATOM     13  S   UNL A   1      32.487  23.519  24.657  1.00  0.00     0.268 S 
ATOM     14  O   UNL A   1      31.305  23.786  25.451  1.00  0.00    -0.201 OA
ATOM     15  O   UNL A   1      32.468  22.657  23.497  1.00  0.00    -0.201 OA
BRANCH  13  16
ATOM     16  C   UNL A   1      33.485  22.632  25.771  1.00  0.00     0.128 A 
ATOM     17  C   UNL A   1      33.132  22.230  27.073  1.00  0.00     0.157 A 
ATOM     18  C   UNL A   1      34.712  22.012  25.556  1.00  0.00     0.053 A 
ATOM     19  N   UNL A   1      34.076  21.505  27.673  1.00  0.00    -0.183 NA
ATOM     20  N   UNL A   1      35.038  21.406  26.744  1.00  0.00    -0.281 N 
ATOM     21  C   UNL A   1      35.609  21.866  24.385  1.00  0.00     0.067 C 
ATOM     22  H   UNL A   1      35.893  20.944  26.899  1.00  0.00     0.190 HD
ENDBRANCH  13  16
ENDBRANCH  11  13
ENDBRANCH  10  11
ENDBRANCH   3   5
ENDBRANCH   2   3
ENDBRANCH   1   2
BRANCH   1  23
ATOM     23  C   UNL A   1      33.402  30.539  26.892  1.00  0.00     0.275 C 
BRANCH  23  24
ATOM     24  O   UNL A   1      34.795  30.461  27.167  1.00  0.00    -0.458 OA
BRANCH  24  25
ATOM     25  C   UNL A   1      35.390  31.496  27.805  1.00  0.00     0.338 C 
ATOM     26  O   UNL A   1      35.180  32.686  27.661  1.00  0.00    -0.246 OA
BRANCH  25  27
ATOM     27  C   UNL A   1      36.492  30.928  28.596  1.00  0.00     0.060 A 
ATOM     28  C   UNL A   1      37.511  31.781  29.028  1.00  0.00     0.016 A 
ATOM     29  C   UNL A   1      36.613  29.533  28.671  1.00  0.00     0.016 A 
ATOM     30  C   UNL A   1      38.740  31.224  29.312  1.00  0.00     0.010 A 
ATOM     31  C   UNL A   1      37.831  28.981  28.941  1.00  0.00     0.010 A 
ATOM     32  C   UNL A   1      38.895  29.843  29.155  1.00  0.00    -0.014 A 
BRANCH  32  33
ATOM     33  C   UNL A   1      40.213  29.263  29.213  1.00  0.00     0.031 A 
ATOM     34  C   UNL A   1      40.706  29.133  30.598  1.00  0.00     0.074 A 
ATOM     35  C   UNL A   1      40.798  28.769  28.104  1.00  0.00     0.049 A 
ATOM     36  N   UNL A   1      41.563  29.888  31.200  1.00  0.00    -0.248 NA
ATOM     37  C   UNL A   1      39.986  28.212  31.494  1.00  0.00     0.031 C 
ATOM     38  C   UNL A   1      40.191  28.550  26.783  1.00  0.00     0.029 A 
ATOM     39  N   UNL A   1      42.032  28.228  27.960  1.00  0.00    -0.354 N 
ATOM     40  C   UNL A   1      41.697  29.325  32.466  1.00  0.00     0.074 A 
ATOM     41  C   UNL A   1      40.523  28.524  32.674  1.00  0.00     0.031 C 
ATOM     42  C   UNL A   1      40.974  27.708  26.067  1.00  0.00     0.029 A 
ATOM     43  C   UNL A   1      42.192  27.456  26.814  1.00  0.00     0.049 A 
ATOM     44  H   UNL A   1      42.757  28.371  28.612  1.00  0.00     0.167 HD
ATOM     45  C   UNL A   1      42.917  29.267  33.066  1.00  0.00     0.034 A 
ATOM     46  C   UNL A   1      43.223  26.610  26.560  1.00  0.00     0.034 A 
ATOM     47  C   UNL A   1      43.850  30.154  32.412  1.00  0.00     0.049 A 
ATOM     48  C   UNL A   1      44.334  27.006  27.456  1.00  0.00     0.074 A 
ATOM     49  C   UNL A   1      43.933  31.511  32.182  1.00  0.00     0.029 A 
ATOM     50  N   UNL A   1      44.694  29.553  31.510  1.00  0.00    -0.354 N 
ATOM     51  N   UNL A   1      44.938  28.161  27.389  1.00  0.00    -0.248 NA
ATOM     52  C   UNL A   1      44.470  26.302  28.720  1.00  0.00     0.031 C 
ATOM     53  C   UNL A   1      44.514  31.633  30.884  1.00  0.00     0.029 A 
ATOM     54  C   UNL A   1      44.823  30.355  30.411  1.00  0.00     0.049 A 
ATOM     55  H   UNL A   1      45.136  28.682  31.635  1.00  0.00     0.167 HD
ATOM     56  C   UNL A   1      45.123  28.533  28.715  1.00  0.00     0.074 A 
ATOM     57  C   UNL A   1      44.934  27.299  29.479  1.00  0.00     0.031 C 
ATOM     58  C   UNL A   1      45.108  29.849  29.081  1.00  0.00     0.034 A 
BRANCH  45  59
ATOM     59  C   UNL A   1      43.412  28.102  33.907  1.00  0.00     0.023 A 
ATOM     60  C   UNL A   1      43.868  28.413  35.208  1.00  0.00     0.012 A 
ATOM     61  C   UNL A   1      43.726  26.811  33.418  1.00  0.00     0.148 A 
ATOM     62  C   UNL A   1      44.650  27.519  35.948  1.00  0.00     0.002 A 
ATOM     63  C   UNL A   1      44.441  25.898  34.186  1.00  0.00     0.091 A 
ATOM     64  F   UNL A   1      43.460  26.480  32.155  1.00  0.00    -0.205 F 
ATOM     65  C   UNL A   1      44.934  26.260  35.439  1.00  0.00     0.022 A 
BRANCH  63  66
ATOM     66  S   UNL A   1      44.811  24.244  33.584  1.00  0.00     0.127 S 
ATOM     67  O   UNL A   1      43.488  23.626  33.606  1.00  0.00    -0.237 OA
ATOM     68  O   UNL A   1      45.344  24.527  32.252  1.00  0.00    -0.237 OA
ATOM     69  O   UNL A   1      45.790  23.693  34.513  1.00  0.00    -0.744 OA
ENDBRANCH  63  66
ENDBRANCH  45  59
BRANCH  46  70
ATOM     70  C   UNL A   1      43.190  25.288  25.888  1.00  0.00     0.023 A 
ATOM     71  C   UNL A   1      44.199  24.930  24.972  1.00  0.00     0.012 A 
ATOM     72  C   UNL A   1      42.329  24.270  26.359  1.00  0.00     0.148 A 
ATOM     73  C   UNL A   1      44.354  23.602  24.551  1.00  0.00     0.002 A 
ATOM     74  C   UNL A   1      42.480  22.954  25.932  1.00  0.00     0.091 A 
ATOM     75  F   UNL A   1      41.420  24.582  27.291  1.00  0.00    -0.205 F 
ATOM     76  C   UNL A   1      43.501  22.614  25.036  1.00  0.00     0.022 A 
BRANCH  74  77
ATOM     77  S   UNL A   1      41.431  21.620  26.529  1.00  0.00     0.127 S 
ATOM     78  O   UNL A   1      41.686  21.663  27.968  1.00  0.00    -0.237 OA
ATOM     79  O   UNL A   1      40.102  22.076  26.128  1.00  0.00    -0.237 OA
ATOM     80  O   UNL A   1      41.907  20.411  25.869  1.00  0.00    -0.744 OA
ENDBRANCH  74  77
ENDBRANCH  46  70
BRANCH  58  81
ATOM     81  C   UNL A   1      45.204  30.882  27.985  1.00  0.00     0.023 A 
ATOM     82  C   UNL A   1      44.080  31.392  27.301  1.00  0.00     0.012 A 
ATOM     83  C   UNL A   1      46.460  31.467  27.754  1.00  0.00     0.148 A 
ATOM     84  C   UNL A   1      44.213  32.449  26.394  1.00  0.00     0.002 A 
ATOM     85  C   UNL A   1      46.581  32.545  26.888  1.00  0.00     0.091 A 
ATOM     86  F   UNL A   1      47.516  30.973  28.417  1.00  0.00    -0.205 F 
ATOM     87  C   UNL A   1      45.463  33.035  26.197  1.00  0.00     0.022 A 
BRANCH  85  88
ATOM     88  S   UNL A   1      48.138  33.413  26.689  1.00  0.00     0.127 S 
ATOM     89  O   UNL A   1      49.052  32.325  26.347  1.00  0.00    -0.237 OA
ATOM     90  O   UNL A   1      47.844  34.336  25.592  1.00  0.00    -0.237 OA
ATOM     91  O   UNL A   1      48.397  34.070  27.965  1.00  0.00    -0.744 OA
ENDBRANCH  85  88
ENDBRANCH  58  81
ENDBRANCH  32  33
ENDBRANCH  25  27
ENDBRANCH  24  25
ENDBRANCH  23  24
ENDBRANCH   1  23
TORSDOF 17
ENDMDL
MODEL 3
REMARK VINA RESULT:     -11.0      2.064      2.735
REMARK SMILES Cc1nsc(N(C)S(=O)(=O)c2cn[nH]c2C)c1C(=O)OCCOC(=O)c1ccc(-c2c3nc(c(-c4cccc(S(=O)(=O)[O-])c4F)c4ccc([nH]4)c(-c4cccc(S(=O)(=O)[O-])c4F)c4nc(c(-c5cccc(S(=O)(=O)[O-])c5F)c5ccc2[nH]5)C=C4)C=C3)cc1
REMARK SMILES IDX 21 1 20 2 18 3 19 4 17 5 1 6 2 7 3 8 4 9 5 10 6 11 7 12 8 13
REMARK SMILES IDX 9 14 10 15 11 16 12 17 15 18 13 19 14 20 16 21 22 23 23 24
REMARK SMILES IDX 24 25 25 26 26 27 27 28 88 29 28 30 87 31 29 32 30 33 31 34
REMARK SMILES IDX 81 35 32 36 86 37 80 38 82 39 33 40 85 41 79 42 78 43 34 45
REMARK SMILES IDX 66 46 46 47 65 48 47 49 50 50 64 51 83 52 48 53 49 54 63 56
REMARK SMILES IDX 84 57 51 58 35 59 36 60 44 61 37 62 39 63 45 64 38 65 40 66
REMARK SMILES IDX 41 67 42 68 43 69 67 70 68 71 76 72 69 73 71 74 77 75 70 76
REMARK SMILES IDX 72 77 73 78 74 79 75 80 52 81 53 82 61 83 54 84 56 85 62 86
REMARK SMILES IDX 55 87 57 88 58 89 59 90 60 91
REMARK H PARENT 14 22 82 44 50 55
REMARK Flexibility Score: inf
ROOT
ATOM      1  C   UNL A   1      34.074  28.739  25.666  1.00  0.00     0.275 C 
ENDROOT
BRANCH   1   2
ATOM      2  O   UNL A   1      34.046  27.307  25.698  1.00  0.00    -0.458 OA
BRANCH   2   3
ATOM      3  C   UNL A   1      33.376  26.643  24.720  1.00  0.00     0.343 C 
ATOM      4  O   UNL A   1      33.324  27.005  23.549  1.00  0.00    -0.246 OA
BRANCH   3   5
ATOM      5  C   UNL A   1      32.628  25.521  25.262  1.00  0.00     0.118 A 
ATOM      6  C   UNL A   1      31.035  27.040  26.760  1.00  0.00     0.069 C 
ATOM      7  C   UNL A   1      31.519  25.745  26.191  1.00  0.00     0.068 A 
ATOM      8  N   UNL A   1      30.834  24.669  26.564  1.00  0.00    -0.195 NA
ATOM      9  S   UNL A   1      31.571  23.346  25.969  1.00  0.00    -0.017 S 
ATOM     10  C   UNL A   1      32.827  24.145  25.066  1.00  0.00     0.140 A 
BRANCH  10  11
ATOM     11  N   UNL A   1      33.849  23.328  24.378  1.00  0.00    -0.258 N 
ATOM     12  C   UNL A   1      33.859  23.289  22.896  1.00  0.00     0.165 C 
BRANCH  11  13
ATOM     13  S   UNL A   1      35.350  23.002  25.120  1.00  0.00     0.268 S 
ATOM     14  O   UNL A   1      36.372  23.699  24.367  1.00  0.00    -0.201 OA
ATOM     15  O   UNL A   1      35.192  23.160  26.548  1.00  0.00    -0.201 OA
BRANCH  13  16
ATOM     16  C   UNL A   1      35.855  21.344  24.978  1.00  0.00     0.128 A 
ATOM     17  C   UNL A   1      37.178  20.866  25.020  1.00  0.00     0.157 A 
ATOM     18  C   UNL A   1      35.086  20.184  24.969  1.00  0.00     0.053 A 
ATOM     19  N   UNL A   1      37.259  19.537  24.949  1.00  0.00    -0.183 NA
ATOM     20  N   UNL A   1      35.979  19.145  24.893  1.00  0.00    -0.281 N 
ATOM     21  C   UNL A   1      33.634  19.903  25.066  1.00  0.00     0.067 C 
ATOM     22  H   UNL A   1      35.705  18.203  24.806  1.00  0.00     0.190 HD
ENDBRANCH  13  16
ENDBRANCH  11  13
ENDBRANCH  10  11
ENDBRANCH   3   5
ENDBRANCH   2   3
ENDBRANCH   1   2
BRANCH   1  23
ATOM     23  C   UNL A   1      34.135  29.216  27.109  1.00  0.00     0.275 C 
BRANCH  23  24
ATOM     24  O   UNL A   1      35.225  30.118  27.258  1.00  0.00    -0.458 OA
BRANCH  24  25
ATOM     25  C   UNL A   1      35.213  30.987  28.295  1.00  0.00     0.338 C 
ATOM     26  O   UNL A   1      34.472  31.938  28.467  1.00  0.00    -0.246 OA
BRANCH  25  27
ATOM     27  C   UNL A   1      36.397  30.688  29.113  1.00  0.00     0.060 A 
ATOM     28  C   UNL A   1      37.492  31.551  29.042  1.00  0.00     0.016 A 
ATOM     29  C   UNL A   1      36.483  29.431  29.731  1.00  0.00     0.016 A 
ATOM     30  C   UNL A   1      38.731  31.050  29.382  1.00  0.00     0.010 A 
ATOM     31  C   UNL A   1      37.709  28.930  30.058  1.00  0.00     0.010 A 
ATOM     32  C   UNL A   1      38.820  29.711  29.779  1.00  0.00    -0.014 A 
BRANCH  32  33
ATOM     33  C   UNL A   1      40.113  29.093  29.914  1.00  0.00     0.031 A 
ATOM     34  C   UNL A   1      40.608  29.125  31.304  1.00  0.00     0.074 A 
ATOM     35  C   UNL A   1      40.672  28.433  28.879  1.00  0.00     0.049 A 
ATOM     36  N   UNL A   1      41.498  29.918  31.801  1.00  0.00    -0.248 NA
ATOM     37  C   UNL A   1      39.858  28.360  32.313  1.00  0.00     0.031 C 
ATOM     38  C   UNL A   1      40.051  28.067  27.598  1.00  0.00     0.029 A 
ATOM     39  N   UNL A   1      41.884  27.830  28.807  1.00  0.00    -0.354 N 
ATOM     40  C   UNL A   1      41.617  29.521  33.129  1.00  0.00     0.074 A 
ATOM     41  C   UNL A   1      40.413  28.802  33.441  1.00  0.00     0.031 C 
ATOM     42  C   UNL A   1      40.795  27.108  26.999  1.00  0.00     0.029 A 
ATOM     43  C   UNL A   1      42.006  26.908  27.773  1.00  0.00     0.049 A 
ATOM     44  H   UNL A   1      42.617  28.028  29.434  1.00  0.00     0.167 HD
ATOM     45  C   UNL A   1      42.837  29.494  33.732  1.00  0.00     0.034 A 
ATOM     46  C   UNL A   1      43.001  25.996  27.632  1.00  0.00     0.034 A 
ATOM     47  C   UNL A   1      43.801  30.249  32.967  1.00  0.00     0.049 A 
ATOM     48  C   UNL A   1      44.132  26.461  28.468  1.00  0.00     0.074 A 
ATOM     49  C   UNL A   1      43.936  31.560  32.561  1.00  0.00     0.029 A 
ATOM     50  N   UNL A   1      44.615  29.502  32.151  1.00  0.00    -0.354 N 
ATOM     51  N   UNL A   1      44.781  27.573  28.249  1.00  0.00    -0.248 NA
ATOM     52  C   UNL A   1      44.247  25.924  29.814  1.00  0.00     0.031 C 
ATOM     53  C   UNL A   1      44.514  31.487  31.258  1.00  0.00     0.029 A 
ATOM     54  C   UNL A   1      44.770  30.147  30.956  1.00  0.00     0.049 A 
ATOM     55  H   UNL A   1      45.023  28.638  32.390  1.00  0.00     0.167 HD
ATOM     56  C   UNL A   1      44.988  28.107  29.515  1.00  0.00     0.074 A 
ATOM     57  C   UNL A   1      44.755  26.993  30.434  1.00  0.00     0.031 C 
ATOM     58  C   UNL A   1      45.027  29.460  29.705  1.00  0.00     0.034 A 
BRANCH  45  59
ATOM     59  C   UNL A   1      43.289  28.431  34.719  1.00  0.00     0.023 A 
ATOM     60  C   UNL A   1      43.884  28.894  35.914  1.00  0.00     0.012 A 
ATOM     61  C   UNL A   1      43.435  27.052  34.432  1.00  0.00     0.148 A 
ATOM     62  C   UNL A   1      44.639  28.049  36.736  1.00  0.00     0.002 A 
ATOM     63  C   UNL A   1      44.123  26.201  35.289  1.00  0.00     0.091 A 
ATOM     64  F   UNL A   1      43.028  26.555  33.263  1.00  0.00    -0.205 F 
ATOM     65  C   UNL A   1      44.757  26.701  36.426  1.00  0.00     0.022 A 
BRANCH  63  66
ATOM     66  S   UNL A   1      44.279  24.442  34.947  1.00  0.00     0.127 S 
ATOM     67  O   UNL A   1      45.115  24.452  33.749  1.00  0.00    -0.237 OA
ATOM     68  O   UNL A   1      44.939  23.963  36.161  1.00  0.00    -0.237 OA
ATOM     69  O   UNL A   1      42.918  23.949  34.773  1.00  0.00    -0.744 OA
ENDBRANCH  63  66
ENDBRANCH  45  59
BRANCH  46  70
ATOM     70  C   UNL A   1      42.912  24.599  27.139  1.00  0.00     0.023 A 
ATOM     71  C   UNL A   1      41.691  23.898  27.202  1.00  0.00     0.012 A 
ATOM     72  C   UNL A   1      43.951  24.054  26.349  1.00  0.00     0.148 A 
ATOM     73  C   UNL A   1      41.506  22.705  26.490  1.00  0.00     0.002 A 
ATOM     74  C   UNL A   1      43.766  22.865  25.651  1.00  0.00     0.091 A 
ATOM     75  F   UNL A   1      45.086  24.752  26.215  1.00  0.00    -0.205 F 
ATOM     76  C   UNL A   1      42.539  22.192  25.710  1.00  0.00     0.022 A 
BRANCH  74  77
ATOM     77  S   UNL A   1      45.045  22.151  24.607  1.00  0.00     0.127 S 
ATOM     78  O   UNL A   1      45.361  23.268  23.717  1.00  0.00    -0.237 OA
ATOM     79  O   UNL A   1      46.087  21.830  25.579  1.00  0.00    -0.237 OA
ATOM     80  O   UNL A   1      44.430  21.008  23.944  1.00  0.00    -0.744 OA
ENDBRANCH  74  77
ENDBRANCH  46  70
BRANCH  58  81
ATOM     81  C   UNL A   1      45.159  30.335  28.482  1.00  0.00     0.023 A 
ATOM     82  C   UNL A   1      44.056  30.747  27.704  1.00  0.00     0.012 A 
ATOM     83  C   UNL A   1      46.422  30.883  28.210  1.00  0.00     0.148 A 
ATOM     84  C   UNL A   1      44.219  31.673  26.666  1.00  0.00     0.002 A 
ATOM     85  C   UNL A   1      46.572  31.835  27.211  1.00  0.00     0.091 A 
ATOM     86  F   UNL A   1      47.457  30.484  28.965  1.00  0.00    -0.205 F 
ATOM     87  C   UNL A   1      45.475  32.226  26.428  1.00  0.00     0.022 A 
BRANCH  85  88
ATOM     88  S   UNL A   1      48.137  32.668  26.941  1.00  0.00     0.127 S 
ATOM     89  O   UNL A   1      47.800  33.615  25.881  1.00  0.00    -0.237 OA
ATOM     90  O   UNL A   1      48.397  33.277  28.247  1.00  0.00    -0.237 OA
ATOM     91  O   UNL A   1      49.088  31.627  26.572  1.00  0.00    -0.744 OA
ENDBRANCH  85  88
ENDBRANCH  58  81
ENDBRANCH  32  33
ENDBRANCH  25  27
ENDBRANCH  24  25
ENDBRANCH  23  24
ENDBRANCH   1  23
TORSDOF 17
ENDMDL
