MODEL 1
REMARK VINA RESULT:     -12.6      0.000      0.000
REMARK SMILES O=C(OCCOC(=O)[C@H]1C=C[C@H](NC(=O)[C@]23C[C@H]4C[C@H](C[C@H](C4)C2)C3)C1)c1ccc(-c2c3nc(c(-c4cccc(S(=O)(=O)[O-])c4F)c4ccc([nH]4)c(-c4cccc(S(=O)(=O)[O-])c4F)c4nc(c(-c5cccc(S(=O)(=O)[O-])c5F)c5ccc2[nH]5)C=C4)C=C3)cc1
REMARK SMILES IDX 4 1 3 2 2 3 1 4 27 5 28 6 89 7 29 8 88 9 30 10 31 11 32 12
REMARK SMILES IDX 82 13 33 14 87 15 81 16 83 17 34 18 86 19 80 20 79 21 35 23
REMARK SMILES IDX 67 24 47 25 66 26 48 27 51 28 65 29 84 30 49 31 50 32 64 34
REMARK SMILES IDX 85 35 52 36 36 37 37 38 45 39 38 40 40 41 46 42 39 43 41 44
REMARK SMILES IDX 42 45 43 46 44 47 68 48 69 49 77 50 70 51 72 52 78 53 71 54
REMARK SMILES IDX 73 55 74 56 75 57 76 58 53 59 54 60 62 61 55 62 57 63 63 64
REMARK SMILES IDX 56 65 58 66 59 67 60 68 61 69 5 70 6 71 7 72 8 73 9 74 10 75
REMARK SMILES IDX 26 76 11 77 12 78 13 79 14 80 15 82 16 83 17 84 24 85 25 86
REMARK SMILES IDX 18 87 22 88 20 89 19 90 23 91 21 92
REMARK H PARENT 83 22 51 33 13 81
REMARK Flexibility Score: inf
ROOT
ATOM      1  C   UNL A   1      31.398  30.325  25.653  1.00  0.00     0.275 C 
ENDROOT
BRANCH   1   2
ATOM      2  O   UNL A   1      32.379  30.310  26.692  1.00  0.00    -0.458 OA
BRANCH   2   3
ATOM      3  C   UNL A   1      33.056  31.356  27.219  1.00  0.00     0.338 C 
ATOM      4  O   UNL A   1      32.476  32.441  27.257  1.00  0.00    -0.246 OA
BRANCH   3   5
ATOM      5  C   UNL A   1      34.499  31.312  27.653  1.00  0.00     0.060 A 
ATOM      6  C   UNL A   1      35.397  32.381  27.778  1.00  0.00     0.016 A 
ATOM      7  C   UNL A   1      34.961  30.054  28.057  1.00  0.00     0.016 A 
ATOM      8  C   UNL A   1      36.665  32.229  28.359  1.00  0.00     0.010 A 
ATOM      9  C   UNL A   1      36.206  29.912  28.678  1.00  0.00     0.010 A 
ATOM     10  C   UNL A   1      37.067  31.006  28.876  1.00  0.00    -0.014 A 
BRANCH  10  11
ATOM     11  C   UNL A   1      38.362  30.851  29.616  1.00  0.00     0.031 A 
ATOM     12  C   UNL A   1      39.365  29.859  29.069  1.00  0.00     0.074 A 
ATOM     13  C   UNL A   1      38.531  31.417  30.837  1.00  0.00     0.049 A 
ATOM     14  N   UNL A   1      40.401  29.316  29.648  1.00  0.00    -0.248 NA
ATOM     15  C   UNL A   1      39.094  29.329  27.720  1.00  0.00     0.031 C 
ATOM     16  C   UNL A   1      37.573  32.302  31.514  1.00  0.00     0.029 A 
ATOM     17  N   UNL A   1      39.514  31.245  31.792  1.00  0.00    -0.354 N 
ATOM     18  C   UNL A   1      40.813  28.288  28.803  1.00  0.00     0.074 A 
ATOM     19  C   UNL A   1      39.913  28.289  27.673  1.00  0.00     0.031 C 
ATOM     20  C   UNL A   1      37.953  32.493  32.793  1.00  0.00     0.029 A 
ATOM     21  C   UNL A   1      39.166  31.730  33.041  1.00  0.00     0.049 A 
ATOM     22  H   UNL A   1      40.381  30.818  31.602  1.00  0.00     0.167 HD
ATOM     23  C   UNL A   1      41.835  27.411  28.960  1.00  0.00     0.034 A 
ATOM     24  C   UNL A   1      39.719  31.529  34.258  1.00  0.00     0.034 A 
ATOM     25  C   UNL A   1      42.716  27.435  30.096  1.00  0.00     0.049 A 
ATOM     26  C   UNL A   1      40.948  30.656  34.350  1.00  0.00     0.074 A 
ATOM     27  C   UNL A   1      43.886  26.728  30.302  1.00  0.00     0.029 A 
ATOM     28  N   UNL A   1      42.503  28.199  31.233  1.00  0.00    -0.354 N 
ATOM     29  N   UNL A   1      41.506  29.914  33.424  1.00  0.00    -0.248 NA
ATOM     30  C   UNL A   1      41.660  30.639  35.638  1.00  0.00     0.031 C 
ATOM     31  C   UNL A   1      44.360  27.038  31.581  1.00  0.00     0.029 A 
ATOM     32  C   UNL A   1      43.509  27.971  32.152  1.00  0.00     0.049 A 
ATOM     33  H   UNL A   1      41.746  28.814  31.367  1.00  0.00     0.167 HD
ATOM     34  C   UNL A   1      42.673  29.412  33.990  1.00  0.00     0.074 A 
ATOM     35  C   UNL A   1      42.737  29.926  35.341  1.00  0.00     0.031 C 
ATOM     36  C   UNL A   1      43.611  28.602  33.442  1.00  0.00     0.034 A 
BRANCH  23  37
ATOM     37  C   UNL A   1      42.072  26.396  27.862  1.00  0.00     0.023 A 
ATOM     38  C   UNL A   1      43.012  26.678  26.847  1.00  0.00     0.012 A 
ATOM     39  C   UNL A   1      41.395  25.158  27.836  1.00  0.00     0.148 A 
ATOM     40  C   UNL A   1      43.211  25.799  25.784  1.00  0.00     0.002 A 
ATOM     41  C   UNL A   1      41.656  24.251  26.813  1.00  0.00     0.091 A 
ATOM     42  F   UNL A   1      40.497  24.896  28.796  1.00  0.00    -0.205 F 
ATOM     43  C   UNL A   1      42.539  24.582  25.772  1.00  0.00     0.022 A 
BRANCH  41  44
ATOM     44  S   UNL A   1      40.949  22.600  26.760  1.00  0.00     0.127 S 
ATOM     45  O   UNL A   1      39.536  22.889  26.517  1.00  0.00    -0.237 OA
ATOM     46  O   UNL A   1      41.653  22.009  25.620  1.00  0.00    -0.237 OA
ATOM     47  O   UNL A   1      41.249  21.989  28.046  1.00  0.00    -0.744 OA
ENDBRANCH  41  44
ENDBRANCH  23  37
BRANCH  24  48
ATOM     48  C   UNL A   1      39.199  32.194  35.497  1.00  0.00     0.023 A 
ATOM     49  C   UNL A   1      39.611  33.515  35.765  1.00  0.00     0.012 A 
ATOM     50  C   UNL A   1      38.399  31.530  36.450  1.00  0.00     0.148 A 
ATOM     51  C   UNL A   1      39.303  34.136  36.977  1.00  0.00     0.002 A 
ATOM     52  C   UNL A   1      38.068  32.166  37.647  1.00  0.00     0.091 A 
ATOM     53  F   UNL A   1      37.979  30.288  36.177  1.00  0.00    -0.205 F 
ATOM     54  C   UNL A   1      38.537  33.459  37.921  1.00  0.00     0.022 A 
BRANCH  52  55
ATOM     55  S   UNL A   1      37.023  31.420  38.907  1.00  0.00     0.127 S 
ATOM     56  O   UNL A   1      37.833  31.599  40.113  1.00  0.00    -0.237 OA
ATOM     57  O   UNL A   1      35.832  32.270  38.839  1.00  0.00    -0.237 OA
ATOM     58  O   UNL A   1      36.814  30.047  38.484  1.00  0.00    -0.744 OA
ENDBRANCH  52  55
ENDBRANCH  24  48
BRANCH  36  59
ATOM     59  C   UNL A   1      44.877  28.361  34.218  1.00  0.00     0.023 A 
ATOM     60  C   UNL A   1      45.965  29.249  34.137  1.00  0.00     0.012 A 
ATOM     61  C   UNL A   1      44.934  27.273  35.113  1.00  0.00     0.148 A 
ATOM     62  C   UNL A   1      47.104  29.040  34.916  1.00  0.00     0.002 A 
ATOM     63  C   UNL A   1      46.045  27.103  35.925  1.00  0.00     0.091 A 
ATOM     64  F   UNL A   1      43.893  26.427  35.155  1.00  0.00    -0.205 F 
ATOM     65  C   UNL A   1      47.138  27.977  35.819  1.00  0.00     0.022 A 
BRANCH  63  66
ATOM     66  S   UNL A   1      46.122  25.827  37.187  1.00  0.00     0.127 S 
ATOM     67  O   UNL A   1      44.968  26.161  38.019  1.00  0.00    -0.237 OA
ATOM     68  O   UNL A   1      45.972  24.603  36.399  1.00  0.00    -0.237 OA
ATOM     69  O   UNL A   1      47.420  25.975  37.832  1.00  0.00    -0.744 OA
ENDBRANCH  63  66
ENDBRANCH  36  59
ENDBRANCH  10  11
ENDBRANCH   3   5
ENDBRANCH   2   3
ENDBRANCH   1   2
BRANCH   1  70
ATOM     70  C   UNL A   1      31.431  29.077  24.754  1.00  0.00     0.274 C 
BRANCH  70  71
ATOM     71  O   UNL A   1      32.036  29.305  23.461  1.00  0.00    -0.462 OA
BRANCH  71  72
ATOM     72  C   UNL A   1      32.988  28.408  23.042  1.00  0.00     0.312 C 
ATOM     73  O   UNL A   1      34.136  28.727  22.750  1.00  0.00    -0.252 OA
BRANCH  72  74
ATOM     74  C   UNL A   1      32.505  26.940  23.021  1.00  0.00     0.124 C 
ATOM     75  C   UNL A   1      31.573  26.748  21.887  1.00  0.00    -0.014 C 
ATOM     76  C   UNL A   1      33.577  25.849  22.765  1.00  0.00     0.048 C 
ATOM     77  C   UNL A   1      31.959  25.750  21.100  1.00  0.00    -0.006 C 
ATOM     78  C   UNL A   1      33.070  24.914  21.609  1.00  0.00     0.106 C 
BRANCH  78  79
ATOM     79  N   UNL A   1      32.542  23.618  22.050  1.00  0.00    -0.349 N 
ATOM     80  C   UNL A   1      32.845  22.631  22.944  1.00  0.00     0.226 C 
ATOM     81  H   UNL A   1      31.724  23.393  21.552  1.00  0.00     0.164 HD
ATOM     82  O   UNL A   1      31.996  21.722  22.965  1.00  0.00    -0.274 OA
BRANCH  80  83
ATOM     83  C   UNL A   1      34.096  22.480  23.880  1.00  0.00     0.050 C 
ATOM     84  C   UNL A   1      35.409  22.946  23.203  1.00  0.00     0.020 C 
ATOM     85  C   UNL A   1      34.335  21.084  24.442  1.00  0.00     0.020 C 
ATOM     86  C   UNL A   1      33.887  23.435  25.107  1.00  0.00     0.020 C 
ATOM     87  C   UNL A   1      36.603  22.906  24.191  1.00  0.00    -0.010 C 
ATOM     88  C   UNL A   1      35.510  21.019  25.421  1.00  0.00    -0.010 C 
ATOM     89  C   UNL A   1      35.052  23.360  26.115  1.00  0.00    -0.010 C 
ATOM     90  C   UNL A   1      36.350  23.795  25.415  1.00  0.00     0.007 C 
ATOM     91  C   UNL A   1      36.780  21.485  24.716  1.00  0.00     0.007 C 
ATOM     92  C   UNL A   1      35.204  21.919  26.614  1.00  0.00     0.007 C 
ENDBRANCH  80  83
ENDBRANCH  78  79
ENDBRANCH  72  74
ENDBRANCH  71  72
ENDBRANCH  70  71
ENDBRANCH   1  70
TORSDOF 16
ENDMDL
MODEL 2
REMARK VINA RESULT:     -12.5      5.426     10.219
REMARK SMILES O=C(OCCOC(=O)[C@H]1C=C[C@H](NC(=O)[C@]23C[C@H]4C[C@H](C[C@H](C4)C2)C3)C1)c1ccc(-c2c3nc(c(-c4cccc(S(=O)(=O)[O-])c4F)c4ccc([nH]4)c(-c4cccc(S(=O)(=O)[O-])c4F)c4nc(c(-c5cccc(S(=O)(=O)[O-])c5F)c5ccc2[nH]5)C=C4)C=C3)cc1
REMARK SMILES IDX 4 1 3 2 2 3 1 4 27 5 28 6 89 7 29 8 88 9 30 10 31 11 32 12
REMARK SMILES IDX 82 13 33 14 87 15 81 16 83 17 34 18 86 19 80 20 79 21 35 23
REMARK SMILES IDX 67 24 47 25 66 26 48 27 51 28 65 29 84 30 49 31 50 32 64 34
REMARK SMILES IDX 85 35 52 36 36 37 37 38 45 39 38 40 40 41 46 42 39 43 41 44
REMARK SMILES IDX 42 45 43 46 44 47 68 48 69 49 77 50 70 51 72 52 78 53 71 54
REMARK SMILES IDX 73 55 74 56 75 57 76 58 53 59 54 60 62 61 55 62 57 63 63 64
REMARK SMILES IDX 56 65 58 66 59 67 60 68 61 69 5 70 6 71 7 72 8 73 9 74 10 75
REMARK SMILES IDX 26 76 11 77 12 78 13 79 14 80 15 82 16 83 17 84 24 85 25 86
REMARK SMILES IDX 18 87 22 88 20 89 19 90 23 91 21 92
REMARK H PARENT 83 22 51 33 13 81
REMARK Flexibility Score: inf
ROOT
ATOM      1  C   UNL A   1      37.278  21.690  24.498  1.00  0.00     0.275 C 
ENDROOT
BRANCH   1   2
ATOM      2  O   UNL A   1      37.876  21.173  25.689  1.00  0.00    -0.458 OA
BRANCH   2   3
ATOM      3  C   UNL A   1      39.176  21.219  26.059  1.00  0.00     0.338 C 
ATOM      4  O   UNL A   1      39.859  20.217  25.848  1.00  0.00    -0.246 OA
BRANCH   3   5
ATOM      5  C   UNL A   1      39.814  22.361  26.810  1.00  0.00     0.060 A 
ATOM      6  C   UNL A   1      40.817  22.300  27.787  1.00  0.00     0.016 A 
ATOM      7  C   UNL A   1      39.400  23.638  26.414  1.00  0.00     0.016 A 
ATOM      8  C   UNL A   1      41.447  23.450  28.286  1.00  0.00     0.010 A 
ATOM      9  C   UNL A   1      40.060  24.781  26.876  1.00  0.00     0.010 A 
ATOM     10  C   UNL A   1      41.123  24.706  27.793  1.00  0.00    -0.014 A 
BRANCH  10  11
ATOM     11  C   UNL A   1      41.872  25.935  28.216  1.00  0.00     0.031 A 
ATOM     12  C   UNL A   1      41.106  26.992  28.980  1.00  0.00     0.074 A 
ATOM     13  C   UNL A   1      43.122  26.177  27.746  1.00  0.00     0.049 A 
ATOM     14  N   UNL A   1      41.406  28.243  29.200  1.00  0.00    -0.248 NA
ATOM     15  C   UNL A   1      39.768  26.608  29.469  1.00  0.00     0.031 C 
ATOM     16  C   UNL A   1      43.913  25.272  26.900  1.00  0.00     0.029 A 
ATOM     17  N   UNL A   1      43.912  27.308  27.805  1.00  0.00    -0.354 N 
ATOM     18  C   UNL A   1      40.249  28.826  29.714  1.00  0.00     0.074 A 
ATOM     19  C   UNL A   1      39.247  27.787  29.773  1.00  0.00     0.031 C 
ATOM     20  C   UNL A   1      44.998  25.918  26.433  1.00  0.00     0.029 A 
ATOM     21  C   UNL A   1      44.977  27.288  26.920  1.00  0.00     0.049 A 
ATOM     22  H   UNL A   1      43.736  28.058  28.419  1.00  0.00     0.167 HD
ATOM     23  C   UNL A   1      40.034  30.112  30.087  1.00  0.00     0.034 A 
ATOM     24  C   UNL A   1      45.799  28.273  26.497  1.00  0.00     0.034 A 
ATOM     25  C   UNL A   1      41.052  31.124  30.018  1.00  0.00     0.049 A 
ATOM     26  C   UNL A   1      45.603  29.661  27.060  1.00  0.00     0.074 A 
ATOM     27  C   UNL A   1      41.029  32.414  30.518  1.00  0.00     0.029 A 
ATOM     28  N   UNL A   1      42.275  30.962  29.385  1.00  0.00    -0.354 N 
ATOM     29  N   UNL A   1      44.633  30.116  27.817  1.00  0.00    -0.248 NA
ATOM     30  C   UNL A   1      46.644  30.656  26.762  1.00  0.00     0.031 C 
ATOM     31  C   UNL A   1      42.226  33.041  30.153  1.00  0.00     0.029 A 
ATOM     32  C   UNL A   1      43.009  32.128  29.466  1.00  0.00     0.049 A 
ATOM     33  H   UNL A   1      42.576  30.136  28.942  1.00  0.00     0.167 HD
ATOM     34  C   UNL A   1      44.989  31.418  28.151  1.00  0.00     0.074 A 
ATOM     35  C   UNL A   1      46.259  31.682  27.508  1.00  0.00     0.031 C 
ATOM     36  C   UNL A   1      44.330  32.315  28.924  1.00  0.00     0.034 A 
BRANCH  23  37
ATOM     37  C   UNL A   1      38.670  30.471  30.636  1.00  0.00     0.023 A 
ATOM     38  C   UNL A   1      38.359  30.161  31.978  1.00  0.00     0.012 A 
ATOM     39  C   UNL A   1      37.702  31.131  29.850  1.00  0.00     0.148 A 
ATOM     40  C   UNL A   1      37.093  30.415  32.502  1.00  0.00     0.002 A 
ATOM     41  C   UNL A   1      36.466  31.452  30.404  1.00  0.00     0.091 A 
ATOM     42  F   UNL A   1      37.996  31.418  28.574  1.00  0.00    -0.205 F 
ATOM     43  C   UNL A   1      36.150  31.069  31.718  1.00  0.00     0.022 A 
BRANCH  41  44
ATOM     44  S   UNL A   1      35.218  32.408  29.533  1.00  0.00     0.127 S 
ATOM     45  O   UNL A   1      36.005  33.528  29.020  1.00  0.00    -0.237 OA
ATOM     46  O   UNL A   1      34.773  31.459  28.511  1.00  0.00    -0.237 OA
ATOM     47  O   UNL A   1      34.210  32.755  30.523  1.00  0.00    -0.744 OA
ENDBRANCH  41  44
ENDBRANCH  23  37
BRANCH  24  48
ATOM     48  C   UNL A   1      46.934  28.023  25.549  1.00  0.00     0.023 A 
ATOM     49  C   UNL A   1      46.680  28.128  24.166  1.00  0.00     0.012 A 
ATOM     50  C   UNL A   1      48.211  27.597  25.971  1.00  0.00     0.148 A 
ATOM     51  C   UNL A   1      47.639  27.750  23.225  1.00  0.00     0.002 A 
ATOM     52  C   UNL A   1      49.176  27.249  25.025  1.00  0.00     0.091 A 
ATOM     53  F   UNL A   1      48.461  27.532  27.284  1.00  0.00    -0.205 F 
ATOM     54  C   UNL A   1      48.885  27.304  23.655  1.00  0.00     0.022 A 
BRANCH  52  55
ATOM     55  S   UNL A   1      50.844  26.731  25.460  1.00  0.00     0.127 S 
ATOM     56  O   UNL A   1      51.332  27.890  26.209  1.00  0.00    -0.237 OA
ATOM     57  O   UNL A   1      50.577  25.543  26.275  1.00  0.00    -0.237 OA
ATOM     58  O   UNL A   1      51.514  26.465  24.200  1.00  0.00    -0.744 OA
ENDBRANCH  52  55
ENDBRANCH  24  48
BRANCH  36  59
ATOM     59  C   UNL A   1      45.035  33.596  29.277  1.00  0.00     0.023 A 
ATOM     60  C   UNL A   1      45.828  33.699  30.435  1.00  0.00     0.012 A 
ATOM     61  C   UNL A   1      44.972  34.681  28.379  1.00  0.00     0.148 A 
ATOM     62  C   UNL A   1      46.524  34.877  30.708  1.00  0.00     0.002 A 
ATOM     63  C   UNL A   1      45.711  35.828  28.628  1.00  0.00     0.091 A 
ATOM     64  F   UNL A   1      44.191  34.566  27.295  1.00  0.00    -0.205 F 
ATOM     65  C   UNL A   1      46.477  35.934  29.799  1.00  0.00     0.022 A 
BRANCH  63  66
ATOM     66  S   UNL A   1      45.791  37.188  27.457  1.00  0.00     0.127 S 
ATOM     67  O   UNL A   1      46.317  36.524  26.265  1.00  0.00    -0.237 OA
ATOM     68  O   UNL A   1      44.389  37.595  27.360  1.00  0.00    -0.237 OA
ATOM     69  O   UNL A   1      46.670  38.184  28.055  1.00  0.00    -0.744 OA
ENDBRANCH  63  66
ENDBRANCH  36  59
ENDBRANCH  10  11
ENDBRANCH   3   5
ENDBRANCH   2   3
ENDBRANCH   1   2
BRANCH   1  70
ATOM     70  C   UNL A   1      35.749  21.835  24.588  1.00  0.00     0.274 C 
BRANCH  70  71
ATOM     71  O   UNL A   1      35.168  21.180  25.739  1.00  0.00    -0.462 OA
BRANCH  71  72
ATOM     72  C   UNL A   1      34.311  21.918  26.519  1.00  0.00     0.312 C 
ATOM     73  O   UNL A   1      34.410  22.001  27.740  1.00  0.00    -0.252 OA
BRANCH  72  74
ATOM     74  C   UNL A   1      33.234  22.687  25.721  1.00  0.00     0.124 C 
ATOM     75  C   UNL A   1      32.041  21.827  25.555  1.00  0.00    -0.014 C 
ATOM     76  C   UNL A   1      32.643  23.960  26.381  1.00  0.00     0.048 C 
ATOM     77  C   UNL A   1      30.940  22.426  25.996  1.00  0.00    -0.006 C 
ATOM     78  C   UNL A   1      31.076  23.860  26.342  1.00  0.00     0.106 C 
BRANCH  78  79
ATOM     79  N   UNL A   1      30.431  24.674  25.306  1.00  0.00    -0.349 N 
ATOM     80  C   UNL A   1      30.484  25.947  24.813  1.00  0.00     0.226 C 
ATOM     81  H   UNL A   1      29.758  24.144  24.821  1.00  0.00     0.164 HD
ATOM     82  O   UNL A   1      29.728  26.119  23.840  1.00  0.00    -0.274 OA
BRANCH  80  83
ATOM     83  C   UNL A   1      31.311  27.181  25.319  1.00  0.00     0.050 C 
ATOM     84  C   UNL A   1      31.309  27.310  26.863  1.00  0.00     0.020 C 
ATOM     85  C   UNL A   1      30.904  28.531  24.740  1.00  0.00     0.020 C 
ATOM     86  C   UNL A   1      32.808  26.946  24.913  1.00  0.00     0.020 C 
ATOM     87  C   UNL A   1      32.236  28.459  27.338  1.00  0.00    -0.010 C 
ATOM     88  C   UNL A   1      31.804  29.681  25.195  1.00  0.00    -0.010 C 
ATOM     89  C   UNL A   1      33.724  28.111  25.344  1.00  0.00    -0.010 C 
ATOM     90  C   UNL A   1      33.681  28.242  26.875  1.00  0.00     0.007 C 
ATOM     91  C   UNL A   1      31.774  29.773  26.718  1.00  0.00     0.007 C 
ATOM     92  C   UNL A   1      33.225  29.413  24.709  1.00  0.00     0.007 C 
ENDBRANCH  80  83
ENDBRANCH  78  79
ENDBRANCH  72  74
ENDBRANCH  71  72
ENDBRANCH  70  71
ENDBRANCH   1  70
TORSDOF 16
ENDMDL
MODEL 3
REMARK VINA RESULT:     -12.4      1.928      2.831
REMARK SMILES O=C(OCCOC(=O)[C@H]1C=C[C@H](NC(=O)[C@]23C[C@H]4C[C@H](C[C@H](C4)C2)C3)C1)c1ccc(-c2c3nc(c(-c4cccc(S(=O)(=O)[O-])c4F)c4ccc([nH]4)c(-c4cccc(S(=O)(=O)[O-])c4F)c4nc(c(-c5cccc(S(=O)(=O)[O-])c5F)c5ccc2[nH]5)C=C4)C=C3)cc1
REMARK SMILES IDX 4 1 3 2 2 3 1 4 27 5 28 6 89 7 29 8 88 9 30 10 31 11 32 12
REMARK SMILES IDX 82 13 33 14 87 15 81 16 83 17 34 18 86 19 80 20 79 21 35 23
REMARK SMILES IDX 67 24 47 25 66 26 48 27 51 28 65 29 84 30 49 31 50 32 64 34
REMARK SMILES IDX 85 35 52 36 36 37 37 38 45 39 38 40 40 41 46 42 39 43 41 44
REMARK SMILES IDX 42 45 43 46 44 47 68 48 69 49 77 50 70 51 72 52 78 53 71 54
REMARK SMILES IDX 73 55 74 56 75 57 76 58 53 59 54 60 62 61 55 62 57 63 63 64
REMARK SMILES IDX 56 65 58 66 59 67 60 68 61 69 5 70 6 71 7 72 8 73 9 74 10 75
REMARK SMILES IDX 26 76 11 77 12 78 13 79 14 80 15 82 16 83 17 84 24 85 25 86
REMARK SMILES IDX 18 87 22 88 20 89 19 90 23 91 21 92
REMARK H PARENT 83 22 51 33 13 81
REMARK Flexibility Score: inf
ROOT
ATOM      1  C   UNL A   1      32.424  32.058  26.590  1.00  0.00     0.275 C 
ENDROOT
BRANCH   1   2
ATOM      2  O   UNL A   1      32.119  33.215  27.371  1.00  0.00    -0.458 OA
BRANCH   2   3
ATOM      3  C   UNL A   1      32.921  33.871  28.242  1.00  0.00     0.338 C 
ATOM      4  O   UNL A   1      32.533  34.966  28.650  1.00  0.00    -0.246 OA
BRANCH   3   5
ATOM      5  C   UNL A   1      34.296  33.412  28.654  1.00  0.00     0.060 A 
ATOM      6  C   UNL A   1      35.533  33.973  28.312  1.00  0.00     0.016 A 
ATOM      7  C   UNL A   1      34.320  32.341  29.556  1.00  0.00     0.016 A 
ATOM      8  C   UNL A   1      36.735  33.553  28.903  1.00  0.00     0.010 A 
ATOM      9  C   UNL A   1      35.511  31.954  30.179  1.00  0.00     0.010 A 
ATOM     10  C   UNL A   1      36.737  32.580  29.893  1.00  0.00    -0.014 A 
BRANCH  10  11
ATOM     11  C   UNL A   1      37.989  32.208  30.629  1.00  0.00     0.031 A 
ATOM     12  C   UNL A   1      38.833  31.092  30.054  1.00  0.00     0.074 A 
ATOM     13  C   UNL A   1      38.235  32.706  31.867  1.00  0.00     0.049 A 
ATOM     14  N   UNL A   1      39.772  30.382  30.618  1.00  0.00    -0.248 NA
ATOM     15  C   UNL A   1      38.493  30.650  28.689  1.00  0.00     0.031 C 
ATOM     16  C   UNL A   1      37.418  33.706  32.570  1.00  0.00     0.029 A 
ATOM     17  N   UNL A   1      39.175  32.358  32.817  1.00  0.00    -0.354 N 
ATOM     18  C   UNL A   1      40.028  29.329  29.742  1.00  0.00     0.074 A 
ATOM     19  C   UNL A   1      39.145  29.500  28.611  1.00  0.00     0.031 C 
ATOM     20  C   UNL A   1      37.816  33.798  33.854  1.00  0.00     0.029 A 
ATOM     21  C   UNL A   1      38.897  32.853  34.081  1.00  0.00     0.049 A 
ATOM     22  H   UNL A   1      39.968  31.811  32.616  1.00  0.00     0.167 HD
ATOM     23  C   UNL A   1      40.904  28.303  29.873  1.00  0.00     0.034 A 
ATOM     24  C   UNL A   1      39.406  32.535  35.291  1.00  0.00     0.034 A 
ATOM     25  C   UNL A   1      41.772  28.159  31.011  1.00  0.00     0.049 A 
ATOM     26  C   UNL A   1      40.488  31.482  35.359  1.00  0.00     0.074 A 
ATOM     27  C   UNL A   1      42.820  27.276  31.197  1.00  0.00     0.029 A 
ATOM     28  N   UNL A   1      41.671  28.912  32.171  1.00  0.00    -0.354 N 
ATOM     29  N   UNL A   1      40.933  30.693  34.411  1.00  0.00    -0.248 NA
ATOM     30  C   UNL A   1      41.181  31.319  36.646  1.00  0.00     0.031 C 
ATOM     31  C   UNL A   1      43.328  27.473  32.486  1.00  0.00     0.029 A 
ATOM     32  C   UNL A   1      42.625  28.507  33.083  1.00  0.00     0.049 A 
ATOM     33  H   UNL A   1      41.015  29.630  32.322  1.00  0.00     0.167 HD
ATOM     34  C   UNL A   1      42.007  30.003  34.963  1.00  0.00     0.074 A 
ATOM     35  C   UNL A   1      42.140  30.461  36.329  1.00  0.00     0.031 C 
ATOM     36  C   UNL A   1      42.815  29.076  34.392  1.00  0.00     0.034 A 
BRANCH  23  37
ATOM     37  C   UNL A   1      40.991  27.296  28.746  1.00  0.00     0.023 A 
ATOM     38  C   UNL A   1      40.071  26.225  28.700  1.00  0.00     0.012 A 
ATOM     39  C   UNL A   1      41.952  27.409  27.720  1.00  0.00     0.148 A 
ATOM     40  C   UNL A   1      40.158  25.242  27.717  1.00  0.00     0.002 A 
ATOM     41  C   UNL A   1      41.984  26.466  26.697  1.00  0.00     0.091 A 
ATOM     42  F   UNL A   1      42.830  28.422  27.770  1.00  0.00    -0.205 F 
ATOM     43  C   UNL A   1      41.109  25.367  26.710  1.00  0.00     0.022 A 
BRANCH  41  44
ATOM     44  S   UNL A   1      43.078  26.592  25.277  1.00  0.00     0.127 S 
ATOM     45  O   UNL A   1      44.389  26.684  25.920  1.00  0.00    -0.237 OA
ATOM     46  O   UNL A   1      42.826  25.324  24.591  1.00  0.00    -0.237 OA
ATOM     47  O   UNL A   1      42.657  27.777  24.546  1.00  0.00    -0.744 OA
ENDBRANCH  41  44
ENDBRANCH  23  37
BRANCH  24  48
ATOM     48  C   UNL A   1      38.986  33.233  36.550  1.00  0.00     0.023 A 
ATOM     49  C   UNL A   1      39.544  34.498  36.825  1.00  0.00     0.012 A 
ATOM     50  C   UNL A   1      38.138  32.645  37.511  1.00  0.00     0.148 A 
ATOM     51  C   UNL A   1      39.328  35.131  38.051  1.00  0.00     0.002 A 
ATOM     52  C   UNL A   1      37.901  33.296  38.722  1.00  0.00     0.091 A 
ATOM     53  F   UNL A   1      37.581  31.460  37.232  1.00  0.00    -0.205 F 
ATOM     54  C   UNL A   1      38.513  34.527  39.002  1.00  0.00     0.022 A 
BRANCH  52  55
ATOM     55  S   UNL A   1      36.807  32.648  39.996  1.00  0.00     0.127 S 
ATOM     56  O   UNL A   1      36.893  33.688  41.022  1.00  0.00    -0.237 OA
ATOM     57  O   UNL A   1      35.529  32.596  39.282  1.00  0.00    -0.237 OA
ATOM     58  O   UNL A   1      37.352  31.354  40.361  1.00  0.00    -0.744 OA
ENDBRANCH  52  55
ENDBRANCH  24  48
BRANCH  36  59
ATOM     59  C   UNL A   1      44.025  28.623  35.162  1.00  0.00     0.023 A 
ATOM     60  C   UNL A   1      45.245  29.318  35.081  1.00  0.00     0.012 A 
ATOM     61  C   UNL A   1      43.901  27.536  36.052  1.00  0.00     0.148 A 
ATOM     62  C   UNL A   1      46.335  28.916  35.854  1.00  0.00     0.002 A 
ATOM     63  C   UNL A   1      44.971  27.178  36.858  1.00  0.00     0.091 A 
ATOM     64  F   UNL A   1      42.734  26.876  36.093  1.00  0.00    -0.205 F 
ATOM     65  C   UNL A   1      46.194  27.858  36.752  1.00  0.00     0.022 A 
BRANCH  63  66
ATOM     66  S   UNL A   1      44.838  25.900  38.113  1.00  0.00     0.127 S 
ATOM     67  O   UNL A   1      46.136  26.000  38.778  1.00  0.00    -0.237 OA
ATOM     68  O   UNL A   1      43.705  26.368  38.912  1.00  0.00    -0.237 OA
ATOM     69  O   UNL A   1      44.598  24.655  37.397  1.00  0.00    -0.744 OA
ENDBRANCH  63  66
ENDBRANCH  36  59
ENDBRANCH  10  11
ENDBRANCH   3   5
ENDBRANCH   2   3
ENDBRANCH   1   2
BRANCH   1  70
ATOM     70  C   UNL A   1      31.764  30.769  27.110  1.00  0.00     0.274 C 
BRANCH  70  71
ATOM     71  O   UNL A   1      32.617  29.605  27.031  1.00  0.00    -0.462 OA
BRANCH  71  72
ATOM     72  C   UNL A   1      32.005  28.382  26.899  1.00  0.00     0.312 C 
ATOM     73  O   UNL A   1      31.365  27.846  27.798  1.00  0.00    -0.252 OA
BRANCH  72  74
ATOM     74  C   UNL A   1      32.143  27.756  25.493  1.00  0.00     0.124 C 
ATOM     75  C   UNL A   1      31.008  28.194  24.650  1.00  0.00    -0.014 C 
ATOM     76  C   UNL A   1      33.373  28.182  24.649  1.00  0.00     0.048 C 
ATOM     77  C   UNL A   1      31.425  28.756  23.520  1.00  0.00    -0.006 C 
ATOM     78  C   UNL A   1      32.872  28.635  23.231  1.00  0.00     0.106 C 
BRANCH  78  79
ATOM     79  N   UNL A   1      33.075  27.653  22.161  1.00  0.00    -0.349 N 
ATOM     80  C   UNL A   1      33.118  26.297  22.000  1.00  0.00     0.226 C 
ATOM     81  H   UNL A   1      33.225  28.107  21.301  1.00  0.00     0.164 HD
ATOM     82  O   UNL A   1      33.271  25.957  20.814  1.00  0.00    -0.274 OA
BRANCH  80  83
ATOM     83  C   UNL A   1      33.043  25.160  23.079  1.00  0.00     0.050 C 
ATOM     84  C   UNL A   1      31.632  25.019  23.703  1.00  0.00     0.020 C 
ATOM     85  C   UNL A   1      34.047  25.266  24.221  1.00  0.00     0.020 C 
ATOM     86  C   UNL A   1      33.326  23.799  22.352  1.00  0.00     0.020 C 
ATOM     87  C   UNL A   1      31.556  23.808  24.668  1.00  0.00    -0.010 C 
ATOM     88  C   UNL A   1      33.990  24.082  25.189  1.00  0.00    -0.010 C 
ATOM     89  C   UNL A   1      33.298  22.598  23.320  1.00  0.00    -0.010 C 
ATOM     90  C   UNL A   1      31.900  22.496  23.952  1.00  0.00     0.007 C 
ATOM     91  C   UNL A   1      32.587  23.979  25.779  1.00  0.00     0.007 C 
ATOM     92  C   UNL A   1      34.339  22.809  24.424  1.00  0.00     0.007 C 
ENDBRANCH  80  83
ENDBRANCH  78  79
ENDBRANCH  72  74
ENDBRANCH  71  72
ENDBRANCH  70  71
ENDBRANCH   1  70
TORSDOF 16
ENDMDL
