MODEL 1
REMARK VINA RESULT:     -11.1      0.000      0.000
REMARK SMILES C[C@@H]1C[N@@H+](CC(C)(C)C(=O)OCCOC(=O)c2ccc(-c3c4nc(c(-c5cccc(S(=O)(=O)[O-])c5F)c5ccc([nH]5)c(-c5cccc(S(=O)(=O)[O-])c5F)c5nc(c(-c6cccc(S(=O)(=O)[O-])c6F)c6ccc3[nH]6)C=C5)C=C4)cc2)CC[C@@H]1[NH3+]
REMARK SMILES IDX 12 1 11 2 9 3 10 4 6 5 7 6 8 7 5 8 4 9 1 10 2 11 3 12 82 13
REMARK SMILES IDX 81 14 80 15 83 17 13 21 14 22 15 23 16 24 17 25 18 26 79 27
REMARK SMILES IDX 19 28 78 29 20 30 21 31 22 32 72 33 23 34 77 35 71 36 73 37
REMARK SMILES IDX 24 38 76 39 70 40 69 41 25 43 57 44 37 45 56 46 38 47 41 48
REMARK SMILES IDX 55 49 74 50 39 51 40 52 54 54 75 55 42 56 26 57 27 58 35 59
REMARK SMILES IDX 28 60 30 61 36 62 29 63 31 64 32 65 33 66 34 67 58 68 59 69
REMARK SMILES IDX 67 70 60 71 62 72 68 73 61 74 63 75 64 76 65 77 66 78 43 79
REMARK SMILES IDX 44 80 52 81 45 82 47 83 53 84 46 85 48 86 49 87 50 88 51 89
REMARK H PARENT 4 16 83 18 83 19 83 20 73 42 41 53
REMARK Flexibility Score: inf
ROOT
ATOM      1  C   UNL A   1      34.765  20.540  24.977  1.00  0.00     0.274 C 
ENDROOT
BRANCH   1   2
ATOM      2  O   UNL A   1      33.678  21.460  24.691  1.00  0.00    -0.461 OA
BRANCH   2   3
ATOM      3  C   UNL A   1      33.653  22.514  25.545  1.00  0.00     0.317 C 
ATOM      4  O   UNL A   1      33.578  22.327  26.750  1.00  0.00    -0.251 OA
BRANCH   3   5
ATOM      5  C   UNL A   1      33.736  23.902  24.916  1.00  0.00     0.111 C 
ATOM      6  C   UNL A   1      33.791  23.828  23.388  1.00  0.00     0.029 C 
ATOM      7  C   UNL A   1      35.054  24.517  25.441  1.00  0.00     0.029 C 
BRANCH   5   8
ATOM      8  C   UNL A   1      32.536  24.837  25.362  1.00  0.00     0.280 C 
BRANCH   8   9
ATOM      9  N   UNL A   1      32.191  26.139  24.740  1.00  0.00    -0.333 N 
ATOM     10  C   UNL A   1      33.350  28.866  23.343  1.00  0.00     0.020 C 
ATOM     11  C   UNL A   1      32.591  28.679  24.651  1.00  0.00     0.099 C 
ATOM     12  C   UNL A   1      32.900  27.308  25.261  1.00  0.00     0.271 C 
ATOM     13  C   UNL A   1      31.078  28.846  24.556  1.00  0.00     0.194 C 
ATOM     14  C   UNL A   1      30.479  27.676  23.777  1.00  0.00     0.126 C 
ATOM     15  C   UNL A   1      30.772  26.349  24.491  1.00  0.00     0.268 C 
ATOM     16  H   UNL A   1      32.588  26.038  23.807  1.00  0.00     0.348 HD
BRANCH  13  17
ATOM     17  N   UNL A   1      30.697  30.130  23.968  1.00  0.00    -0.355 N 
ATOM     18  H   UNL A   1      31.010  30.888  24.574  1.00  0.00     0.344 HD
ATOM     19  H   UNL A   1      29.682  30.170  23.870  1.00  0.00     0.344 HD
ATOM     20  H   UNL A   1      31.130  30.227  23.050  1.00  0.00     0.344 HD
ENDBRANCH  13  17
ENDBRANCH   8   9
ENDBRANCH   5   8
ENDBRANCH   3   5
ENDBRANCH   2   3
ENDBRANCH   1   2
BRANCH   1  21
ATOM     21  C   UNL A   1      36.200  21.059  24.693  1.00  0.00     0.275 C 
BRANCH  21  22
ATOM     22  O   UNL A   1      36.931  21.539  25.855  1.00  0.00    -0.458 OA
BRANCH  22  23
ATOM     23  C   UNL A   1      38.262  21.250  25.893  1.00  0.00     0.338 C 
ATOM     24  O   UNL A   1      38.790  20.269  25.389  1.00  0.00    -0.246 OA
BRANCH  23  25
ATOM     25  C   UNL A   1      39.071  22.379  26.437  1.00  0.00     0.060 A 
ATOM     26  C   UNL A   1      38.684  23.670  26.061  1.00  0.00     0.016 A 
ATOM     27  C   UNL A   1      40.220  22.228  27.211  1.00  0.00     0.016 A 
ATOM     28  C   UNL A   1      39.356  24.808  26.513  1.00  0.00     0.010 A 
ATOM     29  C   UNL A   1      40.944  23.373  27.617  1.00  0.00     0.010 A 
ATOM     30  C   UNL A   1      40.510  24.673  27.286  1.00  0.00    -0.014 A 
BRANCH  30  31
ATOM     31  C   UNL A   1      41.262  25.893  27.701  1.00  0.00     0.031 A 
ATOM     32  C   UNL A   1      40.612  26.920  28.571  1.00  0.00     0.074 A 
ATOM     33  C   UNL A   1      42.546  26.074  27.337  1.00  0.00     0.049 A 
ATOM     34  N   UNL A   1      41.073  28.084  28.948  1.00  0.00    -0.248 NA
ATOM     35  C   UNL A   1      39.269  26.604  29.075  1.00  0.00     0.031 C 
ATOM     36  C   UNL A   1      43.297  25.127  26.533  1.00  0.00     0.029 A 
ATOM     37  N   UNL A   1      43.444  27.089  27.575  1.00  0.00    -0.354 N 
ATOM     38  C   UNL A   1      40.051  28.675  29.674  1.00  0.00     0.074 A 
ATOM     39  C   UNL A   1      38.962  27.720  29.723  1.00  0.00     0.031 C 
ATOM     40  C   UNL A   1      44.548  25.579  26.357  1.00  0.00     0.029 A 
ATOM     41  C   UNL A   1      44.664  26.902  26.958  1.00  0.00     0.049 A 
ATOM     42  H   UNL A   1      43.236  27.874  28.132  1.00  0.00     0.167 HD
ATOM     43  C   UNL A   1      40.017  29.913  30.221  1.00  0.00     0.034 A 
ATOM     44  C   UNL A   1      45.731  27.719  26.835  1.00  0.00     0.034 A 
ATOM     45  C   UNL A   1      41.105  30.857  30.172  1.00  0.00     0.049 A 
ATOM     46  C   UNL A   1      45.650  29.102  27.426  1.00  0.00     0.074 A 
ATOM     47  C   UNL A   1      41.154  32.133  30.705  1.00  0.00     0.029 A 
ATOM     48  N   UNL A   1      42.321  30.642  29.541  1.00  0.00    -0.354 N 
ATOM     49  N   UNL A   1      44.691  29.635  28.144  1.00  0.00    -0.248 NA
ATOM     50  C   UNL A   1      46.787  30.003  27.183  1.00  0.00     0.031 C 
ATOM     51  C   UNL A   1      42.382  32.706  30.359  1.00  0.00     0.029 A 
ATOM     52  C   UNL A   1      43.119  31.769  29.652  1.00  0.00     0.049 A 
ATOM     53  H   UNL A   1      42.579  29.810  29.082  1.00  0.00     0.167 HD
ATOM     54  C   UNL A   1      45.108  30.928  28.439  1.00  0.00     0.074 A 
ATOM     55  C   UNL A   1      46.427  31.083  27.862  1.00  0.00     0.031 C 
ATOM     56  C   UNL A   1      44.445  31.905  29.105  1.00  0.00     0.034 A 
BRANCH  43  57
ATOM     57  C   UNL A   1      38.734  30.339  30.877  1.00  0.00     0.023 A 
ATOM     58  C   UNL A   1      38.517  30.089  32.247  1.00  0.00     0.012 A 
ATOM     59  C   UNL A   1      37.756  31.025  30.131  1.00  0.00     0.148 A 
ATOM     60  C   UNL A   1      37.327  30.487  32.855  1.00  0.00     0.002 A 
ATOM     61  C   UNL A   1      36.595  31.459  30.756  1.00  0.00     0.091 A 
ATOM     62  F   UNL A   1      37.976  31.231  28.825  1.00  0.00    -0.205 F 
ATOM     63  C   UNL A   1      36.372  31.180  32.114  1.00  0.00     0.022 A 
BRANCH  61  64
ATOM     64  S   UNL A   1      35.341  32.422  29.905  1.00  0.00     0.127 S 
ATOM     65  O   UNL A   1      34.379  32.669  30.979  1.00  0.00    -0.237 OA
ATOM     66  O   UNL A   1      36.097  33.600  29.481  1.00  0.00    -0.237 OA
ATOM     67  O   UNL A   1      34.854  31.584  28.817  1.00  0.00    -0.744 OA
ENDBRANCH  61  64
ENDBRANCH  43  57
BRANCH  44  68
ATOM     68  C   UNL A   1      46.947  27.288  26.078  1.00  0.00     0.023 A 
ATOM     69  C   UNL A   1      47.919  26.483  26.706  1.00  0.00     0.012 A 
ATOM     70  C   UNL A   1      47.159  27.685  24.741  1.00  0.00     0.148 A 
ATOM     71  C   UNL A   1      49.085  26.110  26.032  1.00  0.00     0.002 A 
ATOM     72  C   UNL A   1      48.287  27.252  24.053  1.00  0.00     0.091 A 
ATOM     73  F   UNL A   1      46.250  28.483  24.164  1.00  0.00    -0.205 F 
ATOM     74  C   UNL A   1      49.262  26.482  24.703  1.00  0.00     0.022 A 
BRANCH  72  75
ATOM     75  S   UNL A   1      48.523  27.571  22.301  1.00  0.00     0.127 S 
ATOM     76  O   UNL A   1      47.340  28.362  21.978  1.00  0.00    -0.237 OA
ATOM     77  O   UNL A   1      49.783  28.317  22.294  1.00  0.00    -0.237 OA
ATOM     78  O   UNL A   1      48.602  26.261  21.668  1.00  0.00    -0.744 OA
ENDBRANCH  72  75
ENDBRANCH  44  68
BRANCH  56  79
ATOM     79  C   UNL A   1      45.142  33.231  29.270  1.00  0.00     0.023 A 
ATOM     80  C   UNL A   1      45.963  33.461  30.392  1.00  0.00     0.012 A 
ATOM     81  C   UNL A   1      45.038  34.224  28.276  1.00  0.00     0.148 A 
ATOM     82  C   UNL A   1      46.644  34.669  30.538  1.00  0.00     0.002 A 
ATOM     83  C   UNL A   1      45.761  35.404  28.401  1.00  0.00     0.091 A 
ATOM     84  F   UNL A   1      44.239  33.993  27.224  1.00  0.00    -0.205 F 
ATOM     85  C   UNL A   1      46.553  35.634  29.538  1.00  0.00     0.022 A 
BRANCH  83  86
ATOM     86  S   UNL A   1      45.783  36.665  27.122  1.00  0.00     0.127 S 
ATOM     87  O   UNL A   1      46.708  37.647  27.687  1.00  0.00    -0.237 OA
ATOM     88  O   UNL A   1      46.303  35.927  25.971  1.00  0.00    -0.237 OA
ATOM     89  O   UNL A   1      44.406  37.121  26.980  1.00  0.00    -0.744 OA
ENDBRANCH  83  86
ENDBRANCH  56  79
ENDBRANCH  30  31
ENDBRANCH  23  25
ENDBRANCH  22  23
ENDBRANCH  21  22
ENDBRANCH   1  21
TORSDOF 17
ENDMDL
MODEL 2
REMARK VINA RESULT:     -11.0      5.367     10.210
REMARK SMILES C[C@@H]1C[N@@H+](CC(C)(C)C(=O)OCCOC(=O)c2ccc(-c3c4nc(c(-c5cccc(S(=O)(=O)[O-])c5F)c5ccc([nH]5)c(-c5cccc(S(=O)(=O)[O-])c5F)c5nc(c(-c6cccc(S(=O)(=O)[O-])c6F)c6ccc3[nH]6)C=C5)C=C4)cc2)CC[C@@H]1[NH3+]
REMARK SMILES IDX 12 1 11 2 9 3 10 4 6 5 7 6 8 7 5 8 4 9 1 10 2 11 3 12 82 13
REMARK SMILES IDX 81 14 80 15 83 17 13 21 14 22 15 23 16 24 17 25 18 26 79 27
REMARK SMILES IDX 19 28 78 29 20 30 21 31 22 32 72 33 23 34 77 35 71 36 73 37
REMARK SMILES IDX 24 38 76 39 70 40 69 41 25 43 57 44 37 45 56 46 38 47 41 48
REMARK SMILES IDX 55 49 74 50 39 51 40 52 54 54 75 55 42 56 26 57 27 58 35 59
REMARK SMILES IDX 28 60 30 61 36 62 29 63 31 64 32 65 33 66 34 67 58 68 59 69
REMARK SMILES IDX 67 70 60 71 62 72 68 73 61 74 63 75 64 76 65 77 66 78 43 79
REMARK SMILES IDX 44 80 52 81 45 82 47 83 53 84 46 85 48 86 49 87 50 88 51 89
REMARK H PARENT 4 16 83 18 83 19 83 20 73 42 41 53
REMARK Flexibility Score: inf
ROOT
ATOM      1  C   UNL A   1      31.459  27.875  25.440  1.00  0.00     0.274 C 
ENDROOT
BRANCH   1   2
ATOM      2  O   UNL A   1      31.162  27.285  24.147  1.00  0.00    -0.461 OA
BRANCH   2   3
ATOM      3  C   UNL A   1      32.194  26.551  23.662  1.00  0.00     0.317 C 
ATOM      4  O   UNL A   1      33.227  27.101  23.310  1.00  0.00    -0.251 OA
BRANCH   3   5
ATOM      5  C   UNL A   1      31.987  25.041  23.602  1.00  0.00     0.111 C 
ATOM      6  C   UNL A   1      32.592  24.435  22.333  1.00  0.00     0.029 C 
ATOM      7  C   UNL A   1      30.454  24.833  23.581  1.00  0.00     0.029 C 
BRANCH   5   8
ATOM      8  C   UNL A   1      32.573  24.303  24.878  1.00  0.00     0.280 C 
BRANCH   8   9
ATOM      9  N   UNL A   1      33.884  23.611  24.938  1.00  0.00    -0.333 N 
ATOM     10  C   UNL A   1      35.421  20.720  25.002  1.00  0.00     0.020 C 
ATOM     11  C   UNL A   1      35.344  21.814  26.060  1.00  0.00     0.099 C 
ATOM     12  C   UNL A   1      34.014  22.569  25.956  1.00  0.00     0.271 C 
ATOM     13  C   UNL A   1      36.486  22.824  26.037  1.00  0.00     0.194 C 
ATOM     14  C   UNL A   1      36.372  23.703  24.792  1.00  0.00     0.126 C 
ATOM     15  C   UNL A   1      35.046  24.476  24.801  1.00  0.00     0.268 C 
ATOM     16  H   UNL A   1      33.878  23.074  24.071  1.00  0.00     0.348 HD
BRANCH  13  17
ATOM     17  N   UNL A   1      37.797  22.182  26.118  1.00  0.00    -0.355 N 
ATOM     18  H   UNL A   1      37.678  21.170  26.175  1.00  0.00     0.344 HD
ATOM     19  H   UNL A   1      38.288  22.514  26.949  1.00  0.00     0.344 HD
ATOM     20  H   UNL A   1      38.342  22.413  25.287  1.00  0.00     0.344 HD
ENDBRANCH  13  17
ENDBRANCH   8   9
ENDBRANCH   5   8
ENDBRANCH   3   5
ENDBRANCH   2   3
ENDBRANCH   1   2
BRANCH   1  21
ATOM     21  C   UNL A   1      31.566  29.423  25.484  1.00  0.00     0.275 C 
BRANCH  21  22
ATOM     22  O   UNL A   1      32.914  29.952  25.608  1.00  0.00    -0.458 OA
BRANCH  22  23
ATOM     23  C   UNL A   1      33.100  30.920  26.549  1.00  0.00     0.338 C 
ATOM     24  O   UNL A   1      32.256  31.725  26.914  1.00  0.00    -0.246 OA
BRANCH  23  25
ATOM     25  C   UNL A   1      34.399  30.770  27.266  1.00  0.00     0.060 A 
ATOM     26  C   UNL A   1      34.746  29.479  27.678  1.00  0.00     0.016 A 
ATOM     27  C   UNL A   1      35.231  31.829  27.625  1.00  0.00     0.016 A 
ATOM     28  C   UNL A   1      35.941  29.210  28.349  1.00  0.00     0.010 A 
ATOM     29  C   UNL A   1      36.410  31.572  28.364  1.00  0.00     0.010 A 
ATOM     30  C   UNL A   1      36.784  30.260  28.718  1.00  0.00    -0.014 A 
BRANCH  30  31
ATOM     31  C   UNL A   1      38.020  29.968  29.500  1.00  0.00     0.031 A 
ATOM     32  C   UNL A   1      39.085  29.090  28.928  1.00  0.00     0.074 A 
ATOM     33  C   UNL A   1      38.219  30.518  30.714  1.00  0.00     0.049 A 
ATOM     34  N   UNL A   1      40.175  28.648  29.498  1.00  0.00    -0.248 NA
ATOM     35  C   UNL A   1      38.898  28.644  27.541  1.00  0.00     0.031 C 
ATOM     36  C   UNL A   1      37.279  31.421  31.353  1.00  0.00     0.029 A 
ATOM     37  N   UNL A   1      39.245  30.411  31.625  1.00  0.00    -0.354 N 
ATOM     38  C   UNL A   1      40.773  27.812  28.568  1.00  0.00     0.074 A 
ATOM     39  C   UNL A   1      39.945  27.846  27.378  1.00  0.00     0.031 C 
ATOM     40  C   UNL A   1      37.768  31.812  32.540  1.00  0.00     0.029 A 
ATOM     41  C   UNL A   1      39.021  31.110  32.792  1.00  0.00     0.049 A 
ATOM     42  H   UNL A   1      40.061  29.885  31.459  1.00  0.00     0.167 HD
ATOM     43  C   UNL A   1      41.891  27.063  28.709  1.00  0.00     0.034 A 
ATOM     44  C   UNL A   1      39.707  31.140  33.955  1.00  0.00     0.034 A 
ATOM     45  C   UNL A   1      42.712  27.036  29.892  1.00  0.00     0.049 A 
ATOM     46  C   UNL A   1      40.928  30.270  34.092  1.00  0.00     0.074 A 
ATOM     47  C   UNL A   1      43.866  26.306  30.117  1.00  0.00     0.029 A 
ATOM     48  N   UNL A   1      42.460  27.748  31.055  1.00  0.00    -0.354 N 
ATOM     49  N   UNL A   1      41.504  29.512  33.190  1.00  0.00    -0.248 NA
ATOM     50  C   UNL A   1      41.590  30.245  35.405  1.00  0.00     0.031 C 
ATOM     51  C   UNL A   1      44.288  26.543  31.429  1.00  0.00     0.029 A 
ATOM     52  C   UNL A   1      43.424  27.459  32.008  1.00  0.00     0.049 A 
ATOM     53  H   UNL A   1      41.707  28.369  31.184  1.00  0.00     0.167 HD
ATOM     54  C   UNL A   1      42.593  28.925  33.823  1.00  0.00     0.074 A 
ATOM     55  C   UNL A   1      42.624  29.449  35.173  1.00  0.00     0.031 C 
ATOM     56  C   UNL A   1      43.469  28.012  33.338  1.00  0.00     0.034 A 
BRANCH  43  57
ATOM     57  C   UNL A   1      42.264  26.163  27.564  1.00  0.00     0.023 A 
ATOM     58  C   UNL A   1      42.998  26.667  26.471  1.00  0.00     0.012 A 
ATOM     59  C   UNL A   1      41.912  24.800  27.596  1.00  0.00     0.148 A 
ATOM     60  C   UNL A   1      43.346  25.830  25.411  1.00  0.00     0.002 A 
ATOM     61  C   UNL A   1      42.303  23.964  26.559  1.00  0.00     0.091 A 
ATOM     62  F   UNL A   1      41.194  24.350  28.635  1.00  0.00    -0.205 F 
ATOM     63  C   UNL A   1      43.008  24.479  25.459  1.00  0.00     0.022 A 
BRANCH  61  64
ATOM     64  S   UNL A   1      41.979  22.198  26.565  1.00  0.00     0.127 S 
ATOM     65  O   UNL A   1      42.534  21.791  25.274  1.00  0.00    -0.237 OA
ATOM     66  O   UNL A   1      42.748  21.752  27.727  1.00  0.00    -0.237 OA
ATOM     67  O   UNL A   1      40.536  22.050  26.693  1.00  0.00    -0.744 OA
ENDBRANCH  61  64
ENDBRANCH  43  57
BRANCH  44  68
ATOM     68  C   UNL A   1      39.234  31.971  35.106  1.00  0.00     0.023 A 
ATOM     69  C   UNL A   1      38.262  31.459  35.990  1.00  0.00     0.012 A 
ATOM     70  C   UNL A   1      39.727  33.274  35.323  1.00  0.00     0.148 A 
ATOM     71  C   UNL A   1      37.772  32.237  37.043  1.00  0.00     0.002 A 
ATOM     72  C   UNL A   1      39.287  34.016  36.413  1.00  0.00     0.091 A 
ATOM     73  F   UNL A   1      40.621  33.768  34.454  1.00  0.00    -0.205 F 
ATOM     74  C   UNL A   1      38.294  33.508  37.263  1.00  0.00     0.022 A 
BRANCH  72  75
ATOM     75  S   UNL A   1      40.007  35.604  36.846  1.00  0.00     0.127 S 
ATOM     76  O   UNL A   1      41.427  35.277  36.930  1.00  0.00    -0.237 OA
ATOM     77  O   UNL A   1      39.633  36.432  35.698  1.00  0.00    -0.237 OA
ATOM     78  O   UNL A   1      39.372  35.998  38.097  1.00  0.00    -0.744 OA
ENDBRANCH  72  75
ENDBRANCH  44  68
BRANCH  56  79
ATOM     79  C   UNL A   1      44.559  27.533  34.262  1.00  0.00     0.023 A 
ATOM     80  C   UNL A   1      45.750  28.274  34.390  1.00  0.00     0.012 A 
ATOM     81  C   UNL A   1      44.372  26.384  35.056  1.00  0.00     0.148 A 
ATOM     82  C   UNL A   1      46.751  27.864  35.270  1.00  0.00     0.002 A 
ATOM     83  C   UNL A   1      45.350  26.010  35.969  1.00  0.00     0.091 A 
ATOM     84  F   UNL A   1      43.239  25.682  34.906  1.00  0.00    -0.205 F 
ATOM     85  C   UNL A   1      46.546  26.740  36.068  1.00  0.00     0.022 A 
BRANCH  83  86
ATOM     86  S   UNL A   1      45.138  24.635  37.104  1.00  0.00     0.127 S 
ATOM     87  O   UNL A   1      43.856  24.960  37.731  1.00  0.00    -0.237 OA
ATOM     88  O   UNL A   1      45.099  23.488  36.196  1.00  0.00    -0.237 OA
ATOM     89  O   UNL A   1      46.289  24.665  37.996  1.00  0.00    -0.744 OA
ENDBRANCH  83  86
ENDBRANCH  56  79
ENDBRANCH  30  31
ENDBRANCH  23  25
ENDBRANCH  22  23
ENDBRANCH  21  22
ENDBRANCH   1  21
TORSDOF 17
ENDMDL
MODEL 3
REMARK VINA RESULT:     -11.0      5.540     10.295
REMARK SMILES C[C@@H]1C[N@@H+](CC(C)(C)C(=O)OCCOC(=O)c2ccc(-c3c4nc(c(-c5cccc(S(=O)(=O)[O-])c5F)c5ccc([nH]5)c(-c5cccc(S(=O)(=O)[O-])c5F)c5nc(c(-c6cccc(S(=O)(=O)[O-])c6F)c6ccc3[nH]6)C=C5)C=C4)cc2)CC[C@@H]1[NH3+]
REMARK SMILES IDX 12 1 11 2 9 3 10 4 6 5 7 6 8 7 5 8 4 9 1 10 2 11 3 12 82 13
REMARK SMILES IDX 81 14 80 15 83 17 13 21 14 22 15 23 16 24 17 25 18 26 79 27
REMARK SMILES IDX 19 28 78 29 20 30 21 31 22 32 72 33 23 34 77 35 71 36 73 37
REMARK SMILES IDX 24 38 76 39 70 40 69 41 25 43 57 44 37 45 56 46 38 47 41 48
REMARK SMILES IDX 55 49 74 50 39 51 40 52 54 54 75 55 42 56 26 57 27 58 35 59
REMARK SMILES IDX 28 60 30 61 36 62 29 63 31 64 32 65 33 66 34 67 58 68 59 69
REMARK SMILES IDX 67 70 60 71 62 72 68 73 61 74 63 75 64 76 65 77 66 78 43 79
REMARK SMILES IDX 44 80 52 81 45 82 47 83 53 84 46 85 48 86 49 87 50 88 51 89
REMARK H PARENT 4 16 83 18 83 19 83 20 73 42 41 53
REMARK Flexibility Score: inf
ROOT
ATOM      1  C   UNL A   1      31.911  29.374  24.872  1.00  0.00     0.274 C 
ENDROOT
BRANCH   1   2
ATOM      2  O   UNL A   1      32.012  27.941  24.654  1.00  0.00    -0.461 OA
BRANCH   2   3
ATOM      3  C   UNL A   1      31.113  27.240  25.389  1.00  0.00     0.317 C 
ATOM      4  O   UNL A   1      30.965  27.486  26.576  1.00  0.00    -0.251 OA
BRANCH   3   5
ATOM      5  C   UNL A   1      30.317  26.169  24.649  1.00  0.00     0.111 C 
ATOM      6  C   UNL A   1      29.778  25.102  25.605  1.00  0.00     0.029 C 
ATOM      7  C   UNL A   1      31.316  25.513  23.668  1.00  0.00     0.029 C 
BRANCH   5   8
ATOM      8  C   UNL A   1      29.122  26.783  23.806  1.00  0.00     0.280 C 
BRANCH   8   9
ATOM      9  N   UNL A   1      29.066  28.174  23.291  1.00  0.00    -0.333 N 
ATOM     10  C   UNL A   1      27.835  31.177  23.731  1.00  0.00     0.020 C 
ATOM     11  C   UNL A   1      27.607  30.178  22.602  1.00  0.00     0.099 C 
ATOM     12  C   UNL A   1      27.728  28.742  23.123  1.00  0.00     0.271 C 
ATOM     13  C   UNL A   1      28.523  30.342  21.394  1.00  0.00     0.194 C 
ATOM     14  C   UNL A   1      29.948  29.940  21.769  1.00  0.00     0.126 C 
ATOM     15  C   UNL A   1      29.994  28.471  22.211  1.00  0.00     0.268 C 
ATOM     16  H   UNL A   1      29.434  28.705  24.080  1.00  0.00     0.348 HD
BRANCH  13  17
ATOM     17  N   UNL A   1      28.478  31.696  20.842  1.00  0.00    -0.355 N 
ATOM     18  H   UNL A   1      27.904  31.700  19.997  1.00  0.00     0.344 HD
ATOM     19  H   UNL A   1      29.424  32.001  20.611  1.00  0.00     0.344 HD
ATOM     20  H   UNL A   1      28.074  32.331  21.529  1.00  0.00     0.344 HD
ENDBRANCH  13  17
ENDBRANCH   8   9
ENDBRANCH   5   8
ENDBRANCH   3   5
ENDBRANCH   2   3
ENDBRANCH   1   2
BRANCH   1  21
ATOM     21  C   UNL A   1      33.079  30.037  25.651  1.00  0.00     0.275 C 
BRANCH  21  22
ATOM     22  O   UNL A   1      32.734  30.572  26.958  1.00  0.00    -0.458 OA
BRANCH  22  23
ATOM     23  C   UNL A   1      33.377  31.713  27.333  1.00  0.00     0.338 C 
ATOM     24  O   UNL A   1      32.882  32.831  27.357  1.00  0.00    -0.246 OA
BRANCH  23  25
ATOM     25  C   UNL A   1      34.714  31.438  27.933  1.00  0.00     0.060 A 
ATOM     26  C   UNL A   1      34.887  30.191  28.543  1.00  0.00     0.016 A 
ATOM     27  C   UNL A   1      35.756  32.362  28.000  1.00  0.00     0.016 A 
ATOM     28  C   UNL A   1      36.097  29.813  29.130  1.00  0.00     0.010 A 
ATOM     29  C   UNL A   1      36.961  32.010  28.653  1.00  0.00     0.010 A 
ATOM     30  C   UNL A   1      37.148  30.728  29.209  1.00  0.00    -0.014 A 
BRANCH  30  31
ATOM     31  C   UNL A   1      38.409  30.339  29.905  1.00  0.00     0.031 A 
ATOM     32  C   UNL A   1      39.389  29.428  29.237  1.00  0.00     0.074 A 
ATOM     33  C   UNL A   1      38.708  30.827  31.124  1.00  0.00     0.049 A 
ATOM     34  N   UNL A   1      40.483  28.905  29.724  1.00  0.00    -0.248 NA
ATOM     35  C   UNL A   1      39.098  29.050  27.848  1.00  0.00     0.031 C 
ATOM     36  C   UNL A   1      37.859  31.752  31.852  1.00  0.00     0.029 A 
ATOM     37  N   UNL A   1      39.777  30.628  31.967  1.00  0.00    -0.354 N 
ATOM     38  C   UNL A   1      40.979  28.077  28.729  1.00  0.00     0.074 A 
ATOM     39  C   UNL A   1      40.087  28.204  27.594  1.00  0.00     0.031 C 
ATOM     40  C   UNL A   1      38.436  32.068  33.021  1.00  0.00     0.029 A 
ATOM     41  C   UNL A   1      39.660  31.290  33.172  1.00  0.00     0.049 A 
ATOM     42  H   UNL A   1      40.551  30.066  31.733  1.00  0.00     0.167 HD
ATOM     43  C   UNL A   1      42.059  27.264  28.775  1.00  0.00     0.034 A 
ATOM     44  C   UNL A   1      40.412  31.235  34.291  1.00  0.00     0.034 A 
ATOM     45  C   UNL A   1      42.944  27.145  29.906  1.00  0.00     0.049 A 
ATOM     46  C   UNL A   1      41.589  30.296  34.323  1.00  0.00     0.074 A 
ATOM     47  C   UNL A   1      44.066  26.345  30.034  1.00  0.00     0.029 A 
ATOM     48  N   UNL A   1      42.800  27.822  31.107  1.00  0.00    -0.354 N 
ATOM     49  N   UNL A   1      42.068  29.546  33.360  1.00  0.00    -0.248 NA
ATOM     50  C   UNL A   1      42.322  30.182  35.592  1.00  0.00     0.031 C 
ATOM     51  C   UNL A   1      44.575  26.506  31.326  1.00  0.00     0.029 A 
ATOM     52  C   UNL A   1      43.799  27.442  31.989  1.00  0.00     0.049 A 
ATOM     53  H   UNL A   1      42.091  28.477  31.304  1.00  0.00     0.167 HD
ATOM     54  C   UNL A   1      43.157  28.875  33.905  1.00  0.00     0.074 A 
ATOM     55  C   UNL A   1      43.295  29.342  35.269  1.00  0.00     0.031 C 
ATOM     56  C   UNL A   1      43.952  27.938  33.334  1.00  0.00     0.034 A 
BRANCH  43  57
ATOM     57  C   UNL A   1      42.315  26.393  27.577  1.00  0.00     0.023 A 
ATOM     58  C   UNL A   1      43.003  26.904  26.458  1.00  0.00     0.012 A 
ATOM     59  C   UNL A   1      41.899  25.047  27.583  1.00  0.00     0.148 A 
ATOM     60  C   UNL A   1      43.242  26.094  25.348  1.00  0.00     0.002 A 
ATOM     61  C   UNL A   1      42.182  24.236  26.493  1.00  0.00     0.091 A 
ATOM     62  F   UNL A   1      41.226  24.592  28.649  1.00  0.00    -0.205 F 
ATOM     63  C   UNL A   1      42.841  24.759  25.370  1.00  0.00     0.022 A 
BRANCH  61  64
ATOM     64  S   UNL A   1      41.772  22.488  26.457  1.00  0.00     0.127 S 
ATOM     65  O   UNL A   1      42.453  22.000  27.656  1.00  0.00    -0.237 OA
ATOM     66  O   UNL A   1      40.313  22.515  26.553  1.00  0.00    -0.237 OA
ATOM     67  O   UNL A   1      42.292  21.975  25.197  1.00  0.00    -0.744 OA
ENDBRANCH  61  64
ENDBRANCH  43  57
BRANCH  44  68
ATOM     68  C   UNL A   1      40.053  32.043  35.499  1.00  0.00     0.023 A 
ATOM     69  C   UNL A   1      40.744  33.240  35.775  1.00  0.00     0.012 A 
ATOM     70  C   UNL A   1      39.043  31.623  36.390  1.00  0.00     0.148 A 
ATOM     71  C   UNL A   1      40.457  33.983  36.923  1.00  0.00     0.002 A 
ATOM     72  C   UNL A   1      38.715  32.404  37.492  1.00  0.00     0.091 A 
ATOM     73  F   UNL A   1      38.419  30.464  36.141  1.00  0.00    -0.205 F 
ATOM     74  C   UNL A   1      39.435  33.574  37.774  1.00  0.00     0.022 A 
BRANCH  72  75
ATOM     75  S   UNL A   1      37.320  32.019  38.558  1.00  0.00     0.127 S 
ATOM     76  O   UNL A   1      37.826  32.416  39.869  1.00  0.00    -0.237 OA
ATOM     77  O   UNL A   1      36.273  32.886  38.015  1.00  0.00    -0.237 OA
ATOM     78  O   UNL A   1      37.068  30.595  38.380  1.00  0.00    -0.744 OA
ENDBRANCH  72  75
ENDBRANCH  44  68
BRANCH  56  79
ATOM     79  C   UNL A   1      45.064  27.364  34.173  1.00  0.00     0.023 A 
ATOM     80  C   UNL A   1      46.329  27.985  34.187  1.00  0.00     0.012 A 
ATOM     81  C   UNL A   1      44.834  26.248  35.003  1.00  0.00     0.148 A 
ATOM     82  C   UNL A   1      47.356  27.486  34.988  1.00  0.00     0.002 A 
ATOM     83  C   UNL A   1      45.845  25.789  35.837  1.00  0.00     0.091 A 
ATOM     84  F   UNL A   1      43.629  25.660  34.962  1.00  0.00    -0.205 F 
ATOM     85  C   UNL A   1      47.111  26.398  35.821  1.00  0.00     0.022 A 
BRANCH  83  86
ATOM     86  S   UNL A   1      45.597  24.455  37.014  1.00  0.00     0.127 S 
ATOM     87  O   UNL A   1      46.916  24.356  37.637  1.00  0.00    -0.237 OA
ATOM     88  O   UNL A   1      44.551  24.999  37.881  1.00  0.00    -0.237 OA
ATOM     89  O   UNL A   1      45.193  23.294  36.230  1.00  0.00    -0.744 OA
ENDBRANCH  83  86
ENDBRANCH  56  79
ENDBRANCH  30  31
ENDBRANCH  23  25
ENDBRANCH  22  23
ENDBRANCH  21  22
ENDBRANCH   1  21
TORSDOF 17
ENDMDL
