MODEL 1
REMARK VINA RESULT:     -11.7      0.000      0.000
REMARK SMILES O=C(COc1ccc(/C=C/C(=O)c2ccc(F)cc2F)cc1[N+](=O)[O-])OCCOC(=O)c1ccc(-c2c3nc(c(-c4cccc(S(=O)(=O)[O-])c4F)c4ccc([nH]4)c(-c4cccc(S(=O)(=O)[O-])c4F)c4nc(c(-c5cccc(S(=O)(=O)[O-])c5F)c5ccc2[nH]5)C=C4)C=C3)cc1
REMARK SMILES IDX 27 1 26 2 2 3 1 4 3 5 4 6 5 7 6 8 22 9 7 10 21 11 8 12 23 13
REMARK SMILES IDX 24 14 25 15 9 16 10 17 11 18 12 19 13 20 14 21 19 22 15 23
REMARK SMILES IDX 18 24 20 25 16 26 17 27 28 28 29 29 30 30 31 31 32 32 33 33
REMARK SMILES IDX 94 34 34 35 93 36 35 37 36 38 37 39 87 40 38 41 92 42 86 43
REMARK SMILES IDX 88 44 39 45 91 46 85 47 84 48 40 50 72 51 52 52 71 53 53 54
REMARK SMILES IDX 56 55 70 56 89 57 54 58 55 59 69 61 90 62 57 63 41 64 42 65
REMARK SMILES IDX 50 66 43 67 45 68 51 69 44 70 46 71 47 72 48 73 49 74 73 75
REMARK SMILES IDX 74 76 82 77 75 78 77 79 83 80 76 81 78 82 79 83 80 84 81 85
REMARK SMILES IDX 58 86 59 87 67 88 60 89 62 90 68 91 61 92 63 93 64 94 65 95
REMARK SMILES IDX 66 96
REMARK H PARENT 88 49 56 60
REMARK Flexibility Score: inf
ROOT
ATOM      1  C   UNL A   1      37.320  20.266  24.595  1.00  0.00     0.274 C 
ENDROOT
BRANCH   1   2
ATOM      2  O   UNL A   1      36.812  21.304  25.459  1.00  0.00    -0.460 OA
BRANCH   2   3
ATOM      3  C   UNL A   1      35.500  21.481  25.737  1.00  0.00     0.344 C 
ATOM      4  O   UNL A   1      35.096  21.452  26.899  1.00  0.00    -0.248 OA
BRANCH   3   5
ATOM      5  C   UNL A   1      34.541  21.777  24.595  1.00  0.00     0.352 C 
BRANCH   5   6
ATOM      6  O   UNL A   1      33.226  22.069  25.066  1.00  0.00    -0.475 OA
BRANCH   6   7
ATOM      7  C   UNL A   1      33.011  23.419  25.091  1.00  0.00     0.197 A 
ATOM      8  C   UNL A   1      33.648  24.183  24.107  1.00  0.00     0.054 A 
ATOM      9  C   UNL A   1      32.226  24.056  26.055  1.00  0.00     0.311 A 
ATOM     10  C   UNL A   1      33.472  25.570  24.066  1.00  0.00     0.012 A 
ATOM     11  C   UNL A   1      32.026  25.439  26.000  1.00  0.00     0.098 A 
ATOM     12  C   UNL A   1      32.662  26.203  25.014  1.00  0.00    -0.018 A 
BRANCH   9  13
ATOM     13  N   UNL A   1      31.640  23.333  27.177  1.00  0.00     0.066 N 
ATOM     14  O   UNL A   1      30.404  23.352  27.284  1.00  0.00    -0.258 OA
ATOM     15  O   UNL A   1      32.409  22.800  27.990  1.00  0.00    -0.258 OA
ENDBRANCH   9  13
BRANCH  12  16
ATOM     16  C   UNL A   1      32.454  27.649  25.062  1.00  0.00     0.012 C 
ATOM     17  C   UNL A   1      31.240  28.218  25.035  1.00  0.00     0.053 C 
BRANCH  17  18
ATOM     18  C   UNL A   1      31.073  29.679  24.824  1.00  0.00     0.188 C 
ATOM     19  O   UNL A   1      31.660  30.492  25.527  1.00  0.00    -0.289 OA
BRANCH  18  20
ATOM     20  C   UNL A   1      30.156  30.155  23.766  1.00  0.00     0.058 A 
ATOM     21  C   UNL A   1      29.265  31.193  24.062  1.00  0.00     0.018 A 
ATOM     22  C   UNL A   1      30.151  29.578  22.491  1.00  0.00     0.137 A 
ATOM     23  C   UNL A   1      28.410  31.671  23.066  1.00  0.00     0.040 A 
ATOM     24  C   UNL A   1      29.303  30.054  21.498  1.00  0.00     0.079 A 
ATOM     25  F   UNL A   1      30.957  28.549  22.194  1.00  0.00    -0.206 F 
ATOM     26  C   UNL A   1      28.442  31.101  21.794  1.00  0.00     0.126 A 
ATOM     27  F   UNL A   1      27.623  31.568  20.843  1.00  0.00    -0.207 F 
ENDBRANCH  18  20
ENDBRANCH  17  18
ENDBRANCH  12  16
ENDBRANCH   6   7
ENDBRANCH   5   6
ENDBRANCH   3   5
ENDBRANCH   2   3
ENDBRANCH   1   2
BRANCH   1  28
ATOM     28  C   UNL A   1      38.549  19.606  25.222  1.00  0.00     0.275 C 
BRANCH  28  29
ATOM     29  O   UNL A   1      39.004  20.383  26.345  1.00  0.00    -0.458 OA
BRANCH  29  30
ATOM     30  C   UNL A   1      40.349  20.415  26.530  1.00  0.00     0.338 C 
ATOM     31  O   UNL A   1      41.150  19.548  26.226  1.00  0.00    -0.246 OA
BRANCH  30  32
ATOM     32  C   UNL A   1      40.730  21.770  26.980  1.00  0.00     0.060 A 
ATOM     33  C   UNL A   1      40.286  22.869  26.231  1.00  0.00     0.016 A 
ATOM     34  C   UNL A   1      41.502  21.963  28.129  1.00  0.00     0.016 A 
ATOM     35  C   UNL A   1      40.642  24.164  26.614  1.00  0.00     0.010 A 
ATOM     36  C   UNL A   1      41.867  23.258  28.503  1.00  0.00     0.010 A 
ATOM     37  C   UNL A   1      41.463  24.362  27.732  1.00  0.00    -0.014 A 
BRANCH  37  38
ATOM     38  C   UNL A   1      42.049  25.696  28.003  1.00  0.00     0.031 A 
ATOM     39  C   UNL A   1      41.171  26.752  28.616  1.00  0.00     0.074 A 
ATOM     40  C   UNL A   1      43.320  25.981  27.670  1.00  0.00     0.049 A 
ATOM     41  N   UNL A   1      41.453  27.994  28.907  1.00  0.00    -0.248 NA
ATOM     42  C   UNL A   1      39.790  26.353  28.936  1.00  0.00     0.031 C 
ATOM     43  C   UNL A   1      44.265  25.050  27.058  1.00  0.00     0.029 A 
ATOM     44  N   UNL A   1      44.021  27.157  27.773  1.00  0.00    -0.354 N 
ATOM     45  C   UNL A   1      40.284  28.531  29.431  1.00  0.00     0.074 A 
ATOM     46  C   UNL A   1      39.284  27.486  29.401  1.00  0.00     0.031 C 
ATOM     47  C   UNL A   1      45.415  25.702  26.808  1.00  0.00     0.029 A 
ATOM     48  C   UNL A   1      45.282  27.096  27.229  1.00  0.00     0.049 A 
ATOM     49  H   UNL A   1      43.656  27.967  28.198  1.00  0.00     0.167 HD
ATOM     50  C   UNL A   1      40.064  29.776  29.913  1.00  0.00     0.034 A 
ATOM     51  C   UNL A   1      46.212  28.060  27.074  1.00  0.00     0.034 A 
ATOM     52  C   UNL A   1      41.054  30.816  29.950  1.00  0.00     0.049 A 
ATOM     53  C   UNL A   1      45.931  29.450  27.590  1.00  0.00     0.074 A 
ATOM     54  C   UNL A   1      40.940  32.095  30.464  1.00  0.00     0.029 A 
ATOM     55  N   UNL A   1      42.336  30.704  29.436  1.00  0.00    -0.354 N 
ATOM     56  N   UNL A   1      44.874  29.900  28.221  1.00  0.00    -0.248 NA
ATOM     57  C   UNL A   1      46.987  30.457  27.399  1.00  0.00     0.031 C 
ATOM     58  C   UNL A   1      42.149  32.764  30.243  1.00  0.00     0.029 A 
ATOM     59  C   UNL A   1      43.020  31.894  29.607  1.00  0.00     0.049 A 
ATOM     60  H   UNL A   1      42.706  29.895  29.012  1.00  0.00     0.167 HD
ATOM     61  C   UNL A   1      45.152  31.227  28.536  1.00  0.00     0.074 A 
ATOM     62  C   UNL A   1      46.485  31.503  28.041  1.00  0.00     0.031 C 
ATOM     63  C   UNL A   1      44.369  32.139  29.163  1.00  0.00     0.034 A 
BRANCH  50  64
ATOM     64  C   UNL A   1      38.700  30.067  30.474  1.00  0.00     0.023 A 
ATOM     65  C   UNL A   1      38.364  29.584  31.755  1.00  0.00     0.012 A 
ATOM     66  C   UNL A   1      37.768  30.842  29.758  1.00  0.00     0.148 A 
ATOM     67  C   UNL A   1      37.109  29.844  32.304  1.00  0.00     0.002 A 
ATOM     68  C   UNL A   1      36.534  31.128  30.327  1.00  0.00     0.091 A 
ATOM     69  F   UNL A   1      38.098  31.265  28.529  1.00  0.00    -0.205 F 
ATOM     70  C   UNL A   1      36.199  30.623  31.595  1.00  0.00     0.022 A 
BRANCH  68  71
ATOM     71  S   UNL A   1      35.321  32.175  29.516  1.00  0.00     0.127 S 
ATOM     72  O   UNL A   1      34.404  32.471  30.617  1.00  0.00    -0.237 OA
ATOM     73  O   UNL A   1      36.133  33.311  29.079  1.00  0.00    -0.237 OA
ATOM     74  O   UNL A   1      34.765  31.377  28.434  1.00  0.00    -0.744 OA
ENDBRANCH  68  71
ENDBRANCH  50  64
BRANCH  51  75
ATOM     75  C   UNL A   1      47.520  27.738  26.437  1.00  0.00     0.023 A 
ATOM     76  C   UNL A   1      48.634  27.456  27.250  1.00  0.00     0.012 A 
ATOM     77  C   UNL A   1      47.664  27.704  25.037  1.00  0.00     0.148 A 
ATOM     78  C   UNL A   1      49.877  27.175  26.680  1.00  0.00     0.002 A 
ATOM     79  C   UNL A   1      48.890  27.370  24.475  1.00  0.00     0.091 A 
ATOM     80  F   UNL A   1      46.596  27.995  24.281  1.00  0.00    -0.205 F 
ATOM     81  C   UNL A   1      50.003  27.122  25.294  1.00  0.00     0.022 A 
BRANCH  79  82
ATOM     82  S   UNL A   1      49.110  27.154  22.706  1.00  0.00     0.127 S 
ATOM     83  O   UNL A   1      48.350  25.932  22.456  1.00  0.00    -0.237 OA
ATOM     84  O   UNL A   1      48.507  28.377  22.175  1.00  0.00    -0.237 OA
ATOM     85  O   UNL A   1      50.549  27.060  22.498  1.00  0.00    -0.744 OA
ENDBRANCH  79  82
ENDBRANCH  51  75
BRANCH  63  86
ATOM     86  C   UNL A   1      44.930  33.520  29.383  1.00  0.00     0.023 A 
ATOM     87  C   UNL A   1      45.556  33.831  30.607  1.00  0.00     0.012 A 
ATOM     88  C   UNL A   1      44.923  34.478  28.349  1.00  0.00     0.148 A 
ATOM     89  C   UNL A   1      46.141  35.080  30.807  1.00  0.00     0.002 A 
ATOM     90  C   UNL A   1      45.548  35.705  28.540  1.00  0.00     0.091 A 
ATOM     91  F   UNL A   1      44.306  34.171  27.198  1.00  0.00    -0.205 F 
ATOM     92  C   UNL A   1      46.150  36.012  29.771  1.00  0.00     0.022 A 
BRANCH  90  93
ATOM     93  S   UNL A   1      45.688  36.925  27.228  1.00  0.00     0.127 S 
ATOM     94  O   UNL A   1      46.711  37.821  27.762  1.00  0.00    -0.237 OA
ATOM     95  O   UNL A   1      46.121  36.113  26.090  1.00  0.00    -0.237 OA
ATOM     96  O   UNL A   1      44.359  37.504  27.080  1.00  0.00    -0.744 OA
ENDBRANCH  90  93
ENDBRANCH  63  86
ENDBRANCH  37  38
ENDBRANCH  30  32
ENDBRANCH  29  30
ENDBRANCH  28  29
ENDBRANCH   1  28
TORSDOF 20
ENDMDL
MODEL 2
REMARK VINA RESULT:     -11.5      1.507      7.503
REMARK SMILES O=C(COc1ccc(/C=C/C(=O)c2ccc(F)cc2F)cc1[N+](=O)[O-])OCCOC(=O)c1ccc(-c2c3nc(c(-c4cccc(S(=O)(=O)[O-])c4F)c4ccc([nH]4)c(-c4cccc(S(=O)(=O)[O-])c4F)c4nc(c(-c5cccc(S(=O)(=O)[O-])c5F)c5ccc2[nH]5)C=C4)C=C3)cc1
REMARK SMILES IDX 27 1 26 2 2 3 1 4 3 5 4 6 5 7 6 8 22 9 7 10 21 11 8 12 23 13
REMARK SMILES IDX 24 14 25 15 9 16 10 17 11 18 12 19 13 20 14 21 19 22 15 23
REMARK SMILES IDX 18 24 20 25 16 26 17 27 28 28 29 29 30 30 31 31 32 32 33 33
REMARK SMILES IDX 94 34 34 35 93 36 35 37 36 38 37 39 87 40 38 41 92 42 86 43
REMARK SMILES IDX 88 44 39 45 91 46 85 47 84 48 40 50 72 51 52 52 71 53 53 54
REMARK SMILES IDX 56 55 70 56 89 57 54 58 55 59 69 61 90 62 57 63 41 64 42 65
REMARK SMILES IDX 50 66 43 67 45 68 51 69 44 70 46 71 47 72 48 73 49 74 73 75
REMARK SMILES IDX 74 76 82 77 75 78 77 79 83 80 76 81 78 82 79 83 80 84 81 85
REMARK SMILES IDX 58 86 59 87 67 88 60 89 62 90 68 91 61 92 63 93 64 94 65 95
REMARK SMILES IDX 66 96
REMARK H PARENT 88 49 56 60
REMARK Flexibility Score: inf
ROOT
ATOM      1  C   UNL A   1      36.371  20.884  24.598  1.00  0.00     0.274 C 
ENDROOT
BRANCH   1   2
ATOM      2  O   UNL A   1      35.120  20.523  25.220  1.00  0.00    -0.460 OA
BRANCH   2   3
ATOM      3  C   UNL A   1      34.172  19.763  24.624  1.00  0.00     0.344 C 
ATOM      4  O   UNL A   1      34.314  18.544  24.530  1.00  0.00    -0.248 OA
BRANCH   3   5
ATOM      5  C   UNL A   1      32.900  20.430  24.127  1.00  0.00     0.352 C 
BRANCH   5   6
ATOM      6  O   UNL A   1      32.165  21.036  25.190  1.00  0.00    -0.475 OA
BRANCH   6   7
ATOM      7  C   UNL A   1      32.253  22.399  25.121  1.00  0.00     0.197 A 
ATOM      8  C   UNL A   1      31.903  22.998  23.906  1.00  0.00     0.054 A 
ATOM      9  C   UNL A   1      32.696  23.197  26.178  1.00  0.00     0.311 A 
ATOM     10  C   UNL A   1      31.961  24.389  23.762  1.00  0.00     0.012 A 
ATOM     11  C   UNL A   1      32.730  24.589  26.046  1.00  0.00     0.098 A 
ATOM     12  C   UNL A   1      32.377  25.188  24.831  1.00  0.00    -0.018 A 
BRANCH   9  13
ATOM     13  N   UNL A   1      33.193  22.625  27.424  1.00  0.00     0.066 N 
ATOM     14  O   UNL A   1      32.433  22.647  28.404  1.00  0.00    -0.258 OA
ATOM     15  O   UNL A   1      34.361  22.212  27.448  1.00  0.00    -0.258 OA
ENDBRANCH   9  13
BRANCH  12  16
ATOM     16  C   UNL A   1      32.500  26.643  24.752  1.00  0.00     0.012 C 
ATOM     17  C   UNL A   1      31.478  27.480  24.980  1.00  0.00     0.053 C 
BRANCH  17  18
ATOM     18  C   UNL A   1      31.567  28.923  24.641  1.00  0.00     0.188 C 
ATOM     19  O   UNL A   1      32.470  29.623  25.082  1.00  0.00    -0.289 OA
BRANCH  18  20
ATOM     20  C   UNL A   1      30.526  29.528  23.782  1.00  0.00     0.058 A 
ATOM     21  C   UNL A   1      29.845  30.661  24.241  1.00  0.00     0.018 A 
ATOM     22  C   UNL A   1      30.200  28.980  22.536  1.00  0.00     0.137 A 
ATOM     23  C   UNL A   1      28.878  31.259  23.431  1.00  0.00     0.040 A 
ATOM     24  C   UNL A   1      29.240  29.576  21.726  1.00  0.00     0.079 A 
ATOM     25  F   UNL A   1      30.800  27.867  22.091  1.00  0.00    -0.206 F 
ATOM     26  C   UNL A   1      28.590  30.714  22.180  1.00  0.00     0.126 A 
ATOM     27  F   UNL A   1      27.664  31.295  21.406  1.00  0.00    -0.207 F 
ENDBRANCH  18  20
ENDBRANCH  17  18
ENDBRANCH  12  16
ENDBRANCH   6   7
ENDBRANCH   5   6
ENDBRANCH   3   5
ENDBRANCH   2   3
ENDBRANCH   1   2
BRANCH   1  28
ATOM     28  C   UNL A   1      37.538  20.204  25.317  1.00  0.00     0.275 C 
BRANCH  28  29
ATOM     29  O   UNL A   1      38.696  21.057  25.286  1.00  0.00    -0.458 OA
BRANCH  29  30
ATOM     30  C   UNL A   1      39.572  20.894  26.311  1.00  0.00     0.338 C 
ATOM     31  O   UNL A   1      40.091  19.853  26.670  1.00  0.00    -0.246 OA
BRANCH  30  32
ATOM     32  C   UNL A   1      39.967  22.229  26.807  1.00  0.00     0.060 A 
ATOM     33  C   UNL A   1      39.258  23.347  26.347  1.00  0.00     0.016 A 
ATOM     34  C   UNL A   1      41.012  22.383  27.723  1.00  0.00     0.016 A 
ATOM     35  C   UNL A   1      39.615  24.627  26.779  1.00  0.00     0.010 A 
ATOM     36  C   UNL A   1      41.375  23.664  28.144  1.00  0.00     0.010 A 
ATOM     37  C   UNL A   1      40.697  24.793  27.652  1.00  0.00    -0.014 A 
BRANCH  37  38
ATOM     38  C   UNL A   1      41.242  26.145  27.921  1.00  0.00     0.031 A 
ATOM     39  C   UNL A   1      42.649  26.449  27.486  1.00  0.00     0.074 A 
ATOM     40  C   UNL A   1      40.522  27.070  28.579  1.00  0.00     0.049 A 
ATOM     41  N   UNL A   1      43.345  27.543  27.647  1.00  0.00    -0.248 NA
ATOM     42  C   UNL A   1      43.366  25.372  26.783  1.00  0.00     0.031 C 
ATOM     43  C   UNL A   1      39.155  26.892  29.066  1.00  0.00     0.029 A 
ATOM     44  N   UNL A   1      40.862  28.338  28.982  1.00  0.00    -0.354 N 
ATOM     45  C   UNL A   1      44.586  27.284  27.078  1.00  0.00     0.074 A 
ATOM     46  C   UNL A   1      44.554  25.924  26.586  1.00  0.00     0.031 C 
ATOM     47  C   UNL A   1      38.784  28.000  29.731  1.00  0.00     0.029 A 
ATOM     48  C   UNL A   1      39.890  28.958  29.730  1.00  0.00     0.049 A 
ATOM     49  H   UNL A   1      41.720  28.763  28.754  1.00  0.00     0.167 HD
ATOM     50  C   UNL A   1      45.652  28.109  26.958  1.00  0.00     0.034 A 
ATOM     51  C   UNL A   1      39.901  30.152  30.356  1.00  0.00     0.034 A 
ATOM     52  C   UNL A   1      45.688  29.461  27.440  1.00  0.00     0.049 A 
ATOM     53  C   UNL A   1      41.115  31.040  30.235  1.00  0.00     0.074 A 
ATOM     54  C   UNL A   1      46.706  30.390  27.321  1.00  0.00     0.029 A 
ATOM     55  N   UNL A   1      44.667  30.073  28.149  1.00  0.00    -0.354 N 
ATOM     56  N   UNL A   1      42.223  30.840  29.564  1.00  0.00    -0.248 NA
ATOM     57  C   UNL A   1      41.065  32.335  30.933  1.00  0.00     0.031 C 
ATOM     58  C   UNL A   1      46.307  31.560  27.978  1.00  0.00     0.029 A 
ATOM     59  C   UNL A   1      45.035  31.363  28.489  1.00  0.00     0.049 A 
ATOM     60  H   UNL A   1      43.807  29.652  28.378  1.00  0.00     0.167 HD
ATOM     61  C   UNL A   1      42.984  31.994  29.726  1.00  0.00     0.074 A 
ATOM     62  C   UNL A   1      42.202  32.897  30.546  1.00  0.00     0.031 C 
ATOM     63  C   UNL A   1      44.224  32.275  29.255  1.00  0.00     0.034 A 
BRANCH  50  64
ATOM     64  C   UNL A   1      46.860  27.573  26.241  1.00  0.00     0.023 A 
ATOM     65  C   UNL A   1      47.000  27.803  24.857  1.00  0.00     0.012 A 
ATOM     66  C   UNL A   1      47.869  26.877  26.934  1.00  0.00     0.148 A 
ATOM     67  C   UNL A   1      48.112  27.323  24.167  1.00  0.00     0.002 A 
ATOM     68  C   UNL A   1      48.992  26.435  26.247  1.00  0.00     0.091 A 
ATOM     69  F   UNL A   1      47.700  26.643  28.243  1.00  0.00    -0.205 F 
ATOM     70  C   UNL A   1      49.112  26.649  24.863  1.00  0.00     0.022 A 
BRANCH  68  71
ATOM     71  S   UNL A   1      50.361  25.612  27.069  1.00  0.00     0.127 S 
ATOM     72  O   UNL A   1      51.298  25.420  25.962  1.00  0.00    -0.237 OA
ATOM     73  O   UNL A   1      50.777  26.611  28.053  1.00  0.00    -0.237 OA
ATOM     74  O   UNL A   1      49.808  24.394  27.641  1.00  0.00    -0.744 OA
ENDBRANCH  68  71
ENDBRANCH  50  64
BRANCH  51  75
ATOM     75  C   UNL A   1      38.706  30.603  31.123  1.00  0.00     0.023 A 
ATOM     76  C   UNL A   1      38.643  30.364  32.508  1.00  0.00     0.012 A 
ATOM     77  C   UNL A   1      37.639  31.271  30.491  1.00  0.00     0.148 A 
ATOM     78  C   UNL A   1      37.525  30.755  33.247  1.00  0.00     0.002 A 
ATOM     79  C   UNL A   1      36.553  31.705  31.241  1.00  0.00     0.091 A 
ATOM     80  F   UNL A   1      37.709  31.471  29.167  1.00  0.00    -0.205 F 
ATOM     81  C   UNL A   1      36.485  31.433  32.617  1.00  0.00     0.022 A 
BRANCH  79  82
ATOM     82  S   UNL A   1      35.232  32.696  30.535  1.00  0.00     0.127 S 
ATOM     83  O   UNL A   1      34.297  32.791  31.653  1.00  0.00    -0.237 OA
ATOM     84  O   UNL A   1      35.931  33.939  30.205  1.00  0.00    -0.237 OA
ATOM     85  O   UNL A   1      34.762  31.952  29.374  1.00  0.00    -0.744 OA
ENDBRANCH  79  82
ENDBRANCH  51  75
BRANCH  63  86
ATOM     86  C   UNL A   1      44.815  33.622  29.580  1.00  0.00     0.023 A 
ATOM     87  C   UNL A   1      45.644  33.765  30.711  1.00  0.00     0.012 A 
ATOM     88  C   UNL A   1      44.627  34.721  28.719  1.00  0.00     0.148 A 
ATOM     89  C   UNL A   1      46.255  34.986  30.994  1.00  0.00     0.002 A 
ATOM     90  C   UNL A   1      45.276  35.923  28.982  1.00  0.00     0.091 A 
ATOM     91  F   UNL A   1      43.820  34.573  27.658  1.00  0.00    -0.205 F 
ATOM     92  C   UNL A   1      46.082  36.060  30.123  1.00  0.00     0.022 A 
BRANCH  90  93
ATOM     93  S   UNL A   1      45.185  37.327  27.864  1.00  0.00     0.127 S 
ATOM     94  O   UNL A   1      43.774  37.694  27.960  1.00  0.00    -0.237 OA
ATOM     95  O   UNL A   1      46.108  38.280  28.482  1.00  0.00    -0.237 OA
ATOM     96  O   UNL A   1      45.618  36.829  26.564  1.00  0.00    -0.744 OA
ENDBRANCH  90  93
ENDBRANCH  63  86
ENDBRANCH  37  38
ENDBRANCH  30  32
ENDBRANCH  29  30
ENDBRANCH  28  29
ENDBRANCH   1  28
TORSDOF 20
ENDMDL
MODEL 3
REMARK VINA RESULT:     -11.3      4.924     11.235
REMARK SMILES O=C(COc1ccc(/C=C/C(=O)c2ccc(F)cc2F)cc1[N+](=O)[O-])OCCOC(=O)c1ccc(-c2c3nc(c(-c4cccc(S(=O)(=O)[O-])c4F)c4ccc([nH]4)c(-c4cccc(S(=O)(=O)[O-])c4F)c4nc(c(-c5cccc(S(=O)(=O)[O-])c5F)c5ccc2[nH]5)C=C4)C=C3)cc1
REMARK SMILES IDX 27 1 26 2 2 3 1 4 3 5 4 6 5 7 6 8 22 9 7 10 21 11 8 12 23 13
REMARK SMILES IDX 24 14 25 15 9 16 10 17 11 18 12 19 13 20 14 21 19 22 15 23
REMARK SMILES IDX 18 24 20 25 16 26 17 27 28 28 29 29 30 30 31 31 32 32 33 33
REMARK SMILES IDX 94 34 34 35 93 36 35 37 36 38 37 39 87 40 38 41 92 42 86 43
REMARK SMILES IDX 88 44 39 45 91 46 85 47 84 48 40 50 72 51 52 52 71 53 53 54
REMARK SMILES IDX 56 55 70 56 89 57 54 58 55 59 69 61 90 62 57 63 41 64 42 65
REMARK SMILES IDX 50 66 43 67 45 68 51 69 44 70 46 71 47 72 48 73 49 74 73 75
REMARK SMILES IDX 74 76 82 77 75 78 77 79 83 80 76 81 78 82 79 83 80 84 81 85
REMARK SMILES IDX 58 86 59 87 67 88 60 89 62 90 68 91 61 92 63 93 64 94 65 95
REMARK SMILES IDX 66 96
REMARK H PARENT 88 49 56 60
REMARK Flexibility Score: inf
ROOT
ATOM      1  C   UNL A   1      42.177  21.847  25.828  1.00  0.00     0.274 C 
ENDROOT
BRANCH   1   2
ATOM      2  O   UNL A   1      43.125  21.035  25.104  1.00  0.00    -0.460 OA
BRANCH   2   3
ATOM      3  C   UNL A   1      44.463  21.229  25.133  1.00  0.00     0.344 C 
ATOM      4  O   UNL A   1      45.235  20.328  24.802  1.00  0.00    -0.248 OA
BRANCH   3   5
ATOM      5  C   UNL A   1      44.999  22.598  25.521  1.00  0.00     0.352 C 
BRANCH   5   6
ATOM      6  O   UNL A   1      45.999  22.511  26.535  1.00  0.00    -0.475 OA
BRANCH   6   7
ATOM      7  C   UNL A   1      45.699  23.339  27.581  1.00  0.00     0.197 A 
ATOM      8  C   UNL A   1      44.520  23.072  28.286  1.00  0.00     0.054 A 
ATOM      9  C   UNL A   1      46.485  24.435  27.946  1.00  0.00     0.311 A 
ATOM     10  C   UNL A   1      44.149  23.872  29.371  1.00  0.00     0.012 A 
ATOM     11  C   UNL A   1      46.131  25.220  29.048  1.00  0.00     0.098 A 
ATOM     12  C   UNL A   1      44.953  24.951  29.755  1.00  0.00    -0.018 A 
BRANCH   9  13
ATOM     13  N   UNL A   1      47.655  24.839  27.176  1.00  0.00     0.066 N 
ATOM     14  O   UNL A   1      47.458  25.504  26.148  1.00  0.00    -0.258 OA
ATOM     15  O   UNL A   1      48.766  24.441  27.555  1.00  0.00    -0.258 OA
ENDBRANCH   9  13
BRANCH  12  16
ATOM     16  C   UNL A   1      44.620  25.856  30.853  1.00  0.00     0.012 C 
ATOM     17  C   UNL A   1      45.051  25.676  32.111  1.00  0.00     0.053 C 
BRANCH  17  18
ATOM     18  C   UNL A   1      44.489  26.456  33.242  1.00  0.00     0.188 C 
ATOM     19  O   UNL A   1      44.018  25.897  34.225  1.00  0.00    -0.289 OA
BRANCH  18  20
ATOM     20  C   UNL A   1      44.469  27.932  33.161  1.00  0.00     0.058 A 
ATOM     21  C   UNL A   1      45.479  28.658  33.802  1.00  0.00     0.018 A 
ATOM     22  C   UNL A   1      43.456  28.611  32.473  1.00  0.00     0.137 A 
ATOM     23  C   UNL A   1      45.489  30.052  33.712  1.00  0.00     0.040 A 
ATOM     24  C   UNL A   1      43.466  29.998  32.380  1.00  0.00     0.079 A 
ATOM     25  F   UNL A   1      42.448  27.945  31.891  1.00  0.00    -0.206 F 
ATOM     26  C   UNL A   1      44.486  30.706  32.998  1.00  0.00     0.126 A 
ATOM     27  F   UNL A   1      44.504  32.043  32.912  1.00  0.00    -0.207 F 
ENDBRANCH  18  20
ENDBRANCH  17  18
ENDBRANCH  12  16
ENDBRANCH   6   7
ENDBRANCH   5   6
ENDBRANCH   3   5
ENDBRANCH   2   3
ENDBRANCH   1   2
BRANCH   1  28
ATOM     28  C   UNL A   1      41.334  20.977  26.762  1.00  0.00     0.275 C 
BRANCH  28  29
ATOM     29  O   UNL A   1      40.345  21.786  27.425  1.00  0.00    -0.458 OA
BRANCH  29  30
ATOM     30  C   UNL A   1      39.581  22.561  26.612  1.00  0.00     0.338 C 
ATOM     31  O   UNL A   1      38.772  22.177  25.786  1.00  0.00    -0.246 OA
BRANCH  30  32
ATOM     32  C   UNL A   1      39.731  23.970  27.030  1.00  0.00     0.060 A 
ATOM     33  C   UNL A   1      40.104  24.915  26.065  1.00  0.00     0.016 A 
ATOM     34  C   UNL A   1      39.496  24.364  28.350  1.00  0.00     0.016 A 
ATOM     35  C   UNL A   1      40.275  26.253  26.426  1.00  0.00     0.010 A 
ATOM     36  C   UNL A   1      39.679  25.701  28.713  1.00  0.00     0.010 A 
ATOM     37  C   UNL A   1      40.096  26.645  27.759  1.00  0.00    -0.014 A 
BRANCH  37  38
ATOM     38  C   UNL A   1      40.512  27.997  28.204  1.00  0.00     0.031 A 
ATOM     39  C   UNL A   1      41.981  28.317  28.241  1.00  0.00     0.074 A 
ATOM     40  C   UNL A   1      39.610  28.906  28.612  1.00  0.00     0.049 A 
ATOM     41  N   UNL A   1      42.577  29.413  28.628  1.00  0.00    -0.248 NA
ATOM     42  C   UNL A   1      42.896  27.256  27.789  1.00  0.00     0.031 C 
ATOM     43  C   UNL A   1      38.162  28.711  28.637  1.00  0.00     0.029 A 
ATOM     44  N   UNL A   1      39.790  30.170  29.117  1.00  0.00    -0.354 N 
ATOM     45  C   UNL A   1      43.937  29.173  28.480  1.00  0.00     0.074 A 
ATOM     46  C   UNL A   1      44.079  27.820  27.986  1.00  0.00     0.031 C 
ATOM     47  C   UNL A   1      37.586  29.806  29.165  1.00  0.00     0.029 A 
ATOM     48  C   UNL A   1      38.624  30.771  29.527  1.00  0.00     0.049 A 
ATOM     49  H   UNL A   1      40.671  30.604  29.178  1.00  0.00     0.167 HD
ATOM     50  C   UNL A   1      44.977  30.006  28.715  1.00  0.00     0.034 A 
ATOM     51  C   UNL A   1      38.422  31.955  30.139  1.00  0.00     0.034 A 
ATOM     52  C   UNL A   1      44.842  31.351  29.200  1.00  0.00     0.049 A 
ATOM     53  C   UNL A   1      39.601  32.853  30.420  1.00  0.00     0.074 A 
ATOM     54  C   UNL A   1      45.835  32.289  29.423  1.00  0.00     0.029 A 
ATOM     55  N   UNL A   1      43.643  31.944  29.557  1.00  0.00    -0.354 N 
ATOM     56  N   UNL A   1      40.867  32.672  30.133  1.00  0.00    -0.248 NA
ATOM     57  C   UNL A   1      39.317  34.137  31.083  1.00  0.00     0.031 C 
ATOM     58  C   UNL A   1      45.235  33.445  29.934  1.00  0.00     0.029 A 
ATOM     59  C   UNL A   1      43.868  33.231  30.013  1.00  0.00     0.049 A 
ATOM     60  H   UNL A   1      42.759  31.513  29.495  1.00  0.00     0.167 HD
ATOM     61  C   UNL A   1      41.523  33.828  30.543  1.00  0.00     0.074 A 
ATOM     62  C   UNL A   1      40.512  34.712  31.084  1.00  0.00     0.031 C 
ATOM     63  C   UNL A   1      42.846  34.125  30.493  1.00  0.00     0.034 A 
BRANCH  50  64
ATOM     64  C   UNL A   1      46.356  29.490  28.410  1.00  0.00     0.023 A 
ATOM     65  C   UNL A   1      46.915  29.722  27.137  1.00  0.00     0.012 A 
ATOM     66  C   UNL A   1      47.111  28.811  29.386  1.00  0.00     0.148 A 
ATOM     67  C   UNL A   1      48.194  29.261  26.830  1.00  0.00     0.002 A 
ATOM     68  C   UNL A   1      48.399  28.387  29.084  1.00  0.00     0.091 A 
ATOM     69  F   UNL A   1      46.548  28.574  30.580  1.00  0.00    -0.205 F 
ATOM     70  C   UNL A   1      48.938  28.603  27.804  1.00  0.00     0.022 A 
BRANCH  68  71
ATOM     71  S   UNL A   1      49.457  27.587  30.295  1.00  0.00     0.127 S 
ATOM     72  O   UNL A   1      50.650  27.300  29.499  1.00  0.00    -0.237 OA
ATOM     73  O   UNL A   1      49.632  28.639  31.297  1.00  0.00    -0.237 OA
ATOM     74  O   UNL A   1      48.719  26.424  30.763  1.00  0.00    -0.744 OA
ENDBRANCH  68  71
ENDBRANCH  50  64
BRANCH  51  75
ATOM     75  C   UNL A   1      37.040  32.386  30.493  1.00  0.00     0.023 A 
ATOM     76  C   UNL A   1      36.584  32.227  31.815  1.00  0.00     0.012 A 
ATOM     77  C   UNL A   1      36.181  32.955  29.533  1.00  0.00     0.148 A 
ATOM     78  C   UNL A   1      35.286  32.600  32.169  1.00  0.00     0.002 A 
ATOM     79  C   UNL A   1      34.909  33.373  29.903  1.00  0.00     0.091 A 
ATOM     80  F   UNL A   1      36.628  33.078  28.275  1.00  0.00    -0.205 F 
ATOM     81  C   UNL A   1      34.453  33.182  31.217  1.00  0.00     0.022 A 
BRANCH  79  82
ATOM     82  S   UNL A   1      33.819  34.247  28.775  1.00  0.00     0.127 S 
ATOM     83  O   UNL A   1      32.778  34.732  29.678  1.00  0.00    -0.237 OA
ATOM     84  O   UNL A   1      34.705  35.281  28.239  1.00  0.00    -0.237 OA
ATOM     85  O   UNL A   1      33.397  33.256  27.793  1.00  0.00    -0.744 OA
ENDBRANCH  79  82
ENDBRANCH  51  75
BRANCH  63  86
ATOM     86  C   UNL A   1      43.287  35.471  31.006  1.00  0.00     0.023 A 
ATOM     87  C   UNL A   1      43.557  36.511  30.094  1.00  0.00     0.012 A 
ATOM     88  C   UNL A   1      43.345  35.735  32.390  1.00  0.00     0.148 A 
ATOM     89  C   UNL A   1      43.903  37.782  30.549  1.00  0.00     0.002 A 
ATOM     90  C   UNL A   1      43.646  37.016  32.836  1.00  0.00     0.091 A 
ATOM     91  F   UNL A   1      43.104  34.728  33.243  1.00  0.00    -0.205 F 
ATOM     92  C   UNL A   1      43.934  38.039  31.918  1.00  0.00     0.022 A 
BRANCH  90  93
ATOM     93  S   UNL A   1      43.615  37.457  34.578  1.00  0.00     0.127 S 
ATOM     94  O   UNL A   1      44.698  36.635  35.113  1.00  0.00    -0.237 OA
ATOM     95  O   UNL A   1      43.898  38.893  34.543  1.00  0.00    -0.237 OA
ATOM     96  O   UNL A   1      42.278  37.121  35.050  1.00  0.00    -0.744 OA
ENDBRANCH  90  93
ENDBRANCH  63  86
ENDBRANCH  37  38
ENDBRANCH  30  32
ENDBRANCH  29  30
ENDBRANCH  28  29
ENDBRANCH   1  28
TORSDOF 20
ENDMDL
