MODEL 1
REMARK VINA RESULT:     -11.7      0.000      0.000
REMARK SMILES CC[C@H](C(=O)OCCOC(=O)c1ccc(-c2c3nc(c(-c4cccc(S(=O)(=O)[O-])c4F)c4ccc([nH]4)c(-c4cccc(S(=O)(=O)[O-])c4F)c4nc(c(-c5cccc(S(=O)(=O)[O-])c5F)c5ccc2[nH]5)C=C4)C=C3)cc1)N1C(=O)/C(=C/c2ccc(-c3ccc(C)cc3Br)o2)SC1=S
REMARK SMILES IDX 7 1 6 2 4 3 5 4 3 5 2 6 1 7 75 8 76 9 94 10 77 11 78 12
REMARK SMILES IDX 93 13 95 14 79 15 80 16 81 17 92 18 82 19 83 20 84 21 85 22
REMARK SMILES IDX 90 23 86 24 89 25 91 26 87 27 88 28 8 29 9 30 10 31 11 32
REMARK SMILES IDX 12 33 13 34 74 35 14 36 73 37 15 38 16 39 17 40 67 41 18 42
REMARK SMILES IDX 72 43 66 44 68 45 19 46 71 47 65 48 64 49 20 51 52 52 32 53
REMARK SMILES IDX 51 54 33 55 36 56 50 57 69 58 34 59 35 60 49 62 70 63 37 64
REMARK SMILES IDX 21 65 22 66 30 67 23 68 25 69 31 70 24 71 26 72 27 73 28 74
REMARK SMILES IDX 29 75 53 76 54 77 62 78 55 79 57 80 63 81 56 82 58 83 59 84
REMARK SMILES IDX 60 85 61 86 38 87 39 88 47 89 40 90 42 91 48 92 41 93 43 94
REMARK SMILES IDX 44 95 45 96 46 97
REMARK H PARENT 68 50 36 61
REMARK Flexibility Score: inf
ROOT
ATOM      1  C   UNL A   1      37.936  20.901  24.866  1.00  0.00     0.274 C 
ENDROOT
BRANCH   1   2
ATOM      2  O   UNL A   1      36.667  20.338  25.239  1.00  0.00    -0.461 OA
BRANCH   2   3
ATOM      3  C   UNL A   1      35.683  21.181  25.647  1.00  0.00     0.329 C 
ATOM      4  O   UNL A   1      35.798  21.928  26.612  1.00  0.00    -0.250 OA
BRANCH   3   5
ATOM      5  C   UNL A   1      34.425  21.083  24.715  1.00  0.00     0.201 C 
BRANCH   5   6
ATOM      6  C   UNL A   1      33.587  19.869  25.174  1.00  0.00     0.034 C 
ATOM      7  C   UNL A   1      32.455  19.469  24.227  1.00  0.00     0.007 C 
ENDBRANCH   5   6
BRANCH   5   8
ATOM      8  N   UNL A   1      33.769  22.439  24.735  1.00  0.00    -0.278 N 
ATOM      9  C   UNL A   1      33.640  23.065  23.492  1.00  0.00     0.267 C 
ATOM     10  C   UNL A   1      33.092  23.108  25.731  1.00  0.00     0.149 C 
ATOM     11  O   UNL A   1      33.696  22.505  22.406  1.00  0.00    -0.268 OA
ATOM     12  C   UNL A   1      33.370  24.515  23.664  1.00  0.00     0.084 C 
ATOM     13  S   UNL A   1      32.869  24.795  25.276  1.00  0.00    -0.054 SA
ATOM     14  S   UNL A   1      32.447  22.597  27.181  1.00  0.00    -0.052 S 
ATOM     15  C   UNL A   1      33.534  25.401  22.673  1.00  0.00     0.068 C 
BRANCH  15  16
ATOM     16  C   UNL A   1      33.336  26.803  22.820  1.00  0.00     0.128 A 
ATOM     17  C   UNL A   1      34.250  27.848  22.921  1.00  0.00     0.051 A 
ATOM     18  O   UNL A   1      32.078  27.358  22.866  1.00  0.00    -0.457 OA
ATOM     19  C   UNL A   1      33.526  29.048  23.099  1.00  0.00     0.051 A 
ATOM     20  C   UNL A   1      32.196  28.694  23.086  1.00  0.00     0.135 A 
BRANCH  20  21
ATOM     21  C   UNL A   1      30.964  29.449  23.236  1.00  0.00     0.031 A 
ATOM     22  C   UNL A   1      30.042  29.429  22.175  1.00  0.00     0.013 A 
ATOM     23  C   UNL A   1      30.676  30.250  24.354  1.00  0.00     0.029 A 
ATOM     24  C   UNL A   1      28.879  30.201  22.215  1.00  0.00     0.004 A 
ATOM     25  C   UNL A   1      29.509  31.025  24.390  1.00  0.00     0.019 A 
ATOM     26  Br  UNL A   1      31.857  30.422  25.839  1.00  0.00    -0.050 Br
ATOM     27  C   UNL A   1      28.610  31.017  23.317  1.00  0.00    -0.050 A 
ATOM     28  C   UNL A   1      27.373  31.863  23.340  1.00  0.00     0.044 C 
ENDBRANCH  20  21
ENDBRANCH  15  16
ENDBRANCH   5   8
ENDBRANCH   3   5
ENDBRANCH   2   3
ENDBRANCH   1   2
BRANCH   1  29
ATOM     29  C   UNL A   1      38.922  20.714  26.023  1.00  0.00     0.275 C 
BRANCH  29  30
ATOM     30  O   UNL A   1      39.934  19.735  25.713  1.00  0.00    -0.458 OA
BRANCH  30  31
ATOM     31  C   UNL A   1      41.080  19.838  26.431  1.00  0.00     0.338 C 
ATOM     32  O   UNL A   1      41.835  18.921  26.726  1.00  0.00    -0.246 OA
BRANCH  31  33
ATOM     33  C   UNL A   1      41.383  21.242  26.766  1.00  0.00     0.060 A 
ATOM     34  C   UNL A   1      41.572  22.135  25.705  1.00  0.00     0.016 A 
ATOM     35  C   UNL A   1      41.560  21.676  28.082  1.00  0.00     0.016 A 
ATOM     36  C   UNL A   1      41.928  23.457  25.949  1.00  0.00     0.010 A 
ATOM     37  C   UNL A   1      41.929  23.006  28.327  1.00  0.00     0.010 A 
ATOM     38  C   UNL A   1      42.126  23.900  27.261  1.00  0.00    -0.014 A 
BRANCH  38  39
ATOM     39  C   UNL A   1      42.589  25.289  27.483  1.00  0.00     0.031 A 
ATOM     40  C   UNL A   1      41.674  26.292  28.125  1.00  0.00     0.074 A 
ATOM     41  C   UNL A   1      43.847  25.637  27.151  1.00  0.00     0.049 A 
ATOM     42  N   UNL A   1      41.907  27.539  28.442  1.00  0.00    -0.248 NA
ATOM     43  C   UNL A   1      40.316  25.832  28.457  1.00  0.00     0.031 C 
ATOM     44  C   UNL A   1      44.833  24.750  26.534  1.00  0.00     0.029 A 
ATOM     45  N   UNL A   1      44.507  26.833  27.282  1.00  0.00    -0.354 N 
ATOM     46  C   UNL A   1      40.724  28.021  28.989  1.00  0.00     0.074 A 
ATOM     47  C   UNL A   1      39.768  26.935  28.947  1.00  0.00     0.031 C 
ATOM     48  C   UNL A   1      45.968  25.436  26.326  1.00  0.00     0.029 A 
ATOM     49  C   UNL A   1      45.784  26.814  26.772  1.00  0.00     0.049 A 
ATOM     50  H   UNL A   1      44.105  27.628  27.701  1.00  0.00     0.167 HD
ATOM     51  C   UNL A   1      40.464  29.250  29.496  1.00  0.00     0.034 A 
ATOM     52  C   UNL A   1      46.695  27.801  26.665  1.00  0.00     0.034 A 
ATOM     53  C   UNL A   1      41.422  30.323  29.552  1.00  0.00     0.049 A 
ATOM     54  C   UNL A   1      46.369  29.165  27.216  1.00  0.00     0.074 A 
ATOM     55  C   UNL A   1      41.263  31.591  30.084  1.00  0.00     0.029 A 
ATOM     56  N   UNL A   1      42.713  30.263  29.048  1.00  0.00    -0.354 N 
ATOM     57  N   UNL A   1      45.287  29.572  27.833  1.00  0.00    -0.248 NA
ATOM     58  C   UNL A   1      47.410  30.196  27.089  1.00  0.00     0.031 C 
ATOM     59  C   UNL A   1      42.446  32.307  29.872  1.00  0.00     0.029 A 
ATOM     60  C   UNL A   1      43.357  31.474  29.243  1.00  0.00     0.049 A 
ATOM     61  H   UNL A   1      43.113  29.474  28.614  1.00  0.00     0.167 HD
ATOM     62  C   UNL A   1      45.527  30.892  28.201  1.00  0.00     0.074 A 
ATOM     63  C   UNL A   1      46.869  31.208  27.755  1.00  0.00     0.031 C 
ATOM     64  C   UNL A   1      44.709  31.766  28.838  1.00  0.00     0.034 A 
BRANCH  51  65
ATOM     65  C   UNL A   1      39.084  29.499  30.050  1.00  0.00     0.023 A 
ATOM     66  C   UNL A   1      38.744  29.005  31.326  1.00  0.00     0.012 A 
ATOM     67  C   UNL A   1      38.147  30.269  29.333  1.00  0.00     0.148 A 
ATOM     68  C   UNL A   1      37.481  29.245  31.866  1.00  0.00     0.002 A 
ATOM     69  C   UNL A   1      36.906  30.541  29.898  1.00  0.00     0.091 A 
ATOM     70  F   UNL A   1      38.482  30.713  28.115  1.00  0.00    -0.205 F 
ATOM     71  C   UNL A   1      36.567  30.021  31.158  1.00  0.00     0.022 A 
BRANCH  69  72
ATOM     72  S   UNL A   1      35.689  31.595  29.100  1.00  0.00     0.127 S 
ATOM     73  O   UNL A   1      34.833  31.961  30.227  1.00  0.00    -0.237 OA
ATOM     74  O   UNL A   1      36.517  32.686  28.584  1.00  0.00    -0.237 OA
ATOM     75  O   UNL A   1      35.057  30.775  28.076  1.00  0.00    -0.744 OA
ENDBRANCH  69  72
ENDBRANCH  51  65
BRANCH  52  76
ATOM     76  C   UNL A   1      48.020  27.525  26.040  1.00  0.00     0.023 A 
ATOM     77  C   UNL A   1      49.111  27.158  26.850  1.00  0.00     0.012 A 
ATOM     78  C   UNL A   1      48.199  27.617  24.645  1.00  0.00     0.148 A 
ATOM     79  C   UNL A   1      50.365  26.917  26.286  1.00  0.00     0.002 A 
ATOM     80  C   UNL A   1      49.438  27.328  24.085  1.00  0.00     0.091 A 
ATOM     81  F   UNL A   1      47.153  27.987  23.893  1.00  0.00    -0.205 F 
ATOM     82  C   UNL A   1      50.527  26.991  24.905  1.00  0.00     0.022 A 
BRANCH  80  83
ATOM     83  S   UNL A   1      49.712  27.311  22.310  1.00  0.00     0.127 S 
ATOM     84  O   UNL A   1      51.114  26.906  22.229  1.00  0.00    -0.237 OA
ATOM     85  O   UNL A   1      48.756  26.299  21.861  1.00  0.00    -0.237 OA
ATOM     86  O   UNL A   1      49.419  28.662  21.852  1.00  0.00    -0.744 OA
ENDBRANCH  80  83
ENDBRANCH  52  76
BRANCH  64  87
ATOM     87  C   UNL A   1      45.249  33.144  29.132  1.00  0.00     0.023 A 
ATOM     88  C   UNL A   1      45.902  33.398  30.355  1.00  0.00     0.012 A 
ATOM     89  C   UNL A   1      45.160  34.172  28.171  1.00  0.00     0.148 A 
ATOM     90  C   UNL A   1      46.420  34.663  30.634  1.00  0.00     0.002 A 
ATOM     91  C   UNL A   1      45.725  35.415  28.436  1.00  0.00     0.091 A 
ATOM     92  F   UNL A   1      44.521  33.919  27.021  1.00  0.00    -0.205 F 
ATOM     93  C   UNL A   1      46.341  35.666  29.671  1.00  0.00     0.022 A 
BRANCH  91  94
ATOM     94  S   UNL A   1      45.757  36.736  27.218  1.00  0.00     0.127 S 
ATOM     95  O   UNL A   1      44.333  36.988  27.014  1.00  0.00    -0.237 OA
ATOM     96  O   UNL A   1      46.467  37.799  27.931  1.00  0.00    -0.237 OA
ATOM     97  O   UNL A   1      46.471  36.202  26.066  1.00  0.00    -0.744 OA
ENDBRANCH  91  94
ENDBRANCH  64  87
ENDBRANCH  38  39
ENDBRANCH  31  33
ENDBRANCH  30  31
ENDBRANCH  29  30
ENDBRANCH   1  29
TORSDOF 18
ENDMDL
MODEL 2
REMARK VINA RESULT:     -11.4      2.256      7.740
REMARK SMILES CC[C@H](C(=O)OCCOC(=O)c1ccc(-c2c3nc(c(-c4cccc(S(=O)(=O)[O-])c4F)c4ccc([nH]4)c(-c4cccc(S(=O)(=O)[O-])c4F)c4nc(c(-c5cccc(S(=O)(=O)[O-])c5F)c5ccc2[nH]5)C=C4)C=C3)cc1)N1C(=O)/C(=C/c2ccc(-c3ccc(C)cc3Br)o2)SC1=S
REMARK SMILES IDX 7 1 6 2 4 3 5 4 3 5 2 6 1 7 75 8 76 9 94 10 77 11 78 12
REMARK SMILES IDX 93 13 95 14 79 15 80 16 81 17 92 18 82 19 83 20 84 21 85 22
REMARK SMILES IDX 90 23 86 24 89 25 91 26 87 27 88 28 8 29 9 30 10 31 11 32
REMARK SMILES IDX 12 33 13 34 74 35 14 36 73 37 15 38 16 39 17 40 67 41 18 42
REMARK SMILES IDX 72 43 66 44 68 45 19 46 71 47 65 48 64 49 20 51 52 52 32 53
REMARK SMILES IDX 51 54 33 55 36 56 50 57 69 58 34 59 35 60 49 62 70 63 37 64
REMARK SMILES IDX 21 65 22 66 30 67 23 68 25 69 31 70 24 71 26 72 27 73 28 74
REMARK SMILES IDX 29 75 53 76 54 77 62 78 55 79 57 80 63 81 56 82 58 83 59 84
REMARK SMILES IDX 60 85 61 86 38 87 39 88 47 89 40 90 42 91 48 92 41 93 43 94
REMARK SMILES IDX 44 95 45 96 46 97
REMARK H PARENT 68 50 36 61
REMARK Flexibility Score: inf
ROOT
ATOM      1  C   UNL A   1      36.134  21.358  24.818  1.00  0.00     0.274 C 
ENDROOT
BRANCH   1   2
ATOM      2  O   UNL A   1      34.816  21.261  25.387  1.00  0.00    -0.461 OA
BRANCH   2   3
ATOM      3  C   UNL A   1      34.114  22.407  25.585  1.00  0.00     0.329 C 
ATOM      4  O   UNL A   1      34.238  23.105  26.584  1.00  0.00    -0.250 OA
BRANCH   3   5
ATOM      5  C   UNL A   1      33.169  22.714  24.370  1.00  0.00     0.201 C 
BRANCH   5   6
ATOM      6  C   UNL A   1      32.384  21.424  24.043  1.00  0.00     0.034 C 
ATOM      7  C   UNL A   1      32.061  21.221  22.563  1.00  0.00     0.007 C 
ENDBRANCH   5   6
BRANCH   5   8
ATOM      8  N   UNL A   1      32.381  23.943  24.738  1.00  0.00    -0.278 N 
ATOM      9  C   UNL A   1      32.508  25.025  23.864  1.00  0.00     0.267 C 
ATOM     10  C   UNL A   1      31.398  24.145  25.682  1.00  0.00     0.149 C 
ATOM     11  O   UNL A   1      32.906  24.961  22.709  1.00  0.00    -0.268 OA
ATOM     12  C   UNL A   1      32.040  26.277  24.511  1.00  0.00     0.084 C 
ATOM     13  S   UNL A   1      31.110  25.871  25.889  1.00  0.00    -0.054 SA
ATOM     14  S   UNL A   1      30.461  23.085  26.564  1.00  0.00    -0.052 S 
ATOM     15  C   UNL A   1      32.353  27.491  24.042  1.00  0.00     0.068 C 
BRANCH  15  16
ATOM     16  C   UNL A   1      31.965  28.709  24.669  1.00  0.00     0.128 A 
ATOM     17  C   UNL A   1      30.819  29.485  24.525  1.00  0.00     0.051 A 
ATOM     18  O   UNL A   1      32.756  29.324  25.612  1.00  0.00    -0.457 OA
ATOM     19  C   UNL A   1      30.955  30.625  25.349  1.00  0.00     0.051 A 
ATOM     20  C   UNL A   1      32.172  30.496  25.977  1.00  0.00     0.135 A 
BRANCH  20  21
ATOM     21  C   UNL A   1      32.899  31.328  26.922  1.00  0.00     0.031 A 
ATOM     22  C   UNL A   1      32.414  32.623  27.172  1.00  0.00     0.013 A 
ATOM     23  C   UNL A   1      34.094  30.932  27.544  1.00  0.00     0.029 A 
ATOM     24  C   UNL A   1      33.110  33.507  28.000  1.00  0.00     0.004 A 
ATOM     25  C   UNL A   1      34.792  31.822  28.373  1.00  0.00     0.019 A 
ATOM     26  Br  UNL A   1      34.901  29.231  27.255  1.00  0.00    -0.050 Br
ATOM     27  C   UNL A   1      34.313  33.118  28.595  1.00  0.00    -0.050 A 
ATOM     28  C   UNL A   1      35.067  34.082  29.460  1.00  0.00     0.044 C 
ENDBRANCH  20  21
ENDBRANCH  15  16
ENDBRANCH   5   8
ENDBRANCH   3   5
ENDBRANCH   2   3
ENDBRANCH   1   2
BRANCH   1  29
ATOM     29  C   UNL A   1      37.150  21.538  25.949  1.00  0.00     0.275 C 
BRANCH  29  30
ATOM     30  O   UNL A   1      38.501  21.615  25.449  1.00  0.00    -0.458 OA
BRANCH  30  31
ATOM     31  C   UNL A   1      39.473  21.402  26.370  1.00  0.00     0.338 C 
ATOM     32  O   UNL A   1      39.895  20.314  26.741  1.00  0.00    -0.246 OA
BRANCH  31  33
ATOM     33  C   UNL A   1      40.059  22.672  26.842  1.00  0.00     0.060 A 
ATOM     34  C   UNL A   1      39.687  23.844  26.172  1.00  0.00     0.016 A 
ATOM     35  C   UNL A   1      41.010  22.723  27.863  1.00  0.00     0.016 A 
ATOM     36  C   UNL A   1      40.254  25.065  26.521  1.00  0.00     0.010 A 
ATOM     37  C   UNL A   1      41.588  23.953  28.206  1.00  0.00     0.010 A 
ATOM     38  C   UNL A   1      41.221  25.128  27.529  1.00  0.00    -0.014 A 
BRANCH  38  39
ATOM     39  C   UNL A   1      41.868  26.430  27.817  1.00  0.00     0.031 A 
ATOM     40  C   UNL A   1      43.243  26.718  27.285  1.00  0.00     0.074 A 
ATOM     41  C   UNL A   1      41.201  27.369  28.514  1.00  0.00     0.049 A 
ATOM     42  N   UNL A   1      43.957  27.809  27.391  1.00  0.00    -0.248 NA
ATOM     43  C   UNL A   1      43.901  25.639  26.533  1.00  0.00     0.031 C 
ATOM     44  C   UNL A   1      39.858  27.212  29.070  1.00  0.00     0.029 A 
ATOM     45  N   UNL A   1      41.569  28.640  28.878  1.00  0.00    -0.354 N 
ATOM     46  C   UNL A   1      45.156  27.543  26.741  1.00  0.00     0.074 A 
ATOM     47  C   UNL A   1      45.079  26.181  26.256  1.00  0.00     0.031 C 
ATOM     48  C   UNL A   1      39.519  28.338  29.719  1.00  0.00     0.029 A 
ATOM     49  C   UNL A   1      40.628  29.286  29.645  1.00  0.00     0.049 A 
ATOM     50  H   UNL A   1      42.426  29.050  28.616  1.00  0.00     0.167 HD
ATOM     51  C   UNL A   1      46.217  28.365  26.551  1.00  0.00     0.034 A 
ATOM     52  C   UNL A   1      40.663  30.499  30.230  1.00  0.00     0.034 A 
ATOM     53  C   UNL A   1      46.284  29.724  27.020  1.00  0.00     0.049 A 
ATOM     54  C   UNL A   1      41.866  31.381  30.021  1.00  0.00     0.074 A 
ATOM     55  C   UNL A   1      47.299  30.647  26.840  1.00  0.00     0.029 A 
ATOM     56  N   UNL A   1      45.304  30.354  27.772  1.00  0.00    -0.354 N 
ATOM     57  N   UNL A   1      42.943  31.158  29.308  1.00  0.00    -0.248 NA
ATOM     58  C   UNL A   1      41.839  32.702  30.668  1.00  0.00     0.031 C 
ATOM     59  C   UNL A   1      46.947  31.822  27.512  1.00  0.00     0.029 A 
ATOM     60  C   UNL A   1      45.695  31.647  28.077  1.00  0.00     0.049 A 
ATOM     61  H   UNL A   1      44.453  29.941  28.049  1.00  0.00     0.167 HD
ATOM     62  C   UNL A   1      43.705  32.319  29.389  1.00  0.00     0.074 A 
ATOM     63  C   UNL A   1      42.953  33.253  30.204  1.00  0.00     0.031 C 
ATOM     64  C   UNL A   1      44.920  32.585  28.849  1.00  0.00     0.034 A 
BRANCH  51  65
ATOM     65  C   UNL A   1      47.394  27.818  25.784  1.00  0.00     0.023 A 
ATOM     66  C   UNL A   1      48.401  27.103  26.464  1.00  0.00     0.012 A 
ATOM     67  C   UNL A   1      47.474  27.965  24.385  1.00  0.00     0.148 A 
ATOM     68  C   UNL A   1      49.486  26.570  25.768  1.00  0.00     0.002 A 
ATOM     69  C   UNL A   1      48.535  27.392  23.693  1.00  0.00     0.091 A 
ATOM     70  F   UNL A   1      46.518  28.665  23.760  1.00  0.00    -0.205 F 
ATOM     71  C   UNL A   1      49.547  26.705  24.383  1.00  0.00     0.022 A 
BRANCH  69  72
ATOM     72  S   UNL A   1      48.664  27.444  21.902  1.00  0.00     0.127 S 
ATOM     73  O   UNL A   1      47.404  28.087  21.534  1.00  0.00    -0.237 OA
ATOM     74  O   UNL A   1      49.853  28.273  21.703  1.00  0.00    -0.237 OA
ATOM     75  O   UNL A   1      48.809  26.061  21.470  1.00  0.00    -0.744 OA
ENDBRANCH  69  72
ENDBRANCH  51  65
BRANCH  52  76
ATOM     76  C   UNL A   1      39.504  30.965  31.044  1.00  0.00     0.023 A 
ATOM     77  C   UNL A   1      38.312  31.352  30.402  1.00  0.00     0.012 A 
ATOM     78  C   UNL A   1      39.576  31.019  32.450  1.00  0.00     0.148 A 
ATOM     79  C   UNL A   1      37.223  31.812  31.144  1.00  0.00     0.002 A 
ATOM     80  C   UNL A   1      38.472  31.432  33.186  1.00  0.00     0.091 A 
ATOM     81  F   UNL A   1      40.727  30.666  33.040  1.00  0.00    -0.205 F 
ATOM     82  C   UNL A   1      37.298  31.843  32.534  1.00  0.00     0.022 A 
BRANCH  80  83
ATOM     83  S   UNL A   1      38.450  31.417  34.981  1.00  0.00     0.127 S 
ATOM     84  O   UNL A   1      39.609  32.248  35.301  1.00  0.00    -0.237 OA
ATOM     85  O   UNL A   1      37.156  32.032  35.279  1.00  0.00    -0.237 OA
ATOM     86  O   UNL A   1      38.554  30.017  35.366  1.00  0.00    -0.744 OA
ENDBRANCH  80  83
ENDBRANCH  52  76
BRANCH  64  87
ATOM     87  C   UNL A   1      45.506  33.955  29.085  1.00  0.00     0.023 A 
ATOM     88  C   UNL A   1      46.345  34.182  30.195  1.00  0.00     0.012 A 
ATOM     89  C   UNL A   1      45.273  35.005  28.172  1.00  0.00     0.148 A 
ATOM     90  C   UNL A   1      46.907  35.439  30.416  1.00  0.00     0.002 A 
ATOM     91  C   UNL A   1      45.878  36.241  28.372  1.00  0.00     0.091 A 
ATOM     92  F   UNL A   1      44.460  34.779  27.131  1.00  0.00    -0.205 F 
ATOM     93  C   UNL A   1      46.683  36.464  29.500  1.00  0.00     0.022 A 
BRANCH  91  94
ATOM     94  S   UNL A   1      45.725  37.588  27.193  1.00  0.00     0.127 S 
ATOM     95  O   UNL A   1      46.508  37.089  26.066  1.00  0.00    -0.237 OA
ATOM     96  O   UNL A   1      44.281  37.634  26.959  1.00  0.00    -0.237 OA
ATOM     97  O   UNL A   1      46.264  38.767  27.859  1.00  0.00    -0.744 OA
ENDBRANCH  91  94
ENDBRANCH  64  87
ENDBRANCH  38  39
ENDBRANCH  31  33
ENDBRANCH  30  31
ENDBRANCH  29  30
ENDBRANCH   1  29
TORSDOF 18
ENDMDL
MODEL 3
REMARK VINA RESULT:     -11.2      5.710      9.295
REMARK SMILES CC[C@H](C(=O)OCCOC(=O)c1ccc(-c2c3nc(c(-c4cccc(S(=O)(=O)[O-])c4F)c4ccc([nH]4)c(-c4cccc(S(=O)(=O)[O-])c4F)c4nc(c(-c5cccc(S(=O)(=O)[O-])c5F)c5ccc2[nH]5)C=C4)C=C3)cc1)N1C(=O)/C(=C/c2ccc(-c3ccc(C)cc3Br)o2)SC1=S
REMARK SMILES IDX 7 1 6 2 4 3 5 4 3 5 2 6 1 7 75 8 76 9 94 10 77 11 78 12
REMARK SMILES IDX 93 13 95 14 79 15 80 16 81 17 92 18 82 19 83 20 84 21 85 22
REMARK SMILES IDX 90 23 86 24 89 25 91 26 87 27 88 28 8 29 9 30 10 31 11 32
REMARK SMILES IDX 12 33 13 34 74 35 14 36 73 37 15 38 16 39 17 40 67 41 18 42
REMARK SMILES IDX 72 43 66 44 68 45 19 46 71 47 65 48 64 49 20 51 52 52 32 53
REMARK SMILES IDX 51 54 33 55 36 56 50 57 69 58 34 59 35 60 49 62 70 63 37 64
REMARK SMILES IDX 21 65 22 66 30 67 23 68 25 69 31 70 24 71 26 72 27 73 28 74
REMARK SMILES IDX 29 75 53 76 54 77 62 78 55 79 57 80 63 81 56 82 58 83 59 84
REMARK SMILES IDX 60 85 61 86 38 87 39 88 47 89 40 90 42 91 48 92 41 93 43 94
REMARK SMILES IDX 44 95 45 96 46 97
REMARK H PARENT 68 50 36 61
REMARK Flexibility Score: inf
ROOT
ATOM      1  C   UNL A   1      45.463  21.701  25.208  1.00  0.00     0.274 C 
ENDROOT
BRANCH   1   2
ATOM      2  O   UNL A   1      44.345  22.104  26.018  1.00  0.00    -0.461 OA
BRANCH   2   3
ATOM      3  C   UNL A   1      43.145  22.297  25.410  1.00  0.00     0.329 C 
ATOM      4  O   UNL A   1      43.035  22.676  24.250  1.00  0.00    -0.250 OA
BRANCH   3   5
ATOM      5  C   UNL A   1      41.956  21.945  26.370  1.00  0.00     0.201 C 
BRANCH   5   6
ATOM      6  C   UNL A   1      42.258  20.577  27.019  1.00  0.00     0.034 C 
ATOM      7  C   UNL A   1      42.023  19.366  26.115  1.00  0.00     0.007 C 
ENDBRANCH   5   6
BRANCH   5   8
ATOM      8  N   UNL A   1      41.775  23.131  27.281  1.00  0.00    -0.278 N 
ATOM      9  C   UNL A   1      40.597  23.860  27.096  1.00  0.00     0.267 C 
ATOM     10  C   UNL A   1      42.467  23.530  28.404  1.00  0.00     0.149 C 
ATOM     11  O   UNL A   1      39.593  23.453  26.529  1.00  0.00    -0.268 OA
ATOM     12  C   UNL A   1      40.705  25.197  27.733  1.00  0.00     0.084 C 
ATOM     13  S   UNL A   1      42.020  25.181  28.828  1.00  0.00    -0.054 SA
ATOM     14  S   UNL A   1      43.550  22.735  29.390  1.00  0.00    -0.052 S 
ATOM     15  C   UNL A   1      39.879  26.207  27.433  1.00  0.00     0.068 C 
BRANCH  15  16
ATOM     16  C   UNL A   1      39.989  27.514  27.986  1.00  0.00     0.128 A 
ATOM     17  C   UNL A   1      40.439  28.706  27.425  1.00  0.00     0.051 A 
ATOM     18  O   UNL A   1      39.605  27.792  29.276  1.00  0.00    -0.457 OA
ATOM     19  C   UNL A   1      40.386  29.707  28.422  1.00  0.00     0.051 A 
ATOM     20  C   UNL A   1      39.893  29.092  29.550  1.00  0.00     0.135 A 
BRANCH  20  21
ATOM     21  C   UNL A   1      39.620  29.558  30.899  1.00  0.00     0.031 A 
ATOM     22  C   UNL A   1      39.534  28.601  31.925  1.00  0.00     0.013 A 
ATOM     23  C   UNL A   1      39.372  30.903  31.219  1.00  0.00     0.029 A 
ATOM     24  C   UNL A   1      39.188  28.969  33.227  1.00  0.00     0.004 A 
ATOM     25  C   UNL A   1      39.024  31.269  32.527  1.00  0.00     0.019 A 
ATOM     26  Br  UNL A   1      39.396  32.300  29.924  1.00  0.00    -0.050 Br
ATOM     27  C   UNL A   1      38.916  30.305  33.536  1.00  0.00    -0.050 A 
ATOM     28  C   UNL A   1      38.519  30.686  34.929  1.00  0.00     0.044 C 
ENDBRANCH  20  21
ENDBRANCH  15  16
ENDBRANCH   5   8
ENDBRANCH   3   5
ENDBRANCH   2   3
ENDBRANCH   1   2
BRANCH   1  29
ATOM     29  C   UNL A   1      46.217  22.952  24.747  1.00  0.00     0.275 C 
BRANCH  29  30
ATOM     30  O   UNL A   1      46.239  23.972  25.766  1.00  0.00    -0.458 OA
BRANCH  30  31
ATOM     31  C   UNL A   1      46.415  25.239  25.316  1.00  0.00     0.338 C 
ATOM     32  O   UNL A   1      46.938  25.566  24.258  1.00  0.00    -0.246 OA
BRANCH  31  33
ATOM     33  C   UNL A   1      45.811  26.226  26.230  1.00  0.00     0.060 A 
ATOM     34  C   UNL A   1      46.631  26.773  27.225  1.00  0.00     0.016 A 
ATOM     35  C   UNL A   1      44.457  26.563  26.179  1.00  0.00     0.016 A 
ATOM     36  C   UNL A   1      46.108  27.657  28.162  1.00  0.00     0.010 A 
ATOM     37  C   UNL A   1      43.929  27.447  27.131  1.00  0.00     0.010 A 
ATOM     38  C   UNL A   1      44.750  27.989  28.134  1.00  0.00    -0.014 A 
BRANCH  38  39
ATOM     39  C   UNL A   1      44.207  28.865  29.199  1.00  0.00     0.031 A 
ATOM     40  C   UNL A   1      43.903  28.297  30.555  1.00  0.00     0.074 A 
ATOM     41  C   UNL A   1      44.032  30.179  28.960  1.00  0.00     0.049 A 
ATOM     42  N   UNL A   1      43.466  28.907  31.627  1.00  0.00    -0.248 NA
ATOM     43  C   UNL A   1      44.122  26.853  30.733  1.00  0.00     0.031 C 
ATOM     44  C   UNL A   1      44.304  30.849  27.689  1.00  0.00     0.029 A 
ATOM     45  N   UNL A   1      43.578  31.182  29.779  1.00  0.00    -0.354 N 
ATOM     46  C   UNL A   1      43.335  27.922  32.598  1.00  0.00     0.074 A 
ATOM     47  C   UNL A   1      43.725  26.671  31.984  1.00  0.00     0.031 C 
ATOM     48  C   UNL A   1      43.996  32.151  27.807  1.00  0.00     0.029 A 
ATOM     49  C   UNL A   1      43.485  32.402  29.152  1.00  0.00     0.049 A 
ATOM     50  H   UNL A   1      43.341  31.041  30.724  1.00  0.00     0.167 HD
ATOM     51  C   UNL A   1      42.942  28.052  33.889  1.00  0.00     0.034 A 
ATOM     52  C   UNL A   1      43.028  33.585  29.608  1.00  0.00     0.034 A 
ATOM     53  C   UNL A   1      42.571  29.301  34.501  1.00  0.00     0.049 A 
ATOM     54  C   UNL A   1      42.575  33.694  31.041  1.00  0.00     0.074 A 
ATOM     55  C   UNL A   1      42.197  29.538  35.813  1.00  0.00     0.029 A 
ATOM     56  N   UNL A   1      42.510  30.521  33.844  1.00  0.00    -0.354 N 
ATOM     57  N   UNL A   1      42.566  32.778  31.979  1.00  0.00    -0.248 NA
ATOM     58  C   UNL A   1      42.105  35.014  31.488  1.00  0.00     0.031 C 
ATOM     59  C   UNL A   1      41.881  30.895  35.940  1.00  0.00     0.029 A 
ATOM     60  C   UNL A   1      42.093  31.511  34.718  1.00  0.00     0.049 A 
ATOM     61  H   UNL A   1      42.732  30.662  32.895  1.00  0.00     0.167 HD
ATOM     62  C   UNL A   1      42.126  33.416  33.134  1.00  0.00     0.074 A 
ATOM     63  C   UNL A   1      41.900  34.804  32.782  1.00  0.00     0.031 C 
ATOM     64  C   UNL A   1      41.916  32.899  34.371  1.00  0.00     0.034 A 
BRANCH  51  65
ATOM     65  C   UNL A   1      42.909  26.807  34.737  1.00  0.00     0.023 A 
ATOM     66  C   UNL A   1      41.691  26.125  34.932  1.00  0.00     0.012 A 
ATOM     67  C   UNL A   1      44.092  26.282  35.294  1.00  0.00     0.148 A 
ATOM     68  C   UNL A   1      41.644  24.958  35.695  1.00  0.00     0.002 A 
ATOM     69  C   UNL A   1      44.045  25.095  36.015  1.00  0.00     0.091 A 
ATOM     70  F   UNL A   1      45.237  26.955  35.115  1.00  0.00    -0.205 F 
ATOM     71  C   UNL A   1      42.821  24.438  36.226  1.00  0.00     0.022 A 
BRANCH  69  72
ATOM     72  S   UNL A   1      45.516  24.302  36.674  1.00  0.00     0.127 S 
ATOM     73  O   UNL A   1      46.372  24.240  35.491  1.00  0.00    -0.237 OA
ATOM     74  O   UNL A   1      45.952  25.258  37.692  1.00  0.00    -0.237 OA
ATOM     75  O   UNL A   1      45.079  23.015  37.197  1.00  0.00    -0.744 OA
ENDBRANCH  69  72
ENDBRANCH  51  65
BRANCH  52  76
ATOM     76  C   UNL A   1      43.009  34.772  28.707  1.00  0.00     0.023 A 
ATOM     77  C   UNL A   1      41.802  35.170  28.102  1.00  0.00     0.012 A 
ATOM     78  C   UNL A   1      44.182  35.512  28.454  1.00  0.00     0.148 A 
ATOM     79  C   UNL A   1      41.768  36.266  27.238  1.00  0.00     0.002 A 
ATOM     80  C   UNL A   1      44.131  36.631  27.631  1.00  0.00     0.091 A 
ATOM     81  F   UNL A   1      45.325  35.105  29.024  1.00  0.00    -0.205 F 
ATOM     82  C   UNL A   1      42.928  37.002  27.010  1.00  0.00     0.022 A 
BRANCH  80  83
ATOM     83  S   UNL A   1      45.556  37.689  27.355  1.00  0.00     0.127 S 
ATOM     84  O   UNL A   1      46.425  36.819  26.565  1.00  0.00    -0.237 OA
ATOM     85  O   UNL A   1      44.971  38.806  26.613  1.00  0.00    -0.237 OA
ATOM     86  O   UNL A   1      46.051  38.039  28.679  1.00  0.00    -0.744 OA
ENDBRANCH  80  83
ENDBRANCH  52  76
BRANCH  64  87
ATOM     87  C   UNL A   1      41.453  33.841  35.454  1.00  0.00     0.023 A 
ATOM     88  C   UNL A   1      40.075  34.003  35.706  1.00  0.00     0.012 A 
ATOM     89  C   UNL A   1      42.386  34.523  36.263  1.00  0.00     0.148 A 
ATOM     90  C   UNL A   1      39.633  34.859  36.715  1.00  0.00     0.002 A 
ATOM     91  C   UNL A   1      41.938  35.334  37.300  1.00  0.00     0.091 A 
ATOM     92  F   UNL A   1      43.691  34.372  36.000  1.00  0.00    -0.205 F 
ATOM     93  C   UNL A   1      40.564  35.514  37.518  1.00  0.00     0.022 A 
BRANCH  91  94
ATOM     94  S   UNL A   1      43.064  36.139  38.446  1.00  0.00     0.127 S 
ATOM     95  O   UNL A   1      43.822  37.013  37.554  1.00  0.00    -0.237 OA
ATOM     96  O   UNL A   1      42.145  36.837  39.346  1.00  0.00    -0.237 OA
ATOM     97  O   UNL A   1      43.828  35.071  39.076  1.00  0.00    -0.744 OA
ENDBRANCH  91  94
ENDBRANCH  64  87
ENDBRANCH  38  39
ENDBRANCH  31  33
ENDBRANCH  30  31
ENDBRANCH  29  30
ENDBRANCH   1  29
TORSDOF 18
ENDMDL
