MODEL 1
REMARK VINA RESULT:     -11.9      0.000      0.000
REMARK SMILES CN1C(=O)/C(=C/c2ccc(OCC(=O)OCCOC(=O)c3ccc(-c4c5nc(c(-c6cccc(S(=O)(=O)[O-])c6F)c6ccc([nH]6)c(-c6cccc(S(=O)(=O)[O-])c6F)c6nc(c(-c7cccc(S(=O)(=O)[O-])c7F)c7ccc4[nH]7)C=C6)C=C5)cc3)c(Br)c2)C(=O)NC1=S
REMARK SMILES IDX 16 1 15 2 13 3 14 4 12 5 11 6 10 7 7 8 8 9 86 10 9 11 84 12
REMARK SMILES IDX 85 13 6 14 1 15 2 16 3 17 90 18 4 19 5 20 89 21 91 22 87 23
REMARK SMILES IDX 88 25 17 26 18 27 19 28 20 29 21 30 22 31 83 32 23 33 82 34
REMARK SMILES IDX 24 35 25 36 26 37 76 38 27 39 81 40 75 41 77 42 28 43 80 44
REMARK SMILES IDX 74 45 73 46 29 48 61 49 41 50 60 51 42 52 45 53 59 54 78 55
REMARK SMILES IDX 43 56 44 57 58 59 79 60 46 61 30 62 31 63 39 64 32 65 34 66
REMARK SMILES IDX 40 67 33 68 35 69 36 70 37 71 38 72 62 73 63 74 71 75 64 76
REMARK SMILES IDX 66 77 72 78 65 79 67 80 68 81 69 82 70 83 47 84 48 85 56 86
REMARK SMILES IDX 49 87 51 88 57 89 50 90 52 91 53 92 54 93 55 94
REMARK H PARENT 89 24 77 47 45 58
REMARK Flexibility Score: inf
ROOT
ATOM      1  C   UNL A   1      30.934  30.085  24.371  1.00  0.00     0.274 C 
ENDROOT
BRANCH   1   2
ATOM      2  O   UNL A   1      30.417  28.794  23.993  1.00  0.00    -0.460 OA
BRANCH   2   3
ATOM      3  C   UNL A   1      30.402  28.554  22.655  1.00  0.00     0.344 C 
ATOM      4  O   UNL A   1      30.026  29.356  21.804  1.00  0.00    -0.248 OA
BRANCH   3   5
ATOM      5  C   UNL A   1      30.821  27.133  22.290  1.00  0.00     0.352 C 
BRANCH   5   6
ATOM      6  O   UNL A   1      32.137  26.812  21.879  1.00  0.00    -0.481 OA
BRANCH   6   7
ATOM      7  C   UNL A   1      32.782  25.802  22.538  1.00  0.00     0.134 A 
ATOM      8  C   UNL A   1      34.165  23.555  23.537  1.00  0.00    -0.023 A 
ATOM      9  C   UNL A   1      33.520  23.483  22.305  1.00  0.00     0.012 A 
ATOM     10  C   UNL A   1      34.113  24.752  24.265  1.00  0.00     0.027 A 
ATOM     11  C   UNL A   1      32.828  24.598  21.819  1.00  0.00     0.048 A 
ATOM     12  C   UNL A   1      33.490  25.889  23.740  1.00  0.00     0.060 A 
ATOM     13  Br  UNL A   1      33.889  27.514  24.642  1.00  0.00    -0.047 Br
BRANCH   8  14
ATOM     14  C   UNL A   1      34.926  22.419  24.074  1.00  0.00     0.027 C 
ATOM     15  C   UNL A   1      35.482  17.716  24.771  1.00  0.00     0.156 C 
ATOM     16  N   UNL A   1      34.611  18.894  24.826  1.00  0.00    -0.288 N 
ATOM     17  C   UNL A   1      35.261  20.133  24.822  1.00  0.00     0.265 C 
ATOM     18  C   UNL A   1      33.227  18.747  24.860  1.00  0.00     0.182 C 
ATOM     19  O   UNL A   1      36.475  20.279  24.944  1.00  0.00    -0.268 OA
ATOM     20  C   UNL A   1      34.378  21.311  24.616  1.00  0.00     0.106 C 
ATOM     21  N   UNL A   1      32.486  19.895  24.912  1.00  0.00    -0.298 N 
ATOM     22  S   UNL A   1      32.354  17.320  24.882  1.00  0.00    -0.040 S 
ATOM     23  C   UNL A   1      32.937  21.180  24.899  1.00  0.00     0.263 C 
ATOM     24  H   UNL A   1      31.511  19.778  24.968  1.00  0.00     0.172 HD
ATOM     25  O   UNL A   1      32.181  22.115  25.136  1.00  0.00    -0.269 OA
ENDBRANCH   8  14
ENDBRANCH   6   7
ENDBRANCH   5   6
ENDBRANCH   3   5
ENDBRANCH   2   3
ENDBRANCH   1   2
BRANCH   1  26
ATOM     26  C   UNL A   1      31.390  30.096  25.827  1.00  0.00     0.275 C 
BRANCH  26  27
ATOM     27  O   UNL A   1      32.771  30.480  25.912  1.00  0.00    -0.458 OA
BRANCH  27  28
ATOM     28  C   UNL A   1      33.075  31.341  26.912  1.00  0.00     0.338 C 
ATOM     29  O   UNL A   1      32.419  32.299  27.283  1.00  0.00    -0.246 OA
BRANCH  28  30
ATOM     30  C   UNL A   1      34.382  30.994  27.501  1.00  0.00     0.060 A 
ATOM     31  C   UNL A   1      34.712  29.675  27.816  1.00  0.00     0.016 A 
ATOM     32  C   UNL A   1      35.253  32.034  27.832  1.00  0.00     0.016 A 
ATOM     33  C   UNL A   1      35.884  29.406  28.530  1.00  0.00     0.010 A 
ATOM     34  C   UNL A   1      36.460  31.751  28.474  1.00  0.00     0.010 A 
ATOM     35  C   UNL A   1      36.775  30.439  28.864  1.00  0.00    -0.014 A 
BRANCH  35  36
ATOM     36  C   UNL A   1      38.034  30.170  29.615  1.00  0.00     0.031 A 
ATOM     37  C   UNL A   1      39.095  29.268  29.034  1.00  0.00     0.074 A 
ATOM     38  C   UNL A   1      38.207  30.683  30.850  1.00  0.00     0.049 A 
ATOM     39  N   UNL A   1      40.167  28.781  29.606  1.00  0.00    -0.248 NA
ATOM     40  C   UNL A   1      38.923  28.844  27.633  1.00  0.00     0.031 C 
ATOM     41  C   UNL A   1      37.261  31.561  31.541  1.00  0.00     0.029 A 
ATOM     42  N   UNL A   1      39.230  30.521  31.754  1.00  0.00    -0.354 N 
ATOM     43  C   UNL A   1      40.753  27.938  28.668  1.00  0.00     0.074 A 
ATOM     44  C   UNL A   1      39.932  27.995  27.478  1.00  0.00     0.031 C 
ATOM     45  C   UNL A   1      37.751  31.869  32.751  1.00  0.00     0.029 A 
ATOM     46  C   UNL A   1      39.011  31.162  32.952  1.00  0.00     0.049 A 
ATOM     47  H   UNL A   1      40.041  29.997  31.563  1.00  0.00     0.167 HD
ATOM     48  C   UNL A   1      41.878  27.194  28.784  1.00  0.00     0.034 A 
ATOM     49  C   UNL A   1      39.721  31.160  34.097  1.00  0.00     0.034 A 
ATOM     50  C   UNL A   1      42.751  27.208  29.928  1.00  0.00     0.049 A 
ATOM     51  C   UNL A   1      40.987  30.355  34.180  1.00  0.00     0.074 A 
ATOM     52  C   UNL A   1      43.960  26.551  30.090  1.00  0.00     0.029 A 
ATOM     53  N   UNL A   1      42.522  27.918  31.094  1.00  0.00    -0.354 N 
ATOM     54  N   UNL A   1      41.563  29.629  33.255  1.00  0.00    -0.248 NA
ATOM     55  C   UNL A   1      41.708  30.380  35.462  1.00  0.00     0.031 C 
ATOM     56  C   UNL A   1      44.462  26.865  31.357  1.00  0.00     0.029 A 
ATOM     57  C   UNL A   1      43.565  27.716  31.982  1.00  0.00     0.049 A 
ATOM     58  H   UNL A   1      41.735  28.482  31.266  1.00  0.00     0.167 HD
ATOM     59  C   UNL A   1      42.722  29.125  33.834  1.00  0.00     0.074 A 
ATOM     60  C   UNL A   1      42.781  29.652  35.182  1.00  0.00     0.031 C 
ATOM     61  C   UNL A   1      43.644  28.285  33.302  1.00  0.00     0.034 A 
BRANCH  48  62
ATOM     62  C   UNL A   1      42.278  26.325  27.622  1.00  0.00     0.023 A 
ATOM     63  C   UNL A   1      43.144  26.840  26.640  1.00  0.00     0.012 A 
ATOM     64  C   UNL A   1      41.888  24.973  27.562  1.00  0.00     0.148 A 
ATOM     65  C   UNL A   1      43.614  26.021  25.613  1.00  0.00     0.002 A 
ATOM     66  C   UNL A   1      42.378  24.159  26.546  1.00  0.00     0.091 A 
ATOM     67  F   UNL A   1      41.042  24.506  28.492  1.00  0.00    -0.205 F 
ATOM     68  C   UNL A   1      43.237  24.681  25.569  1.00  0.00     0.022 A 
BRANCH  66  69
ATOM     69  S   UNL A   1      41.983  22.408  26.469  1.00  0.00     0.127 S 
ATOM     70  O   UNL A   1      42.434  21.947  27.780  1.00  0.00    -0.237 OA
ATOM     71  O   UNL A   1      40.531  22.411  26.292  1.00  0.00    -0.237 OA
ATOM     72  O   UNL A   1      42.724  21.899  25.322  1.00  0.00    -0.744 OA
ENDBRANCH  66  69
ENDBRANCH  48  62
BRANCH  49  73
ATOM     73  C   UNL A   1      39.259  31.988  35.246  1.00  0.00     0.023 A 
ATOM     74  C   UNL A   1      38.430  31.402  36.222  1.00  0.00     0.012 A 
ATOM     75  C   UNL A   1      39.690  33.317  35.417  1.00  0.00     0.148 A 
ATOM     76  C   UNL A   1      38.032  32.129  37.345  1.00  0.00     0.002 A 
ATOM     77  C   UNL A   1      39.339  34.016  36.566  1.00  0.00     0.091 A 
ATOM     78  F   UNL A   1      40.458  33.864  34.464  1.00  0.00    -0.205 F 
ATOM     79  C   UNL A   1      38.499  33.428  37.525  1.00  0.00     0.022 A 
BRANCH  77  80
ATOM     80  S   UNL A   1      40.019  35.634  36.947  1.00  0.00     0.127 S 
ATOM     81  O   UNL A   1      39.587  36.420  35.795  1.00  0.00    -0.237 OA
ATOM     82  O   UNL A   1      39.345  35.960  38.204  1.00  0.00    -0.237 OA
ATOM     83  O   UNL A   1      41.457  35.432  37.076  1.00  0.00    -0.744 OA
ENDBRANCH  77  80
ENDBRANCH  49  73
BRANCH  61  84
ATOM     84  C   UNL A   1      44.808  27.887  34.168  1.00  0.00     0.023 A 
ATOM     85  C   UNL A   1      45.983  28.662  34.144  1.00  0.00     0.012 A 
ATOM     86  C   UNL A   1      44.715  26.795  35.054  1.00  0.00     0.148 A 
ATOM     87  C   UNL A   1      47.060  28.341  34.970  1.00  0.00     0.002 A 
ATOM     88  C   UNL A   1      45.777  26.505  35.901  1.00  0.00     0.091 A 
ATOM     89  F   UNL A   1      43.595  26.057  35.045  1.00  0.00    -0.205 F 
ATOM     90  C   UNL A   1      46.953  27.271  35.856  1.00  0.00     0.022 A 
BRANCH  88  91
ATOM     91  S   UNL A   1      45.689  25.196  37.129  1.00  0.00     0.127 S 
ATOM     92  O   UNL A   1      47.018  25.262  37.733  1.00  0.00    -0.237 OA
ATOM     93  O   UNL A   1      44.601  25.648  37.997  1.00  0.00    -0.237 OA
ATOM     94  O   UNL A   1      45.394  23.977  36.385  1.00  0.00    -0.744 OA
ENDBRANCH  88  91
ENDBRANCH  61  84
ENDBRANCH  35  36
ENDBRANCH  28  30
ENDBRANCH  27  28
ENDBRANCH  26  27
ENDBRANCH   1  26
TORSDOF 17
ENDMDL
MODEL 2
REMARK VINA RESULT:     -11.8      5.063     10.239
REMARK SMILES CN1C(=O)/C(=C/c2ccc(OCC(=O)OCCOC(=O)c3ccc(-c4c5nc(c(-c6cccc(S(=O)(=O)[O-])c6F)c6ccc([nH]6)c(-c6cccc(S(=O)(=O)[O-])c6F)c6nc(c(-c7cccc(S(=O)(=O)[O-])c7F)c7ccc4[nH]7)C=C6)C=C5)cc3)c(Br)c2)C(=O)NC1=S
REMARK SMILES IDX 16 1 15 2 13 3 14 4 12 5 11 6 10 7 7 8 8 9 86 10 9 11 84 12
REMARK SMILES IDX 85 13 6 14 1 15 2 16 3 17 90 18 4 19 5 20 89 21 91 22 87 23
REMARK SMILES IDX 88 25 17 26 18 27 19 28 20 29 21 30 22 31 83 32 23 33 82 34
REMARK SMILES IDX 24 35 25 36 26 37 76 38 27 39 81 40 75 41 77 42 28 43 80 44
REMARK SMILES IDX 74 45 73 46 29 48 61 49 41 50 60 51 42 52 45 53 59 54 78 55
REMARK SMILES IDX 43 56 44 57 58 59 79 60 46 61 30 62 31 63 39 64 32 65 34 66
REMARK SMILES IDX 40 67 33 68 35 69 36 70 37 71 38 72 62 73 63 74 71 75 64 76
REMARK SMILES IDX 66 77 72 78 65 79 67 80 68 81 69 82 70 83 47 84 48 85 56 86
REMARK SMILES IDX 49 87 51 88 57 89 50 90 52 91 53 92 54 93 55 94
REMARK H PARENT 89 24 77 47 45 58
REMARK Flexibility Score: inf
ROOT
ATOM      1  C   UNL A   1      35.212  20.367  24.746  1.00  0.00     0.274 C 
ENDROOT
BRANCH   1   2
ATOM      2  O   UNL A   1      34.347  19.221  24.873  1.00  0.00    -0.460 OA
BRANCH   2   3
ATOM      3  C   UNL A   1      33.025  19.514  24.999  1.00  0.00     0.344 C 
ATOM      4  O   UNL A   1      32.120  18.684  24.981  1.00  0.00    -0.248 OA
BRANCH   3   5
ATOM      5  C   UNL A   1      32.742  21.010  25.079  1.00  0.00     0.352 C 
BRANCH   5   6
ATOM      6  O   UNL A   1      32.769  21.724  26.301  1.00  0.00    -0.481 OA
BRANCH   6   7
ATOM      7  C   UNL A   1      32.592  23.078  26.252  1.00  0.00     0.134 A 
ATOM      8  C   UNL A   1      32.499  25.871  25.860  1.00  0.00    -0.023 A 
ATOM      9  C   UNL A   1      33.630  25.153  25.480  1.00  0.00     0.012 A 
ATOM     10  C   UNL A   1      31.420  25.188  26.439  1.00  0.00     0.027 A 
ATOM     11  C   UNL A   1      33.673  23.769  25.684  1.00  0.00     0.048 A 
ATOM     12  C   UNL A   1      31.434  23.795  26.567  1.00  0.00     0.060 A 
ATOM     13  Br  UNL A   1      29.748  23.006  26.951  1.00  0.00    -0.047 Br
BRANCH   8  14
ATOM     14  C   UNL A   1      32.398  27.320  25.640  1.00  0.00     0.027 C 
ATOM     15  C   UNL A   1      29.887  31.192  24.369  1.00  0.00     0.156 C 
ATOM     16  N   UNL A   1      30.295  29.814  24.076  1.00  0.00    -0.288 N 
ATOM     17  C   UNL A   1      31.439  29.363  24.745  1.00  0.00     0.265 C 
ATOM     18  C   UNL A   1      29.554  29.031  23.197  1.00  0.00     0.182 C 
ATOM     19  O   UNL A   1      32.187  30.083  25.403  1.00  0.00    -0.268 OA
ATOM     20  C   UNL A   1      31.695  27.903  24.646  1.00  0.00     0.106 C 
ATOM     21  N   UNL A   1      30.003  27.758  22.976  1.00  0.00    -0.298 N 
ATOM     22  S   UNL A   1      28.187  29.475  22.340  1.00  0.00    -0.040 S 
ATOM     23  C   UNL A   1      31.077  27.143  23.543  1.00  0.00     0.263 C 
ATOM     24  H   UNL A   1      29.489  27.225  22.329  1.00  0.00     0.172 HD
ATOM     25  O   UNL A   1      31.480  26.064  23.123  1.00  0.00    -0.269 OA
ENDBRANCH   8  14
ENDBRANCH   6   7
ENDBRANCH   5   6
ENDBRANCH   3   5
ENDBRANCH   2   3
ENDBRANCH   1   2
BRANCH   1  26
ATOM     26  C   UNL A   1      36.670  19.993  24.996  1.00  0.00     0.275 C 
BRANCH  26  27
ATOM     27  O   UNL A   1      37.430  21.161  25.342  1.00  0.00    -0.458 OA
BRANCH  27  28
ATOM     28  C   UNL A   1      38.687  20.927  25.786  1.00  0.00     0.338 C 
ATOM     29  O   UNL A   1      39.282  19.863  25.781  1.00  0.00    -0.246 OA
BRANCH  28  30
ATOM     30  C   UNL A   1      39.268  22.161  26.346  1.00  0.00     0.060 A 
ATOM     31  C   UNL A   1      38.703  23.412  26.092  1.00  0.00     0.016 A 
ATOM     32  C   UNL A   1      40.462  22.063  27.062  1.00  0.00     0.016 A 
ATOM     33  C   UNL A   1      39.375  24.570  26.494  1.00  0.00     0.010 A 
ATOM     34  C   UNL A   1      41.089  23.219  27.530  1.00  0.00     0.010 A 
ATOM     35  C   UNL A   1      40.574  24.489  27.221  1.00  0.00    -0.014 A 
BRANCH  35  36
ATOM     36  C   UNL A   1      41.299  25.712  27.667  1.00  0.00     0.031 A 
ATOM     37  C   UNL A   1      40.594  26.767  28.483  1.00  0.00     0.074 A 
ATOM     38  C   UNL A   1      42.578  25.915  27.289  1.00  0.00     0.049 A 
ATOM     39  N   UNL A   1      41.003  27.967  28.811  1.00  0.00    -0.248 NA
ATOM     40  C   UNL A   1      39.248  26.440  28.984  1.00  0.00     0.031 C 
ATOM     41  C   UNL A   1      43.381  24.987  26.490  1.00  0.00     0.029 A 
ATOM     42  N   UNL A   1      43.421  26.979  27.507  1.00  0.00    -0.354 N 
ATOM     43  C   UNL A   1      39.943  28.562  29.486  1.00  0.00     0.074 A 
ATOM     44  C   UNL A   1      38.877  27.585  29.543  1.00  0.00     0.031 C 
ATOM     45  C   UNL A   1      44.599  25.514  26.297  1.00  0.00     0.029 A 
ATOM     46  C   UNL A   1      44.647  26.843  26.898  1.00  0.00     0.049 A 
ATOM     47  H   UNL A   1      43.171  27.762  28.049  1.00  0.00     0.167 HD
ATOM     48  C   UNL A   1      39.869  29.804  30.020  1.00  0.00     0.034 A 
ATOM     49  C   UNL A   1      45.684  27.698  26.800  1.00  0.00     0.034 A 
ATOM     50  C   UNL A   1      40.958  30.744  30.052  1.00  0.00     0.049 A 
ATOM     51  C   UNL A   1      45.586  29.055  27.437  1.00  0.00     0.074 A 
ATOM     52  C   UNL A   1      40.995  31.992  30.652  1.00  0.00     0.029 A 
ATOM     53  N   UNL A   1      42.201  30.541  29.475  1.00  0.00    -0.354 N 
ATOM     54  N   UNL A   1      44.604  29.566  28.138  1.00  0.00    -0.248 NA
ATOM     55  C   UNL A   1      46.744  29.947  27.282  1.00  0.00     0.031 C 
ATOM     56  C   UNL A   1      42.262  32.544  30.438  1.00  0.00     0.029 A 
ATOM     57  C   UNL A   1      43.012  31.640  29.705  1.00  0.00     0.049 A 
ATOM     58  H   UNL A   1      42.467  29.736  28.977  1.00  0.00     0.167 HD
ATOM     59  C   UNL A   1      45.032  30.832  28.522  1.00  0.00     0.074 A 
ATOM     60  C   UNL A   1      46.372  30.999  28.000  1.00  0.00     0.031 C 
ATOM     61  C   UNL A   1      44.363  31.778  29.227  1.00  0.00     0.034 A 
BRANCH  48  62
ATOM     62  C   UNL A   1      38.578  30.223  30.668  1.00  0.00     0.023 A 
ATOM     63  C   UNL A   1      38.376  29.964  32.036  1.00  0.00     0.012 A 
ATOM     64  C   UNL A   1      37.618  30.969  29.955  1.00  0.00     0.148 A 
ATOM     65  C   UNL A   1      37.235  30.437  32.684  1.00  0.00     0.002 A 
ATOM     66  C   UNL A   1      36.494  31.454  30.614  1.00  0.00     0.091 A 
ATOM     67  F   UNL A   1      37.815  31.185  28.647  1.00  0.00    -0.205 F 
ATOM     68  C   UNL A   1      36.298  31.186  31.977  1.00  0.00     0.022 A 
BRANCH  66  69
ATOM     69  S   UNL A   1      35.280  32.481  29.777  1.00  0.00     0.127 S 
ATOM     70  O   UNL A   1      34.763  31.560  28.767  1.00  0.00    -0.237 OA
ATOM     71  O   UNL A   1      34.335  32.801  30.847  1.00  0.00    -0.237 OA
ATOM     72  O   UNL A   1      36.028  33.626  29.277  1.00  0.00    -0.744 OA
ENDBRANCH  66  69
ENDBRANCH  48  62
BRANCH  49  73
ATOM     73  C   UNL A   1      46.924  27.266  26.097  1.00  0.00     0.023 A 
ATOM     74  C   UNL A   1      47.091  27.596  24.738  1.00  0.00     0.012 A 
ATOM     75  C   UNL A   1      47.962  26.601  26.776  1.00  0.00     0.148 A 
ATOM     76  C   UNL A   1      48.268  27.264  24.066  1.00  0.00     0.002 A 
ATOM     77  C   UNL A   1      49.156  26.326  26.118  1.00  0.00     0.091 A 
ATOM     78  F   UNL A   1      47.774  26.274  28.062  1.00  0.00    -0.205 F 
ATOM     79  C   UNL A   1      49.305  26.645  24.759  1.00  0.00     0.022 A 
BRANCH  77  80
ATOM     80  S   UNL A   1      50.592  25.671  26.974  1.00  0.00     0.127 S 
ATOM     81  O   UNL A   1      50.820  26.686  27.999  1.00  0.00    -0.237 OA
ATOM     82  O   UNL A   1      50.092  24.390  27.474  1.00  0.00    -0.237 OA
ATOM     83  O   UNL A   1      51.630  25.550  25.958  1.00  0.00    -0.744 OA
ENDBRANCH  77  80
ENDBRANCH  49  73
BRANCH  61  84
ATOM     84  C   UNL A   1      45.070  33.079  29.492  1.00  0.00     0.023 A 
ATOM     85  C   UNL A   1      45.867  33.210  30.646  1.00  0.00     0.012 A 
ATOM     86  C   UNL A   1      45.005  34.143  28.571  1.00  0.00     0.148 A 
ATOM     87  C   UNL A   1      46.568  34.390  30.893  1.00  0.00     0.002 A 
ATOM     88  C   UNL A   1      45.737  35.301  28.804  1.00  0.00     0.091 A 
ATOM     89  F   UNL A   1      44.223  34.007  27.490  1.00  0.00    -0.205 F 
ATOM     90  C   UNL A   1      46.513  35.430  29.968  1.00  0.00     0.022 A 
BRANCH  88  91
ATOM     91  S   UNL A   1      45.785  36.654  27.623  1.00  0.00     0.127 S 
ATOM     92  O   UNL A   1      44.393  37.098  27.619  1.00  0.00    -0.237 OA
ATOM     93  O   UNL A   1      46.722  37.588  28.249  1.00  0.00    -0.237 OA
ATOM     94  O   UNL A   1      46.264  36.072  26.376  1.00  0.00    -0.744 OA
ENDBRANCH  88  91
ENDBRANCH  61  84
ENDBRANCH  35  36
ENDBRANCH  28  30
ENDBRANCH  27  28
ENDBRANCH  26  27
ENDBRANCH   1  26
TORSDOF 17
ENDMDL
MODEL 3
REMARK VINA RESULT:     -11.7      4.534     11.676
REMARK SMILES CN1C(=O)/C(=C/c2ccc(OCC(=O)OCCOC(=O)c3ccc(-c4c5nc(c(-c6cccc(S(=O)(=O)[O-])c6F)c6ccc([nH]6)c(-c6cccc(S(=O)(=O)[O-])c6F)c6nc(c(-c7cccc(S(=O)(=O)[O-])c7F)c7ccc4[nH]7)C=C6)C=C5)cc3)c(Br)c2)C(=O)NC1=S
REMARK SMILES IDX 16 1 15 2 13 3 14 4 12 5 11 6 10 7 7 8 8 9 86 10 9 11 84 12
REMARK SMILES IDX 85 13 6 14 1 15 2 16 3 17 90 18 4 19 5 20 89 21 91 22 87 23
REMARK SMILES IDX 88 25 17 26 18 27 19 28 20 29 21 30 22 31 83 32 23 33 82 34
REMARK SMILES IDX 24 35 25 36 26 37 76 38 27 39 81 40 75 41 77 42 28 43 80 44
REMARK SMILES IDX 74 45 73 46 29 48 61 49 41 50 60 51 42 52 45 53 59 54 78 55
REMARK SMILES IDX 43 56 44 57 58 59 79 60 46 61 30 62 31 63 39 64 32 65 34 66
REMARK SMILES IDX 40 67 33 68 35 69 36 70 37 71 38 72 62 73 63 74 71 75 64 76
REMARK SMILES IDX 66 77 72 78 65 79 67 80 68 81 69 82 70 83 47 84 48 85 56 86
REMARK SMILES IDX 49 87 51 88 57 89 50 90 52 91 53 92 54 93 55 94
REMARK H PARENT 89 24 77 47 45 58
REMARK Flexibility Score: inf
ROOT
ATOM      1  C   UNL A   1      33.567  34.848  28.740  1.00  0.00     0.274 C 
ENDROOT
BRANCH   1   2
ATOM      2  O   UNL A   1      32.677  35.001  29.864  1.00  0.00    -0.460 OA
BRANCH   2   3
ATOM      3  C   UNL A   1      33.004  36.007  30.719  1.00  0.00     0.344 C 
ATOM      4  O   UNL A   1      32.788  37.198  30.511  1.00  0.00    -0.248 OA
BRANCH   3   5
ATOM      5  C   UNL A   1      33.761  35.530  31.953  1.00  0.00     0.352 C 
BRANCH   5   6
ATOM      6  O   UNL A   1      34.047  34.164  32.187  1.00  0.00    -0.481 OA
BRANCH   6   7
ATOM      7  C   UNL A   1      34.969  33.861  33.151  1.00  0.00     0.134 A 
ATOM      8  C   UNL A   1      36.625  33.422  35.392  1.00  0.00    -0.023 A 
ATOM      9  C   UNL A   1      35.704  34.466  35.403  1.00  0.00     0.012 A 
ATOM     10  C   UNL A   1      36.716  32.603  34.258  1.00  0.00     0.027 A 
ATOM     11  C   UNL A   1      34.891  34.685  34.285  1.00  0.00     0.048 A 
ATOM     12  C   UNL A   1      35.846  32.773  33.175  1.00  0.00     0.060 A 
ATOM     13  Br  UNL A   1      35.809  31.330  31.939  1.00  0.00    -0.047 Br
BRANCH   8  14
ATOM     14  C   UNL A   1      37.480  33.139  36.553  1.00  0.00     0.027 C 
ATOM     15  C   UNL A   1      40.125  34.619  40.258  1.00  0.00     0.156 C 
ATOM     16  N   UNL A   1      39.788  34.735  38.835  1.00  0.00    -0.288 N 
ATOM     17  C   UNL A   1      39.111  33.644  38.278  1.00  0.00     0.265 C 
ATOM     18  C   UNL A   1      40.122  35.884  38.124  1.00  0.00     0.182 C 
ATOM     19  O   UNL A   1      38.944  32.568  38.848  1.00  0.00    -0.268 OA
ATOM     20  C   UNL A   1      38.550  33.874  36.922  1.00  0.00     0.106 C 
ATOM     21  N   UNL A   1      39.775  35.913  36.802  1.00  0.00    -0.298 N 
ATOM     22  S   UNL A   1      40.937  37.232  38.687  1.00  0.00    -0.040 S 
ATOM     23  C   UNL A   1      39.104  34.961  36.095  1.00  0.00     0.263 C 
ATOM     24  H   UNL A   1      40.043  36.716  36.302  1.00  0.00     0.172 HD
ATOM     25  O   UNL A   1      39.017  35.028  34.874  1.00  0.00    -0.269 OA
ENDBRANCH   8  14
ENDBRANCH   6   7
ENDBRANCH   5   6
ENDBRANCH   3   5
ENDBRANCH   2   3
ENDBRANCH   1   2
BRANCH   1  26
ATOM     26  C   UNL A   1      33.434  33.465  28.111  1.00  0.00     0.275 C 
BRANCH  26  27
ATOM     27  O   UNL A   1      34.729  32.951  27.761  1.00  0.00    -0.458 OA
BRANCH  27  28
ATOM     28  C   UNL A   1      34.793  31.612  27.577  1.00  0.00     0.338 C 
ATOM     29  O   UNL A   1      34.001  30.915  26.966  1.00  0.00    -0.246 OA
BRANCH  28  30
ATOM     30  C   UNL A   1      35.968  31.058  28.275  1.00  0.00     0.060 A 
ATOM     31  C   UNL A   1      37.138  31.802  28.433  1.00  0.00     0.016 A 
ATOM     32  C   UNL A   1      35.920  29.727  28.694  1.00  0.00     0.016 A 
ATOM     33  C   UNL A   1      38.285  31.187  28.944  1.00  0.00     0.010 A 
ATOM     34  C   UNL A   1      37.045  29.142  29.277  1.00  0.00     0.010 A 
ATOM     35  C   UNL A   1      38.253  29.852  29.376  1.00  0.00    -0.014 A 
BRANCH  35  36
ATOM     36  C   UNL A   1      39.463  29.183  29.934  1.00  0.00     0.031 A 
ATOM     37  C   UNL A   1      40.088  29.675  31.216  1.00  0.00     0.074 A 
ATOM     38  C   UNL A   1      40.046  28.171  29.261  1.00  0.00     0.049 A 
ATOM     39  N   UNL A   1      41.230  29.338  31.759  1.00  0.00    -0.248 NA
ATOM     40  C   UNL A   1      39.341  30.688  31.982  1.00  0.00     0.031 C 
ATOM     41  C   UNL A   1      39.559  27.599  28.004  1.00  0.00     0.029 A 
ATOM     42  N   UNL A   1      41.189  27.456  29.528  1.00  0.00    -0.354 N 
ATOM     43  C   UNL A   1      41.375  30.147  32.881  1.00  0.00     0.074 A 
ATOM     44  C   UNL A   1      40.194  30.978  32.957  1.00  0.00     0.031 C 
ATOM     45  C   UNL A   1      40.387  26.618  27.617  1.00  0.00     0.029 A 
ATOM     46  C   UNL A   1      41.499  26.531  28.558  1.00  0.00     0.049 A 
ATOM     47  H   UNL A   1      41.734  27.592  30.337  1.00  0.00     0.167 HD
ATOM     48  C   UNL A   1      42.395  30.185  33.772  1.00  0.00     0.034 A 
ATOM     49  C   UNL A   1      42.569  25.725  28.415  1.00  0.00     0.034 A 
ATOM     50  C   UNL A   1      43.525  29.295  33.756  1.00  0.00     0.049 A 
ATOM     51  C   UNL A   1      43.665  25.763  29.442  1.00  0.00     0.074 A 
ATOM     52  C   UNL A   1      44.558  29.208  34.674  1.00  0.00     0.029 A 
ATOM     53  N   UNL A   1      43.768  28.334  32.789  1.00  0.00    -0.354 N 
ATOM     54  N   UNL A   1      43.744  26.479  30.536  1.00  0.00    -0.248 NA
ATOM     55  C   UNL A   1      44.814  24.872  29.222  1.00  0.00     0.031 C 
ATOM     56  C   UNL A   1      45.427  28.193  34.261  1.00  0.00     0.029 A 
ATOM     57  C   UNL A   1      44.933  27.649  33.087  1.00  0.00     0.049 A 
ATOM     58  H   UNL A   1      43.196  28.164  32.007  1.00  0.00     0.167 HD
ATOM     59  C   UNL A   1      44.939  26.114  31.145  1.00  0.00     0.074 A 
ATOM     60  C   UNL A   1      45.539  25.092  30.312  1.00  0.00     0.031 C 
ATOM     61  C   UNL A   1      45.497  26.597  32.282  1.00  0.00     0.034 A 
BRANCH  48  62
ATOM     62  C   UNL A   1      42.326  31.193  34.886  1.00  0.00     0.023 A 
ATOM     63  C   UNL A   1      41.931  30.777  36.171  1.00  0.00     0.012 A 
ATOM     64  C   UNL A   1      42.758  32.520  34.690  1.00  0.00     0.148 A 
ATOM     65  C   UNL A   1      41.963  31.668  37.243  1.00  0.00     0.002 A 
ATOM     66  C   UNL A   1      42.806  33.396  35.769  1.00  0.00     0.091 A 
ATOM     67  F   UNL A   1      43.106  32.906  33.454  1.00  0.00    -0.205 F 
ATOM     68  C   UNL A   1      42.406  32.974  37.045  1.00  0.00     0.022 A 
BRANCH  66  69
ATOM     69  S   UNL A   1      43.427  35.073  35.595  1.00  0.00     0.127 S 
ATOM     70  O   UNL A   1      42.322  35.724  34.895  1.00  0.00    -0.237 OA
ATOM     71  O   UNL A   1      43.601  35.498  36.984  1.00  0.00    -0.237 OA
ATOM     72  O   UNL A   1      44.672  34.944  34.849  1.00  0.00    -0.744 OA
ENDBRANCH  66  69
ENDBRANCH  48  62
BRANCH  49  73
ATOM     73  C   UNL A   1      42.628  24.782  27.263  1.00  0.00     0.023 A 
ATOM     74  C   UNL A   1      43.297  25.176  26.089  1.00  0.00     0.012 A 
ATOM     75  C   UNL A   1      42.093  23.483  27.348  1.00  0.00     0.148 A 
ATOM     76  C   UNL A   1      43.426  24.295  25.015  1.00  0.00     0.002 A 
ATOM     77  C   UNL A   1      42.278  22.589  26.299  1.00  0.00     0.091 A 
ATOM     78  F   UNL A   1      41.439  23.135  28.465  1.00  0.00    -0.205 F 
ATOM     79  C   UNL A   1      42.932  22.998  25.126  1.00  0.00     0.022 A 
BRANCH  77  80
ATOM     80  S   UNL A   1      41.808  20.860  26.421  1.00  0.00     0.127 S 
ATOM     81  O   UNL A   1      40.380  20.915  26.122  1.00  0.00    -0.237 OA
ATOM     82  O   UNL A   1      42.632  20.245  25.380  1.00  0.00    -0.237 OA
ATOM     83  O   UNL A   1      42.158  20.455  27.776  1.00  0.00    -0.744 OA
ENDBRANCH  77  80
ENDBRANCH  49  73
BRANCH  61  84
ATOM     84  C   UNL A   1      46.821  26.022  32.707  1.00  0.00     0.023 A 
ATOM     85  C   UNL A   1      48.012  26.630  32.267  1.00  0.00     0.012 A 
ATOM     86  C   UNL A   1      46.887  24.930  33.594  1.00  0.00     0.148 A 
ATOM     87  C   UNL A   1      49.252  26.144  32.683  1.00  0.00     0.002 A 
ATOM     88  C   UNL A   1      48.125  24.475  34.035  1.00  0.00     0.091 A 
ATOM     89  F   UNL A   1      45.742  24.351  33.984  1.00  0.00    -0.205 F 
ATOM     90  C   UNL A   1      49.308  25.075  33.574  1.00  0.00     0.022 A 
BRANCH  88  91
ATOM     91  S   UNL A   1      48.282  23.158  35.246  1.00  0.00     0.127 S 
ATOM     92  O   UNL A   1      49.681  23.287  35.649  1.00  0.00    -0.237 OA
ATOM     93  O   UNL A   1      47.314  23.553  36.270  1.00  0.00    -0.237 OA
ATOM     94  O   UNL A   1      47.940  21.930  34.541  1.00  0.00    -0.744 OA
ENDBRANCH  88  91
ENDBRANCH  61  84
ENDBRANCH  35  36
ENDBRANCH  28  30
ENDBRANCH  27  28
ENDBRANCH  26  27
ENDBRANCH   1  26
TORSDOF 17
ENDMDL
