MODEL 1
REMARK VINA RESULT:     -10.6      0.000      0.000
REMARK SMILES O=C(CN(CC(F)(F)F)C(=O)CC[C@H]1CCC[NH2+]C1)OCCOC(=O)c1ccc(-c2c3nc(c(-c4cccc(S(=O)(=O)[O-])c4F)c4ccc([nH]4)c(-c4cccc(S(=O)(=O)[O-])c4F)c4nc(c(-c5cccc(S(=O)(=O)[O-])c5F)c5ccc2[nH]5)C=C4)C=C3)cc1
REMARK SMILES IDX 21 1 20 2 2 3 1 4 3 5 4 6 5 7 6 8 7 9 8 10 9 11 10 12 11 13
REMARK SMILES IDX 12 14 13 15 14 16 15 17 19 18 16 19 18 20 17 21 22 24 23 25
REMARK SMILES IDX 24 26 25 27 26 28 27 29 88 30 28 31 87 32 29 33 30 34 31 35
REMARK SMILES IDX 81 36 32 37 86 38 80 39 82 40 33 41 85 42 79 43 78 44 34 46
REMARK SMILES IDX 66 47 46 48 65 49 47 50 50 51 64 52 83 53 48 54 49 55 63 57
REMARK SMILES IDX 84 58 51 59 35 60 36 61 44 62 37 63 39 64 45 65 38 66 40 67
REMARK SMILES IDX 41 68 42 69 43 70 67 71 68 72 76 73 69 74 71 75 77 76 70 77
REMARK SMILES IDX 72 78 73 79 74 80 75 81 52 82 53 83 61 84 54 85 56 86 62 87
REMARK SMILES IDX 55 88 57 89 58 90 59 91 60 92
REMARK H PARENT 18 22 18 23 82 45 50 56
REMARK Flexibility Score: inf
ROOT
ATOM      1  C   UNL A   1      31.151  30.778  25.309  1.00  0.00     0.274 C 
ENDROOT
BRANCH   1   2
ATOM      2  O   UNL A   1      31.991  29.620  25.150  1.00  0.00    -0.461 OA
BRANCH   2   3
ATOM      3  C   UNL A   1      32.126  28.883  24.018  1.00  0.00     0.325 C 
ATOM      4  O   UNL A   1      31.267  28.976  23.143  1.00  0.00    -0.250 OA
BRANCH   3   5
ATOM      5  C   UNL A   1      33.256  27.839  23.929  1.00  0.00     0.242 C 
BRANCH   5   6
ATOM      6  N   UNL A   1      32.947  26.414  23.767  1.00  0.00    -0.322 N 
BRANCH   6   7
ATOM      7  C   UNL A   1      31.921  25.842  24.665  1.00  0.00     0.235 C 
BRANCH   7   8
ATOM      8  C   UNL A   1      32.335  25.471  26.088  1.00  0.00     0.406 C 
ATOM      9  F   UNL A   1      33.671  25.381  26.218  1.00  0.00    -0.169 F 
ATOM     10  F   UNL A   1      31.888  26.417  26.946  1.00  0.00    -0.169 F 
ATOM     11  F   UNL A   1      31.782  24.298  26.437  1.00  0.00    -0.169 F 
ENDBRANCH   7   8
ENDBRANCH   6   7
BRANCH   6  12
ATOM     12  C   UNL A   1      33.380  25.794  22.602  1.00  0.00     0.223 C 
ATOM     13  O   UNL A   1      33.840  26.447  21.667  1.00  0.00    -0.275 OA
BRANCH  12  14
ATOM     14  C   UNL A   1      33.351  24.273  22.502  1.00  0.00     0.101 C 
BRANCH  14  15
ATOM     15  C   UNL A   1      34.467  23.569  23.294  1.00  0.00     0.019 C 
BRANCH  15  16
ATOM     16  C   UNL A   1      34.079  22.442  24.289  1.00  0.00     0.045 C 
ATOM     17  C   UNL A   1      32.838  21.671  23.822  1.00  0.00     0.015 C 
ATOM     18  C   UNL A   1      35.272  21.547  24.679  1.00  0.00     0.264 C 
ATOM     19  C   UNL A   1      32.615  20.339  24.529  1.00  0.00     0.062 C 
ATOM     20  N   UNL A   1      34.872  20.380  25.466  1.00  0.00    -0.346 N 
ATOM     21  C   UNL A   1      33.904  19.559  24.748  1.00  0.00     0.260 C 
ATOM     22  H   UNL A   1      35.700  19.818  25.667  1.00  0.00     0.346 HD
ATOM     23  H   UNL A   1      34.438  20.708  26.327  1.00  0.00     0.346 HD
ENDBRANCH  15  16
ENDBRANCH  14  15
ENDBRANCH  12  14
ENDBRANCH   6  12
ENDBRANCH   5   6
ENDBRANCH   3   5
ENDBRANCH   2   3
ENDBRANCH   1   2
BRANCH   1  24
ATOM     24  C   UNL A   1      31.490  31.541  26.587  1.00  0.00     0.275 C 
BRANCH  24  25
ATOM     25  O   UNL A   1      32.867  31.283  26.905  1.00  0.00    -0.458 OA
BRANCH  25  26
ATOM     26  C   UNL A   1      33.518  32.302  27.520  1.00  0.00     0.338 C 
ATOM     27  O   UNL A   1      33.065  33.391  27.805  1.00  0.00    -0.246 OA
BRANCH  26  28
ATOM     28  C   UNL A   1      34.811  31.779  28.018  1.00  0.00     0.060 A 
ATOM     29  C   UNL A   1      34.864  30.423  28.368  1.00  0.00     0.016 A 
ATOM     30  C   UNL A   1      35.967  32.567  28.060  1.00  0.00     0.016 A 
ATOM     31  C   UNL A   1      36.065  29.860  28.794  1.00  0.00     0.010 A 
ATOM     32  C   UNL A   1      37.168  32.002  28.493  1.00  0.00     0.010 A 
ATOM     33  C   UNL A   1      37.213  30.656  28.892  1.00  0.00    -0.014 A 
BRANCH  33  34
ATOM     34  C   UNL A   1      38.395  30.140  29.621  1.00  0.00     0.031 A 
ATOM     35  C   UNL A   1      38.640  30.659  31.009  1.00  0.00     0.074 A 
ATOM     36  C   UNL A   1      39.232  29.240  29.076  1.00  0.00     0.049 A 
ATOM     37  N   UNL A   1      39.564  30.318  31.866  1.00  0.00    -0.248 NA
ATOM     38  C   UNL A   1      37.711  31.693  31.502  1.00  0.00     0.031 C 
ATOM     39  C   UNL A   1      39.098  28.653  27.746  1.00  0.00     0.029 A 
ATOM     40  N   UNL A   1      40.382  28.681  29.571  1.00  0.00    -0.354 N 
ATOM     41  C   UNL A   1      39.324  31.083  32.999  1.00  0.00     0.074 A 
ATOM     42  C   UNL A   1      38.192  31.936  32.712  1.00  0.00     0.031 C 
ATOM     43  C   UNL A   1      40.162  27.869  27.501  1.00  0.00     0.029 A 
ATOM     44  C   UNL A   1      41.034  27.871  28.671  1.00  0.00     0.049 A 
ATOM     45  H   UNL A   1      40.709  28.844  30.486  1.00  0.00     0.167 HD
ATOM     46  C   UNL A   1      39.964  31.051  34.189  1.00  0.00     0.034 A 
ATOM     47  C   UNL A   1      42.196  27.199  28.788  1.00  0.00     0.034 A 
ATOM     48  C   UNL A   1      41.084  30.202  34.476  1.00  0.00     0.049 A 
ATOM     49  C   UNL A   1      42.917  27.212  30.111  1.00  0.00     0.074 A 
ATOM     50  C   UNL A   1      41.776  30.064  35.665  1.00  0.00     0.029 A 
ATOM     51  N   UNL A   1      41.689  29.360  33.557  1.00  0.00    -0.354 N 
ATOM     52  N   UNL A   1      42.577  27.809  31.229  1.00  0.00    -0.248 NA
ATOM     53  C   UNL A   1      44.150  26.417  30.206  1.00  0.00     0.031 C 
ATOM     54  C   UNL A   1      42.815  29.152  35.459  1.00  0.00     0.029 A 
ATOM     55  C   UNL A   1      42.758  28.710  34.146  1.00  0.00     0.049 A 
ATOM     56  H   UNL A   1      41.401  29.242  32.623  1.00  0.00     0.167 HD
ATOM     57  C   UNL A   1      43.526  27.423  32.171  1.00  0.00     0.074 A 
ATOM     58  C   UNL A   1      44.448  26.534  31.494  1.00  0.00     0.031 C 
ATOM     59  C   UNL A   1      43.629  27.779  33.474  1.00  0.00     0.034 A 
BRANCH  46  60
ATOM     60  C   UNL A   1      39.429  31.933  35.281  1.00  0.00     0.023 A 
ATOM     61  C   UNL A   1      38.433  31.431  36.144  1.00  0.00     0.012 A 
ATOM     62  C   UNL A   1      39.926  33.234  35.475  1.00  0.00     0.148 A 
ATOM     63  C   UNL A   1      37.924  32.221  37.172  1.00  0.00     0.002 A 
ATOM     64  C   UNL A   1      39.439  34.002  36.525  1.00  0.00     0.091 A 
ATOM     65  F   UNL A   1      40.847  33.701  34.619  1.00  0.00    -0.205 F 
ATOM     66  C   UNL A   1      38.433  33.501  37.369  1.00  0.00     0.022 A 
BRANCH  64  67
ATOM     67  S   UNL A   1      40.074  35.641  36.892  1.00  0.00     0.127 S 
ATOM     68  O   UNL A   1      39.650  36.393  35.711  1.00  0.00    -0.237 OA
ATOM     69  O   UNL A   1      39.359  35.981  38.122  1.00  0.00    -0.237 OA
ATOM     70  O   UNL A   1      41.513  35.484  37.052  1.00  0.00    -0.744 OA
ENDBRANCH  64  67
ENDBRANCH  46  60
BRANCH  47  71
ATOM     71  C   UNL A   1      42.710  26.391  27.647  1.00  0.00     0.023 A 
ATOM     72  C   UNL A   1      43.628  26.967  26.747  1.00  0.00     0.012 A 
ATOM     73  C   UNL A   1      42.302  25.057  27.451  1.00  0.00     0.148 A 
ATOM     74  C   UNL A   1      44.107  26.240  25.656  1.00  0.00     0.002 A 
ATOM     75  C   UNL A   1      42.816  24.324  26.387  1.00  0.00     0.091 A 
ATOM     76  F   UNL A   1      41.413  24.533  28.307  1.00  0.00    -0.205 F 
ATOM     77  C   UNL A   1      43.707  24.918  25.480  1.00  0.00     0.022 A 
BRANCH  75  78
ATOM     78  S   UNL A   1      42.436  22.584  26.148  1.00  0.00     0.127 S 
ATOM     79  O   UNL A   1      43.037  21.980  27.334  1.00  0.00    -0.237 OA
ATOM     80  O   UNL A   1      40.973  22.588  26.134  1.00  0.00    -0.237 OA
ATOM     81  O   UNL A   1      43.043  22.224  24.873  1.00  0.00    -0.744 OA
ENDBRANCH  75  78
ENDBRANCH  47  71
BRANCH  59  82
ATOM     82  C   UNL A   1      44.759  27.193  34.277  1.00  0.00     0.023 A 
ATOM     83  C   UNL A   1      45.991  27.873  34.343  1.00  0.00     0.012 A 
ATOM     84  C   UNL A   1      44.568  26.028  35.045  1.00  0.00     0.148 A 
ATOM     85  C   UNL A   1      47.024  27.388  35.143  1.00  0.00     0.002 A 
ATOM     86  C   UNL A   1      45.586  25.576  35.876  1.00  0.00     0.091 A 
ATOM     87  F   UNL A   1      43.394  25.386  34.953  1.00  0.00    -0.205 F 
ATOM     88  C   UNL A   1      46.818  26.249  35.919  1.00  0.00     0.022 A 
BRANCH  86  89
ATOM     89  S   UNL A   1      45.370  24.177  36.982  1.00  0.00     0.127 S 
ATOM     90  O   UNL A   1      44.946  23.128  36.057  1.00  0.00    -0.237 OA
ATOM     91  O   UNL A   1      46.714  24.001  37.531  1.00  0.00    -0.237 OA
ATOM     92  O   UNL A   1      44.372  24.593  37.959  1.00  0.00    -0.744 OA
ENDBRANCH  86  89
ENDBRANCH  59  82
ENDBRANCH  33  34
ENDBRANCH  26  28
ENDBRANCH  25  26
ENDBRANCH  24  25
ENDBRANCH   1  24
TORSDOF 21
ENDMDL
MODEL 2
REMARK VINA RESULT:     -10.6      5.277     10.248
REMARK SMILES O=C(CN(CC(F)(F)F)C(=O)CC[C@H]1CCC[NH2+]C1)OCCOC(=O)c1ccc(-c2c3nc(c(-c4cccc(S(=O)(=O)[O-])c4F)c4ccc([nH]4)c(-c4cccc(S(=O)(=O)[O-])c4F)c4nc(c(-c5cccc(S(=O)(=O)[O-])c5F)c5ccc2[nH]5)C=C4)C=C3)cc1
REMARK SMILES IDX 21 1 20 2 2 3 1 4 3 5 4 6 5 7 6 8 7 9 8 10 9 11 10 12 11 13
REMARK SMILES IDX 12 14 13 15 14 16 15 17 19 18 16 19 18 20 17 21 22 24 23 25
REMARK SMILES IDX 24 26 25 27 26 28 27 29 88 30 28 31 87 32 29 33 30 34 31 35
REMARK SMILES IDX 81 36 32 37 86 38 80 39 82 40 33 41 85 42 79 43 78 44 34 46
REMARK SMILES IDX 66 47 46 48 65 49 47 50 50 51 64 52 83 53 48 54 49 55 63 57
REMARK SMILES IDX 84 58 51 59 35 60 36 61 44 62 37 63 39 64 45 65 38 66 40 67
REMARK SMILES IDX 41 68 42 69 43 70 67 71 68 72 76 73 69 74 71 75 77 76 70 77
REMARK SMILES IDX 72 78 73 79 74 80 75 81 52 82 53 83 61 84 54 85 56 86 62 87
REMARK SMILES IDX 55 88 57 89 58 90 59 91 60 92
REMARK H PARENT 18 22 18 23 82 45 50 56
REMARK Flexibility Score: inf
ROOT
ATOM      1  C   UNL A   1      36.475  20.324  25.035  1.00  0.00     0.274 C 
ENDROOT
BRANCH   1   2
ATOM      2  O   UNL A   1      36.268  21.527  25.797  1.00  0.00    -0.461 OA
BRANCH   2   3
ATOM      3  C   UNL A   1      35.066  22.079  26.103  1.00  0.00     0.325 C 
ATOM      4  O   UNL A   1      34.474  21.695  27.110  1.00  0.00    -0.250 OA
BRANCH   3   5
ATOM      5  C   UNL A   1      34.407  23.050  25.105  1.00  0.00     0.242 C 
BRANCH   5   6
ATOM      6  N   UNL A   1      32.990  22.912  24.751  1.00  0.00    -0.322 N 
BRANCH   6   7
ATOM      7  C   UNL A   1      32.337  24.079  24.121  1.00  0.00     0.235 C 
BRANCH   7   8
ATOM      8  C   UNL A   1      32.806  24.502  22.729  1.00  0.00     0.406 C 
ATOM      9  F   UNL A   1      33.870  25.324  22.783  1.00  0.00    -0.169 F 
ATOM     10  F   UNL A   1      33.152  23.404  22.020  1.00  0.00    -0.169 F 
ATOM     11  F   UNL A   1      31.808  25.121  22.077  1.00  0.00    -0.169 F 
ENDBRANCH   7   8
ENDBRANCH   6   7
BRANCH   6  12
ATOM     12  C   UNL A   1      32.459  21.629  24.725  1.00  0.00     0.223 C 
ATOM     13  O   UNL A   1      31.508  21.318  25.441  1.00  0.00    -0.275 OA
BRANCH  12  14
ATOM     14  C   UNL A   1      33.016  20.603  23.744  1.00  0.00     0.101 C 
BRANCH  14  15
ATOM     15  C   UNL A   1      32.073  19.418  23.472  1.00  0.00     0.019 C 
BRANCH  15  16
ATOM     16  C   UNL A   1      32.460  18.016  24.015  1.00  0.00     0.045 C 
ATOM     17  C   UNL A   1      33.557  17.360  23.167  1.00  0.00     0.015 C 
ATOM     18  C   UNL A   1      32.742  18.014  25.530  1.00  0.00     0.264 C 
ATOM     19  C   UNL A   1      34.246  16.171  23.831  1.00  0.00     0.062 C 
ATOM     20  N   UNL A   1      33.283  16.741  26.005  1.00  0.00    -0.346 N 
ATOM     21  C   UNL A   1      34.520  16.395  25.312  1.00  0.00     0.260 C 
ATOM     22  H   UNL A   1      33.473  16.814  27.005  1.00  0.00     0.346 HD
ATOM     23  H   UNL A   1      32.597  16.011  25.818  1.00  0.00     0.346 HD
ENDBRANCH  15  16
ENDBRANCH  14  15
ENDBRANCH  12  14
ENDBRANCH   6  12
ENDBRANCH   5   6
ENDBRANCH   3   5
ENDBRANCH   2   3
ENDBRANCH   1   2
BRANCH   1  24
ATOM     24  C   UNL A   1      37.947  19.922  25.016  1.00  0.00     0.275 C 
BRANCH  24  25
ATOM     25  O   UNL A   1      38.727  21.084  25.343  1.00  0.00    -0.458 OA
BRANCH  25  26
ATOM     26  C   UNL A   1      39.751  20.867  26.206  1.00  0.00     0.338 C 
ATOM     27  O   UNL A   1      40.365  19.833  26.365  1.00  0.00    -0.246 OA
BRANCH  26  28
ATOM     28  C   UNL A   1      40.169  22.179  26.752  1.00  0.00     0.060 A 
ATOM     29  C   UNL A   1      39.535  23.319  26.241  1.00  0.00     0.016 A 
ATOM     30  C   UNL A   1      41.093  22.291  27.799  1.00  0.00     0.016 A 
ATOM     31  C   UNL A   1      39.848  24.578  26.751  1.00  0.00     0.010 A 
ATOM     32  C   UNL A   1      41.408  23.552  28.304  1.00  0.00     0.010 A 
ATOM     33  C   UNL A   1      40.812  24.703  27.759  1.00  0.00    -0.014 A 
BRANCH  33  34
ATOM     34  C   UNL A   1      41.355  26.042  28.084  1.00  0.00     0.031 A 
ATOM     35  C   UNL A   1      42.770  26.338  27.675  1.00  0.00     0.074 A 
ATOM     36  C   UNL A   1      40.624  26.972  28.722  1.00  0.00     0.049 A 
ATOM     37  N   UNL A   1      43.446  27.449  27.790  1.00  0.00    -0.248 NA
ATOM     38  C   UNL A   1      43.519  25.238  27.040  1.00  0.00     0.031 C 
ATOM     39  C   UNL A   1      39.241  26.812  29.161  1.00  0.00     0.029 A 
ATOM     40  N   UNL A   1      40.960  28.236  29.137  1.00  0.00    -0.354 N 
ATOM     41  C   UNL A   1      44.691  27.188  27.235  1.00  0.00     0.074 A 
ATOM     42  C   UNL A   1      44.696  25.804  26.818  1.00  0.00     0.031 C 
ATOM     43  C   UNL A   1      38.866  27.906  29.845  1.00  0.00     0.029 A 
ATOM     44  C   UNL A   1      39.971  28.859  29.861  1.00  0.00     0.049 A 
ATOM     45  H   UNL A   1      41.827  28.657  28.935  1.00  0.00     0.167 HD
ATOM     46  C   UNL A   1      45.728  28.036  27.054  1.00  0.00     0.034 A 
ATOM     47  C   UNL A   1      39.959  30.067  30.458  1.00  0.00     0.034 A 
ATOM     48  C   UNL A   1      45.723  29.411  27.464  1.00  0.00     0.049 A 
ATOM     49  C   UNL A   1      41.143  30.981  30.279  1.00  0.00     0.074 A 
ATOM     50  C   UNL A   1      46.707  30.365  27.287  1.00  0.00     0.029 A 
ATOM     51  N   UNL A   1      44.687  30.023  28.153  1.00  0.00    -0.354 N 
ATOM     52  N   UNL A   1      42.248  30.776  29.600  1.00  0.00    -0.248 NA
ATOM     53  C   UNL A   1      41.059  32.311  30.899  1.00  0.00     0.031 C 
ATOM     54  C   UNL A   1      46.275  31.551  27.887  1.00  0.00     0.029 A 
ATOM     55  C   UNL A   1      45.014  31.338  28.424  1.00  0.00     0.049 A 
ATOM     56  H   UNL A   1      43.844  29.585  28.411  1.00  0.00     0.167 HD
ATOM     57  C   UNL A   1      42.966  31.966  29.672  1.00  0.00     0.074 A 
ATOM     58  C   UNL A   1      42.167  32.888  30.452  1.00  0.00     0.031 C 
ATOM     59  C   UNL A   1      44.180  32.263  29.148  1.00  0.00     0.034 A 
BRANCH  46  60
ATOM     60  C   UNL A   1      46.934  27.502  26.336  1.00  0.00     0.023 A 
ATOM     61  C   UNL A   1      47.842  26.680  27.035  1.00  0.00     0.012 A 
ATOM     62  C   UNL A   1      47.155  27.781  24.976  1.00  0.00     0.148 A 
ATOM     63  C   UNL A   1      48.965  26.161  26.395  1.00  0.00     0.002 A 
ATOM     64  C   UNL A   1      48.258  27.232  24.335  1.00  0.00     0.091 A 
ATOM     65  F   UNL A   1      46.297  28.596  24.342  1.00  0.00    -0.205 F 
ATOM     66  C   UNL A   1      49.167  26.428  25.043  1.00  0.00     0.022 A 
BRANCH  64  67
ATOM     67  S   UNL A   1      48.571  27.473  22.583  1.00  0.00     0.127 S 
ATOM     68  O   UNL A   1      49.841  28.197  22.609  1.00  0.00    -0.237 OA
ATOM     69  O   UNL A   1      48.662  26.097  22.093  1.00  0.00    -0.237 OA
ATOM     70  O   UNL A   1      47.431  28.223  22.074  1.00  0.00    -0.744 OA
ENDBRANCH  64  67
ENDBRANCH  46  60
BRANCH  47  71
ATOM     71  C   UNL A   1      38.755  30.517  31.211  1.00  0.00     0.023 A 
ATOM     72  C   UNL A   1      38.668  30.263  32.594  1.00  0.00     0.012 A 
ATOM     73  C   UNL A   1      37.703  31.200  30.571  1.00  0.00     0.148 A 
ATOM     74  C   UNL A   1      37.541  30.652  33.319  1.00  0.00     0.002 A 
ATOM     75  C   UNL A   1      36.602  31.624  31.307  1.00  0.00     0.091 A 
ATOM     76  F   UNL A   1      37.796  31.416  29.251  1.00  0.00    -0.205 F 
ATOM     77  C   UNL A   1      36.512  31.338  32.678  1.00  0.00     0.022 A 
BRANCH  75  78
ATOM     78  S   UNL A   1      35.283  32.605  30.582  1.00  0.00     0.127 S 
ATOM     79  O   UNL A   1      35.984  33.837  30.230  1.00  0.00    -0.237 OA
ATOM     80  O   UNL A   1      34.877  31.781  29.443  1.00  0.00    -0.237 OA
ATOM     81  O   UNL A   1      34.269  32.725  31.622  1.00  0.00    -0.744 OA
ENDBRANCH  75  78
ENDBRANCH  47  71
BRANCH  59  82
ATOM     82  C   UNL A   1      44.721  33.650  29.368  1.00  0.00     0.023 A 
ATOM     83  C   UNL A   1      45.474  33.927  30.526  1.00  0.00     0.012 A 
ATOM     84  C   UNL A   1      44.572  34.646  28.382  1.00  0.00     0.148 A 
ATOM     85  C   UNL A   1      46.050  35.183  30.711  1.00  0.00     0.002 A 
ATOM     86  C   UNL A   1      45.188  35.880  28.553  1.00  0.00     0.091 A 
ATOM     87  F   UNL A   1      43.836  34.367  27.297  1.00  0.00    -0.205 F 
ATOM     88  C   UNL A   1      45.918  36.153  29.721  1.00  0.00     0.022 A 
BRANCH  86  89
ATOM     89  S   UNL A   1      45.153  37.150  27.283  1.00  0.00     0.127 S 
ATOM     90  O   UNL A   1      45.780  38.277  27.971  1.00  0.00    -0.237 OA
ATOM     91  O   UNL A   1      45.965  36.554  26.222  1.00  0.00    -0.237 OA
ATOM     92  O   UNL A   1      43.750  37.328  26.936  1.00  0.00    -0.744 OA
ENDBRANCH  86  89
ENDBRANCH  59  82
ENDBRANCH  33  34
ENDBRANCH  26  28
ENDBRANCH  25  26
ENDBRANCH  24  25
ENDBRANCH   1  24
TORSDOF 21
ENDMDL
MODEL 3
REMARK VINA RESULT:     -10.4      4.729     10.172
REMARK SMILES O=C(CN(CC(F)(F)F)C(=O)CC[C@H]1CCC[NH2+]C1)OCCOC(=O)c1ccc(-c2c3nc(c(-c4cccc(S(=O)(=O)[O-])c4F)c4ccc([nH]4)c(-c4cccc(S(=O)(=O)[O-])c4F)c4nc(c(-c5cccc(S(=O)(=O)[O-])c5F)c5ccc2[nH]5)C=C4)C=C3)cc1
REMARK SMILES IDX 21 1 20 2 2 3 1 4 3 5 4 6 5 7 6 8 7 9 8 10 9 11 10 12 11 13
REMARK SMILES IDX 12 14 13 15 14 16 15 17 19 18 16 19 18 20 17 21 22 24 23 25
REMARK SMILES IDX 24 26 25 27 26 28 27 29 88 30 28 31 87 32 29 33 30 34 31 35
REMARK SMILES IDX 81 36 32 37 86 38 80 39 82 40 33 41 85 42 79 43 78 44 34 46
REMARK SMILES IDX 66 47 46 48 65 49 47 50 50 51 64 52 83 53 48 54 49 55 63 57
REMARK SMILES IDX 84 58 51 59 35 60 36 61 44 62 37 63 39 64 45 65 38 66 40 67
REMARK SMILES IDX 41 68 42 69 43 70 67 71 68 72 76 73 69 74 71 75 77 76 70 77
REMARK SMILES IDX 72 78 73 79 74 80 75 81 52 82 53 83 61 84 54 85 56 86 62 87
REMARK SMILES IDX 55 88 57 89 58 90 59 91 60 92
REMARK H PARENT 18 22 18 23 82 45 50 56
REMARK Flexibility Score: inf
ROOT
ATOM      1  C   UNL A   1      36.008  20.838  25.383  1.00  0.00     0.274 C 
ENDROOT
BRANCH   1   2
ATOM      2  O   UNL A   1      34.926  20.035  24.877  1.00  0.00    -0.461 OA
BRANCH   2   3
ATOM      3  C   UNL A   1      33.630  20.421  24.768  1.00  0.00     0.325 C 
ATOM      4  O   UNL A   1      32.919  19.886  23.919  1.00  0.00    -0.250 OA
BRANCH   3   5
ATOM      5  C   UNL A   1      33.128  21.619  25.597  1.00  0.00     0.242 C 
BRANCH   5   6
ATOM      6  N   UNL A   1      32.602  22.819  24.936  1.00  0.00    -0.322 N 
BRANCH   6   7
ATOM      7  C   UNL A   1      31.165  23.112  25.121  1.00  0.00     0.235 C 
BRANCH   7   8
ATOM      8  C   UNL A   1      30.726  23.770  26.428  1.00  0.00     0.406 C 
ATOM      9  F   UNL A   1      31.717  23.793  27.338  1.00  0.00    -0.169 F 
ATOM     10  F   UNL A   1      30.345  25.044  26.184  1.00  0.00    -0.169 F 
ATOM     11  F   UNL A   1      29.674  23.112  26.944  1.00  0.00    -0.169 F 
ENDBRANCH   7   8
ENDBRANCH   6   7
BRANCH   6  12
ATOM     12  C   UNL A   1      33.522  23.749  24.472  1.00  0.00     0.223 C 
ATOM     13  O   UNL A   1      34.002  23.662  23.342  1.00  0.00    -0.275 OA
BRANCH  12  14
ATOM     14  C   UNL A   1      33.896  24.941  25.346  1.00  0.00     0.101 C 
BRANCH  14  15
ATOM     15  C   UNL A   1      33.696  26.307  24.666  1.00  0.00     0.019 C 
BRANCH  15  16
ATOM     16  C   UNL A   1      32.311  26.637  24.046  1.00  0.00     0.045 C 
ATOM     17  C   UNL A   1      31.638  27.820  24.752  1.00  0.00     0.015 C 
ATOM     18  C   UNL A   1      32.352  26.754  22.510  1.00  0.00     0.264 C 
ATOM     19  C   UNL A   1      30.472  28.437  23.986  1.00  0.00     0.062 C 
ATOM     20  N   UNL A   1      31.095  27.244  21.945  1.00  0.00    -0.346 N 
ATOM     21  C   UNL A   1      30.737  28.549  22.490  1.00  0.00     0.260 C 
ATOM     22  H   UNL A   1      31.196  27.324  20.933  1.00  0.00     0.346 HD
ATOM     23  H   UNL A   1      30.357  26.583  22.185  1.00  0.00     0.346 HD
ENDBRANCH  15  16
ENDBRANCH  14  15
ENDBRANCH  12  14
ENDBRANCH   6  12
ENDBRANCH   5   6
ENDBRANCH   3   5
ENDBRANCH   2   3
ENDBRANCH   1   2
BRANCH   1  24
ATOM     24  C   UNL A   1      37.363  20.291  24.944  1.00  0.00     0.275 C 
BRANCH  24  25
ATOM     25  O   UNL A   1      38.339  21.330  25.126  1.00  0.00    -0.458 OA
BRANCH  25  26
ATOM     26  C   UNL A   1      39.316  21.052  26.025  1.00  0.00     0.338 C 
ATOM     27  O   UNL A   1      39.864  19.984  26.201  1.00  0.00    -0.246 OA
BRANCH  26  28
ATOM     28  C   UNL A   1      39.788  22.335  26.594  1.00  0.00     0.060 A 
ATOM     29  C   UNL A   1      39.150  23.505  26.158  1.00  0.00     0.016 A 
ATOM     30  C   UNL A   1      40.768  22.393  27.592  1.00  0.00     0.016 A 
ATOM     31  C   UNL A   1      39.514  24.738  26.695  1.00  0.00     0.010 A 
ATOM     32  C   UNL A   1      41.135  23.630  28.124  1.00  0.00     0.010 A 
ATOM     33  C   UNL A   1      40.532  24.809  27.654  1.00  0.00    -0.014 A 
BRANCH  33  34
ATOM     34  C   UNL A   1      41.118  26.126  27.995  1.00  0.00     0.031 A 
ATOM     35  C   UNL A   1      42.544  26.380  27.595  1.00  0.00     0.074 A 
ATOM     36  C   UNL A   1      40.415  27.073  28.642  1.00  0.00     0.049 A 
ATOM     37  N   UNL A   1      43.256  27.467  27.726  1.00  0.00    -0.248 NA
ATOM     38  C   UNL A   1      43.259  25.264  26.951  1.00  0.00     0.031 C 
ATOM     39  C   UNL A   1      39.026  26.953  29.073  1.00  0.00     0.029 A 
ATOM     40  N   UNL A   1      40.791  28.319  29.072  1.00  0.00    -0.354 N 
ATOM     41  C   UNL A   1      44.494  27.171  27.173  1.00  0.00     0.074 A 
ATOM     42  C   UNL A   1      44.455  25.792  26.740  1.00  0.00     0.031 C 
ATOM     43  C   UNL A   1      38.684  28.051  29.769  1.00  0.00     0.029 A 
ATOM     44  C   UNL A   1      39.820  28.967  29.800  1.00  0.00     0.049 A 
ATOM     45  H   UNL A   1      41.672  28.714  28.878  1.00  0.00     0.167 HD
ATOM     46  C   UNL A   1      45.558  27.987  27.005  1.00  0.00     0.034 A 
ATOM     47  C   UNL A   1      39.845  30.168  30.410  1.00  0.00     0.034 A 
ATOM     48  C   UNL A   1      45.597  29.356  27.431  1.00  0.00     0.049 A 
ATOM     49  C   UNL A   1      41.060  31.044  30.247  1.00  0.00     0.074 A 
ATOM     50  C   UNL A   1      46.613  30.279  27.268  1.00  0.00     0.029 A 
ATOM     51  N   UNL A   1      44.579  29.994  28.123  1.00  0.00    -0.354 N 
ATOM     52  N   UNL A   1      42.160  30.811  29.570  1.00  0.00    -0.248 NA
ATOM     53  C   UNL A   1      41.017  32.369  30.882  1.00  0.00     0.031 C 
ATOM     54  C   UNL A   1      46.217  31.472  27.881  1.00  0.00     0.029 A 
ATOM     55  C   UNL A   1      44.948  31.295  28.410  1.00  0.00     0.049 A 
ATOM     56  H   UNL A   1      43.720  29.581  28.373  1.00  0.00     0.167 HD
ATOM     57  C   UNL A   1      42.916  31.975  29.658  1.00  0.00     0.074 A 
ATOM     58  C   UNL A   1      42.145  32.915  30.446  1.00  0.00     0.031 C 
ATOM     59  C   UNL A   1      44.141  32.238  29.142  1.00  0.00     0.034 A 
BRANCH  46  60
ATOM     60  C   UNL A   1      46.750  27.421  26.286  1.00  0.00     0.023 A 
ATOM     61  C   UNL A   1      46.843  27.570  24.887  1.00  0.00     0.012 A 
ATOM     62  C   UNL A   1      47.785  26.778  26.987  1.00  0.00     0.148 A 
ATOM     63  C   UNL A   1      47.940  27.066  24.193  1.00  0.00     0.002 A 
ATOM     64  C   UNL A   1      48.893  26.309  26.292  1.00  0.00     0.091 A 
ATOM     65  F   UNL A   1      47.656  26.617  28.312  1.00  0.00    -0.205 F 
ATOM     66  C   UNL A   1      48.969  26.445  24.895  1.00  0.00     0.022 A 
BRANCH  64  67
ATOM     67  S   UNL A   1      50.294  25.547  27.117  1.00  0.00     0.127 S 
ATOM     68  O   UNL A   1      51.214  25.337  26.001  1.00  0.00    -0.237 OA
ATOM     69  O   UNL A   1      50.702  26.588  28.060  1.00  0.00    -0.237 OA
ATOM     70  O   UNL A   1      49.777  24.336  27.741  1.00  0.00    -0.744 OA
ENDBRANCH  64  67
ENDBRANCH  46  60
BRANCH  47  71
ATOM     71  C   UNL A   1      38.654  30.648  31.164  1.00  0.00     0.023 A 
ATOM     72  C   UNL A   1      38.582  30.438  32.555  1.00  0.00     0.012 A 
ATOM     73  C   UNL A   1      37.598  31.318  30.516  1.00  0.00     0.148 A 
ATOM     74  C   UNL A   1      37.467  30.856  33.281  1.00  0.00     0.002 A 
ATOM     75  C   UNL A   1      36.509  31.772  31.252  1.00  0.00     0.091 A 
ATOM     76  F   UNL A   1      37.676  31.493  29.189  1.00  0.00    -0.205 F 
ATOM     77  C   UNL A   1      36.434  31.529  32.633  1.00  0.00     0.022 A 
BRANCH  75  78
ATOM     78  S   UNL A   1      35.187  32.739  30.514  1.00  0.00     0.127 S 
ATOM     79  O   UNL A   1      34.252  32.869  31.627  1.00  0.00    -0.237 OA
ATOM     80  O   UNL A   1      35.880  33.974  30.144  1.00  0.00    -0.237 OA
ATOM     81  O   UNL A   1      34.719  31.956  29.378  1.00  0.00    -0.744 OA
ENDBRANCH  75  78
ENDBRANCH  47  71
BRANCH  59  82
ATOM     82  C   UNL A   1      44.727  33.604  29.380  1.00  0.00     0.023 A 
ATOM     83  C   UNL A   1      45.449  33.855  30.564  1.00  0.00     0.012 A 
ATOM     84  C   UNL A   1      44.651  34.603  28.389  1.00  0.00     0.148 A 
ATOM     85  C   UNL A   1      46.065  35.088  30.768  1.00  0.00     0.002 A 
ATOM     86  C   UNL A   1      45.307  35.813  28.580  1.00  0.00     0.091 A 
ATOM     87  F   UNL A   1      43.943  34.350  27.278  1.00  0.00    -0.205 F 
ATOM     88  C   UNL A   1      46.006  36.061  29.773  1.00  0.00     0.022 A 
BRANCH  86  89
ATOM     89  S   UNL A   1      45.365  37.081  27.309  1.00  0.00     0.127 S 
ATOM     90  O   UNL A   1      43.946  37.284  27.024  1.00  0.00    -0.237 OA
ATOM     91  O   UNL A   1      46.013  38.193  28.005  1.00  0.00    -0.237 OA
ATOM     92  O   UNL A   1      46.150  36.516  26.219  1.00  0.00    -0.744 OA
ENDBRANCH  86  89
ENDBRANCH  59  82
ENDBRANCH  33  34
ENDBRANCH  26  28
ENDBRANCH  25  26
ENDBRANCH  24  25
ENDBRANCH   1  24
TORSDOF 21
ENDMDL
