MODEL 1
REMARK VINA RESULT:     -10.8      0.000      0.000
REMARK SMILES CCCCCCNC(=O)Nc1cccc(-c2ccc([C@@H](C)C(=O)OCCOC(=O)c3ccc(-c4c5nc(c(-c6cccc(S(=O)(=O)[O-])c6F)c6ccc([nH]6)c(-c6cccc(S(=O)(=O)[O-])c6F)c6nc(c(-c7cccc(S(=O)(=O)[O-])c7F)c7ccc4[nH]7)C=C6)C=C5)cc3)cc2F)c1
REMARK SMILES IDX 22 1 23 2 20 3 21 4 19 5 16 6 17 7 94 8 18 9 93 10 95 11
REMARK SMILES IDX 15 12 11 13 12 14 96 15 13 16 14 17 10 18 7 19 8 20 9 22
REMARK SMILES IDX 6 24 5 25 4 26 3 27 2 28 1 29 24 30 25 31 26 32 27 33 28 34
REMARK SMILES IDX 29 35 30 36 31 37 92 38 32 39 91 40 33 41 34 42 35 43 85 44
REMARK SMILES IDX 36 45 90 46 84 47 86 48 37 49 89 50 83 51 82 52 38 54 70 55
REMARK SMILES IDX 50 56 69 57 51 58 54 59 68 60 87 61 52 62 53 63 67 65 88 66
REMARK SMILES IDX 55 67 39 68 40 69 48 70 41 71 43 72 49 73 42 74 44 75 45 76
REMARK SMILES IDX 46 77 47 78 71 79 72 80 80 81 73 82 75 83 81 84 74 85 76 86
REMARK SMILES IDX 77 87 78 88 79 89 56 90 57 91 65 92 58 93 60 94 66 95 59 96
REMARK SMILES IDX 61 97 62 98 63 99 64 100
REMARK H PARENT 7 21 10 23 86 53 54 64
REMARK Flexibility Score: inf
ROOT
ATOM      1  C   UNL A   1      34.426  34.216  28.235  1.00  0.00     0.313 C 
ATOM      2  O   UNL A   1      34.763  34.755  27.184  1.00  0.00    -0.252 OA
ENDROOT
BRANCH   1   3
ATOM      3  C   UNL A   1      35.071  32.920  28.708  1.00  0.00     0.126 C 
ATOM      4  C   UNL A   1      36.583  33.116  28.816  1.00  0.00     0.025 C 
BRANCH   3   5
ATOM      5  C   UNL A   1      34.713  31.649  27.950  1.00  0.00    -0.031 A 
ATOM      6  C   UNL A   1      33.940  29.242  26.642  1.00  0.00     0.018 A 
ATOM      7  C   UNL A   1      35.235  29.405  27.161  1.00  0.00     0.012 A 
ATOM      8  C   UNL A   1      33.054  30.315  26.770  1.00  0.00     0.131 A 
ATOM      9  C   UNL A   1      35.618  30.590  27.801  1.00  0.00     0.005 A 
ATOM     10  C   UNL A   1      33.422  31.493  27.419  1.00  0.00     0.044 A 
ATOM     11  F   UNL A   1      31.804  30.219  26.289  1.00  0.00    -0.206 F 
BRANCH   6  12
ATOM     12  C   UNL A   1      33.556  27.993  25.970  1.00  0.00    -0.013 A 
ATOM     13  C   UNL A   1      33.391  26.673  23.928  1.00  0.00     0.043 A 
ATOM     14  C   UNL A   1      32.994  25.559  24.667  1.00  0.00     0.026 A 
ATOM     15  C   UNL A   1      33.583  27.900  24.571  1.00  0.00     0.035 A 
ATOM     16  C   UNL A   1      32.931  25.640  26.059  1.00  0.00     0.003 A 
ATOM     17  C   UNL A   1      33.235  26.841  26.704  1.00  0.00     0.009 A 
BRANCH  13  18
ATOM     18  N   UNL A   1      33.656  26.499  22.564  1.00  0.00    -0.308 N 
ATOM     19  N   UNL A   1      31.503  26.489  21.567  1.00  0.00    -0.338 N 
ATOM     20  C   UNL A   1      32.825  26.184  21.538  1.00  0.00     0.319 C 
ATOM     21  H   UNL A   1      30.964  26.068  20.860  1.00  0.00     0.165 HD
ATOM     22  O   UNL A   1      33.294  25.711  20.502  1.00  0.00    -0.249 OA
ATOM     23  H   UNL A   1      34.598  26.627  22.306  1.00  0.00     0.171 HD
BRANCH  19  24
ATOM     24  C   UNL A   1      30.758  27.341  22.479  1.00  0.00     0.117 C 
BRANCH  24  25
ATOM     25  C   UNL A   1      30.634  28.790  22.022  1.00  0.00     0.021 C 
BRANCH  25  26
ATOM     26  C   UNL A   1      29.830  29.709  22.941  1.00  0.00     0.002 C 
BRANCH  26  27
ATOM     27  C   UNL A   1      28.310  29.507  22.950  1.00  0.00    -0.000 C 
BRANCH  27  28
ATOM     28  C   UNL A   1      27.461  30.720  23.343  1.00  0.00    -0.003 C 
ATOM     29  C   UNL A   1      28.275  31.939  23.743  1.00  0.00     0.004 C 
ENDBRANCH  27  28
ENDBRANCH  26  27
ENDBRANCH  25  26
ENDBRANCH  24  25
ENDBRANCH  19  24
ENDBRANCH  13  18
ENDBRANCH   6  12
ENDBRANCH   3   5
ENDBRANCH   1   3
BRANCH   1  30
ATOM     30  O   UNL A   1      33.419  34.665  29.029  1.00  0.00    -0.462 OA
BRANCH  30  31
ATOM     31  C   UNL A   1      33.371  36.091  29.247  1.00  0.00     0.274 C 
BRANCH  31  32
ATOM     32  C   UNL A   1      32.726  36.451  30.588  1.00  0.00     0.275 C 
BRANCH  32  33
ATOM     33  O   UNL A   1      33.628  36.247  31.687  1.00  0.00    -0.458 OA
BRANCH  33  34
ATOM     34  C   UNL A   1      33.470  35.068  32.333  1.00  0.00     0.338 C 
ATOM     35  O   UNL A   1      32.434  34.604  32.777  1.00  0.00    -0.246 OA
BRANCH  34  36
ATOM     36  C   UNL A   1      34.738  34.325  32.324  1.00  0.00     0.060 A 
ATOM     37  C   UNL A   1      34.694  32.963  32.621  1.00  0.00     0.016 A 
ATOM     38  C   UNL A   1      35.960  34.971  32.131  1.00  0.00     0.016 A 
ATOM     39  C   UNL A   1      35.872  32.242  32.776  1.00  0.00     0.010 A 
ATOM     40  C   UNL A   1      37.146  34.240  32.269  1.00  0.00     0.010 A 
ATOM     41  C   UNL A   1      37.109  32.879  32.621  1.00  0.00    -0.014 A 
BRANCH  41  42
ATOM     42  C   UNL A   1      38.353  32.121  32.896  1.00  0.00     0.031 A 
ATOM     43  C   UNL A   1      39.108  32.361  34.175  1.00  0.00     0.074 A 
ATOM     44  C   UNL A   1      38.785  31.198  32.018  1.00  0.00     0.049 A 
ATOM     45  N   UNL A   1      40.206  31.795  34.603  1.00  0.00    -0.248 NA
ATOM     46  C   UNL A   1      38.557  33.373  35.091  1.00  0.00     0.031 C 
ATOM     47  C   UNL A   1      38.132  30.873  30.749  1.00  0.00     0.029 A 
ATOM     48  N   UNL A   1      39.875  30.366  32.057  1.00  0.00    -0.354 N 
ATOM     49  C   UNL A   1      40.501  32.406  35.814  1.00  0.00     0.074 A 
ATOM     50  C   UNL A   1      39.469  33.392  36.053  1.00  0.00     0.031 C 
ATOM     51  C   UNL A   1      38.833  29.907  30.132  1.00  0.00     0.029 A 
ATOM     52  C   UNL A   1      39.996  29.565  30.947  1.00  0.00     0.049 A 
ATOM     53  H   UNL A   1      40.510  30.344  32.809  1.00  0.00     0.167 HD
ATOM     54  C   UNL A   1      41.528  32.157  36.662  1.00  0.00     0.034 A 
ATOM     55  C   UNL A   1      40.941  28.661  30.623  1.00  0.00     0.034 A 
ATOM     56  C   UNL A   1      42.525  31.142  36.449  1.00  0.00     0.049 A 
ATOM     57  C   UNL A   1      42.065  28.398  31.588  1.00  0.00     0.074 A 
ATOM     58  C   UNL A   1      43.575  30.779  37.273  1.00  0.00     0.029 A 
ATOM     59  N   UNL A   1      42.593  30.324  35.331  1.00  0.00    -0.354 N 
ATOM     60  N   UNL A   1      42.267  28.908  32.779  1.00  0.00    -0.248 NA
ATOM     61  C   UNL A   1      43.076  27.412  31.178  1.00  0.00     0.031 C 
ATOM     62  C   UNL A   1      44.286  29.748  36.648  1.00  0.00     0.029 A 
ATOM     63  C   UNL A   1      43.672  29.462  35.439  1.00  0.00     0.049 A 
ATOM     64  H   UNL A   1      41.967  30.353  34.572  1.00  0.00     0.167 HD
ATOM     65  C   UNL A   1      43.408  28.285  33.272  1.00  0.00     0.074 A 
ATOM     66  C   UNL A   1      43.839  27.343  32.260  1.00  0.00     0.031 C 
ATOM     67  C   UNL A   1      44.052  28.488  34.448  1.00  0.00     0.034 A 
BRANCH  54  68
ATOM     68  C   UNL A   1      41.602  32.977  37.923  1.00  0.00     0.023 A 
ATOM     69  C   UNL A   1      40.944  32.529  39.084  1.00  0.00     0.012 A 
ATOM     70  C   UNL A   1      42.352  34.168  37.969  1.00  0.00     0.148 A 
ATOM     71  C   UNL A   1      41.005  33.268  40.266  1.00  0.00     0.002 A 
ATOM     72  C   UNL A   1      42.440  34.881  39.159  1.00  0.00     0.091 A 
ATOM     73  F   UNL A   1      42.947  34.596  36.846  1.00  0.00    -0.205 F 
ATOM     74  C   UNL A   1      41.760  34.438  40.306  1.00  0.00     0.022 A 
BRANCH  72  75
ATOM     75  S   UNL A   1      43.448  36.360  39.316  1.00  0.00     0.127 S 
ATOM     76  O   UNL A   1      43.399  36.603  40.757  1.00  0.00    -0.237 OA
ATOM     77  O   UNL A   1      44.749  35.909  38.819  1.00  0.00    -0.237 OA
ATOM     78  O   UNL A   1      42.803  37.365  38.482  1.00  0.00    -0.744 OA
ENDBRANCH  72  75
ENDBRANCH  54  68
BRANCH  55  79
ATOM     79  C   UNL A   1      40.825  27.888  29.354  1.00  0.00     0.023 A 
ATOM     80  C   UNL A   1      39.808  26.921  29.229  1.00  0.00     0.012 A 
ATOM     81  C   UNL A   1      41.684  28.125  28.264  1.00  0.00     0.148 A 
ATOM     82  C   UNL A   1      39.665  26.188  28.050  1.00  0.00     0.002 A 
ATOM     83  C   UNL A   1      41.502  27.428  27.075  1.00  0.00     0.091 A 
ATOM     84  F   UNL A   1      42.660  29.032  28.410  1.00  0.00    -0.205 F 
ATOM     85  C   UNL A   1      40.502  26.450  26.970  1.00  0.00     0.022 A 
BRANCH  83  86
ATOM     86  S   UNL A   1      42.454  27.797  25.596  1.00  0.00     0.127 S 
ATOM     87  O   UNL A   1      42.194  26.620  24.771  1.00  0.00    -0.237 OA
ATOM     88  O   UNL A   1      41.823  29.030  25.124  1.00  0.00    -0.237 OA
ATOM     89  O   UNL A   1      43.828  27.967  26.051  1.00  0.00    -0.744 OA
ENDBRANCH  83  86
ENDBRANCH  55  79
BRANCH  67  90
ATOM     90  C   UNL A   1      45.280  27.660  34.719  1.00  0.00     0.023 A 
ATOM     91  C   UNL A   1      46.549  28.171  34.382  1.00  0.00     0.012 A 
ATOM     92  C   UNL A   1      45.187  26.410  35.360  1.00  0.00     0.148 A 
ATOM     93  C   UNL A   1      47.703  27.437  34.653  1.00  0.00     0.002 A 
ATOM     94  C   UNL A   1      46.344  25.703  35.665  1.00  0.00     0.091 A 
ATOM     95  F   UNL A   1      43.970  25.927  35.651  1.00  0.00    -0.205 F 
ATOM     96  C   UNL A   1      47.602  26.209  35.304  1.00  0.00     0.022 A 
BRANCH  94  97
ATOM     97  S   UNL A   1      46.296  24.157  36.580  1.00  0.00     0.127 S 
ATOM     98  O   UNL A   1      47.673  24.049  37.061  1.00  0.00    -0.237 OA
ATOM     99  O   UNL A   1      45.307  24.435  37.623  1.00  0.00    -0.237 OA
ATOM    100  O   UNL A   1      45.880  23.146  35.617  1.00  0.00    -0.744 OA
ENDBRANCH  94  97
ENDBRANCH  67  90
ENDBRANCH  41  42
ENDBRANCH  34  36
ENDBRANCH  33  34
ENDBRANCH  32  33
ENDBRANCH  31  32
ENDBRANCH  30  31
ENDBRANCH   1  30
TORSDOF 22
ENDMDL
MODEL 2
REMARK VINA RESULT:     -10.7      1.958      2.437
REMARK SMILES CCCCCCNC(=O)Nc1cccc(-c2ccc([C@@H](C)C(=O)OCCOC(=O)c3ccc(-c4c5nc(c(-c6cccc(S(=O)(=O)[O-])c6F)c6ccc([nH]6)c(-c6cccc(S(=O)(=O)[O-])c6F)c6nc(c(-c7cccc(S(=O)(=O)[O-])c7F)c7ccc4[nH]7)C=C6)C=C5)cc3)cc2F)c1
REMARK SMILES IDX 22 1 23 2 20 3 21 4 19 5 16 6 17 7 94 8 18 9 93 10 95 11
REMARK SMILES IDX 15 12 11 13 12 14 96 15 13 16 14 17 10 18 7 19 8 20 9 22
REMARK SMILES IDX 6 24 5 25 4 26 3 27 2 28 1 29 24 30 25 31 26 32 27 33 28 34
REMARK SMILES IDX 29 35 30 36 31 37 92 38 32 39 91 40 33 41 34 42 35 43 85 44
REMARK SMILES IDX 36 45 90 46 84 47 86 48 37 49 89 50 83 51 82 52 38 54 70 55
REMARK SMILES IDX 50 56 69 57 51 58 54 59 68 60 87 61 52 62 53 63 67 65 88 66
REMARK SMILES IDX 55 67 39 68 40 69 48 70 41 71 43 72 49 73 42 74 44 75 45 76
REMARK SMILES IDX 46 77 47 78 71 79 72 80 80 81 73 82 75 83 81 84 74 85 76 86
REMARK SMILES IDX 77 87 78 88 79 89 56 90 57 91 65 92 58 93 60 94 66 95 59 96
REMARK SMILES IDX 61 97 62 98 63 99 64 100
REMARK H PARENT 7 21 10 23 86 53 54 64
REMARK Flexibility Score: inf
ROOT
ATOM      1  C   UNL A   1      33.851  34.251  28.304  1.00  0.00     0.313 C 
ATOM      2  O   UNL A   1      34.372  34.831  27.355  1.00  0.00    -0.252 OA
ENDROOT
BRANCH   1   3
ATOM      3  C   UNL A   1      34.446  32.971  28.877  1.00  0.00     0.126 C 
ATOM      4  C   UNL A   1      35.929  33.190  29.177  1.00  0.00     0.025 C 
BRANCH   3   5
ATOM      5  C   UNL A   1      34.205  31.684  28.100  1.00  0.00    -0.031 A 
ATOM      6  C   UNL A   1      33.873  29.315  26.557  1.00  0.00     0.018 A 
ATOM      7  C   UNL A   1      32.879  30.308  26.590  1.00  0.00     0.012 A 
ATOM      8  C   UNL A   1      35.018  29.523  27.330  1.00  0.00     0.131 A 
ATOM      9  C   UNL A   1      33.040  31.472  27.352  1.00  0.00     0.005 A 
ATOM     10  C   UNL A   1      35.192  30.686  28.080  1.00  0.00     0.044 A 
ATOM     11  F   UNL A   1      35.999  28.606  27.342  1.00  0.00    -0.206 F 
BRANCH   6  12
ATOM     12  C   UNL A   1      33.686  28.099  25.755  1.00  0.00    -0.013 A 
ATOM     13  C   UNL A   1      32.876  25.807  25.574  1.00  0.00     0.043 A 
ATOM     14  C   UNL A   1      33.155  25.805  24.208  1.00  0.00     0.026 A 
ATOM     15  C   UNL A   1      33.224  26.916  26.352  1.00  0.00     0.035 A 
ATOM     16  C   UNL A   1      33.645  26.961  23.601  1.00  0.00     0.003 A 
ATOM     17  C   UNL A   1      33.884  28.105  24.366  1.00  0.00     0.009 A 
BRANCH  13  18
ATOM     18  N   UNL A   1      32.184  24.713  26.108  1.00  0.00    -0.308 N 
ATOM     19  N   UNL A   1      29.902  25.268  25.774  1.00  0.00    -0.338 N 
ATOM     20  C   UNL A   1      30.869  24.564  26.414  1.00  0.00     0.319 C 
ATOM     21  H   UNL A   1      29.010  25.214  26.184  1.00  0.00     0.165 HD
ATOM     22  O   UNL A   1      30.528  23.688  27.209  1.00  0.00    -0.249 OA
ATOM     23  H   UNL A   1      32.741  23.922  26.292  1.00  0.00     0.171 HD
BRANCH  19  24
ATOM     24  C   UNL A   1      29.977  26.089  24.577  1.00  0.00     0.117 C 
BRANCH  24  25
ATOM     25  C   UNL A   1      28.622  26.513  24.023  1.00  0.00     0.021 C 
BRANCH  25  26
ATOM     26  C   UNL A   1      28.614  27.802  23.202  1.00  0.00     0.002 C 
BRANCH  26  27
ATOM     27  C   UNL A   1      29.973  28.472  22.969  1.00  0.00    -0.000 C 
BRANCH  27  28
ATOM     28  C   UNL A   1      30.293  29.690  23.841  1.00  0.00    -0.003 C 
ATOM     29  C   UNL A   1      29.315  30.841  23.677  1.00  0.00     0.004 C 
ENDBRANCH  27  28
ENDBRANCH  26  27
ENDBRANCH  25  26
ENDBRANCH  24  25
ENDBRANCH  19  24
ENDBRANCH  13  18
ENDBRANCH   6  12
ENDBRANCH   3   5
ENDBRANCH   1   3
BRANCH   1  30
ATOM     30  O   UNL A   1      32.682  34.635  28.880  1.00  0.00    -0.462 OA
BRANCH  30  31
ATOM     31  C   UNL A   1      32.573  36.033  29.222  1.00  0.00     0.274 C 
BRANCH  31  32
ATOM     32  C   UNL A   1      33.589  36.449  30.290  1.00  0.00     0.275 C 
BRANCH  32  33
ATOM     33  O   UNL A   1      32.975  36.599  31.581  1.00  0.00    -0.458 OA
BRANCH  33  34
ATOM     34  C   UNL A   1      32.802  35.441  32.258  1.00  0.00     0.338 C 
ATOM     35  O   UNL A   1      31.750  34.969  32.655  1.00  0.00    -0.246 OA
BRANCH  34  36
ATOM     36  C   UNL A   1      34.084  34.728  32.354  1.00  0.00     0.060 A 
ATOM     37  C   UNL A   1      34.046  33.361  32.630  1.00  0.00     0.016 A 
ATOM     38  C   UNL A   1      35.302  35.405  32.281  1.00  0.00     0.016 A 
ATOM     39  C   UNL A   1      35.224  32.666  32.882  1.00  0.00     0.010 A 
ATOM     40  C   UNL A   1      36.488  34.700  32.516  1.00  0.00     0.010 A 
ATOM     41  C   UNL A   1      36.453  33.334  32.847  1.00  0.00    -0.014 A 
BRANCH  41  42
ATOM     42  C   UNL A   1      37.686  32.602  33.224  1.00  0.00     0.031 A 
ATOM     43  C   UNL A   1      38.405  32.953  34.497  1.00  0.00     0.074 A 
ATOM     44  C   UNL A   1      38.138  31.603  32.444  1.00  0.00     0.049 A 
ATOM     45  N   UNL A   1      39.488  32.426  35.005  1.00  0.00    -0.248 NA
ATOM     46  C   UNL A   1      37.833  34.044  35.304  1.00  0.00     0.031 C 
ATOM     47  C   UNL A   1      37.520  31.167  31.191  1.00  0.00     0.029 A 
ATOM     48  N   UNL A   1      39.223  30.776  32.588  1.00  0.00    -0.354 N 
ATOM     49  C   UNL A   1      39.752  33.142  36.165  1.00  0.00     0.074 A 
ATOM     50  C   UNL A   1      38.718  34.148  36.285  1.00  0.00     0.031 C 
ATOM     51  C   UNL A   1      38.234  30.149  30.682  1.00  0.00     0.029 A 
ATOM     52  C   UNL A   1      39.373  29.879  31.558  1.00  0.00     0.049 A 
ATOM     53  H   UNL A   1      39.836  30.821  33.357  1.00  0.00     0.167 HD
ATOM     54  C   UNL A   1      40.753  32.968  37.061  1.00  0.00     0.034 A 
ATOM     55  C   UNL A   1      40.322  28.948  31.342  1.00  0.00     0.034 A 
ATOM     56  C   UNL A   1      41.751  31.936  36.967  1.00  0.00     0.049 A 
ATOM     57  C   UNL A   1      41.417  28.770  32.359  1.00  0.00     0.074 A 
ATOM     58  C   UNL A   1      42.777  31.647  37.850  1.00  0.00     0.029 A 
ATOM     59  N   UNL A   1      41.848  31.022  35.929  1.00  0.00    -0.354 N 
ATOM     60  N   UNL A   1      41.588  29.384  33.505  1.00  0.00    -0.248 NA
ATOM     61  C   UNL A   1      42.435  27.750  32.067  1.00  0.00     0.031 C 
ATOM     62  C   UNL A   1      43.500  30.563  37.340  1.00  0.00     0.029 A 
ATOM     63  C   UNL A   1      42.919  30.171  36.144  1.00  0.00     0.049 A 
ATOM     64  H   UNL A   1      41.244  30.983  35.152  1.00  0.00     0.167 HD
ATOM     65  C   UNL A   1      42.712  28.806  34.085  1.00  0.00     0.074 A 
ATOM     66  C   UNL A   1      43.167  27.776  33.173  1.00  0.00     0.031 C 
ATOM     67  C   UNL A   1      43.324  29.112  35.255  1.00  0.00     0.034 A 
BRANCH  54  68
ATOM     68  C   UNL A   1      40.796  33.897  38.244  1.00  0.00     0.023 A 
ATOM     69  C   UNL A   1      41.628  35.033  38.208  1.00  0.00     0.012 A 
ATOM     70  C   UNL A   1      39.987  33.669  39.375  1.00  0.00     0.148 A 
ATOM     71  C   UNL A   1      41.678  35.912  39.290  1.00  0.00     0.002 A 
ATOM     72  C   UNL A   1      40.013  34.569  40.434  1.00  0.00     0.091 A 
ATOM     73  F   UNL A   1      39.223  32.567  39.405  1.00  0.00    -0.205 F 
ATOM     74  C   UNL A   1      40.865  35.686  40.398  1.00  0.00     0.022 A 
BRANCH  72  75
ATOM     75  S   UNL A   1      38.945  34.390  41.867  1.00  0.00     0.127 S 
ATOM     76  O   UNL A   1      39.268  35.593  42.632  1.00  0.00    -0.237 OA
ATOM     77  O   UNL A   1      37.610  34.388  41.268  1.00  0.00    -0.237 OA
ATOM     78  O   UNL A   1      39.326  33.127  42.485  1.00  0.00    -0.744 OA
ENDBRANCH  72  75
ENDBRANCH  54  68
BRANCH  55  79
ATOM     79  C   UNL A   1      40.239  28.065  30.145  1.00  0.00     0.023 A 
ATOM     80  C   UNL A   1      39.309  27.007  30.134  1.00  0.00     0.012 A 
ATOM     81  C   UNL A   1      41.042  28.283  29.009  1.00  0.00     0.148 A 
ATOM     82  C   UNL A   1      39.197  26.169  29.024  1.00  0.00     0.002 A 
ATOM     83  C   UNL A   1      40.889  27.478  27.887  1.00  0.00     0.091 A 
ATOM     84  F   UNL A   1      41.938  29.280  29.047  1.00  0.00    -0.205 F 
ATOM     85  C   UNL A   1      39.977  26.411  27.897  1.00  0.00     0.022 A 
BRANCH  83  86
ATOM     86  S   UNL A   1      41.762  27.803  26.350  1.00  0.00     0.127 S 
ATOM     87  O   UNL A   1      41.305  29.152  26.027  1.00  0.00    -0.237 OA
ATOM     88  O   UNL A   1      43.161  27.711  26.767  1.00  0.00    -0.237 OA
ATOM     89  O   UNL A   1      41.341  26.751  25.435  1.00  0.00    -0.744 OA
ENDBRANCH  83  86
ENDBRANCH  55  79
BRANCH  67  90
ATOM     90  C   UNL A   1      44.540  28.310  35.634  1.00  0.00     0.023 A 
ATOM     91  C   UNL A   1      45.819  28.773  35.266  1.00  0.00     0.012 A 
ATOM     92  C   UNL A   1      44.425  27.136  36.403  1.00  0.00     0.148 A 
ATOM     93  C   UNL A   1      46.962  28.064  35.633  1.00  0.00     0.002 A 
ATOM     94  C   UNL A   1      45.572  26.458  36.802  1.00  0.00     0.091 A 
ATOM     95  F   UNL A   1      43.200  26.695  36.724  1.00  0.00    -0.205 F 
ATOM     96  C   UNL A   1      46.840  26.914  36.410  1.00  0.00     0.022 A 
BRANCH  94  97
ATOM     97  S   UNL A   1      45.496  25.019  37.876  1.00  0.00     0.127 S 
ATOM     98  O   UNL A   1      44.798  24.050  37.032  1.00  0.00    -0.237 OA
ATOM     99  O   UNL A   1      46.910  24.719  38.106  1.00  0.00    -0.237 OA
ATOM    100  O   UNL A   1      44.779  25.458  39.065  1.00  0.00    -0.744 OA
ENDBRANCH  94  97
ENDBRANCH  67  90
ENDBRANCH  41  42
ENDBRANCH  34  36
ENDBRANCH  33  34
ENDBRANCH  32  33
ENDBRANCH  31  32
ENDBRANCH  30  31
ENDBRANCH   1  30
TORSDOF 22
ENDMDL
MODEL 3
REMARK VINA RESULT:     -10.7      6.936     12.741
REMARK SMILES CCCCCCNC(=O)Nc1cccc(-c2ccc([C@@H](C)C(=O)OCCOC(=O)c3ccc(-c4c5nc(c(-c6cccc(S(=O)(=O)[O-])c6F)c6ccc([nH]6)c(-c6cccc(S(=O)(=O)[O-])c6F)c6nc(c(-c7cccc(S(=O)(=O)[O-])c7F)c7ccc4[nH]7)C=C6)C=C5)cc3)cc2F)c1
REMARK SMILES IDX 22 1 23 2 20 3 21 4 19 5 16 6 17 7 94 8 18 9 93 10 95 11
REMARK SMILES IDX 15 12 11 13 12 14 96 15 13 16 14 17 10 18 7 19 8 20 9 22
REMARK SMILES IDX 6 24 5 25 4 26 3 27 2 28 1 29 24 30 25 31 26 32 27 33 28 34
REMARK SMILES IDX 29 35 30 36 31 37 92 38 32 39 91 40 33 41 34 42 35 43 85 44
REMARK SMILES IDX 36 45 90 46 84 47 86 48 37 49 89 50 83 51 82 52 38 54 70 55
REMARK SMILES IDX 50 56 69 57 51 58 54 59 68 60 87 61 52 62 53 63 67 65 88 66
REMARK SMILES IDX 55 67 39 68 40 69 48 70 41 71 43 72 49 73 42 74 44 75 45 76
REMARK SMILES IDX 46 77 47 78 71 79 72 80 80 81 73 82 75 83 81 84 74 85 76 86
REMARK SMILES IDX 77 87 78 88 79 89 56 90 57 91 65 92 58 93 60 94 66 95 59 96
REMARK SMILES IDX 61 97 62 98 63 99 64 100
REMARK H PARENT 7 21 10 23 86 53 54 64
REMARK Flexibility Score: inf
ROOT
ATOM      1  C   UNL A   1      41.378  20.514  27.022  1.00  0.00     0.313 C 
ATOM      2  O   UNL A   1      41.037  19.946  28.056  1.00  0.00    -0.252 OA
ENDROOT
BRANCH   1   3
ATOM      3  C   UNL A   1      41.109  21.997  26.803  1.00  0.00     0.126 C 
ATOM      4  C   UNL A   1      41.620  22.790  28.006  1.00  0.00     0.025 C 
BRANCH   3   5
ATOM      5  C   UNL A   1      39.691  22.396  26.419  1.00  0.00    -0.031 A 
ATOM      6  C   UNL A   1      37.079  23.125  25.553  1.00  0.00     0.018 A 
ATOM      7  C   UNL A   1      37.900  24.038  26.235  1.00  0.00     0.012 A 
ATOM      8  C   UNL A   1      37.582  21.840  25.337  1.00  0.00     0.131 A 
ATOM      9  C   UNL A   1      39.184  23.679  26.665  1.00  0.00     0.005 A 
ATOM     10  C   UNL A   1      38.865  21.479  25.749  1.00  0.00     0.044 A 
ATOM     11  F   UNL A   1      36.840  20.924  24.694  1.00  0.00    -0.206 F 
BRANCH   6  12
ATOM     12  C   UNL A   1      35.733  23.518  25.112  1.00  0.00    -0.013 A 
ATOM     13  C   UNL A   1      33.371  23.839  25.615  1.00  0.00     0.043 A 
ATOM     14  C   UNL A   1      33.172  24.419  24.363  1.00  0.00     0.026 A 
ATOM     15  C   UNL A   1      34.623  23.314  25.946  1.00  0.00     0.035 A 
ATOM     16  C   UNL A   1      34.257  24.603  23.506  1.00  0.00     0.003 A 
ATOM     17  C   UNL A   1      35.531  24.177  23.890  1.00  0.00     0.009 A 
BRANCH  13  18
ATOM     18  N   UNL A   1      32.312  23.870  26.531  1.00  0.00    -0.308 N 
ATOM     19  N   UNL A   1      31.168  21.828  26.143  1.00  0.00    -0.338 N 
ATOM     20  C   UNL A   1      31.198  23.098  26.618  1.00  0.00     0.319 C 
ATOM     21  H   UNL A   1      30.273  21.422  26.100  1.00  0.00     0.165 HD
ATOM     22  O   UNL A   1      30.221  23.513  27.244  1.00  0.00    -0.249 OA
ATOM     23  H   UNL A   1      32.388  24.563  27.227  1.00  0.00     0.171 HD
BRANCH  19  24
ATOM     24  C   UNL A   1      32.251  20.972  25.688  1.00  0.00     0.117 C 
BRANCH  24  25
ATOM     25  C   UNL A   1      32.280  20.747  24.182  1.00  0.00     0.021 C 
BRANCH  25  26
ATOM     26  C   UNL A   1      32.528  19.308  23.730  1.00  0.00     0.002 C 
BRANCH  26  27
ATOM     27  C   UNL A   1      33.809  18.641  24.245  1.00  0.00    -0.000 C 
BRANCH  27  28
ATOM     28  C   UNL A   1      34.077  17.212  23.763  1.00  0.00    -0.003 C 
ATOM     29  C   UNL A   1      33.286  16.150  24.510  1.00  0.00     0.004 C 
ENDBRANCH  27  28
ENDBRANCH  26  27
ENDBRANCH  25  26
ENDBRANCH  24  25
ENDBRANCH  19  24
ENDBRANCH  13  18
ENDBRANCH   6  12
ENDBRANCH   3   5
ENDBRANCH   1   3
BRANCH   1  30
ATOM     30  O   UNL A   1      41.950  19.885  25.962  1.00  0.00    -0.462 OA
BRANCH  30  31
ATOM     31  C   UNL A   1      42.479  18.567  26.218  1.00  0.00     0.274 C 
BRANCH  31  32
ATOM     32  C   UNL A   1      43.716  18.264  25.367  1.00  0.00     0.275 C 
BRANCH  32  33
ATOM     33  O   UNL A   1      43.880  19.217  24.304  1.00  0.00    -0.458 OA
BRANCH  33  34
ATOM     34  C   UNL A   1      45.118  19.756  24.218  1.00  0.00     0.338 C 
ATOM     35  O   UNL A   1      46.099  19.268  23.683  1.00  0.00    -0.246 OA
BRANCH  34  36
ATOM     36  C   UNL A   1      45.104  21.118  24.769  1.00  0.00     0.060 A 
ATOM     37  C   UNL A   1      44.986  22.179  23.870  1.00  0.00     0.016 A 
ATOM     38  C   UNL A   1      45.308  21.358  26.128  1.00  0.00     0.016 A 
ATOM     39  C   UNL A   1      45.118  23.490  24.314  1.00  0.00     0.010 A 
ATOM     40  C   UNL A   1      45.422  22.678  26.577  1.00  0.00     0.010 A 
ATOM     41  C   UNL A   1      45.357  23.750  25.669  1.00  0.00    -0.014 A 
BRANCH  41  42
ATOM     42  C   UNL A   1      45.603  25.145  26.106  1.00  0.00     0.031 A 
ATOM     43  C   UNL A   1      46.994  25.712  26.051  1.00  0.00     0.074 A 
ATOM     44  C   UNL A   1      44.575  25.910  26.518  1.00  0.00     0.049 A 
ATOM     45  N   UNL A   1      47.412  26.907  26.378  1.00  0.00    -0.248 NA
ATOM     46  C   UNL A   1      48.059  24.816  25.569  1.00  0.00     0.031 C 
ATOM     47  C   UNL A   1      43.182  25.473  26.605  1.00  0.00     0.029 A 
ATOM     48  N   UNL A   1      44.545  27.214  26.941  1.00  0.00    -0.354 N 
ATOM     49  C   UNL A   1      48.787  26.897  26.181  1.00  0.00     0.074 A 
ATOM     50  C   UNL A   1      49.137  25.574  25.712  1.00  0.00     0.031 C 
ATOM     51  C   UNL A   1      42.431  26.493  27.051  1.00  0.00     0.029 A 
ATOM     52  C   UNL A   1      43.292  27.646  27.306  1.00  0.00     0.049 A 
ATOM     53  H   UNL A   1      45.344  27.788  26.980  1.00  0.00     0.167 HD
ATOM     54  C   UNL A   1      49.676  27.904  26.358  1.00  0.00     0.034 A 
ATOM     55  C   UNL A   1      42.885  28.833  27.794  1.00  0.00     0.034 A 
ATOM     56  C   UNL A   1      49.321  29.233  26.776  1.00  0.00     0.049 A 
ATOM     57  C   UNL A   1      43.894  29.936  27.970  1.00  0.00     0.074 A 
ATOM     58  C   UNL A   1      50.143  30.335  26.936  1.00  0.00     0.029 A 
ATOM     59  N   UNL A   1      48.037  29.643  27.100  1.00  0.00    -0.354 N 
ATOM     60  N   UNL A   1      45.172  29.942  27.676  1.00  0.00    -0.248 NA
ATOM     61  C   UNL A   1      43.399  31.207  28.519  1.00  0.00     0.031 C 
ATOM     62  C   UNL A   1      49.356  31.409  27.366  1.00  0.00     0.029 A 
ATOM     63  C   UNL A   1      48.042  30.979  27.465  1.00  0.00     0.049 A 
ATOM     64  H   UNL A   1      47.237  29.068  27.074  1.00  0.00     0.167 HD
ATOM     65  C   UNL A   1      45.627  31.221  27.973  1.00  0.00     0.074 A 
ATOM     66  C   UNL A   1      44.482  31.970  28.450  1.00  0.00     0.031 C 
ATOM     67  C   UNL A   1      46.882  31.725  27.880  1.00  0.00     0.034 A 
BRANCH  54  68
ATOM     68  C   UNL A   1      51.123  27.611  26.061  1.00  0.00     0.023 A 
ATOM     69  C   UNL A   1      51.994  27.267  27.113  1.00  0.00     0.012 A 
ATOM     70  C   UNL A   1      51.612  27.640  24.740  1.00  0.00     0.148 A 
ATOM     71  C   UNL A   1      53.336  26.984  26.862  1.00  0.00     0.002 A 
ATOM     72  C   UNL A   1      52.942  27.321  24.491  1.00  0.00     0.091 A 
ATOM     73  F   UNL A   1      50.778  27.999  23.755  1.00  0.00    -0.205 F 
ATOM     74  C   UNL A   1      53.808  27.002  25.551  1.00  0.00     0.022 A 
BRANCH  72  75
ATOM     75  S   UNL A   1      53.613  27.252  22.826  1.00  0.00     0.127 S 
ATOM     76  O   UNL A   1      54.976  26.782  23.073  1.00  0.00    -0.237 OA
ATOM     77  O   UNL A   1      52.741  26.273  22.175  1.00  0.00    -0.237 OA
ATOM     78  O   UNL A   1      53.496  28.604  22.299  1.00  0.00    -0.744 OA
ENDBRANCH  72  75
ENDBRANCH  54  68
BRANCH  55  79
ATOM     79  C   UNL A   1      41.442  29.062  28.085  1.00  0.00     0.023 A 
ATOM     80  C   UNL A   1      40.529  29.142  27.014  1.00  0.00     0.012 A 
ATOM     81  C   UNL A   1      40.962  29.167  29.404  1.00  0.00     0.148 A 
ATOM     82  C   UNL A   1      39.169  29.344  27.253  1.00  0.00     0.002 A 
ATOM     83  C   UNL A   1      39.600  29.316  29.636  1.00  0.00     0.091 A 
ATOM     84  F   UNL A   1      41.849  29.113  30.409  1.00  0.00    -0.205 F 
ATOM     85  C   UNL A   1      38.703  29.419  28.562  1.00  0.00     0.022 A 
BRANCH  83  86
ATOM     86  S   UNL A   1      38.904  29.291  31.293  1.00  0.00     0.127 S 
ATOM     87  O   UNL A   1      38.192  30.565  31.338  1.00  0.00    -0.237 OA
ATOM     88  O   UNL A   1      38.045  28.107  31.247  1.00  0.00    -0.237 OA
ATOM     89  O   UNL A   1      40.045  29.166  32.191  1.00  0.00    -0.744 OA
ENDBRANCH  83  86
ENDBRANCH  55  79
BRANCH  67  90
ATOM     90  C   UNL A   1      47.084  33.163  28.279  1.00  0.00     0.023 A 
ATOM     91  C   UNL A   1      47.445  33.471  29.605  1.00  0.00     0.012 A 
ATOM     92  C   UNL A   1      46.979  34.201  27.333  1.00  0.00     0.148 A 
ATOM     93  C   UNL A   1      47.670  34.792  29.990  1.00  0.00     0.002 A 
ATOM     94  C   UNL A   1      47.246  35.511  27.714  1.00  0.00     0.091 A 
ATOM     95  F   UNL A   1      46.610  33.894  26.080  1.00  0.00    -0.205 F 
ATOM     96  C   UNL A   1      47.581  35.810  29.043  1.00  0.00     0.022 A 
BRANCH  94  97
ATOM     97  S   UNL A   1      47.238  36.863  26.529  1.00  0.00     0.127 S 
ATOM     98  O   UNL A   1      47.737  37.974  27.337  1.00  0.00    -0.237 OA
ATOM     99  O   UNL A   1      48.168  36.391  25.502  1.00  0.00    -0.237 OA
ATOM    100  O   UNL A   1      45.858  36.977  26.077  1.00  0.00    -0.744 OA
ENDBRANCH  94  97
ENDBRANCH  67  90
ENDBRANCH  41  42
ENDBRANCH  34  36
ENDBRANCH  33  34
ENDBRANCH  32  33
ENDBRANCH  31  32
ENDBRANCH  30  31
ENDBRANCH   1  30
TORSDOF 22
ENDMDL
