MODEL 1
REMARK VINA RESULT:     -11.4      0.000      0.000
REMARK SMILES O=C(OCCOC(=O)[C@@]1([NH2+]C2CC2)CC[C@H](SC2CCCC2)C1)c1ccc(-c2c3nc(c(-c4cccc(S(=O)(=O)[O-])c4F)c4ccc([nH]4)c(-c4cccc(S(=O)(=O)[O-])c4F)c4nc(c(-c5cccc(S(=O)(=O)[O-])c5F)c5ccc2[nH]5)C=C4)C=C3)cc1
REMARK SMILES IDX 4 1 3 2 2 3 1 4 24 5 25 6 86 7 26 8 85 9 27 10 28 11 29 12
REMARK SMILES IDX 79 13 30 14 84 15 78 16 80 17 31 18 83 19 77 20 76 21 32 23
REMARK SMILES IDX 64 24 44 25 63 26 45 27 48 28 62 29 81 30 46 31 47 32 61 34
REMARK SMILES IDX 82 35 49 36 33 37 34 38 42 39 35 40 37 41 43 42 36 43 38 44
REMARK SMILES IDX 39 45 40 46 41 47 65 48 66 49 74 50 67 51 69 52 75 53 68 54
REMARK SMILES IDX 70 55 71 56 72 57 73 58 50 59 51 60 59 61 52 62 54 63 60 64
REMARK SMILES IDX 53 65 55 66 56 67 57 68 58 69 5 70 6 71 7 72 8 73 9 74 14 75
REMARK SMILES IDX 23 76 15 77 16 78 10 79 11 82 12 83 13 84 17 85 18 86 19 87
REMARK SMILES IDX 22 88 20 89 21 90
REMARK H PARENT 80 22 48 33 10 80 10 81
REMARK Flexibility Score: inf
ROOT
ATOM      1  C   UNL A   1      31.795  30.340  25.802  1.00  0.00     0.275 C 
ENDROOT
BRANCH   1   2
ATOM      2  O   UNL A   1      32.406  30.518  27.093  1.00  0.00    -0.458 OA
BRANCH   2   3
ATOM      3  C   UNL A   1      33.235  31.550  27.355  1.00  0.00     0.338 C 
ATOM      4  O   UNL A   1      32.835  32.702  27.367  1.00  0.00    -0.246 OA
BRANCH   3   5
ATOM      5  C   UNL A   1      34.628  31.181  27.755  1.00  0.00     0.060 A 
ATOM      6  C   UNL A   1      35.652  32.108  27.983  1.00  0.00     0.016 A 
ATOM      7  C   UNL A   1      34.878  29.829  27.998  1.00  0.00     0.016 A 
ATOM      8  C   UNL A   1      36.852  31.709  28.587  1.00  0.00     0.010 A 
ATOM      9  C   UNL A   1      36.047  29.444  28.656  1.00  0.00     0.010 A 
ATOM     10  C   UNL A   1      37.037  30.383  28.989  1.00  0.00    -0.014 A 
BRANCH  10  11
ATOM     11  C   UNL A   1      38.257  29.940  29.726  1.00  0.00     0.031 A 
ATOM     12  C   UNL A   1      38.512  30.537  31.088  1.00  0.00     0.074 A 
ATOM     13  C   UNL A   1      39.160  29.107  29.153  1.00  0.00     0.049 A 
ATOM     14  N   UNL A   1      39.524  30.357  31.892  1.00  0.00    -0.248 NA
ATOM     15  C   UNL A   1      37.506  31.486  31.605  1.00  0.00     0.031 C 
ATOM     16  C   UNL A   1      39.052  28.510  27.815  1.00  0.00     0.029 A 
ATOM     17  N   UNL A   1      40.378  28.649  29.600  1.00  0.00    -0.354 N 
ATOM     18  C   UNL A   1      39.269  31.163  32.996  1.00  0.00     0.074 A 
ATOM     19  C   UNL A   1      38.084  31.929  32.710  1.00  0.00     0.031 C 
ATOM     20  C   UNL A   1      40.167  27.808  27.541  1.00  0.00     0.029 A 
ATOM     21  C   UNL A   1      41.076  27.892  28.675  1.00  0.00     0.049 A 
ATOM     22  H   UNL A   1      40.725  28.843  30.500  1.00  0.00     0.167 HD
ATOM     23  C   UNL A   1      39.900  31.183  34.193  1.00  0.00     0.034 A 
ATOM     24  C   UNL A   1      42.307  27.337  28.746  1.00  0.00     0.034 A 
ATOM     25  C   UNL A   1      41.012  30.334  34.497  1.00  0.00     0.049 A 
ATOM     26  C   UNL A   1      43.048  27.487  30.069  1.00  0.00     0.074 A 
ATOM     27  C   UNL A   1      41.626  30.115  35.713  1.00  0.00     0.029 A 
ATOM     28  N   UNL A   1      41.672  29.560  33.557  1.00  0.00    -0.354 N 
ATOM     29  N   UNL A   1      42.632  28.020  31.195  1.00  0.00    -0.248 NA
ATOM     30  C   UNL A   1      44.403  26.917  30.156  1.00  0.00     0.031 C 
ATOM     31  C   UNL A   1      42.674  29.214  35.503  1.00  0.00     0.029 A 
ATOM     32  C   UNL A   1      42.706  28.874  34.158  1.00  0.00     0.049 A 
ATOM     33  H   UNL A   1      41.438  29.506  32.603  1.00  0.00     0.167 HD
ATOM     34  C   UNL A   1      43.612  27.735  32.143  1.00  0.00     0.074 A 
ATOM     35  C   UNL A   1      44.658  27.012  31.454  1.00  0.00     0.031 C 
ATOM     36  C   UNL A   1      43.648  28.035  33.466  1.00  0.00     0.034 A 
BRANCH  23  37
ATOM     37  C   UNL A   1      39.309  32.045  35.275  1.00  0.00     0.023 A 
ATOM     38  C   UNL A   1      39.488  33.445  35.207  1.00  0.00     0.012 A 
ATOM     39  C   UNL A   1      38.582  31.493  36.344  1.00  0.00     0.148 A 
ATOM     40  C   UNL A   1      39.003  34.276  36.214  1.00  0.00     0.002 A 
ATOM     41  C   UNL A   1      38.063  32.334  37.324  1.00  0.00     0.091 A 
ATOM     42  F   UNL A   1      38.429  30.164  36.394  1.00  0.00    -0.205 F 
ATOM     43  C   UNL A   1      38.286  33.721  37.268  1.00  0.00     0.022 A 
BRANCH  41  44
ATOM     44  S   UNL A   1      37.078  31.739  38.702  1.00  0.00     0.127 S 
ATOM     45  O   UNL A   1      36.820  30.355  38.305  1.00  0.00    -0.237 OA
ATOM     46  O   UNL A   1      38.005  31.889  39.823  1.00  0.00    -0.237 OA
ATOM     47  O   UNL A   1      35.901  32.594  38.757  1.00  0.00    -0.744 OA
ENDBRANCH  41  44
ENDBRANCH  23  37
BRANCH  24  48
ATOM     48  C   UNL A   1      42.945  26.561  27.618  1.00  0.00     0.023 A 
ATOM     49  C   UNL A   1      43.621  27.251  26.592  1.00  0.00     0.012 A 
ATOM     50  C   UNL A   1      42.766  25.172  27.456  1.00  0.00     0.148 A 
ATOM     51  C   UNL A   1      43.965  26.615  25.393  1.00  0.00     0.002 A 
ATOM     52  C   UNL A   1      43.078  24.544  26.252  1.00  0.00     0.091 A 
ATOM     53  F   UNL A   1      42.349  24.459  28.503  1.00  0.00    -0.205 F 
ATOM     54  C   UNL A   1      43.660  25.271  25.208  1.00  0.00     0.022 A 
BRANCH  52  55
ATOM     55  S   UNL A   1      42.678  22.819  25.924  1.00  0.00     0.127 S 
ATOM     56  O   UNL A   1      43.050  22.684  24.516  1.00  0.00    -0.237 OA
ATOM     57  O   UNL A   1      43.555  22.127  26.864  1.00  0.00    -0.237 OA
ATOM     58  O   UNL A   1      41.251  22.693  26.186  1.00  0.00    -0.744 OA
ENDBRANCH  52  55
ENDBRANCH  24  48
BRANCH  36  59
ATOM     59  C   UNL A   1      44.767  27.467  34.296  1.00  0.00     0.023 A 
ATOM     60  C   UNL A   1      45.943  28.210  34.503  1.00  0.00     0.012 A 
ATOM     61  C   UNL A   1      44.576  26.255  34.990  1.00  0.00     0.148 A 
ATOM     62  C   UNL A   1      46.921  27.747  35.382  1.00  0.00     0.002 A 
ATOM     63  C   UNL A   1      45.528  25.831  35.908  1.00  0.00     0.091 A 
ATOM     64  F   UNL A   1      43.455  25.555  34.762  1.00  0.00    -0.205 F 
ATOM     65  C   UNL A   1      46.706  26.570  36.098  1.00  0.00     0.022 A 
BRANCH  63  66
ATOM     66  S   UNL A   1      45.266  24.403  36.967  1.00  0.00     0.127 S 
ATOM     67  O   UNL A   1      46.514  24.361  37.725  1.00  0.00    -0.237 OA
ATOM     68  O   UNL A   1      44.092  24.804  37.745  1.00  0.00    -0.237 OA
ATOM     69  O   UNL A   1      45.037  23.277  36.072  1.00  0.00    -0.744 OA
ENDBRANCH  63  66
ENDBRANCH  36  59
ENDBRANCH  10  11
ENDBRANCH   3   5
ENDBRANCH   2   3
ENDBRANCH   1   2
BRANCH   1  70
ATOM     70  C   UNL A   1      32.312  29.282  24.809  1.00  0.00     0.274 C 
BRANCH  70  71
ATOM     71  O   UNL A   1      32.734  28.024  25.359  1.00  0.00    -0.457 OA
BRANCH  71  72
ATOM     72  C   UNL A   1      31.732  27.068  25.373  1.00  0.00     0.368 C 
ATOM     73  O   UNL A   1      30.850  27.052  26.229  1.00  0.00    -0.245 OA
BRANCH  72  74
ATOM     74  C   UNL A   1      31.875  25.999  24.252  1.00  0.00     0.195 C 
ATOM     75  C   UNL A   1      31.466  26.496  22.875  1.00  0.00     0.082 C 
ATOM     76  C   UNL A   1      33.377  25.723  23.956  1.00  0.00     0.095 C 
ATOM     77  C   UNL A   1      32.133  25.593  21.865  1.00  0.00     0.022 C 
ATOM     78  C   UNL A   1      33.459  25.192  22.494  1.00  0.00     0.054 C 
BRANCH  74  79
ATOM     79  N   UNL A   1      31.284  24.704  24.646  1.00  0.00    -0.330 N 
ATOM     80  H   UNL A   1      31.146  24.188  23.777  1.00  0.00     0.347 HD
ATOM     81  H   UNL A   1      30.490  25.018  25.204  1.00  0.00     0.347 HD
BRANCH  79  82
ATOM     82  C   UNL A   1      31.910  23.764  25.566  1.00  0.00     0.183 C 
ATOM     83  C   UNL A   1      31.628  23.545  27.016  1.00  0.00     0.071 C 
ATOM     84  C   UNL A   1      31.076  22.584  26.011  1.00  0.00     0.071 C 
ENDBRANCH  79  82
ENDBRANCH  74  79
BRANCH  78  85
ATOM     85  S   UNL A   1      33.641  23.369  22.384  1.00  0.00    -0.155 SA
BRANCH  85  86
ATOM     86  C   UNL A   1      34.913  22.967  23.665  1.00  0.00     0.047 C 
ATOM     87  C   UNL A   1      34.755  21.644  24.413  1.00  0.00     0.014 C 
ATOM     88  C   UNL A   1      36.372  22.908  23.244  1.00  0.00     0.014 C 
ATOM     89  C   UNL A   1      36.038  21.547  25.238  1.00  0.00     0.001 C 
ATOM     90  C   UNL A   1      37.108  22.260  24.416  1.00  0.00     0.001 C 
ENDBRANCH  85  86
ENDBRANCH  78  85
ENDBRANCH  72  74
ENDBRANCH  71  72
ENDBRANCH  70  71
ENDBRANCH   1  70
TORSDOF 18
ENDMDL
MODEL 2
REMARK VINA RESULT:     -11.2      5.171     10.235
REMARK SMILES O=C(OCCOC(=O)[C@@]1([NH2+]C2CC2)CC[C@H](SC2CCCC2)C1)c1ccc(-c2c3nc(c(-c4cccc(S(=O)(=O)[O-])c4F)c4ccc([nH]4)c(-c4cccc(S(=O)(=O)[O-])c4F)c4nc(c(-c5cccc(S(=O)(=O)[O-])c5F)c5ccc2[nH]5)C=C4)C=C3)cc1
REMARK SMILES IDX 4 1 3 2 2 3 1 4 24 5 25 6 86 7 26 8 85 9 27 10 28 11 29 12
REMARK SMILES IDX 79 13 30 14 84 15 78 16 80 17 31 18 83 19 77 20 76 21 32 23
REMARK SMILES IDX 64 24 44 25 63 26 45 27 48 28 62 29 81 30 46 31 47 32 61 34
REMARK SMILES IDX 82 35 49 36 33 37 34 38 42 39 35 40 37 41 43 42 36 43 38 44
REMARK SMILES IDX 39 45 40 46 41 47 65 48 66 49 74 50 67 51 69 52 75 53 68 54
REMARK SMILES IDX 70 55 71 56 72 57 73 58 50 59 51 60 59 61 52 62 54 63 60 64
REMARK SMILES IDX 53 65 55 66 56 67 57 68 58 69 5 70 6 71 7 72 8 73 9 74 14 75
REMARK SMILES IDX 23 76 15 77 16 78 10 79 11 82 12 83 13 84 17 85 18 86 19 87
REMARK SMILES IDX 22 88 20 89 21 90
REMARK H PARENT 80 22 48 33 10 80 10 81
REMARK Flexibility Score: inf
ROOT
ATOM      1  C   UNL A   1      37.116  20.436  24.843  1.00  0.00     0.275 C 
ENDROOT
BRANCH   1   2
ATOM      2  O   UNL A   1      38.130  21.445  25.004  1.00  0.00    -0.458 OA
BRANCH   2   3
ATOM      3  C   UNL A   1      39.152  21.297  25.873  1.00  0.00     0.338 C 
ATOM      4  O   UNL A   1      39.735  20.233  25.997  1.00  0.00    -0.246 OA
BRANCH   3   5
ATOM      5  C   UNL A   1      39.603  22.543  26.566  1.00  0.00     0.060 A 
ATOM      6  C   UNL A   1      40.602  22.581  27.545  1.00  0.00     0.016 A 
ATOM      7  C   UNL A   1      39.043  23.746  26.130  1.00  0.00     0.016 A 
ATOM      8  C   UNL A   1      41.137  23.804  27.971  1.00  0.00     0.010 A 
ATOM      9  C   UNL A   1      39.619  24.960  26.507  1.00  0.00     0.010 A 
ATOM     10  C   UNL A   1      40.695  25.005  27.408  1.00  0.00    -0.014 A 
BRANCH  10  11
ATOM     11  C   UNL A   1      41.310  26.319  27.758  1.00  0.00     0.031 A 
ATOM     12  C   UNL A   1      42.779  26.508  27.471  1.00  0.00     0.074 A 
ATOM     13  C   UNL A   1      40.601  27.276  28.405  1.00  0.00     0.049 A 
ATOM     14  N   UNL A   1      43.548  27.529  27.735  1.00  0.00    -0.248 NA
ATOM     15  C   UNL A   1      43.487  25.386  26.822  1.00  0.00     0.031 C 
ATOM     16  C   UNL A   1      39.186  27.186  28.790  1.00  0.00     0.029 A 
ATOM     17  N   UNL A   1      40.979  28.503  28.901  1.00  0.00    -0.354 N 
ATOM     18  C   UNL A   1      44.813  27.169  27.284  1.00  0.00     0.074 A 
ATOM     19  C   UNL A   1      44.745  25.797  26.851  1.00  0.00     0.031 C 
ATOM     20  C   UNL A   1      38.837  28.281  29.491  1.00  0.00     0.029 A 
ATOM     21  C   UNL A   1      39.990  29.161  29.610  1.00  0.00     0.049 A 
ATOM     22  H   UNL A   1      41.879  28.880  28.765  1.00  0.00     0.167 HD
ATOM     23  C   UNL A   1      45.911  27.945  27.136  1.00  0.00     0.034 A 
ATOM     24  C   UNL A   1      40.023  30.338  30.274  1.00  0.00     0.034 A 
ATOM     25  C   UNL A   1      45.928  29.336  27.471  1.00  0.00     0.049 A 
ATOM     26  C   UNL A   1      41.321  31.132  30.194  1.00  0.00     0.074 A 
ATOM     27  C   UNL A   1      46.900  30.278  27.203  1.00  0.00     0.029 A 
ATOM     28  N   UNL A   1      44.907  29.979  28.152  1.00  0.00    -0.354 N 
ATOM     29  N   UNL A   1      42.408  30.874  29.501  1.00  0.00    -0.248 NA
ATOM     30  C   UNL A   1      41.388  32.401  30.936  1.00  0.00     0.031 C 
ATOM     31  C   UNL A   1      46.470  31.496  27.740  1.00  0.00     0.029 A 
ATOM     32  C   UNL A   1      45.231  31.306  28.337  1.00  0.00     0.049 A 
ATOM     33  H   UNL A   1      44.075  29.552  28.457  1.00  0.00     0.167 HD
ATOM     34  C   UNL A   1      43.220  31.999  29.623  1.00  0.00     0.074 A 
ATOM     35  C   UNL A   1      42.518  32.926  30.483  1.00  0.00     0.031 C 
ATOM     36  C   UNL A   1      44.435  32.251  29.074  1.00  0.00     0.034 A 
BRANCH  23  37
ATOM     37  C   UNL A   1      47.111  27.330  26.466  1.00  0.00     0.023 A 
ATOM     38  C   UNL A   1      47.258  27.468  25.068  1.00  0.00     0.012 A 
ATOM     39  C   UNL A   1      48.086  26.630  27.198  1.00  0.00     0.148 A 
ATOM     40  C   UNL A   1      48.325  26.871  24.401  1.00  0.00     0.002 A 
ATOM     41  C   UNL A   1      49.172  26.073  26.530  1.00  0.00     0.091 A 
ATOM     42  F   UNL A   1      47.925  26.505  28.522  1.00  0.00    -0.205 F 
ATOM     43  C   UNL A   1      49.284  26.179  25.132  1.00  0.00     0.022 A 
BRANCH  41  44
ATOM     44  S   UNL A   1      50.498  25.204  27.373  1.00  0.00     0.127 S 
ATOM     45  O   UNL A   1      49.783  24.072  27.961  1.00  0.00    -0.237 OA
ATOM     46  O   UNL A   1      51.384  24.855  26.262  1.00  0.00    -0.237 OA
ATOM     47  O   UNL A   1      51.054  26.148  28.332  1.00  0.00    -0.744 OA
ENDBRANCH  41  44
ENDBRANCH  23  37
BRANCH  24  48
ATOM     48  C   UNL A   1      38.849  30.905  31.037  1.00  0.00     0.023 A 
ATOM     49  C   UNL A   1      38.651  30.541  32.384  1.00  0.00     0.012 A 
ATOM     50  C   UNL A   1      37.841  31.672  30.418  1.00  0.00     0.148 A 
ATOM     51  C   UNL A   1      37.438  30.797  33.035  1.00  0.00     0.002 A 
ATOM     52  C   UNL A   1      36.621  31.899  31.053  1.00  0.00     0.091 A 
ATOM     53  F   UNL A   1      38.102  32.229  29.235  1.00  0.00    -0.205 F 
ATOM     54  C   UNL A   1      36.409  31.441  32.358  1.00  0.00     0.022 A 
BRANCH  52  55
ATOM     55  S   UNL A   1      35.230  32.691  30.228  1.00  0.00     0.127 S 
ATOM     56  O   UNL A   1      34.207  32.674  31.274  1.00  0.00    -0.237 OA
ATOM     57  O   UNL A   1      35.778  34.010  29.923  1.00  0.00    -0.237 OA
ATOM     58  O   UNL A   1      34.930  31.853  29.076  1.00  0.00    -0.744 OA
ENDBRANCH  52  55
ENDBRANCH  24  48
BRANCH  36  59
ATOM     59  C   UNL A   1      45.025  33.624  29.250  1.00  0.00     0.023 A 
ATOM     60  C   UNL A   1      45.798  33.922  30.386  1.00  0.00     0.012 A 
ATOM     61  C   UNL A   1      44.932  34.564  28.203  1.00  0.00     0.148 A 
ATOM     62  C   UNL A   1      46.460  35.144  30.485  1.00  0.00     0.002 A 
ATOM     63  C   UNL A   1      45.642  35.755  28.283  1.00  0.00     0.091 A 
ATOM     64  F   UNL A   1      44.174  34.265  27.138  1.00  0.00    -0.205 F 
ATOM     65  C   UNL A   1      46.398  36.051  29.428  1.00  0.00     0.022 A 
BRANCH  63  66
ATOM     66  S   UNL A   1      45.725  36.913  26.911  1.00  0.00     0.127 S 
ATOM     67  O   UNL A   1      44.360  37.433  26.878  1.00  0.00    -0.237 OA
ATOM     68  O   UNL A   1      46.733  37.869  27.372  1.00  0.00    -0.237 OA
ATOM     69  O   UNL A   1      46.126  36.129  25.750  1.00  0.00    -0.744 OA
ENDBRANCH  63  66
ENDBRANCH  36  59
ENDBRANCH  10  11
ENDBRANCH   3   5
ENDBRANCH   2   3
ENDBRANCH   1   2
BRANCH   1  70
ATOM     70  C   UNL A   1      35.652  20.700  25.246  1.00  0.00     0.274 C 
BRANCH  70  71
ATOM     71  O   UNL A   1      35.360  21.975  25.839  1.00  0.00    -0.457 OA
BRANCH  71  72
ATOM     72  C   UNL A   1      34.187  21.983  26.574  1.00  0.00     0.368 C 
ATOM     73  O   UNL A   1      34.067  21.362  27.627  1.00  0.00    -0.245 OA
BRANCH  72  74
ATOM     74  C   UNL A   1      33.039  22.794  25.906  1.00  0.00     0.195 C 
ATOM     75  C   UNL A   1      31.821  21.955  25.557  1.00  0.00     0.082 C 
ATOM     76  C   UNL A   1      32.371  23.741  26.943  1.00  0.00     0.095 C 
ATOM     77  C   UNL A   1      30.653  22.905  25.432  1.00  0.00     0.022 C 
ATOM     78  C   UNL A   1      30.922  24.011  26.441  1.00  0.00     0.054 C 
BRANCH  74  79
ATOM     79  N   UNL A   1      33.535  23.656  24.814  1.00  0.00    -0.330 N 
ATOM     80  H   UNL A   1      34.553  23.621  24.877  1.00  0.00     0.347 HD
ATOM     81  H   UNL A   1      33.025  24.518  25.005  1.00  0.00     0.347 HD
BRANCH  79  82
ATOM     82  C   UNL A   1      33.221  23.457  23.406  1.00  0.00     0.183 C 
ATOM     83  C   UNL A   1      32.709  24.448  22.413  1.00  0.00     0.071 C 
ATOM     84  C   UNL A   1      34.161  24.084  22.400  1.00  0.00     0.071 C 
ENDBRANCH  79  82
ENDBRANCH  74  79
BRANCH  78  85
ATOM     85  S   UNL A   1      30.723  25.636  25.610  1.00  0.00    -0.155 SA
BRANCH  85  86
ATOM     86  C   UNL A   1      32.123  26.651  26.268  1.00  0.00     0.047 C 
ATOM     87  C   UNL A   1      33.058  27.295  25.246  1.00  0.00     0.014 C 
ATOM     88  C   UNL A   1      31.800  27.829  27.172  1.00  0.00     0.014 C 
ATOM     89  C   UNL A   1      33.959  28.184  26.101  1.00  0.00     0.001 C 
ATOM     90  C   UNL A   1      33.099  28.627  27.281  1.00  0.00     0.001 C 
ENDBRANCH  85  86
ENDBRANCH  78  85
ENDBRANCH  72  74
ENDBRANCH  71  72
ENDBRANCH  70  71
ENDBRANCH   1  70
TORSDOF 18
ENDMDL
MODEL 3
REMARK VINA RESULT:     -11.2      1.672      2.436
REMARK SMILES O=C(OCCOC(=O)[C@@]1([NH2+]C2CC2)CC[C@H](SC2CCCC2)C1)c1ccc(-c2c3nc(c(-c4cccc(S(=O)(=O)[O-])c4F)c4ccc([nH]4)c(-c4cccc(S(=O)(=O)[O-])c4F)c4nc(c(-c5cccc(S(=O)(=O)[O-])c5F)c5ccc2[nH]5)C=C4)C=C3)cc1
REMARK SMILES IDX 4 1 3 2 2 3 1 4 24 5 25 6 86 7 26 8 85 9 27 10 28 11 29 12
REMARK SMILES IDX 79 13 30 14 84 15 78 16 80 17 31 18 83 19 77 20 76 21 32 23
REMARK SMILES IDX 64 24 44 25 63 26 45 27 48 28 62 29 81 30 46 31 47 32 61 34
REMARK SMILES IDX 82 35 49 36 33 37 34 38 42 39 35 40 37 41 43 42 36 43 38 44
REMARK SMILES IDX 39 45 40 46 41 47 65 48 66 49 74 50 67 51 69 52 75 53 68 54
REMARK SMILES IDX 70 55 71 56 72 57 73 58 50 59 51 60 59 61 52 62 54 63 60 64
REMARK SMILES IDX 53 65 55 66 56 67 57 68 58 69 5 70 6 71 7 72 8 73 9 74 14 75
REMARK SMILES IDX 23 76 15 77 16 78 10 79 11 82 12 83 13 84 17 85 18 86 19 87
REMARK SMILES IDX 22 88 20 89 21 90
REMARK H PARENT 80 22 48 33 10 80 10 81
REMARK Flexibility Score: inf
ROOT
ATOM      1  C   UNL A   1      31.975  30.243  25.864  1.00  0.00     0.275 C 
ENDROOT
BRANCH   1   2
ATOM      2  O   UNL A   1      32.481  30.485  27.190  1.00  0.00    -0.458 OA
BRANCH   2   3
ATOM      3  C   UNL A   1      33.335  31.495  27.455  1.00  0.00     0.338 C 
ATOM      4  O   UNL A   1      32.961  32.656  27.479  1.00  0.00    -0.246 OA
BRANCH   3   5
ATOM      5  C   UNL A   1      34.721  31.091  27.844  1.00  0.00     0.060 A 
ATOM      6  C   UNL A   1      35.777  31.989  28.037  1.00  0.00     0.016 A 
ATOM      7  C   UNL A   1      34.932  29.738  28.114  1.00  0.00     0.016 A 
ATOM      8  C   UNL A   1      36.973  31.566  28.633  1.00  0.00     0.010 A 
ATOM      9  C   UNL A   1      36.098  29.330  28.764  1.00  0.00     0.010 A 
ATOM     10  C   UNL A   1      37.122  30.244  29.062  1.00  0.00    -0.014 A 
BRANCH  10  11
ATOM     11  C   UNL A   1      38.337  29.779  29.792  1.00  0.00     0.031 A 
ATOM     12  C   UNL A   1      38.629  30.395  31.138  1.00  0.00     0.074 A 
ATOM     13  C   UNL A   1      39.206  28.907  29.224  1.00  0.00     0.049 A 
ATOM     14  N   UNL A   1      39.647  30.200  31.932  1.00  0.00    -0.248 NA
ATOM     15  C   UNL A   1      37.660  31.384  31.649  1.00  0.00     0.031 C 
ATOM     16  C   UNL A   1      39.062  28.287  27.900  1.00  0.00     0.029 A 
ATOM     17  N   UNL A   1      40.417  28.420  29.664  1.00  0.00    -0.354 N 
ATOM     18  C   UNL A   1      39.432  31.035  33.023  1.00  0.00     0.074 A 
ATOM     19  C   UNL A   1      38.266  31.831  32.737  1.00  0.00     0.031 C 
ATOM     20  C   UNL A   1      40.151  27.546  27.626  1.00  0.00     0.029 A 
ATOM     21  C   UNL A   1      41.079  27.624  28.745  1.00  0.00     0.049 A 
ATOM     22  H   UNL A   1      40.782  28.623  30.556  1.00  0.00     0.167 HD
ATOM     23  C   UNL A   1      40.080  31.060  34.210  1.00  0.00     0.034 A 
ATOM     24  C   UNL A   1      42.292  27.034  28.812  1.00  0.00     0.034 A 
ATOM     25  C   UNL A   1      41.168  30.184  34.517  1.00  0.00     0.049 A 
ATOM     26  C   UNL A   1      43.057  27.187  30.122  1.00  0.00     0.074 A 
ATOM     27  C   UNL A   1      41.792  29.971  35.729  1.00  0.00     0.029 A 
ATOM     28  N   UNL A   1      41.792  29.371  33.584  1.00  0.00    -0.354 N 
ATOM     29  N   UNL A   1      42.672  27.756  31.242  1.00  0.00    -0.248 NA
ATOM     30  C   UNL A   1      44.394  26.577  30.203  1.00  0.00     0.031 C 
ATOM     31  C   UNL A   1      42.810  29.034  35.524  1.00  0.00     0.029 A 
ATOM     32  C   UNL A   1      42.813  28.666  34.186  1.00  0.00     0.049 A 
ATOM     33  H   UNL A   1      41.543  29.306  32.634  1.00  0.00     0.167 HD
ATOM     34  C   UNL A   1      43.656  27.459  32.183  1.00  0.00     0.074 A 
ATOM     35  C   UNL A   1      44.670  26.691  31.495  1.00  0.00     0.031 C 
ATOM     36  C   UNL A   1      43.720  27.785  33.499  1.00  0.00     0.034 A 
BRANCH  23  37
ATOM     37  C   UNL A   1      39.530  31.962  35.282  1.00  0.00     0.023 A 
ATOM     38  C   UNL A   1      38.491  31.482  36.111  1.00  0.00     0.012 A 
ATOM     39  C   UNL A   1      40.028  33.262  35.481  1.00  0.00     0.148 A 
ATOM     40  C   UNL A   1      37.918  32.300  37.082  1.00  0.00     0.002 A 
ATOM     41  C   UNL A   1      39.480  34.058  36.481  1.00  0.00     0.091 A 
ATOM     42  F   UNL A   1      41.009  33.700  34.681  1.00  0.00    -0.205 F 
ATOM     43  C   UNL A   1      38.416  33.585  37.270  1.00  0.00     0.022 A 
BRANCH  41  44
ATOM     44  S   UNL A   1      40.075  35.711  36.852  1.00  0.00     0.127 S 
ATOM     45  O   UNL A   1      39.650  36.451  35.664  1.00  0.00    -0.237 OA
ATOM     46  O   UNL A   1      39.330  36.034  38.069  1.00  0.00    -0.237 OA
ATOM     47  O   UNL A   1      41.515  35.593  37.023  1.00  0.00    -0.744 OA
ENDBRANCH  41  44
ENDBRANCH  23  37
BRANCH  24  48
ATOM     48  C   UNL A   1      42.891  26.215  27.692  1.00  0.00     0.023 A 
ATOM     49  C   UNL A   1      43.593  26.862  26.655  1.00  0.00     0.012 A 
ATOM     50  C   UNL A   1      42.650  24.834  27.548  1.00  0.00     0.148 A 
ATOM     51  C   UNL A   1      43.904  26.196  25.463  1.00  0.00     0.002 A 
ATOM     52  C   UNL A   1      42.929  24.178  26.351  1.00  0.00     0.091 A 
ATOM     53  F   UNL A   1      42.205  24.153  28.605  1.00  0.00    -0.205 F 
ATOM     54  C   UNL A   1      43.538  24.865  25.296  1.00  0.00     0.022 A 
BRANCH  52  55
ATOM     55  S   UNL A   1      42.451  22.469  26.046  1.00  0.00     0.127 S 
ATOM     56  O   UNL A   1      40.993  22.541  26.137  1.00  0.00    -0.237 OA
ATOM     57  O   UNL A   1      42.976  22.249  24.700  1.00  0.00    -0.237 OA
ATOM     58  O   UNL A   1      43.084  21.692  27.102  1.00  0.00    -0.744 OA
ENDBRANCH  52  55
ENDBRANCH  24  48
BRANCH  36  59
ATOM     59  C   UNL A   1      44.832  27.199  34.325  1.00  0.00     0.023 A 
ATOM     60  C   UNL A   1      46.045  27.895  34.475  1.00  0.00     0.012 A 
ATOM     61  C   UNL A   1      44.604  26.026  35.073  1.00  0.00     0.148 A 
ATOM     62  C   UNL A   1      47.022  27.424  35.349  1.00  0.00     0.002 A 
ATOM     63  C   UNL A   1      45.558  25.595  35.985  1.00  0.00     0.091 A 
ATOM     64  F   UNL A   1      43.448  25.369  34.899  1.00  0.00    -0.205 F 
ATOM     65  C   UNL A   1      46.773  26.287  36.117  1.00  0.00     0.022 A 
BRANCH  63  66
ATOM     66  S   UNL A   1      45.259  24.225  37.108  1.00  0.00     0.127 S 
ATOM     67  O   UNL A   1      44.153  24.735  37.914  1.00  0.00    -0.237 OA
ATOM     68  O   UNL A   1      44.897  23.144  36.189  1.00  0.00    -0.237 OA
ATOM     69  O   UNL A   1      46.510  24.012  37.823  1.00  0.00    -0.744 OA
ENDBRANCH  63  66
ENDBRANCH  36  59
ENDBRANCH  10  11
ENDBRANCH   3   5
ENDBRANCH   2   3
ENDBRANCH   1   2
BRANCH   1  70
ATOM     70  C   UNL A   1      32.273  28.926  25.120  1.00  0.00     0.274 C 
BRANCH  70  71
ATOM     71  O   UNL A   1      32.986  27.914  25.849  1.00  0.00    -0.457 OA
BRANCH  71  72
ATOM     72  C   UNL A   1      32.225  26.788  26.111  1.00  0.00     0.368 C 
ATOM     73  O   UNL A   1      31.311  26.787  26.932  1.00  0.00    -0.245 OA
BRANCH  72  74
ATOM     74  C   UNL A   1      32.681  25.529  25.317  1.00  0.00     0.195 C 
ATOM     75  C   UNL A   1      34.090  25.070  25.655  1.00  0.00     0.082 C 
ATOM     76  C   UNL A   1      31.909  24.271  25.808  1.00  0.00     0.095 C 
ATOM     77  C   UNL A   1      34.188  23.618  25.249  1.00  0.00     0.022 C 
ATOM     78  C   UNL A   1      32.802  23.038  25.482  1.00  0.00     0.054 C 
BRANCH  74  79
ATOM     79  N   UNL A   1      32.397  25.655  23.873  1.00  0.00    -0.330 N 
ATOM     80  H   UNL A   1      31.718  26.412  23.792  1.00  0.00     0.347 HD
ATOM     81  H   UNL A   1      32.144  24.694  23.644  1.00  0.00     0.347 HD
BRANCH  79  82
ATOM     82  C   UNL A   1      33.408  25.921  22.859  1.00  0.00     0.183 C 
ATOM     83  C   UNL A   1      33.225  26.170  21.398  1.00  0.00     0.071 C 
ATOM     84  C   UNL A   1      33.474  27.329  22.312  1.00  0.00     0.071 C 
ENDBRANCH  79  82
ENDBRANCH  74  79
BRANCH  78  85
ATOM     85  S   UNL A   1      32.278  22.128  23.976  1.00  0.00    -0.155 SA
BRANCH  85  86
ATOM     86  C   UNL A   1      32.163  20.368  24.532  1.00  0.00     0.047 C 
ATOM     87  C   UNL A   1      32.530  19.290  23.513  1.00  0.00     0.014 C 
ATOM     88  C   UNL A   1      32.976  19.936  25.740  1.00  0.00     0.014 C 
ATOM     89  C   UNL A   1      32.505  18.002  24.335  1.00  0.00     0.001 C 
ATOM     90  C   UNL A   1      32.917  18.409  25.747  1.00  0.00     0.001 C 
ENDBRANCH  85  86
ENDBRANCH  78  85
ENDBRANCH  72  74
ENDBRANCH  71  72
ENDBRANCH  70  71
ENDBRANCH   1  70
TORSDOF 18
ENDMDL
