MODEL 1
REMARK VINA RESULT:      -9.6      0.000      0.000
REMARK SMILES CCCSc1nc2n(n1)[C@@H](c1ccccc1C(=O)OCCOC(=O)c1ccc(-c3c4nc(c(-c5cccc(S(=O)(=O)[O-])c5F)c5ccc([nH]5)c(-c5cccc(S(=O)(=O)[O-])c5F)c5nc(c(-c6cccc(S(=O)(=O)[O-])c6F)c6ccc3[nH]6)C=C5)C=C4)cc1)C(C(=O)Nc1cccc(C)c1C)=C(C)N2
REMARK SMILES IDX 20 1 19 2 17 3 18 4 16 5 11 6 12 7 13 8 15 9 14 10 10 11
REMARK SMILES IDX 5 12 6 13 9 14 7 15 8 16 102 17 100 18 88 20 101 21 4 22
REMARK SMILES IDX 3 23 2 24 1 25 89 26 90 27 91 28 92 30 93 31 98 32 94 33
REMARK SMILES IDX 96 34 99 35 95 36 97 37 21 38 22 39 23 40 24 41 25 42 26 43
REMARK SMILES IDX 87 44 27 45 86 46 28 47 29 48 30 49 80 50 31 51 85 52 79 53
REMARK SMILES IDX 81 54 32 55 84 56 78 57 77 58 33 60 65 61 45 62 64 63 46 64
REMARK SMILES IDX 49 65 63 66 82 67 47 68 48 69 62 71 83 72 50 73 34 74 35 75
REMARK SMILES IDX 43 76 36 77 38 78 44 79 37 80 39 81 40 82 41 83 42 84 66 85
REMARK SMILES IDX 67 86 75 87 68 88 70 89 76 90 69 91 71 92 72 93 73 94 74 95
REMARK SMILES IDX 51 96 52 97 60 98 53 99 55 100 61 101 54 102 56 103 57 104
REMARK SMILES IDX 58 105 59 106
REMARK H PARENT 102 19 91 29 81 59 49 70
REMARK Flexibility Score: inf
ROOT
ATOM      1  C   UNL A   1      35.457  32.241  30.848  1.00  0.00     0.275 C 
ENDROOT
BRANCH   1   2
ATOM      2  O   UNL A   1      36.383  32.854  31.763  1.00  0.00    -0.458 OA
BRANCH   2   3
ATOM      3  C   UNL A   1      36.553  32.291  32.985  1.00  0.00     0.338 C 
ATOM      4  O   UNL A   1      35.965  32.627  34.006  1.00  0.00    -0.246 OA
BRANCH   3   5
ATOM      5  C   UNL A   1      37.575  31.199  32.933  1.00  0.00     0.065 A 
ATOM      6  C   UNL A   1      38.940  31.353  33.289  1.00  0.00    -0.004 A 
ATOM      7  C   UNL A   1      39.746  30.185  33.280  1.00  0.00     0.007 A 
ATOM      8  C   UNL A   1      39.239  28.932  32.937  1.00  0.00     0.000 A 
ATOM      9  C   UNL A   1      37.073  29.920  32.612  1.00  0.00     0.016 A 
ATOM     10  C   UNL A   1      37.898  28.796  32.613  1.00  0.00     0.001 A 
BRANCH   6  11
ATOM     11  C   UNL A   1      39.521  32.688  33.805  1.00  0.00     0.180 C 
ATOM     12  C   UNL A   1      41.762  33.612  31.265  1.00  0.00     0.210 A 
ATOM     13  N   UNL A   1      42.673  33.570  32.292  1.00  0.00    -0.185 NA
ATOM     14  N   UNL A   1      40.488  33.417  31.617  1.00  0.00    -0.141 NA
ATOM     15  C   UNL A   1      41.929  33.256  33.322  1.00  0.00     0.227 A 
ATOM     16  N   UNL A   1      40.621  33.163  32.934  1.00  0.00    -0.218 N 
ATOM     17  N   UNL A   1      42.259  32.959  34.591  1.00  0.00    -0.328 N 
ATOM     18  C   UNL A   1      41.332  32.587  35.555  1.00  0.00     0.026 C 
ATOM     19  H   UNL A   1      43.208  33.006  34.850  1.00  0.00     0.169 HD
ATOM     20  C   UNL A   1      40.013  32.563  35.255  1.00  0.00     0.065 C 
ATOM     21  C   UNL A   1      41.897  32.159  36.882  1.00  0.00     0.065 C 
BRANCH  12  22
ATOM     22  S   UNL A   1      42.220  33.731  29.593  1.00  0.00    -0.084 SA
BRANCH  22  23
ATOM     23  C   UNL A   1      41.729  35.430  29.211  1.00  0.00     0.078 C 
BRANCH  23  24
ATOM     24  C   UNL A   1      41.603  35.718  27.714  1.00  0.00     0.008 C 
ATOM     25  C   UNL A   1      42.916  35.646  26.949  1.00  0.00     0.005 C 
ENDBRANCH  23  24
ENDBRANCH  22  23
ENDBRANCH  12  22
BRANCH  20  26
ATOM     26  C   UNL A   1      39.019  32.223  36.299  1.00  0.00     0.255 C 
ATOM     27  O   UNL A   1      38.838  31.051  36.618  1.00  0.00    -0.269 OA
ATOM     28  N   UNL A   1      38.283  33.219  36.908  1.00  0.00    -0.322 N 
ATOM     29  H   UNL A   1      37.304  33.245  36.799  1.00  0.00     0.170 HD
BRANCH  28  30
ATOM     30  C   UNL A   1      38.933  34.201  37.685  1.00  0.00     0.044 A 
ATOM     31  C   UNL A   1      39.496  35.255  36.953  1.00  0.00     0.026 A 
ATOM     32  C   UNL A   1      38.841  34.253  39.083  1.00  0.00    -0.025 A 
ATOM     33  C   UNL A   1      39.796  36.450  37.585  1.00  0.00     0.002 A 
ATOM     34  C   UNL A   1      39.067  35.496  39.707  1.00  0.00    -0.046 A 
ATOM     35  C   UNL A   1      38.526  33.025  39.894  1.00  0.00     0.047 C 
ATOM     36  C   UNL A   1      39.534  36.585  38.945  1.00  0.00     0.004 A 
ATOM     37  C   UNL A   1      38.701  35.761  41.143  1.00  0.00     0.044 C 
ENDBRANCH  28  30
ENDBRANCH  20  26
ENDBRANCH   6  11
ENDBRANCH   3   5
ENDBRANCH   2   3
ENDBRANCH   1   2
BRANCH   1  38
ATOM     38  C   UNL A   1      36.028  32.114  29.457  1.00  0.00     0.275 C 
BRANCH  38  39
ATOM     39  O   UNL A   1      36.953  31.047  29.446  1.00  0.00    -0.458 OA
BRANCH  39  40
ATOM     40  C   UNL A   1      36.540  29.959  28.764  1.00  0.00     0.338 C 
ATOM     41  O   UNL A   1      35.398  29.588  28.560  1.00  0.00    -0.246 OA
BRANCH  40  42
ATOM     42  C   UNL A   1      37.714  29.151  28.470  1.00  0.00     0.060 A 
ATOM     43  C   UNL A   1      38.009  28.147  29.390  1.00  0.00     0.016 A 
ATOM     44  C   UNL A   1      38.642  29.642  27.540  1.00  0.00     0.016 A 
ATOM     45  C   UNL A   1      39.324  27.789  29.527  1.00  0.00     0.010 A 
ATOM     46  C   UNL A   1      39.955  29.303  27.694  1.00  0.00     0.010 A 
ATOM     47  C   UNL A   1      40.280  28.437  28.731  1.00  0.00    -0.014 A 
BRANCH  47  48
ATOM     48  C   UNL A   1      41.641  27.979  28.829  1.00  0.00     0.031 A 
ATOM     49  C   UNL A   1      41.837  26.848  27.903  1.00  0.00     0.074 A 
ATOM     50  C   UNL A   1      42.572  28.608  29.570  1.00  0.00     0.049 A 
ATOM     51  N   UNL A   1      41.881  25.594  28.212  1.00  0.00    -0.248 NA
ATOM     52  C   UNL A   1      41.659  27.096  26.459  1.00  0.00     0.031 C 
ATOM     53  C   UNL A   1      42.427  29.910  30.231  1.00  0.00     0.029 A 
ATOM     54  N   UNL A   1      43.882  28.301  29.770  1.00  0.00    -0.354 N 
ATOM     55  C   UNL A   1      42.150  24.969  26.999  1.00  0.00     0.074 A 
ATOM     56  C   UNL A   1      41.662  25.851  25.980  1.00  0.00     0.031 C 
ATOM     57  C   UNL A   1      43.655  30.393  30.523  1.00  0.00     0.029 A 
ATOM     58  C   UNL A   1      44.647  29.381  30.201  1.00  0.00     0.049 A 
ATOM     59  H   UNL A   1      44.255  27.402  29.624  1.00  0.00     0.167 HD
ATOM     60  C   UNL A   1      43.188  24.091  26.953  1.00  0.00     0.034 A 
ATOM     61  C   UNL A   1      46.000  29.454  30.223  1.00  0.00     0.034 A 
ATOM     62  C   UNL A   1      43.525  23.645  28.287  1.00  0.00     0.049 A 
ATOM     63  C   UNL A   1      46.519  28.069  30.209  1.00  0.00     0.074 A 
ATOM     64  C   UNL A   1      42.970  22.851  29.265  1.00  0.00     0.029 A 
ATOM     65  N   UNL A   1      44.451  24.450  28.895  1.00  0.00    -0.354 N 
ATOM     66  N   UNL A   1      46.374  27.246  31.210  1.00  0.00    -0.248 NA
ATOM     67  C   UNL A   1      46.911  27.461  28.941  1.00  0.00     0.031 C 
ATOM     68  C   UNL A   1      43.577  23.242  30.496  1.00  0.00     0.029 A 
ATOM     69  C   UNL A   1      44.518  24.235  30.240  1.00  0.00     0.049 A 
ATOM     70  H   UNL A   1      45.006  25.107  28.416  1.00  0.00     0.167 HD
ATOM     71  C   UNL A   1      46.189  26.024  30.594  1.00  0.00     0.074 A 
ATOM     72  C   UNL A   1      46.725  26.174  29.248  1.00  0.00     0.031 C 
ATOM     73  C   UNL A   1      45.280  25.131  31.081  1.00  0.00     0.034 A 
BRANCH  60  74
ATOM     74  C   UNL A   1      44.266  24.087  25.872  1.00  0.00     0.023 A 
ATOM     75  C   UNL A   1      44.554  22.831  25.293  1.00  0.00     0.012 A 
ATOM     76  C   UNL A   1      45.197  25.124  25.619  1.00  0.00     0.148 A 
ATOM     77  C   UNL A   1      45.728  22.605  24.564  1.00  0.00     0.002 A 
ATOM     78  C   UNL A   1      46.333  24.912  24.847  1.00  0.00     0.091 A 
ATOM     79  F   UNL A   1      45.076  26.311  26.208  1.00  0.00    -0.205 F 
ATOM     80  C   UNL A   1      46.619  23.646  24.342  1.00  0.00     0.022 A 
BRANCH  78  81
ATOM     81  S   UNL A   1      47.516  26.231  24.520  1.00  0.00     0.127 S 
ATOM     82  O   UNL A   1      48.188  26.342  25.812  1.00  0.00    -0.237 OA
ATOM     83  O   UNL A   1      48.318  25.645  23.448  1.00  0.00    -0.237 OA
ATOM     84  O   UNL A   1      46.727  27.389  24.115  1.00  0.00    -0.744 OA
ENDBRANCH  78  81
ENDBRANCH  60  74
BRANCH  61  85
ATOM     85  C   UNL A   1      46.916  30.609  30.094  1.00  0.00     0.023 A 
ATOM     86  C   UNL A   1      48.061  30.674  30.915  1.00  0.00     0.012 A 
ATOM     87  C   UNL A   1      46.839  31.482  28.988  1.00  0.00     0.148 A 
ATOM     88  C   UNL A   1      49.120  31.535  30.613  1.00  0.00     0.002 A 
ATOM     89  C   UNL A   1      47.894  32.341  28.693  1.00  0.00     0.091 A 
ATOM     90  F   UNL A   1      45.773  31.404  28.179  1.00  0.00    -0.205 F 
ATOM     91  C   UNL A   1      49.043  32.358  29.494  1.00  0.00     0.022 A 
BRANCH  89  92
ATOM     92  S   UNL A   1      47.887  33.419  27.254  1.00  0.00     0.127 S 
ATOM     93  O   UNL A   1      47.700  32.462  26.162  1.00  0.00    -0.237 OA
ATOM     94  O   UNL A   1      46.734  34.274  27.519  1.00  0.00    -0.237 OA
ATOM     95  O   UNL A   1      49.182  34.087  27.249  1.00  0.00    -0.744 OA
ENDBRANCH  89  92
ENDBRANCH  61  85
BRANCH  73  96
ATOM     96  C   UNL A   1      44.982  25.169  32.545  1.00  0.00     0.023 A 
ATOM     97  C   UNL A   1      45.695  24.434  33.512  1.00  0.00     0.012 A 
ATOM     98  C   UNL A   1      43.963  26.042  32.959  1.00  0.00     0.148 A 
ATOM     99  C   UNL A   1      45.379  24.562  34.869  1.00  0.00     0.002 A 
ATOM    100  C   UNL A   1      43.682  26.198  34.306  1.00  0.00     0.091 A 
ATOM    101  F   UNL A   1      43.283  26.713  32.016  1.00  0.00    -0.205 F 
ATOM    102  C   UNL A   1      44.382  25.453  35.267  1.00  0.00     0.022 A 
BRANCH 100 103
ATOM    103  S   UNL A   1      42.477  27.402  34.864  1.00  0.00     0.127 S 
ATOM    104  O   UNL A   1      42.745  28.535  33.981  1.00  0.00    -0.237 OA
ATOM    105  O   UNL A   1      41.209  26.715  34.614  1.00  0.00    -0.237 OA
ATOM    106  O   UNL A   1      42.760  27.625  36.277  1.00  0.00    -0.744 OA
ENDBRANCH 100 103
ENDBRANCH  73  96
ENDBRANCH  47  48
ENDBRANCH  40  42
ENDBRANCH  39  40
ENDBRANCH  38  39
ENDBRANCH   1  38
TORSDOF 20
ENDMDL
MODEL 2
REMARK VINA RESULT:      -9.1      5.360     12.276
REMARK SMILES CCCSc1nc2n(n1)[C@@H](c1ccccc1C(=O)OCCOC(=O)c1ccc(-c3c4nc(c(-c5cccc(S(=O)(=O)[O-])c5F)c5ccc([nH]5)c(-c5cccc(S(=O)(=O)[O-])c5F)c5nc(c(-c6cccc(S(=O)(=O)[O-])c6F)c6ccc3[nH]6)C=C5)C=C4)cc1)C(C(=O)Nc1cccc(C)c1C)=C(C)N2
REMARK SMILES IDX 20 1 19 2 17 3 18 4 16 5 11 6 12 7 13 8 15 9 14 10 10 11
REMARK SMILES IDX 5 12 6 13 9 14 7 15 8 16 102 17 100 18 88 20 101 21 4 22
REMARK SMILES IDX 3 23 2 24 1 25 89 26 90 27 91 28 92 30 93 31 98 32 94 33
REMARK SMILES IDX 96 34 99 35 95 36 97 37 21 38 22 39 23 40 24 41 25 42 26 43
REMARK SMILES IDX 87 44 27 45 86 46 28 47 29 48 30 49 80 50 31 51 85 52 79 53
REMARK SMILES IDX 81 54 32 55 84 56 78 57 77 58 33 60 65 61 45 62 64 63 46 64
REMARK SMILES IDX 49 65 63 66 82 67 47 68 48 69 62 71 83 72 50 73 34 74 35 75
REMARK SMILES IDX 43 76 36 77 38 78 44 79 37 80 39 81 40 82 41 83 42 84 66 85
REMARK SMILES IDX 67 86 75 87 68 88 70 89 76 90 69 91 71 92 72 93 73 94 74 95
REMARK SMILES IDX 51 96 52 97 60 98 53 99 55 100 61 101 54 102 56 103 57 104
REMARK SMILES IDX 58 105 59 106
REMARK H PARENT 102 19 91 29 81 59 49 70
REMARK Flexibility Score: inf
ROOT
ATOM      1  C   UNL A   1      47.220  38.243  27.503  1.00  0.00     0.275 C 
ENDROOT
BRANCH   1   2
ATOM      2  O   UNL A   1      46.515  39.290  28.196  1.00  0.00    -0.458 OA
BRANCH   2   3
ATOM      3  C   UNL A   1      47.014  39.729  29.378  1.00  0.00     0.338 C 
ATOM      4  O   UNL A   1      48.026  40.407  29.510  1.00  0.00    -0.246 OA
BRANCH   3   5
ATOM      5  C   UNL A   1      46.168  39.262  30.522  1.00  0.00     0.065 A 
ATOM      6  C   UNL A   1      45.009  39.930  30.995  1.00  0.00    -0.004 A 
ATOM      7  C   UNL A   1      44.268  39.290  32.021  1.00  0.00     0.007 A 
ATOM      8  C   UNL A   1      44.646  38.059  32.557  1.00  0.00     0.000 A 
ATOM      9  C   UNL A   1      46.523  38.006  31.058  1.00  0.00     0.016 A 
ATOM     10  C   UNL A   1      45.769  37.410  32.068  1.00  0.00     0.001 A 
BRANCH   6  11
ATOM     11  C   UNL A   1      44.471  41.225  30.347  1.00  0.00     0.180 C 
ATOM     12  C   UNL A   1      44.922  43.622  32.873  1.00  0.00     0.210 A 
ATOM     13  N   UNL A   1      43.563  43.765  32.740  1.00  0.00    -0.185 NA
ATOM     14  N   UNL A   1      45.502  42.793  32.000  1.00  0.00    -0.141 NA
ATOM     15  C   UNL A   1      43.278  42.920  31.782  1.00  0.00     0.227 A 
ATOM     16  N   UNL A   1      44.428  42.334  31.328  1.00  0.00    -0.218 N 
ATOM     17  N   UNL A   1      42.097  42.524  31.277  1.00  0.00    -0.328 N 
ATOM     18  C   UNL A   1      41.974  41.562  30.284  1.00  0.00     0.026 C 
ATOM     19  H   UNL A   1      41.276  42.938  31.629  1.00  0.00     0.169 HD
ATOM     20  C   UNL A   1      43.080  41.010  29.732  1.00  0.00     0.065 C 
ATOM     21  C   UNL A   1      40.570  41.147  29.938  1.00  0.00     0.065 C 
BRANCH  12  22
ATOM     22  S   UNL A   1      45.827  44.315  34.185  1.00  0.00    -0.084 SA
BRANCH  22  23
ATOM     23  C   UNL A   1      45.486  43.135  35.514  1.00  0.00     0.078 C 
BRANCH  23  24
ATOM     24  C   UNL A   1      46.614  42.130  35.755  1.00  0.00     0.008 C 
ATOM     25  C   UNL A   1      46.755  41.072  34.671  1.00  0.00     0.005 C 
ENDBRANCH  23  24
ENDBRANCH  22  23
ENDBRANCH  12  22
BRANCH  20  26
ATOM     26  C   UNL A   1      42.951  40.025  28.634  1.00  0.00     0.255 C 
ATOM     27  O   UNL A   1      42.173  39.081  28.741  1.00  0.00    -0.269 OA
ATOM     28  N   UNL A   1      43.713  40.158  27.490  1.00  0.00    -0.322 N 
ATOM     29  H   UNL A   1      44.375  39.467  27.257  1.00  0.00     0.170 HD
BRANCH  28  30
ATOM     30  C   UNL A   1      43.543  41.283  26.656  1.00  0.00     0.044 A 
ATOM     31  C   UNL A   1      44.582  42.221  26.713  1.00  0.00     0.026 A 
ATOM     32  C   UNL A   1      42.539  41.367  25.681  1.00  0.00    -0.025 A 
ATOM     33  C   UNL A   1      44.741  43.137  25.685  1.00  0.00     0.002 A 
ATOM     34  C   UNL A   1      42.752  42.242  24.597  1.00  0.00    -0.046 A 
ATOM     35  C   UNL A   1      41.270  40.564  25.791  1.00  0.00     0.047 C 
ATOM     36  C   UNL A   1      43.860  43.111  24.609  1.00  0.00     0.004 A 
ATOM     37  C   UNL A   1      41.917  42.200  23.346  1.00  0.00     0.044 C 
ENDBRANCH  28  30
ENDBRANCH  20  26
ENDBRANCH   6  11
ENDBRANCH   3   5
ENDBRANCH   2   3
ENDBRANCH   1   2
BRANCH   1  38
ATOM     38  C   UNL A   1      46.322  37.480  26.559  1.00  0.00     0.275 C 
BRANCH  38  39
ATOM     39  O   UNL A   1      45.286  36.882  27.309  1.00  0.00    -0.458 OA
BRANCH  39  40
ATOM     40  C   UNL A   1      45.610  35.693  27.858  1.00  0.00     0.338 C 
ATOM     41  O   UNL A   1      46.310  34.814  27.388  1.00  0.00    -0.246 OA
BRANCH  40  42
ATOM     42  C   UNL A   1      44.800  35.524  29.054  1.00  0.00     0.060 A 
ATOM     43  C   UNL A   1      44.947  34.312  29.725  1.00  0.00     0.016 A 
ATOM     44  C   UNL A   1      43.704  36.380  29.240  1.00  0.00     0.016 A 
ATOM     45  C   UNL A   1      43.866  33.848  30.425  1.00  0.00     0.010 A 
ATOM     46  C   UNL A   1      42.619  35.906  29.917  1.00  0.00     0.010 A 
ATOM     47  C   UNL A   1      42.694  34.619  30.437  1.00  0.00    -0.014 A 
BRANCH  47  48
ATOM     48  C   UNL A   1      41.605  34.154  31.254  1.00  0.00     0.031 A 
ATOM     49  C   UNL A   1      42.025  34.160  32.668  1.00  0.00     0.074 A 
ATOM     50  C   UNL A   1      40.381  33.893  30.759  1.00  0.00     0.049 A 
ATOM     51  N   UNL A   1      42.381  33.138  33.373  1.00  0.00    -0.248 NA
ATOM     52  C   UNL A   1      42.385  35.455  33.277  1.00  0.00     0.031 C 
ATOM     53  C   UNL A   1      39.905  34.196  29.405  1.00  0.00     0.029 A 
ATOM     54  N   UNL A   1      39.261  33.445  31.390  1.00  0.00    -0.354 N 
ATOM     55  C   UNL A   1      42.607  33.677  34.636  1.00  0.00     0.074 A 
ATOM     56  C   UNL A   1      42.933  35.057  34.426  1.00  0.00     0.031 C 
ATOM     57  C   UNL A   1      38.553  34.173  29.398  1.00  0.00     0.029 A 
ATOM     58  C   UNL A   1      38.085  33.720  30.697  1.00  0.00     0.049 A 
ATOM     59  H   UNL A   1      39.280  32.974  32.253  1.00  0.00     0.167 HD
ATOM     60  C   UNL A   1      41.992  33.088  35.697  1.00  0.00     0.034 A 
ATOM     61  C   UNL A   1      36.824  33.643  31.187  1.00  0.00     0.034 A 
ATOM     62  C   UNL A   1      41.582  31.745  35.355  1.00  0.00     0.049 A 
ATOM     63  C   UNL A   1      36.860  32.756  32.369  1.00  0.00     0.074 A 
ATOM     64  C   UNL A   1      42.181  30.531  35.101  1.00  0.00     0.029 A 
ATOM     65  N   UNL A   1      40.324  31.697  34.815  1.00  0.00    -0.354 N 
ATOM     66  N   UNL A   1      37.092  31.475  32.290  1.00  0.00    -0.248 NA
ATOM     67  C   UNL A   1      36.979  33.338  33.703  1.00  0.00     0.031 C 
ATOM     68  C   UNL A   1      41.239  29.765  34.349  1.00  0.00     0.029 A 
ATOM     69  C   UNL A   1      40.073  30.508  34.195  1.00  0.00     0.049 A 
ATOM     70  H   UNL A   1      39.675  32.436  34.869  1.00  0.00     0.167 HD
ATOM     71  C   UNL A   1      37.830  31.213  33.427  1.00  0.00     0.074 A 
ATOM     72  C   UNL A   1      37.557  32.315  34.338  1.00  0.00     0.031 C 
ATOM     73  C   UNL A   1      38.885  30.349  33.387  1.00  0.00     0.034 A 
BRANCH  60  74
ATOM     74  C   UNL A   1      41.230  33.846  36.781  1.00  0.00     0.023 A 
ATOM     75  C   UNL A   1      39.920  34.254  36.444  1.00  0.00     0.012 A 
ATOM     76  C   UNL A   1      41.794  34.438  37.938  1.00  0.00     0.148 A 
ATOM     77  C   UNL A   1      39.241  35.237  37.173  1.00  0.00     0.002 A 
ATOM     78  C   UNL A   1      41.096  35.372  38.694  1.00  0.00     0.091 A 
ATOM     79  F   UNL A   1      43.060  34.206  38.277  1.00  0.00    -0.205 F 
ATOM     80  C   UNL A   1      39.829  35.798  38.299  1.00  0.00     0.022 A 
BRANCH  78  81
ATOM     81  S   UNL A   1      41.810  36.121  40.168  1.00  0.00     0.127 S 
ATOM     82  O   UNL A   1      40.768  37.073  40.541  1.00  0.00    -0.237 OA
ATOM     83  O   UNL A   1      41.940  34.962  41.050  1.00  0.00    -0.237 OA
ATOM     84  O   UNL A   1      43.080  36.703  39.750  1.00  0.00    -0.744 OA
ENDBRANCH  78  81
ENDBRANCH  60  74
BRANCH  61  85
ATOM     85  C   UNL A   1      35.595  34.390  30.835  1.00  0.00     0.023 A 
ATOM     86  C   UNL A   1      34.820  33.960  29.738  1.00  0.00     0.012 A 
ATOM     87  C   UNL A   1      35.026  35.320  31.730  1.00  0.00     0.148 A 
ATOM     88  C   UNL A   1      33.503  34.396  29.568  1.00  0.00     0.002 A 
ATOM     89  C   UNL A   1      33.715  35.756  31.555  1.00  0.00     0.091 A 
ATOM     90  F   UNL A   1      35.738  35.708  32.797  1.00  0.00    -0.205 F 
ATOM     91  C   UNL A   1      32.945  35.282  30.484  1.00  0.00     0.022 A 
BRANCH  89  92
ATOM     92  S   UNL A   1      32.909  36.880  32.704  1.00  0.00     0.127 S 
ATOM     93  O   UNL A   1      33.001  38.155  31.991  1.00  0.00    -0.237 OA
ATOM     94  O   UNL A   1      31.563  36.321  32.782  1.00  0.00    -0.237 OA
ATOM     95  O   UNL A   1      33.690  36.822  33.933  1.00  0.00    -0.744 OA
ENDBRANCH  89  92
ENDBRANCH  61  85
BRANCH  73  96
ATOM     96  C   UNL A   1      38.849  29.252  32.372  1.00  0.00     0.023 A 
ATOM     97  C   UNL A   1      38.216  28.012  32.577  1.00  0.00     0.012 A 
ATOM     98  C   UNL A   1      39.440  29.524  31.128  1.00  0.00     0.148 A 
ATOM     99  C   UNL A   1      38.190  27.055  31.556  1.00  0.00     0.002 A 
ATOM    100  C   UNL A   1      39.376  28.592  30.105  1.00  0.00     0.091 A 
ATOM    101  F   UNL A   1      40.059  30.705  30.966  1.00  0.00    -0.205 F 
ATOM    102  C   UNL A   1      38.759  27.350  30.316  1.00  0.00     0.022 A 
BRANCH 100 103
ATOM    103  S   UNL A   1      40.009  28.970  28.471  1.00  0.00     0.127 S 
ATOM    104  O   UNL A   1      41.254  29.670  28.780  1.00  0.00    -0.237 OA
ATOM    105  O   UNL A   1      40.181  27.639  27.887  1.00  0.00    -0.237 OA
ATOM    106  O   UNL A   1      38.981  29.773  27.821  1.00  0.00    -0.744 OA
ENDBRANCH 100 103
ENDBRANCH  73  96
ENDBRANCH  47  48
ENDBRANCH  40  42
ENDBRANCH  39  40
ENDBRANCH  38  39
ENDBRANCH   1  38
TORSDOF 20
ENDMDL
MODEL 3
REMARK VINA RESULT:      -8.9      3.306     11.544
REMARK SMILES CCCSc1nc2n(n1)[C@@H](c1ccccc1C(=O)OCCOC(=O)c1ccc(-c3c4nc(c(-c5cccc(S(=O)(=O)[O-])c5F)c5ccc([nH]5)c(-c5cccc(S(=O)(=O)[O-])c5F)c5nc(c(-c6cccc(S(=O)(=O)[O-])c6F)c6ccc3[nH]6)C=C5)C=C4)cc1)C(C(=O)Nc1cccc(C)c1C)=C(C)N2
REMARK SMILES IDX 20 1 19 2 17 3 18 4 16 5 11 6 12 7 13 8 15 9 14 10 10 11
REMARK SMILES IDX 5 12 6 13 9 14 7 15 8 16 102 17 100 18 88 20 101 21 4 22
REMARK SMILES IDX 3 23 2 24 1 25 89 26 90 27 91 28 92 30 93 31 98 32 94 33
REMARK SMILES IDX 96 34 99 35 95 36 97 37 21 38 22 39 23 40 24 41 25 42 26 43
REMARK SMILES IDX 87 44 27 45 86 46 28 47 29 48 30 49 80 50 31 51 85 52 79 53
REMARK SMILES IDX 81 54 32 55 84 56 78 57 77 58 33 60 65 61 45 62 64 63 46 64
REMARK SMILES IDX 49 65 63 66 82 67 47 68 48 69 62 71 83 72 50 73 34 74 35 75
REMARK SMILES IDX 43 76 36 77 38 78 44 79 37 80 39 81 40 82 41 83 42 84 66 85
REMARK SMILES IDX 67 86 75 87 68 88 70 89 76 90 69 91 71 92 72 93 73 94 74 95
REMARK SMILES IDX 51 96 52 97 60 98 53 99 55 100 61 101 54 102 56 103 57 104
REMARK SMILES IDX 58 105 59 106
REMARK H PARENT 102 19 91 29 81 59 49 70
REMARK Flexibility Score: inf
ROOT
ATOM      1  C   UNL A   1      42.568  24.983  27.686  1.00  0.00     0.275 C 
ENDROOT
BRANCH   1   2
ATOM      2  O   UNL A   1      43.908  25.282  27.252  1.00  0.00    -0.458 OA
BRANCH   2   3
ATOM      3  C   UNL A   1      44.083  26.257  26.326  1.00  0.00     0.338 C 
ATOM      4  O   UNL A   1      44.216  26.073  25.123  1.00  0.00    -0.246 OA
BRANCH   3   5
ATOM      5  C   UNL A   1      44.111  27.608  26.971  1.00  0.00     0.065 A 
ATOM      6  C   UNL A   1      45.231  28.156  27.649  1.00  0.00    -0.004 A 
ATOM      7  C   UNL A   1      45.116  29.493  28.109  1.00  0.00     0.007 A 
ATOM      8  C   UNL A   1      43.961  30.251  27.916  1.00  0.00     0.000 A 
ATOM      9  C   UNL A   1      42.960  28.396  26.764  1.00  0.00     0.016 A 
ATOM     10  C   UNL A   1      42.885  29.707  27.234  1.00  0.00     0.001 A 
BRANCH   6  11
ATOM     11  C   UNL A   1      46.579  27.411  27.770  1.00  0.00     0.180 C 
ATOM     12  C   UNL A   1      47.110  27.297  31.240  1.00  0.00     0.210 A 
ATOM     13  N   UNL A   1      48.258  27.974  30.911  1.00  0.00    -0.185 NA
ATOM     14  N   UNL A   1      46.369  26.886  30.207  1.00  0.00    -0.141 NA
ATOM     15  C   UNL A   1      48.182  28.052  29.607  1.00  0.00     0.227 A 
ATOM     16  N   UNL A   1      47.059  27.404  29.171  1.00  0.00    -0.218 N 
ATOM     17  N   UNL A   1      48.954  28.697  28.715  1.00  0.00    -0.328 N 
ATOM     18  C   UNL A   1      48.691  28.719  27.352  1.00  0.00     0.026 C 
ATOM     19  H   UNL A   1      49.747  29.179  29.045  1.00  0.00     0.169 HD
ATOM     20  C   UNL A   1      47.645  28.023  26.850  1.00  0.00     0.065 C 
ATOM     21  C   UNL A   1      49.583  29.603  26.523  1.00  0.00     0.065 C 
BRANCH  12  22
ATOM     22  S   UNL A   1      46.541  27.126  32.873  1.00  0.00    -0.084 SA
BRANCH  22  23
ATOM     23  C   UNL A   1      46.603  25.329  33.083  1.00  0.00     0.078 C 
BRANCH  23  24
ATOM     24  C   UNL A   1      45.352  24.737  33.733  1.00  0.00     0.008 C 
ATOM     25  C   UNL A   1      44.044  25.335  33.237  1.00  0.00     0.005 C 
ENDBRANCH  23  24
ENDBRANCH  22  23
ENDBRANCH  12  22
BRANCH  20  26
ATOM     26  C   UNL A   1      47.398  28.000  25.390  1.00  0.00     0.255 C 
ATOM     27  O   UNL A   1      46.848  28.953  24.843  1.00  0.00    -0.269 OA
ATOM     28  N   UNL A   1      47.774  26.904  24.640  1.00  0.00    -0.322 N 
ATOM     29  H   UNL A   1      47.090  26.363  24.182  1.00  0.00     0.170 HD
BRANCH  28  30
ATOM     30  C   UNL A   1      49.137  26.558  24.531  1.00  0.00     0.044 A 
ATOM     31  C   UNL A   1      49.811  27.149  23.455  1.00  0.00     0.026 A 
ATOM     32  C   UNL A   1      49.831  25.862  25.532  1.00  0.00    -0.025 A 
ATOM     33  C   UNL A   1      51.195  27.222  23.464  1.00  0.00     0.002 A 
ATOM     34  C   UNL A   1      51.232  26.011  25.580  1.00  0.00    -0.046 A 
ATOM     35  C   UNL A   1      49.112  24.975  26.512  1.00  0.00     0.047 C 
ATOM     36  C   UNL A   1      51.896  26.701  24.547  1.00  0.00     0.004 A 
ATOM     37  C   UNL A   1      52.052  25.582  26.766  1.00  0.00     0.044 C 
ENDBRANCH  28  30
ENDBRANCH  20  26
ENDBRANCH   6  11
ENDBRANCH   3   5
ENDBRANCH   2   3
ENDBRANCH   1   2
BRANCH   1  38
ATOM     38  C   UNL A   1      41.717  24.426  26.570  1.00  0.00     0.275 C 
BRANCH  38  39
ATOM     39  O   UNL A   1      40.722  25.375  26.248  1.00  0.00    -0.458 OA
BRANCH  39  40
ATOM     40  C   UNL A   1      39.524  25.143  26.823  1.00  0.00     0.338 C 
ATOM     41  O   UNL A   1      38.703  24.291  26.532  1.00  0.00    -0.246 OA
BRANCH  40  42
ATOM     42  C   UNL A   1      39.259  26.236  27.745  1.00  0.00     0.060 A 
ATOM     43  C   UNL A   1      39.362  27.520  27.216  1.00  0.00     0.016 A 
ATOM     44  C   UNL A   1      39.287  25.964  29.121  1.00  0.00     0.016 A 
ATOM     45  C   UNL A   1      39.726  28.524  28.072  1.00  0.00     0.010 A 
ATOM     46  C   UNL A   1      39.674  26.961  29.970  1.00  0.00     0.010 A 
ATOM     47  C   UNL A   1      39.955  28.205  29.419  1.00  0.00    -0.014 A 
BRANCH  47  48
ATOM     48  C   UNL A   1      40.247  29.293  30.316  1.00  0.00     0.031 A 
ATOM     49  C   UNL A   1      38.993  29.998  30.642  1.00  0.00     0.074 A 
ATOM     50  C   UNL A   1      41.469  29.500  30.839  1.00  0.00     0.049 A 
ATOM     51  N   UNL A   1      38.588  31.122  30.151  1.00  0.00    -0.248 NA
ATOM     52  C   UNL A   1      37.938  29.244  31.345  1.00  0.00     0.031 C 
ATOM     53  C   UNL A   1      42.623  28.598  30.744  1.00  0.00     0.029 A 
ATOM     54  N   UNL A   1      41.904  30.474  31.684  1.00  0.00    -0.354 N 
ATOM     55  C   UNL A   1      37.402  31.368  30.835  1.00  0.00     0.074 A 
ATOM     56  C   UNL A   1      36.908  30.087  31.247  1.00  0.00     0.031 C 
ATOM     57  C   UNL A   1      43.519  28.928  31.702  1.00  0.00     0.029 A 
ATOM     58  C   UNL A   1      43.067  30.136  32.371  1.00  0.00     0.049 A 
ATOM     59  H   UNL A   1      41.441  31.334  31.799  1.00  0.00     0.167 HD
ATOM     60  C   UNL A   1      37.252  32.581  31.431  1.00  0.00     0.034 A 
ATOM     61  C   UNL A   1      43.576  30.771  33.454  1.00  0.00     0.034 A 
ATOM     62  C   UNL A   1      38.171  33.538  30.857  1.00  0.00     0.049 A 
ATOM     63  C   UNL A   1      43.010  32.137  33.476  1.00  0.00     0.074 A 
ATOM     64  C   UNL A   1      38.330  34.208  29.664  1.00  0.00     0.029 A 
ATOM     65  N   UNL A   1      39.381  33.560  31.498  1.00  0.00    -0.354 N 
ATOM     66  N   UNL A   1      43.308  33.044  32.588  1.00  0.00    -0.248 NA
ATOM     67  C   UNL A   1      41.831  32.413  34.292  1.00  0.00     0.031 C 
ATOM     68  C   UNL A   1      39.701  34.599  29.599  1.00  0.00     0.029 A 
ATOM     69  C   UNL A   1      40.341  34.199  30.769  1.00  0.00     0.049 A 
ATOM     70  H   UNL A   1      39.540  33.161  32.384  1.00  0.00     0.167 HD
ATOM     71  C   UNL A   1      42.120  33.729  32.420  1.00  0.00     0.074 A 
ATOM     72  C   UNL A   1      41.330  33.447  33.610  1.00  0.00     0.031 C 
ATOM     73  C   UNL A   1      41.725  34.140  31.181  1.00  0.00     0.034 A 
BRANCH  60  74
ATOM     74  C   UNL A   1      36.768  32.782  32.865  1.00  0.00     0.023 A 
ATOM     75  C   UNL A   1      35.775  33.770  33.048  1.00  0.00     0.012 A 
ATOM     76  C   UNL A   1      37.414  32.316  34.037  1.00  0.00     0.148 A 
ATOM     77  C   UNL A   1      35.491  34.308  34.309  1.00  0.00     0.002 A 
ATOM     78  C   UNL A   1      37.090  32.809  35.295  1.00  0.00     0.091 A 
ATOM     79  F   UNL A   1      38.437  31.469  33.962  1.00  0.00    -0.205 F 
ATOM     80  C   UNL A   1      36.149  33.828  35.434  1.00  0.00     0.022 A 
BRANCH  78  81
ATOM     81  S   UNL A   1      37.906  32.213  36.786  1.00  0.00     0.127 S 
ATOM     82  O   UNL A   1      39.206  32.871  36.685  1.00  0.00    -0.237 OA
ATOM     83  O   UNL A   1      37.023  32.733  37.829  1.00  0.00    -0.237 OA
ATOM     84  O   UNL A   1      37.922  30.759  36.683  1.00  0.00    -0.744 OA
ENDBRANCH  78  81
ENDBRANCH  60  74
BRANCH  61  85
ATOM     85  C   UNL A   1      44.392  30.269  34.582  1.00  0.00     0.023 A 
ATOM     86  C   UNL A   1      45.339  31.127  35.181  1.00  0.00     0.012 A 
ATOM     87  C   UNL A   1      44.049  29.080  35.259  1.00  0.00     0.148 A 
ATOM     88  C   UNL A   1      45.882  30.841  36.437  1.00  0.00     0.002 A 
ATOM     89  C   UNL A   1      44.595  28.796  36.508  1.00  0.00     0.091 A 
ATOM     90  F   UNL A   1      43.123  28.275  34.720  1.00  0.00    -0.205 F 
ATOM     91  C   UNL A   1      45.499  29.683  37.107  1.00  0.00     0.022 A 
BRANCH  89  92
ATOM     92  S   UNL A   1      44.138  27.336  37.453  1.00  0.00     0.127 S 
ATOM     93  O   UNL A   1      44.864  26.280  36.745  1.00  0.00    -0.237 OA
ATOM     94  O   UNL A   1      44.663  27.655  38.778  1.00  0.00    -0.237 OA
ATOM     95  O   UNL A   1      42.687  27.235  37.355  1.00  0.00    -0.744 OA
ENDBRANCH  89  92
ENDBRANCH  61  85
BRANCH  73  96
ATOM     96  C   UNL A   1      42.788  34.430  30.171  1.00  0.00     0.023 A 
ATOM     97  C   UNL A   1      43.163  33.538  29.148  1.00  0.00     0.012 A 
ATOM     98  C   UNL A   1      43.391  35.696  30.234  1.00  0.00     0.148 A 
ATOM     99  C   UNL A   1      44.138  33.906  28.214  1.00  0.00     0.002 A 
ATOM    100  C   UNL A   1      44.324  36.073  29.283  1.00  0.00     0.091 A 
ATOM    101  F   UNL A   1      43.032  36.518  31.233  1.00  0.00    -0.205 F 
ATOM    102  C   UNL A   1      44.709  35.178  28.274  1.00  0.00     0.022 A 
BRANCH 100 103
ATOM    103  S   UNL A   1      45.009  37.730  29.268  1.00  0.00     0.127 S 
ATOM    104  O   UNL A   1      46.045  37.641  30.295  1.00  0.00    -0.237 OA
ATOM    105  O   UNL A   1      45.510  37.849  27.898  1.00  0.00    -0.237 OA
ATOM    106  O   UNL A   1      43.897  38.623  29.571  1.00  0.00    -0.744 OA
ENDBRANCH 100 103
ENDBRANCH  73  96
ENDBRANCH  47  48
ENDBRANCH  40  42
ENDBRANCH  39  40
ENDBRANCH  38  39
ENDBRANCH   1  38
TORSDOF 20
ENDMDL
