MODEL 1
REMARK VINA RESULT:     -11.6      0.000      0.000
REMARK SMILES CC1(C)CC[NH+](CC[C@H]2CCC[C@]2([NH3+])C(=O)OCCOC(=O)c2ccc(-c3c4nc(c(-c5cccc(S(=O)(=O)[O-])c5F)c5ccc([nH]5)c(-c5cccc(S(=O)(=O)[O-])c5F)c5nc(c(-c6cccc(S(=O)(=O)[O-])c6F)c6ccc3[nH]6)C=C5)C=C4)cc2)CC1
REMARK SMILES IDX 18 1 17 2 15 3 16 4 13 5 9 6 10 7 11 8 12 9 8 10 7 11 6 12
REMARK SMILES IDX 1 13 2 14 3 15 4 16 87 17 5 18 86 19 14 21 19 25 20 26 21 27
REMARK SMILES IDX 22 28 23 29 24 30 85 31 25 32 84 33 26 34 27 35 28 36 78 37
REMARK SMILES IDX 29 38 83 39 77 40 79 41 30 42 82 43 76 44 75 45 31 47 63 48
REMARK SMILES IDX 43 49 62 50 44 51 47 52 61 53 80 54 45 55 46 56 60 58 81 59
REMARK SMILES IDX 48 60 32 61 33 62 41 63 34 64 36 65 42 66 35 67 37 68 38 69
REMARK SMILES IDX 39 70 40 71 64 72 65 73 73 74 66 75 68 76 74 77 67 78 69 79
REMARK SMILES IDX 70 80 71 81 72 82 49 83 50 84 58 85 51 86 53 87 59 88 52 89
REMARK SMILES IDX 54 90 55 91 56 92 57 93
REMARK H PARENT 6 20 14 22 14 23 14 24 79 46 47 57
REMARK Flexibility Score: inf
ROOT
ATOM      1  C   UNL A   1      31.121  29.205  25.001  1.00  0.00     0.274 C 
ENDROOT
BRANCH   1   2
ATOM      2  O   UNL A   1      31.494  27.814  24.896  1.00  0.00    -0.457 OA
BRANCH   2   3
ATOM      3  C   UNL A   1      31.144  27.013  25.942  1.00  0.00     0.368 C 
ATOM      4  O   UNL A   1      31.306  27.317  27.121  1.00  0.00    -0.245 OA
BRANCH   3   5
ATOM      5  C   UNL A   1      30.649  25.591  25.485  1.00  0.00     0.195 C 
ATOM      6  C   UNL A   1      31.763  24.496  25.566  1.00  0.00     0.068 C 
ATOM      7  C   UNL A   1      32.531  24.774  24.271  1.00  0.00     0.011 C 
ATOM      8  C   UNL A   1      31.434  24.942  23.237  1.00  0.00     0.008 C 
ATOM      9  C   UNL A   1      30.296  25.647  23.973  1.00  0.00     0.081 C 
BRANCH   6  10
ATOM     10  C   UNL A   1      31.253  23.038  25.656  1.00  0.00     0.072 C 
BRANCH  10  11
ATOM     11  C   UNL A   1      31.782  22.131  26.794  1.00  0.00     0.262 C 
BRANCH  11  12
ATOM     12  N   UNL A   1      32.972  21.300  26.663  1.00  0.00    -0.335 N 
ATOM     13  C   UNL A   1      36.376  20.767  25.005  1.00  0.00     0.011 C 
ATOM     14  C   UNL A   1      35.257  21.813  24.844  1.00  0.00    -0.025 C 
ATOM     15  C   UNL A   1      35.699  22.835  23.779  1.00  0.00     0.011 C 
ATOM     16  C   UNL A   1      33.969  21.099  24.366  1.00  0.00     0.068 C 
ATOM     17  C   UNL A   1      35.035  22.576  26.171  1.00  0.00     0.068 C 
ATOM     18  C   UNL A   1      33.147  20.464  25.489  1.00  0.00     0.262 C 
ATOM     19  C   UNL A   1      34.217  21.808  27.201  1.00  0.00     0.262 C 
ATOM     20  H   UNL A   1      32.648  20.618  27.349  1.00  0.00     0.348 HD
ENDBRANCH  11  12
ENDBRANCH  10  11
ENDBRANCH   6  10
BRANCH   5  21
ATOM     21  N   UNL A   1      29.446  25.300  26.298  1.00  0.00    -0.343 N 
ATOM     22  H   UNL A   1      28.613  25.583  25.784  1.00  0.00     0.345 HD
ATOM     23  H   UNL A   1      29.497  25.816  27.176  1.00  0.00     0.345 HD
ATOM     24  H   UNL A   1      29.402  24.299  26.493  1.00  0.00     0.345 HD
ENDBRANCH   5  21
ENDBRANCH   3   5
ENDBRANCH   2   3
ENDBRANCH   1   2
BRANCH   1  25
ATOM     25  C   UNL A   1      32.338  30.051  25.357  1.00  0.00     0.275 C 
BRANCH  25  26
ATOM     26  O   UNL A   1      32.256  30.405  26.744  1.00  0.00    -0.458 OA
BRANCH  26  27
ATOM     27  C   UNL A   1      32.923  31.520  27.107  1.00  0.00     0.338 C 
ATOM     28  O   UNL A   1      32.475  32.664  27.115  1.00  0.00    -0.246 OA
BRANCH  27  29
ATOM     29  C   UNL A   1      34.286  31.171  27.566  1.00  0.00     0.060 A 
ATOM     30  C   UNL A   1      34.644  29.843  27.805  1.00  0.00     0.016 A 
ATOM     31  C   UNL A   1      35.186  32.191  27.878  1.00  0.00     0.016 A 
ATOM     32  C   UNL A   1      35.832  29.549  28.476  1.00  0.00     0.010 A 
ATOM     33  C   UNL A   1      36.424  31.880  28.454  1.00  0.00     0.010 A 
ATOM     34  C   UNL A   1      36.739  30.560  28.823  1.00  0.00    -0.014 A 
BRANCH  34  35
ATOM     35  C   UNL A   1      37.960  30.263  29.635  1.00  0.00     0.031 A 
ATOM     36  C   UNL A   1      39.080  29.439  29.039  1.00  0.00     0.074 A 
ATOM     37  C   UNL A   1      38.101  30.724  30.895  1.00  0.00     0.049 A 
ATOM     38  N   UNL A   1      40.097  28.870  29.632  1.00  0.00    -0.248 NA
ATOM     39  C   UNL A   1      39.031  29.201  27.585  1.00  0.00     0.031 C 
ATOM     40  C   UNL A   1      37.140  31.566  31.607  1.00  0.00     0.029 A 
ATOM     41  N   UNL A   1      39.119  30.551  31.803  1.00  0.00    -0.354 N 
ATOM     42  C   UNL A   1      40.736  28.113  28.655  1.00  0.00     0.074 A 
ATOM     43  C   UNL A   1      40.008  28.320  27.421  1.00  0.00     0.031 C 
ATOM     44  C   UNL A   1      37.639  31.888  32.810  1.00  0.00     0.029 A 
ATOM     45  C   UNL A   1      38.904  31.189  33.003  1.00  0.00     0.049 A 
ATOM     46  H   UNL A   1      39.926  30.020  31.612  1.00  0.00     0.167 HD
ATOM     47  C   UNL A   1      41.829  27.321  28.769  1.00  0.00     0.034 A 
ATOM     48  C   UNL A   1      39.619  31.186  34.146  1.00  0.00     0.034 A 
ATOM     49  C   UNL A   1      42.634  27.221  29.958  1.00  0.00     0.049 A 
ATOM     50  C   UNL A   1      40.861  30.345  34.236  1.00  0.00     0.074 A 
ATOM     51  C   UNL A   1      43.785  26.479  30.159  1.00  0.00     0.029 A 
ATOM     52  N   UNL A   1      42.397  27.916  31.134  1.00  0.00    -0.354 N 
ATOM     53  N   UNL A   1      41.433  29.616  33.310  1.00  0.00    -0.248 NA
ATOM     54  C   UNL A   1      41.551  30.321  35.535  1.00  0.00     0.031 C 
ATOM     55  C   UNL A   1      44.251  26.734  31.454  1.00  0.00     0.029 A 
ATOM     56  C   UNL A   1      43.389  27.635  32.058  1.00  0.00     0.049 A 
ATOM     57  H   UNL A   1      41.636  28.520  31.289  1.00  0.00     0.167 HD
ATOM     58  C   UNL A   1      42.559  29.058  33.907  1.00  0.00     0.074 A 
ATOM     59  C   UNL A   1      42.602  29.559  35.266  1.00  0.00     0.031 C 
ATOM     60  C   UNL A   1      43.456  28.186  33.386  1.00  0.00     0.034 A 
BRANCH  47  61
ATOM     61  C   UNL A   1      42.239  26.510  27.568  1.00  0.00     0.023 A 
ATOM     62  C   UNL A   1      43.015  27.098  26.551  1.00  0.00     0.012 A 
ATOM     63  C   UNL A   1      41.891  25.148  27.471  1.00  0.00     0.148 A 
ATOM     64  C   UNL A   1      43.412  26.350  25.440  1.00  0.00     0.002 A 
ATOM     65  C   UNL A   1      42.325  24.399  26.383  1.00  0.00     0.091 A 
ATOM     66  F   UNL A   1      41.126  24.608  28.433  1.00  0.00    -0.205 F 
ATOM     67  C   UNL A   1      43.077  25.000  25.362  1.00  0.00     0.022 A 
BRANCH  65  68
ATOM     68  S   UNL A   1      42.004  22.635  26.260  1.00  0.00     0.127 S 
ATOM     69  O   UNL A   1      42.672  22.296  25.006  1.00  0.00    -0.237 OA
ATOM     70  O   UNL A   1      42.657  22.107  27.459  1.00  0.00    -0.237 OA
ATOM     71  O   UNL A   1      40.552  22.506  26.265  1.00  0.00    -0.744 OA
ENDBRANCH  65  68
ENDBRANCH  47  61
BRANCH  48  72
ATOM     72  C   UNL A   1      39.185  32.039  35.291  1.00  0.00     0.023 A 
ATOM     73  C   UNL A   1      38.352  31.483  36.280  1.00  0.00     0.012 A 
ATOM     74  C   UNL A   1      39.638  33.364  35.441  1.00  0.00     0.148 A 
ATOM     75  C   UNL A   1      37.973  32.231  37.395  1.00  0.00     0.002 A 
ATOM     76  C   UNL A   1      39.313  34.081  36.586  1.00  0.00     0.091 A 
ATOM     77  F   UNL A   1      40.402  33.890  34.473  1.00  0.00    -0.205 F 
ATOM     78  C   UNL A   1      38.468  33.523  37.558  1.00  0.00     0.022 A 
BRANCH  76  79
ATOM     79  S   UNL A   1      40.045  35.681  36.947  1.00  0.00     0.127 S 
ATOM     80  O   UNL A   1      41.471  35.365  36.950  1.00  0.00    -0.237 OA
ATOM     81  O   UNL A   1      39.595  36.488  35.810  1.00  0.00    -0.237 OA
ATOM     82  O   UNL A   1      39.477  36.087  38.225  1.00  0.00    -0.744 OA
ENDBRANCH  76  79
ENDBRANCH  48  72
BRANCH  60  83
ATOM     83  C   UNL A   1      44.581  27.734  34.277  1.00  0.00     0.023 A 
ATOM     84  C   UNL A   1      45.782  28.470  34.304  1.00  0.00     0.012 A 
ATOM     85  C   UNL A   1      44.431  26.622  35.127  1.00  0.00     0.148 A 
ATOM     86  C   UNL A   1      46.827  28.090  35.145  1.00  0.00     0.002 A 
ATOM     87  C   UNL A   1      45.463  26.272  35.990  1.00  0.00     0.091 A 
ATOM     88  F   UNL A   1      43.290  25.920  35.070  1.00  0.00    -0.205 F 
ATOM     89  C   UNL A   1      46.664  26.998  35.995  1.00  0.00     0.022 A 
BRANCH  87  90
ATOM     90  S   UNL A   1      45.297  24.926  37.170  1.00  0.00     0.127 S 
ATOM     91  O   UNL A   1      45.142  23.771  36.286  1.00  0.00    -0.237 OA
ATOM     92  O   UNL A   1      46.568  24.976  37.891  1.00  0.00    -0.237 OA
ATOM     93  O   UNL A   1      44.135  25.260  37.983  1.00  0.00    -0.744 OA
ENDBRANCH  87  90
ENDBRANCH  60  83
ENDBRANCH  34  35
ENDBRANCH  27  29
ENDBRANCH  26  27
ENDBRANCH  25  26
ENDBRANCH   1  25
TORSDOF 18
ENDMDL
MODEL 2
REMARK VINA RESULT:     -11.5      4.898     10.029
REMARK SMILES CC1(C)CC[NH+](CC[C@H]2CCC[C@]2([NH3+])C(=O)OCCOC(=O)c2ccc(-c3c4nc(c(-c5cccc(S(=O)(=O)[O-])c5F)c5ccc([nH]5)c(-c5cccc(S(=O)(=O)[O-])c5F)c5nc(c(-c6cccc(S(=O)(=O)[O-])c6F)c6ccc3[nH]6)C=C5)C=C4)cc2)CC1
REMARK SMILES IDX 18 1 17 2 15 3 16 4 13 5 9 6 10 7 11 8 12 9 8 10 7 11 6 12
REMARK SMILES IDX 1 13 2 14 3 15 4 16 87 17 5 18 86 19 14 21 19 25 20 26 21 27
REMARK SMILES IDX 22 28 23 29 24 30 85 31 25 32 84 33 26 34 27 35 28 36 78 37
REMARK SMILES IDX 29 38 83 39 77 40 79 41 30 42 82 43 76 44 75 45 31 47 63 48
REMARK SMILES IDX 43 49 62 50 44 51 47 52 61 53 80 54 45 55 46 56 60 58 81 59
REMARK SMILES IDX 48 60 32 61 33 62 41 63 34 64 36 65 42 66 35 67 37 68 38 69
REMARK SMILES IDX 39 70 40 71 64 72 65 73 73 74 66 75 68 76 74 77 67 78 69 79
REMARK SMILES IDX 70 80 71 81 72 82 49 83 50 84 58 85 51 86 53 87 59 88 52 89
REMARK SMILES IDX 54 90 55 91 56 92 57 93
REMARK H PARENT 6 20 14 22 14 23 14 24 79 46 47 57
REMARK Flexibility Score: inf
ROOT
ATOM      1  C   UNL A   1      35.405  19.918  25.024  1.00  0.00     0.274 C 
ENDROOT
BRANCH   1   2
ATOM      2  O   UNL A   1      34.308  20.776  24.640  1.00  0.00    -0.457 OA
BRANCH   2   3
ATOM      3  C   UNL A   1      33.800  21.580  25.617  1.00  0.00     0.368 C 
ATOM      4  O   UNL A   1      33.717  21.253  26.799  1.00  0.00    -0.245 OA
BRANCH   3   5
ATOM      5  C   UNL A   1      33.184  22.914  25.054  1.00  0.00     0.195 C 
ATOM      6  C   UNL A   1      33.915  23.437  23.775  1.00  0.00     0.068 C 
ATOM      7  C   UNL A   1      35.131  24.125  24.402  1.00  0.00     0.011 C 
ATOM      8  C   UNL A   1      34.537  24.918  25.551  1.00  0.00     0.008 C 
ATOM      9  C   UNL A   1      33.408  24.045  26.097  1.00  0.00     0.081 C 
BRANCH   6  10
ATOM     10  C   UNL A   1      33.085  24.391  22.881  1.00  0.00     0.072 C 
BRANCH  10  11
ATOM     11  C   UNL A   1      33.630  25.811  22.597  1.00  0.00     0.262 C 
BRANCH  11  12
ATOM     12  N   UNL A   1      32.867  27.025  22.858  1.00  0.00    -0.335 N 
ATOM     13  C   UNL A   1      31.673  29.606  25.413  1.00  0.00     0.011 C 
ATOM     14  C   UNL A   1      32.483  28.299  25.506  1.00  0.00    -0.025 C 
ATOM     15  C   UNL A   1      32.869  28.074  26.982  1.00  0.00     0.011 C 
ATOM     16  C   UNL A   1      31.598  27.125  25.023  1.00  0.00     0.068 C 
ATOM     17  C   UNL A   1      33.790  28.414  24.687  1.00  0.00     0.068 C 
ATOM     18  C   UNL A   1      31.570  26.941  23.505  1.00  0.00     0.262 C 
ATOM     19  C   UNL A   1      33.601  28.230  23.187  1.00  0.00     0.262 C 
ATOM     20  H   UNL A   1      32.597  27.140  21.881  1.00  0.00     0.348 HD
ENDBRANCH  11  12
ENDBRANCH  10  11
ENDBRANCH   6  10
BRANCH   5  21
ATOM     21  N   UNL A   1      31.740  22.647  24.868  1.00  0.00    -0.343 N 
ATOM     22  H   UNL A   1      31.615  21.953  24.132  1.00  0.00     0.345 HD
ATOM     23  H   UNL A   1      31.266  23.511  24.605  1.00  0.00     0.345 HD
ATOM     24  H   UNL A   1      31.345  22.294  25.739  1.00  0.00     0.345 HD
ENDBRANCH   5  21
ENDBRANCH   3   5
ENDBRANCH   2   3
ENDBRANCH   1   2
BRANCH   1  25
ATOM     25  C   UNL A   1      36.725  20.498  24.531  1.00  0.00     0.275 C 
BRANCH  25  26
ATOM     26  O   UNL A   1      37.253  21.357  25.551  1.00  0.00    -0.458 OA
BRANCH  26  27
ATOM     27  C   UNL A   1      38.556  21.178  25.855  1.00  0.00     0.338 C 
ATOM     28  O   UNL A   1      39.230  20.183  25.600  1.00  0.00    -0.246 OA
BRANCH  27  29
ATOM     29  C   UNL A   1      39.100  22.393  26.500  1.00  0.00     0.060 A 
ATOM     30  C   UNL A   1      38.581  23.656  26.205  1.00  0.00     0.016 A 
ATOM     31  C   UNL A   1      40.223  22.288  27.323  1.00  0.00     0.016 A 
ATOM     32  C   UNL A   1      39.261  24.804  26.614  1.00  0.00     0.010 A 
ATOM     33  C   UNL A   1      40.837  23.444  27.819  1.00  0.00     0.010 A 
ATOM     34  C   UNL A   1      40.406  24.721  27.419  1.00  0.00    -0.014 A 
BRANCH  34  35
ATOM     35  C   UNL A   1      41.197  25.942  27.770  1.00  0.00     0.031 A 
ATOM     36  C   UNL A   1      40.589  27.004  28.659  1.00  0.00     0.074 A 
ATOM     37  C   UNL A   1      42.457  26.120  27.323  1.00  0.00     0.049 A 
ATOM     38  N   UNL A   1      40.996  28.226  28.888  1.00  0.00    -0.248 NA
ATOM     39  C   UNL A   1      39.342  26.652  29.362  1.00  0.00     0.031 C 
ATOM     40  C   UNL A   1      43.209  25.179  26.495  1.00  0.00     0.029 A 
ATOM     41  N   UNL A   1      43.335  27.162  27.512  1.00  0.00    -0.354 N 
ATOM     42  C   UNL A   1      40.001  28.824  29.655  1.00  0.00     0.074 A 
ATOM     43  C   UNL A   1      38.984  27.819  29.880  1.00  0.00     0.031 C 
ATOM     44  C   UNL A   1      44.449  25.652  26.299  1.00  0.00     0.029 A 
ATOM     45  C   UNL A   1      44.550  26.980  26.894  1.00  0.00     0.049 A 
ATOM     46  H   UNL A   1      43.113  27.964  28.039  1.00  0.00     0.167 HD
ATOM     47  C   UNL A   1      39.938  30.090  30.134  1.00  0.00     0.034 A 
ATOM     48  C   UNL A   1      45.617  27.797  26.782  1.00  0.00     0.034 A 
ATOM     49  C   UNL A   1      41.007  31.047  30.030  1.00  0.00     0.049 A 
ATOM     50  C   UNL A   1      45.550  29.179  27.369  1.00  0.00     0.074 A 
ATOM     51  C   UNL A   1      41.056  32.341  30.520  1.00  0.00     0.029 A 
ATOM     52  N   UNL A   1      42.232  30.802  29.428  1.00  0.00    -0.354 N 
ATOM     53  N   UNL A   1      44.590  29.734  28.068  1.00  0.00    -0.248 NA
ATOM     54  C   UNL A   1      46.713  30.051  27.144  1.00  0.00     0.031 C 
ATOM     55  C   UNL A   1      42.315  32.875  30.225  1.00  0.00     0.029 A 
ATOM     56  C   UNL A   1      43.050  31.912  29.551  1.00  0.00     0.049 A 
ATOM     57  H   UNL A   1      42.483  29.962  28.981  1.00  0.00     0.167 HD
ATOM     58  C   UNL A   1      45.038  31.014  28.379  1.00  0.00     0.074 A 
ATOM     59  C   UNL A   1      46.367  31.140  27.817  1.00  0.00     0.031 C 
ATOM     60  C   UNL A   1      44.393  32.004  29.042  1.00  0.00     0.034 A 
BRANCH  47  61
ATOM     61  C   UNL A   1      38.675  30.513  30.838  1.00  0.00     0.023 A 
ATOM     62  C   UNL A   1      38.530  30.292  32.221  1.00  0.00     0.012 A 
ATOM     63  C   UNL A   1      37.650  31.175  30.133  1.00  0.00     0.148 A 
ATOM     64  C   UNL A   1      37.370  30.693  32.885  1.00  0.00     0.002 A 
ATOM     65  C   UNL A   1      36.516  31.610  30.810  1.00  0.00     0.091 A 
ATOM     66  F   UNL A   1      37.789  31.353  28.811  1.00  0.00    -0.205 F 
ATOM     67  C   UNL A   1      36.369  31.362  32.183  1.00  0.00     0.022 A 
BRANCH  65  68
ATOM     68  S   UNL A   1      35.226  32.552  29.985  1.00  0.00     0.127 S 
ATOM     69  O   UNL A   1      35.963  33.726  29.521  1.00  0.00    -0.237 OA
ATOM     70  O   UNL A   1      34.798  31.643  28.920  1.00  0.00    -0.237 OA
ATOM     71  O   UNL A   1      34.214  32.795  31.005  1.00  0.00    -0.744 OA
ENDBRANCH  65  68
ENDBRANCH  47  61
BRANCH  48  72
ATOM     72  C   UNL A   1      46.854  27.310  26.107  1.00  0.00     0.023 A 
ATOM     73  C   UNL A   1      47.066  27.633  24.753  1.00  0.00     0.012 A 
ATOM     74  C   UNL A   1      47.844  26.590  26.803  1.00  0.00     0.148 A 
ATOM     75  C   UNL A   1      48.239  27.244  24.104  1.00  0.00     0.002 A 
ATOM     76  C   UNL A   1      49.038  26.265  26.170  1.00  0.00     0.091 A 
ATOM     77  F   UNL A   1      47.611  26.260  28.082  1.00  0.00    -0.205 F 
ATOM     78  C   UNL A   1      49.232  26.578  24.816  1.00  0.00     0.022 A 
BRANCH  76  79
ATOM     79  S   UNL A   1      50.427  25.558  27.064  1.00  0.00     0.127 S 
ATOM     80  O   UNL A   1      50.718  26.602  28.042  1.00  0.00    -0.237 OA
ATOM     81  O   UNL A   1      49.843  24.336  27.622  1.00  0.00    -0.237 OA
ATOM     82  O   UNL A   1      51.452  25.320  26.058  1.00  0.00    -0.744 OA
ENDBRANCH  76  79
ENDBRANCH  48  72
BRANCH  60  83
ATOM     83  C   UNL A   1      45.125  33.307  29.223  1.00  0.00     0.023 A 
ATOM     84  C   UNL A   1      45.931  33.496  30.362  1.00  0.00     0.012 A 
ATOM     85  C   UNL A   1      45.061  34.316  28.244  1.00  0.00     0.148 A 
ATOM     86  C   UNL A   1      46.643  34.682  30.537  1.00  0.00     0.002 A 
ATOM     87  C   UNL A   1      45.804  35.480  28.407  1.00  0.00     0.091 A 
ATOM     88  F   UNL A   1      44.269  34.129  27.178  1.00  0.00    -0.205 F 
ATOM     89  C   UNL A   1      46.588  35.669  29.556  1.00  0.00     0.022 A 
BRANCH  87  90
ATOM     90  S   UNL A   1      45.845  36.762  27.149  1.00  0.00     0.127 S 
ATOM     91  O   UNL A   1      46.353  36.028  25.991  1.00  0.00    -0.237 OA
ATOM     92  O   UNL A   1      44.440  37.159  27.051  1.00  0.00    -0.237 OA
ATOM     93  O   UNL A   1      46.723  37.799  27.675  1.00  0.00    -0.744 OA
ENDBRANCH  87  90
ENDBRANCH  60  83
ENDBRANCH  34  35
ENDBRANCH  27  29
ENDBRANCH  26  27
ENDBRANCH  25  26
ENDBRANCH   1  25
TORSDOF 18
ENDMDL
MODEL 3
REMARK VINA RESULT:     -11.4      1.864      7.922
REMARK SMILES CC1(C)CC[NH+](CC[C@H]2CCC[C@]2([NH3+])C(=O)OCCOC(=O)c2ccc(-c3c4nc(c(-c5cccc(S(=O)(=O)[O-])c5F)c5ccc([nH]5)c(-c5cccc(S(=O)(=O)[O-])c5F)c5nc(c(-c6cccc(S(=O)(=O)[O-])c6F)c6ccc3[nH]6)C=C5)C=C4)cc2)CC1
REMARK SMILES IDX 18 1 17 2 15 3 16 4 13 5 9 6 10 7 11 8 12 9 8 10 7 11 6 12
REMARK SMILES IDX 1 13 2 14 3 15 4 16 87 17 5 18 86 19 14 21 19 25 20 26 21 27
REMARK SMILES IDX 22 28 23 29 24 30 85 31 25 32 84 33 26 34 27 35 28 36 78 37
REMARK SMILES IDX 29 38 83 39 77 40 79 41 30 42 82 43 76 44 75 45 31 47 63 48
REMARK SMILES IDX 43 49 62 50 44 51 47 52 61 53 80 54 45 55 46 56 60 58 81 59
REMARK SMILES IDX 48 60 32 61 33 62 41 63 34 64 36 65 42 66 35 67 37 68 38 69
REMARK SMILES IDX 39 70 40 71 64 72 65 73 73 74 66 75 68 76 74 77 67 78 69 79
REMARK SMILES IDX 70 80 71 81 72 82 49 83 50 84 58 85 51 86 53 87 59 88 52 89
REMARK SMILES IDX 54 90 55 91 56 92 57 93
REMARK H PARENT 6 20 14 22 14 23 14 24 79 46 47 57
REMARK Flexibility Score: inf
ROOT
ATOM      1  C   UNL A   1      31.426  30.749  26.623  1.00  0.00     0.274 C 
ENDROOT
BRANCH   1   2
ATOM      2  O   UNL A   1      32.365  30.417  25.577  1.00  0.00    -0.457 OA
BRANCH   2   3
ATOM      3  C   UNL A   1      31.969  29.461  24.689  1.00  0.00     0.368 C 
ATOM      4  O   UNL A   1      30.808  29.314  24.316  1.00  0.00    -0.245 OA
BRANCH   3   5
ATOM      5  C   UNL A   1      33.123  28.463  24.308  1.00  0.00     0.195 C 
ATOM      6  C   UNL A   1      32.605  27.034  23.939  1.00  0.00     0.068 C 
ATOM      7  C   UNL A   1      32.394  26.439  25.334  1.00  0.00     0.011 C 
ATOM      8  C   UNL A   1      33.653  26.832  26.083  1.00  0.00     0.008 C 
ATOM      9  C   UNL A   1      34.010  28.223  25.561  1.00  0.00     0.081 C 
BRANCH   6  10
ATOM     10  C   UNL A   1      33.564  26.187  23.068  1.00  0.00     0.072 C 
BRANCH  10  11
ATOM     11  C   UNL A   1      33.138  24.754  22.666  1.00  0.00     0.262 C 
BRANCH  11  12
ATOM     12  N   UNL A   1      33.909  23.566  23.013  1.00  0.00    -0.335 N 
ATOM     13  C   UNL A   1      35.194  21.231  25.753  1.00  0.00     0.011 C 
ATOM     14  C   UNL A   1      34.389  22.544  25.753  1.00  0.00    -0.025 C 
ATOM     15  C   UNL A   1      34.058  22.909  27.214  1.00  0.00     0.011 C 
ATOM     16  C   UNL A   1      35.257  23.664  25.130  1.00  0.00     0.068 C 
ATOM     17  C   UNL A   1      33.053  22.359  24.996  1.00  0.00     0.068 C 
ATOM     18  C   UNL A   1      35.229  23.705  23.601  1.00  0.00     0.262 C 
ATOM     19  C   UNL A   1      33.187  22.401  23.479  1.00  0.00     0.262 C 
ATOM     20  H   UNL A   1      34.143  23.359  22.041  1.00  0.00     0.348 HD
ENDBRANCH  11  12
ENDBRANCH  10  11
ENDBRANCH   6  10
BRANCH   5  21
ATOM     21  N   UNL A   1      33.896  29.128  23.235  1.00  0.00    -0.343 N 
ATOM     22  H   UNL A   1      33.328  29.183  22.390  1.00  0.00     0.345 HD
ATOM     23  H   UNL A   1      34.742  28.592  23.043  1.00  0.00     0.345 HD
ATOM     24  H   UNL A   1      34.152  30.070  23.534  1.00  0.00     0.345 HD
ENDBRANCH   5  21
ENDBRANCH   3   5
ENDBRANCH   2   3
ENDBRANCH   1   2
BRANCH   1  25
ATOM     25  C   UNL A   1      31.344  32.262  26.794  1.00  0.00     0.275 C 
BRANCH  25  26
ATOM     26  O   UNL A   1      32.651  32.815  26.581  1.00  0.00    -0.458 OA
BRANCH  26  27
ATOM     27  C   UNL A   1      33.230  33.386  27.657  1.00  0.00     0.338 C 
ATOM     28  O   UNL A   1      32.795  34.341  28.296  1.00  0.00    -0.246 OA
BRANCH  27  29
ATOM     29  C   UNL A   1      34.466  32.654  28.018  1.00  0.00     0.060 A 
ATOM     30  C   UNL A   1      34.468  31.263  28.130  1.00  0.00     0.016 A 
ATOM     31  C   UNL A   1      35.610  33.374  28.366  1.00  0.00     0.016 A 
ATOM     32  C   UNL A   1      35.555  30.611  28.715  1.00  0.00     0.010 A 
ATOM     33  C   UNL A   1      36.738  32.701  28.852  1.00  0.00     0.010 A 
ATOM     34  C   UNL A   1      36.705  31.317  29.097  1.00  0.00    -0.014 A 
BRANCH  34  35
ATOM     35  C   UNL A   1      37.827  30.639  29.820  1.00  0.00     0.031 A 
ATOM     36  C   UNL A   1      38.033  30.893  31.297  1.00  0.00     0.074 A 
ATOM     37  C   UNL A   1      38.662  29.788  29.189  1.00  0.00     0.049 A 
ATOM     38  N   UNL A   1      39.063  30.607  32.051  1.00  0.00    -0.248 NA
ATOM     39  C   UNL A   1      36.947  31.585  32.013  1.00  0.00     0.031 C 
ATOM     40  C   UNL A   1      38.579  29.398  27.782  1.00  0.00     0.029 A 
ATOM     41  N   UNL A   1      39.749  29.088  29.659  1.00  0.00    -0.354 N 
ATOM     42  C   UNL A   1      38.805  31.187  33.288  1.00  0.00     0.074 A 
ATOM     43  C   UNL A   1      37.504  31.814  33.194  1.00  0.00     0.031 C 
ATOM     44  C   UNL A   1      39.528  28.487  27.518  1.00  0.00     0.029 A 
ATOM     45  C   UNL A   1      40.356  28.305  28.705  1.00  0.00     0.049 A 
ATOM     46  H   UNL A   1      40.062  29.143  30.591  1.00  0.00     0.167 HD
ATOM     47  C   UNL A   1      39.574  31.194  34.404  1.00  0.00     0.034 A 
ATOM     48  C   UNL A   1      41.474  27.553  28.758  1.00  0.00     0.034 A 
ATOM     49  C   UNL A   1      40.801  30.456  34.544  1.00  0.00     0.049 A 
ATOM     50  C   UNL A   1      42.285  27.529  30.023  1.00  0.00     0.074 A 
ATOM     51  C   UNL A   1      41.630  30.365  35.649  1.00  0.00     0.029 A 
ATOM     52  N   UNL A   1      41.355  29.648  33.563  1.00  0.00    -0.354 N 
ATOM     53  N   UNL A   1      42.037  28.105  31.174  1.00  0.00    -0.248 NA
ATOM     54  C   UNL A   1      43.536  26.756  29.993  1.00  0.00     0.031 C 
ATOM     55  C   UNL A   1      42.680  29.493  35.339  1.00  0.00     0.029 A 
ATOM     56  C   UNL A   1      42.503  29.042  34.042  1.00  0.00     0.049 A 
ATOM     57  H   UNL A   1      40.985  29.524  32.659  1.00  0.00     0.167 HD
ATOM     58  C   UNL A   1      43.091  27.753  32.010  1.00  0.00     0.074 A 
ATOM     59  C   UNL A   1      43.964  26.889  31.241  1.00  0.00     0.031 C 
ATOM     60  C   UNL A   1      43.330  28.136  33.288  1.00  0.00     0.034 A 
BRANCH  47  61
ATOM     61  C   UNL A   1      39.101  32.011  35.578  1.00  0.00     0.023 A 
ATOM     62  C   UNL A   1      39.331  33.399  35.611  1.00  0.00     0.012 A 
ATOM     63  C   UNL A   1      38.384  31.405  36.629  1.00  0.00     0.148 A 
ATOM     64  C   UNL A   1      38.884  34.166  36.688  1.00  0.00     0.002 A 
ATOM     65  C   UNL A   1      37.905  32.182  37.677  1.00  0.00     0.091 A 
ATOM     66  F   UNL A   1      38.197  30.076  36.599  1.00  0.00    -0.205 F 
ATOM     67  C   UNL A   1      38.162  33.561  37.715  1.00  0.00     0.022 A 
BRANCH  65  68
ATOM     68  S   UNL A   1      36.894  31.482  38.989  1.00  0.00     0.127 S 
ATOM     69  O   UNL A   1      36.669  30.124  38.501  1.00  0.00    -0.237 OA
ATOM     70  O   UNL A   1      37.777  31.570  40.154  1.00  0.00    -0.237 OA
ATOM     71  O   UNL A   1      35.716  32.337  39.067  1.00  0.00    -0.744 OA
ENDBRANCH  65  68
ENDBRANCH  47  61
BRANCH  48  72
ATOM     72  C   UNL A   1      41.873  26.736  27.577  1.00  0.00     0.023 A 
ATOM     73  C   UNL A   1      42.609  27.344  26.541  1.00  0.00     0.012 A 
ATOM     74  C   UNL A   1      41.588  25.359  27.498  1.00  0.00     0.148 A 
ATOM     75  C   UNL A   1      43.049  26.597  25.448  1.00  0.00     0.002 A 
ATOM     76  C   UNL A   1      42.087  24.608  26.440  1.00  0.00     0.091 A 
ATOM     77  F   UNL A   1      40.857  24.803  28.474  1.00  0.00    -0.205 F 
ATOM     78  C   UNL A   1      42.805  25.227  25.406  1.00  0.00     0.022 A 
BRANCH  76  79
ATOM     79  S   UNL A   1      41.959  22.816  26.402  1.00  0.00     0.127 S 
ATOM     80  O   UNL A   1      42.653  22.492  25.159  1.00  0.00    -0.237 OA
ATOM     81  O   UNL A   1      42.670  22.431  27.623  1.00  0.00    -0.237 OA
ATOM     82  O   UNL A   1      40.531  22.531  26.431  1.00  0.00    -0.744 OA
ENDBRANCH  76  79
ENDBRANCH  48  72
BRANCH  60  83
ATOM     83  C   UNL A   1      44.572  27.604  33.950  1.00  0.00     0.023 A 
ATOM     84  C   UNL A   1      45.766  28.348  33.884  1.00  0.00     0.012 A 
ATOM     85  C   UNL A   1      44.545  26.402  34.683  1.00  0.00     0.148 A 
ATOM     86  C   UNL A   1      46.921  27.892  34.517  1.00  0.00     0.002 A 
ATOM     87  C   UNL A   1      45.691  25.972  35.342  1.00  0.00     0.091 A 
ATOM     88  F   UNL A   1      43.406  25.694  34.714  1.00  0.00    -0.205 F 
ATOM     89  C   UNL A   1      46.881  26.710  35.254  1.00  0.00     0.022 A 
BRANCH  87  90
ATOM     90  S   UNL A   1      45.695  24.501  36.375  1.00  0.00     0.127 S 
ATOM     91  O   UNL A   1      44.644  24.812  37.342  1.00  0.00    -0.237 OA
ATOM     92  O   UNL A   1      45.356  23.443  35.424  1.00  0.00    -0.237 OA
ATOM     93  O   UNL A   1      47.045  24.408  36.916  1.00  0.00    -0.744 OA
ENDBRANCH  87  90
ENDBRANCH  60  83
ENDBRANCH  34  35
ENDBRANCH  27  29
ENDBRANCH  26  27
ENDBRANCH  25  26
ENDBRANCH   1  25
TORSDOF 18
ENDMDL
