MODEL 1
REMARK VINA RESULT:     -11.2      0.000      0.000
REMARK SMILES CC[C@H](C(=O)OCCOC(=O)c1ccc(-c2c3nc(c(-c4cccc(S(=O)(=O)[O-])c4F)c4ccc([nH]4)c(-c4cccc(S(=O)(=O)[O-])c4F)c4nc(c(-c5cccc(S(=O)(=O)[O-])c5F)c5ccc2[nH]5)C=C4)C=C3)cc1)N1C(=O)/C(=C\c2cc(OC)ccc2OC)SC1=S
REMARK SMILES IDX 7 1 6 2 4 3 5 4 3 5 2 6 1 7 75 8 76 9 91 10 77 11 78 12
REMARK SMILES IDX 90 13 92 14 79 15 80 16 81 17 87 18 82 19 86 20 85 21 88 22
REMARK SMILES IDX 89 23 83 24 84 25 8 26 9 27 10 28 11 29 12 30 13 31 74 32
REMARK SMILES IDX 14 33 73 34 15 35 16 36 17 37 67 38 18 39 72 40 66 41 68 42
REMARK SMILES IDX 19 43 71 44 65 45 64 46 20 48 52 49 32 50 51 51 33 52 36 53
REMARK SMILES IDX 50 54 69 55 34 56 35 57 49 59 70 60 37 61 21 62 22 63 30 64
REMARK SMILES IDX 23 65 25 66 31 67 24 68 26 69 27 70 28 71 29 72 53 73 54 74
REMARK SMILES IDX 62 75 55 76 57 77 63 78 56 79 58 80 59 81 60 82 61 83 38 84
REMARK SMILES IDX 39 85 47 86 40 87 42 88 48 89 41 90 43 91 44 92 45 93 46 94
REMARK H PARENT 68 47 36 58
REMARK Flexibility Score: inf
ROOT
ATOM      1  C   UNL A   1      31.403  29.522  25.619  1.00  0.00     0.274 C 
ENDROOT
BRANCH   1   2
ATOM      2  O   UNL A   1      32.280  28.427  25.963  1.00  0.00    -0.461 OA
BRANCH   2   3
ATOM      3  C   UNL A   1      31.682  27.471  26.720  1.00  0.00     0.329 C 
ATOM      4  O   UNL A   1      30.945  27.767  27.657  1.00  0.00    -0.250 OA
BRANCH   3   5
ATOM      5  C   UNL A   1      31.817  26.021  26.171  1.00  0.00     0.201 C 
BRANCH   5   6
ATOM      6  C   UNL A   1      30.686  24.992  26.303  1.00  0.00     0.034 C 
ATOM      7  C   UNL A   1      31.010  23.537  26.039  1.00  0.00     0.007 C 
ENDBRANCH   5   6
BRANCH   5   8
ATOM      8  N   UNL A   1      32.365  26.061  24.781  1.00  0.00    -0.278 N 
ATOM      9  C   UNL A   1      33.686  25.689  24.553  1.00  0.00     0.266 C 
ATOM     10  C   UNL A   1      31.693  26.426  23.629  1.00  0.00     0.149 C 
ATOM     11  O   UNL A   1      34.652  25.969  25.244  1.00  0.00    -0.268 OA
ATOM     12  C   UNL A   1      33.723  25.077  23.211  1.00  0.00     0.081 C 
ATOM     13  S   UNL A   1      32.725  26.102  22.220  1.00  0.00    -0.054 SA
ATOM     14  S   UNL A   1      30.136  27.000  23.462  1.00  0.00    -0.052 S 
ATOM     15  C   UNL A   1      33.961  23.807  22.848  1.00  0.00     0.033 C 
BRANCH  15  16
ATOM     16  C   UNL A   1      34.377  22.575  23.580  1.00  0.00     0.021 A 
ATOM     17  C   UNL A   1      33.316  21.620  23.616  1.00  0.00     0.058 A 
ATOM     18  C   UNL A   1      35.475  22.377  24.483  1.00  0.00     0.126 A 
ATOM     19  C   UNL A   1      33.310  20.536  24.502  1.00  0.00     0.119 A 
ATOM     20  C   UNL A   1      35.506  21.139  25.187  1.00  0.00     0.051 A 
ATOM     21  C   UNL A   1      34.444  20.249  25.227  1.00  0.00     0.050 A 
BRANCH  18  22
ATOM     22  O   UNL A   1      36.516  23.213  25.007  1.00  0.00    -0.496 OA
ATOM     23  C   UNL A   1      37.850  24.202  26.117  1.00  0.00     0.278 C 
ENDBRANCH  18  22
BRANCH  19  24
ATOM     24  O   UNL A   1      32.155  19.814  24.634  1.00  0.00    -0.497 OA
ATOM     25  C   UNL A   1      32.383  18.427  24.936  1.00  0.00     0.278 C 
ENDBRANCH  19  24
ENDBRANCH  15  16
ENDBRANCH   5   8
ENDBRANCH   3   5
ENDBRANCH   2   3
ENDBRANCH   1   2
BRANCH   1  26
ATOM     26  C   UNL A   1      31.597  30.773  26.496  1.00  0.00     0.275 C 
BRANCH  26  27
ATOM     27  O   UNL A   1      32.786  31.531  26.208  1.00  0.00    -0.458 OA
BRANCH  27  28
ATOM     28  C   UNL A   1      33.209  32.368  27.188  1.00  0.00     0.338 C 
ATOM     29  O   UNL A   1      32.646  33.347  27.622  1.00  0.00    -0.246 OA
BRANCH  28  30
ATOM     30  C   UNL A   1      34.422  31.812  27.793  1.00  0.00     0.060 A 
ATOM     31  C   UNL A   1      34.420  30.087  28.348  1.00  0.00     0.016 A 
ATOM     32  C   UNL A   1      35.865  32.837  28.057  1.00  0.00     0.016 A 
ATOM     33  C   UNL A   1      35.896  29.385  29.137  1.00  0.00     0.010 A 
ATOM     34  C   UNL A   1      37.337  32.135  28.840  1.00  0.00     0.010 A 
ATOM     35  C   UNL A   1      37.373  30.411  29.363  1.00  0.00    -0.014 A 
BRANCH  35  36
ATOM     36  C   UNL A   1      38.576  29.867  30.058  1.00  0.00     0.031 A 
ATOM     37  C   UNL A   1      38.927  30.345  31.433  1.00  0.00     0.074 A 
ATOM     38  C   UNL A   1      39.393  28.995  29.435  1.00  0.00     0.049 A 
ATOM     39  N   UNL A   1      39.979  30.064  32.155  1.00  0.00    -0.248 NA
ATOM     40  C   UNL A   1      38.005  31.294  32.072  1.00  0.00     0.031 C 
ATOM     41  C   UNL A   1      39.224  28.575  28.061  1.00  0.00     0.029 A 
ATOM     42  N   UNL A   1      40.536  28.337  29.814  1.00  0.00    -0.354 N 
ATOM     43  C   UNL A   1      39.879  30.856  33.291  1.00  0.00     0.074 A 
ATOM     44  C   UNL A   1      38.675  31.641  33.158  1.00  0.00     0.031 C 
ATOM     45  C   UNL A   1      40.171  27.706  27.697  1.00  0.00     0.029 A 
ATOM     46  C   UNL A   1      41.081  27.553  28.815  1.00  0.00     0.049 A 
ATOM     47  H   UNL A   1      40.928  28.414  30.714  1.00  0.00     0.167 HD
ATOM     48  C   UNL A   1      40.709  30.908  34.359  1.00  0.00     0.034 A 
ATOM     49  C   UNL A   1      42.204  26.811  28.782  1.00  0.00     0.034 A 
ATOM     50  C   UNL A   1      41.871  30.075  34.492  1.00  0.00     0.049 A 
ATOM     51  C   UNL A   1      43.035  26.784  30.027  1.00  0.00     0.074 A 
ATOM     52  C   UNL A   1      42.749  29.979  35.554  1.00  0.00     0.029 A 
ATOM     53  N   UNL A   1      42.308  29.178  33.525  1.00  0.00    -0.354 N 
ATOM     54  N   UNL A   1      42.860  27.464  31.134  1.00  0.00    -0.248 NA
ATOM     55  C   UNL A   1      44.184  25.874  30.046  1.00  0.00     0.031 C 
ATOM     56  C   UNL A   1      43.717  29.021  35.229  1.00  0.00     0.029 A 
ATOM     57  C   UNL A   1      43.430  28.507  33.972  1.00  0.00     0.049 A 
ATOM     58  H   UNL A   1      41.880  29.040  32.649  1.00  0.00     0.167 HD
ATOM     59  C   UNL A   1      43.859  27.049  31.996  1.00  0.00     0.074 A 
ATOM     60  C   UNL A   1      44.624  26.038  31.287  1.00  0.00     0.031 C 
ATOM     61  C   UNL A   1      44.134  27.475  33.252  1.00  0.00     0.034 A 
BRANCH  48  62
ATOM     62  C   UNL A   1      40.351  31.879  35.453  1.00  0.00     0.023 A 
ATOM     63  C   UNL A   1      41.154  33.020  35.668  1.00  0.00     0.012 A 
ATOM     64  C   UNL A   1      39.248  31.644  36.298  1.00  0.00     0.148 A 
ATOM     65  C   UNL A   1      40.907  33.873  36.742  1.00  0.00     0.002 A 
ATOM     66  C   UNL A   1      38.980  32.528  37.340  1.00  0.00     0.091 A 
ATOM     67  F   UNL A   1      38.505  30.548  36.091  1.00  0.00    -0.205 F 
ATOM     68  C   UNL A   1      39.818  33.629  37.574  1.00  0.00     0.022 A 
BRANCH  66  69
ATOM     69  S   UNL A   1      37.570  32.343  38.436  1.00  0.00     0.127 S 
ATOM     70  O   UNL A   1      38.007  33.100  39.608  1.00  0.00    -0.237 OA
ATOM     71  O   UNL A   1      36.501  32.977  37.665  1.00  0.00    -0.237 OA
ATOM     72  O   UNL A   1      37.405  30.912  38.646  1.00  0.00    -0.744 OA
ENDBRANCH  66  69
ENDBRANCH  48  62
BRANCH  49  73
ATOM     73  C   UNL A   1      42.542  25.996  27.575  1.00  0.00     0.023 A 
ATOM     74  C   UNL A   1      43.355  26.558  26.572  1.00  0.00     0.012 A 
ATOM     75  C   UNL A   1      42.128  24.654  27.442  1.00  0.00     0.148 A 
ATOM     76  C   UNL A   1      43.728  25.816  25.450  1.00  0.00     0.002 A 
ATOM     77  C   UNL A   1      42.542  23.903  26.344  1.00  0.00     0.091 A 
ATOM     78  F   UNL A   1      41.354  24.129  28.403  1.00  0.00    -0.205 F 
ATOM     79  C   UNL A   1      43.330  24.486  25.341  1.00  0.00     0.022 A 
BRANCH  77  80
ATOM     80  S   UNL A   1      42.177  22.151  26.177  1.00  0.00     0.127 S 
ATOM     81  O   UNL A   1      42.648  21.624  27.455  1.00  0.00    -0.237 OA
ATOM     82  O   UNL A   1      40.723  22.156  26.012  1.00  0.00    -0.237 OA
ATOM     83  O   UNL A   1      42.915  21.709  25.001  1.00  0.00    -0.744 OA
ENDBRANCH  77  80
ENDBRANCH  49  73
BRANCH  61  84
ATOM     84  C   UNL A   1      45.285  26.819  33.950  1.00  0.00     0.023 A 
ATOM     85  C   UNL A   1      46.579  27.355  33.823  1.00  0.00     0.012 A 
ATOM     86  C   UNL A   1      45.062  25.713  34.791  1.00  0.00     0.148 A 
ATOM     87  C   UNL A   1      47.646  26.783  34.510  1.00  0.00     0.002 A 
ATOM     88  C   UNL A   1      46.120  25.179  35.510  1.00  0.00     0.091 A 
ATOM     89  F   UNL A   1      43.822  25.206  34.868  1.00  0.00    -0.205 F 
ATOM     90  C   UNL A   1      47.414  25.705  35.363  1.00  0.00     0.022 A 
BRANCH  88  91
ATOM     91  S   UNL A   1      45.888  23.859  36.703  1.00  0.00     0.127 S 
ATOM     92  O   UNL A   1      45.508  22.742  35.841  1.00  0.00    -0.237 OA
ATOM     93  O   UNL A   1      47.218  23.745  37.302  1.00  0.00    -0.237 OA
ATOM     94  O   UNL A   1      44.855  24.326  37.617  1.00  0.00    -0.744 OA
ENDBRANCH  88  91
ENDBRANCH  61  84
ENDBRANCH  35  36
ENDBRANCH  28  30
ENDBRANCH  27  28
ENDBRANCH  26  27
ENDBRANCH   1  26
TORSDOF 19
ENDMDL
MODEL 2
REMARK VINA RESULT:     -10.7      2.125      2.610
REMARK SMILES CC[C@H](C(=O)OCCOC(=O)c1ccc(-c2c3nc(c(-c4cccc(S(=O)(=O)[O-])c4F)c4ccc([nH]4)c(-c4cccc(S(=O)(=O)[O-])c4F)c4nc(c(-c5cccc(S(=O)(=O)[O-])c5F)c5ccc2[nH]5)C=C4)C=C3)cc1)N1C(=O)/C(=C\c2cc(OC)ccc2OC)SC1=S
REMARK SMILES IDX 7 1 6 2 4 3 5 4 3 5 2 6 1 7 75 8 76 9 91 10 77 11 78 12
REMARK SMILES IDX 90 13 92 14 79 15 80 16 81 17 87 18 82 19 86 20 85 21 88 22
REMARK SMILES IDX 89 23 83 24 84 25 8 26 9 27 10 28 11 29 12 30 13 31 74 32
REMARK SMILES IDX 14 33 73 34 15 35 16 36 17 37 67 38 18 39 72 40 66 41 68 42
REMARK SMILES IDX 19 43 71 44 65 45 64 46 20 48 52 49 32 50 51 51 33 52 36 53
REMARK SMILES IDX 50 54 69 55 34 56 35 57 49 59 70 60 37 61 21 62 22 63 30 64
REMARK SMILES IDX 23 65 25 66 31 67 24 68 26 69 27 70 28 71 29 72 53 73 54 74
REMARK SMILES IDX 62 75 55 76 57 77 63 78 56 79 58 80 59 81 60 82 61 83 38 84
REMARK SMILES IDX 39 85 47 86 40 87 42 88 48 89 41 90 43 91 44 92 45 93 46 94
REMARK H PARENT 68 47 36 58
REMARK Flexibility Score: inf
ROOT
ATOM      1  C   UNL A   1      32.996  29.162  26.346  1.00  0.00     0.274 C 
ENDROOT
BRANCH   1   2
ATOM      2  O   UNL A   1      33.126  27.922  27.076  1.00  0.00    -0.461 OA
BRANCH   2   3
ATOM      3  C   UNL A   1      31.991  27.176  27.083  1.00  0.00     0.329 C 
ATOM      4  O   UNL A   1      30.912  27.660  27.413  1.00  0.00    -0.250 OA
BRANCH   3   5
ATOM      5  C   UNL A   1      32.128  25.768  26.434  1.00  0.00     0.201 C 
BRANCH   5   6
ATOM      6  C   UNL A   1      30.977  24.752  26.444  1.00  0.00     0.034 C 
ATOM      7  C   UNL A   1      31.323  23.284  26.573  1.00  0.00     0.007 C 
ENDBRANCH   5   6
BRANCH   5   8
ATOM      8  N   UNL A   1      32.734  25.900  25.074  1.00  0.00    -0.278 N 
ATOM      9  C   UNL A   1      34.044  25.486  24.864  1.00  0.00     0.266 C 
ATOM     10  C   UNL A   1      32.127  26.394  23.934  1.00  0.00     0.149 C 
ATOM     11  O   UNL A   1      34.994  25.659  25.611  1.00  0.00    -0.268 OA
ATOM     12  C   UNL A   1      34.110  24.989  23.476  1.00  0.00     0.081 C 
ATOM     13  S   UNL A   1      33.200  26.142  22.541  1.00  0.00    -0.054 SA
ATOM     14  S   UNL A   1      30.605  27.055  23.760  1.00  0.00    -0.052 S 
ATOM     15  C   UNL A   1      34.305  23.745  23.012  1.00  0.00     0.033 C 
BRANCH  15  16
ATOM     16  C   UNL A   1      34.635  22.437  23.649  1.00  0.00     0.021 A 
ATOM     17  C   UNL A   1      33.503  21.565  23.641  1.00  0.00     0.058 A 
ATOM     18  C   UNL A   1      35.728  22.092  24.513  1.00  0.00     0.126 A 
ATOM     19  C   UNL A   1      33.426  20.426  24.451  1.00  0.00     0.119 A 
ATOM     20  C   UNL A   1      35.673  20.809  25.130  1.00  0.00     0.051 A 
ATOM     21  C   UNL A   1      34.545  20.002  25.130  1.00  0.00     0.050 A 
BRANCH  18  22
ATOM     22  O   UNL A   1      36.839  22.807  25.071  1.00  0.00    -0.496 OA
ATOM     23  C   UNL A   1      38.084  23.972  26.112  1.00  0.00     0.278 C 
ENDBRANCH  18  22
BRANCH  19  24
ATOM     24  O   UNL A   1      32.221  19.787  24.556  1.00  0.00    -0.497 OA
ATOM     25  C   UNL A   1      31.999  18.816  23.519  1.00  0.00     0.278 C 
ENDBRANCH  19  24
ENDBRANCH  15  16
ENDBRANCH   5   8
ENDBRANCH   3   5
ENDBRANCH   2   3
ENDBRANCH   1   2
BRANCH   1  26
ATOM     26  C   UNL A   1      32.933  30.409  27.247  1.00  0.00     0.275 C 
BRANCH  26  27
ATOM     27  O   UNL A   1      33.999  31.355  27.040  1.00  0.00    -0.458 OA
BRANCH  27  28
ATOM     28  C   UNL A   1      34.385  32.062  28.131  1.00  0.00     0.338 C 
ATOM     29  O   UNL A   1      33.793  32.965  28.679  1.00  0.00    -0.246 OA
BRANCH  28  30
ATOM     30  C   UNL A   1      35.597  31.453  28.684  1.00  0.00     0.060 A 
ATOM     31  C   UNL A   1      37.181  32.314  28.503  1.00  0.00     0.016 A 
ATOM     32  C   UNL A   1      35.537  29.841  29.461  1.00  0.00     0.016 A 
ATOM     33  C   UNL A   1      38.702  31.562  29.144  1.00  0.00     0.010 A 
ATOM     34  C   UNL A   1      37.054  29.095  30.103  1.00  0.00     0.010 A 
ATOM     35  C   UNL A   1      38.634  29.951  29.971  1.00  0.00    -0.014 A 
BRANCH  35  36
ATOM     36  C   UNL A   1      39.883  29.292  30.456  1.00  0.00     0.031 A 
ATOM     37  C   UNL A   1      40.538  29.765  31.716  1.00  0.00     0.074 A 
ATOM     38  C   UNL A   1      40.467  28.316  29.734  1.00  0.00     0.049 A 
ATOM     39  N   UNL A   1      41.672  29.385  32.243  1.00  0.00    -0.248 NA
ATOM     40  C   UNL A   1      39.862  30.831  32.468  1.00  0.00     0.031 C 
ATOM     41  C   UNL A   1      39.996  27.880  28.438  1.00  0.00     0.029 A 
ATOM     42  N   UNL A   1      41.584  27.541  29.926  1.00  0.00    -0.354 N 
ATOM     43  C   UNL A   1      41.876  30.214  33.337  1.00  0.00     0.074 A 
ATOM     44  C   UNL A   1      40.760  31.128  33.392  1.00  0.00     0.031 C 
ATOM     45  C   UNL A   1      40.758  26.898  27.947  1.00  0.00     0.029 A 
ATOM     46  C   UNL A   1      41.842  26.672  28.882  1.00  0.00     0.049 A 
ATOM     47  H   UNL A   1      42.147  27.597  30.732  1.00  0.00     0.167 HD
ATOM     48  C   UNL A   1      42.895  30.201  34.228  1.00  0.00     0.034 A 
ATOM     49  C   UNL A   1      42.851  25.806  28.677  1.00  0.00     0.034 A 
ATOM     50  C   UNL A   1      43.964  29.243  34.183  1.00  0.00     0.049 A 
ATOM     51  C   UNL A   1      43.896  25.718  29.745  1.00  0.00     0.074 A 
ATOM     52  C   UNL A   1      45.013  29.077  35.067  1.00  0.00     0.029 A 
ATOM     53  N   UNL A   1      44.110  28.276  33.196  1.00  0.00    -0.354 N 
ATOM     54  N   UNL A   1      44.009  26.445  30.831  1.00  0.00    -0.248 NA
ATOM     55  C   UNL A   1      44.924  24.684  29.595  1.00  0.00     0.031 C 
ATOM     56  C   UNL A   1      45.793  28.006  34.614  1.00  0.00     0.029 A 
ATOM     57  C   UNL A   1      45.219  27.493  33.459  1.00  0.00     0.049 A 
ATOM     58  H   UNL A   1      43.511  28.164  32.423  1.00  0.00     0.167 HD
ATOM     59  C   UNL A   1      45.104  25.941  31.511  1.00  0.00     0.074 A 
ATOM     60  C   UNL A   1      45.607  24.830  30.722  1.00  0.00     0.031 C 
ATOM     61  C   UNL A   1      45.657  26.368  32.671  1.00  0.00     0.034 A 
BRANCH  48  62
ATOM     62  C   UNL A   1      42.858  31.235  35.321  1.00  0.00     0.023 A 
ATOM     63  C   UNL A   1      42.248  30.926  36.557  1.00  0.00     0.012 A 
ATOM     64  C   UNL A   1      43.385  32.525  35.118  1.00  0.00     0.148 A 
ATOM     65  C   UNL A   1      42.104  31.900  37.544  1.00  0.00     0.002 A 
ATOM     66  C   UNL A   1      43.280  33.478  36.127  1.00  0.00     0.091 A 
ATOM     67  F   UNL A   1      43.947  32.808  33.934  1.00  0.00    -0.205 F 
ATOM     68  C   UNL A   1      42.624  33.173  37.330  1.00  0.00     0.022 A 
BRANCH  66  69
ATOM     69  S   UNL A   1      43.967  35.131  35.982  1.00  0.00     0.127 S 
ATOM     70  O   UNL A   1      43.639  35.702  37.288  1.00  0.00    -0.237 OA
ATOM     71  O   UNL A   1      45.388  34.853  35.778  1.00  0.00    -0.237 OA
ATOM     72  O   UNL A   1      43.297  35.750  34.847  1.00  0.00    -0.744 OA
ENDBRANCH  66  69
ENDBRANCH  48  62
BRANCH  49  73
ATOM     73  C   UNL A   1      42.864  24.925  27.470  1.00  0.00     0.023 A 
ATOM     74  C   UNL A   1      43.517  25.367  26.303  1.00  0.00     0.012 A 
ATOM     75  C   UNL A   1      42.300  23.632  27.484  1.00  0.00     0.148 A 
ATOM     76  C   UNL A   1      43.587  24.556  25.168  1.00  0.00     0.002 A 
ATOM     77  C   UNL A   1      42.414  22.809  26.366  1.00  0.00     0.091 A 
ATOM     78  F   UNL A   1      41.681  23.221  28.601  1.00  0.00    -0.205 F 
ATOM     79  C   UNL A   1      43.045  23.274  25.203  1.00  0.00     0.022 A 
BRANCH  77  80
ATOM     80  S   UNL A   1      41.851  21.102  26.359  1.00  0.00     0.127 S 
ATOM     81  O   UNL A   1      40.432  21.256  26.051  1.00  0.00    -0.237 OA
ATOM     82  O   UNL A   1      42.654  20.521  25.282  1.00  0.00    -0.237 OA
ATOM     83  O   UNL A   1      42.157  20.585  27.686  1.00  0.00    -0.744 OA
ENDBRANCH  77  80
ENDBRANCH  49  73
BRANCH  61  84
ATOM     84  C   UNL A   1      46.843  25.603  33.175  1.00  0.00     0.023 A 
ATOM     85  C   UNL A   1      48.143  26.045  32.867  1.00  0.00     0.012 A 
ATOM     86  C   UNL A   1      46.659  24.490  34.014  1.00  0.00     0.148 A 
ATOM     87  C   UNL A   1      49.251  25.371  33.373  1.00  0.00     0.002 A 
ATOM     88  C   UNL A   1      47.766  23.853  34.554  1.00  0.00     0.091 A 
ATOM     89  F   UNL A   1      45.408  24.074  34.265  1.00  0.00    -0.205 F 
ATOM     90  C   UNL A   1      49.062  24.285  34.227  1.00  0.00     0.022 A 
BRANCH  88  91
ATOM     91  S   UNL A   1      47.608  22.514  35.739  1.00  0.00     0.127 S 
ATOM     92  O   UNL A   1      46.803  23.139  36.787  1.00  0.00    -0.237 OA
ATOM     93  O   UNL A   1      46.911  21.491  34.959  1.00  0.00    -0.237 OA
ATOM     94  O   UNL A   1      48.968  22.157  36.120  1.00  0.00    -0.744 OA
ENDBRANCH  88  91
ENDBRANCH  61  84
ENDBRANCH  35  36
ENDBRANCH  28  30
ENDBRANCH  27  28
ENDBRANCH  26  27
ENDBRANCH   1  26
TORSDOF 19
ENDMDL
MODEL 3
REMARK VINA RESULT:     -10.5      4.977      9.964
REMARK SMILES CC[C@H](C(=O)OCCOC(=O)c1ccc(-c2c3nc(c(-c4cccc(S(=O)(=O)[O-])c4F)c4ccc([nH]4)c(-c4cccc(S(=O)(=O)[O-])c4F)c4nc(c(-c5cccc(S(=O)(=O)[O-])c5F)c5ccc2[nH]5)C=C4)C=C3)cc1)N1C(=O)/C(=C\c2cc(OC)ccc2OC)SC1=S
REMARK SMILES IDX 7 1 6 2 4 3 5 4 3 5 2 6 1 7 75 8 76 9 91 10 77 11 78 12
REMARK SMILES IDX 90 13 92 14 79 15 80 16 81 17 87 18 82 19 86 20 85 21 88 22
REMARK SMILES IDX 89 23 83 24 84 25 8 26 9 27 10 28 11 29 12 30 13 31 74 32
REMARK SMILES IDX 14 33 73 34 15 35 16 36 17 37 67 38 18 39 72 40 66 41 68 42
REMARK SMILES IDX 19 43 71 44 65 45 64 46 20 48 52 49 32 50 51 51 33 52 36 53
REMARK SMILES IDX 50 54 69 55 34 56 35 57 49 59 70 60 37 61 21 62 22 63 30 64
REMARK SMILES IDX 23 65 25 66 31 67 24 68 26 69 27 70 28 71 29 72 53 73 54 74
REMARK SMILES IDX 62 75 55 76 57 77 63 78 56 79 58 80 59 81 60 82 61 83 38 84
REMARK SMILES IDX 39 85 47 86 40 87 42 88 48 89 41 90 43 91 44 92 45 93 46 94
REMARK H PARENT 68 47 36 58
REMARK Flexibility Score: inf
ROOT
ATOM      1  C   UNL A   1      36.414  21.527  24.695  1.00  0.00     0.274 C 
ENDROOT
BRANCH   1   2
ATOM      2  O   UNL A   1      35.991  22.907  24.687  1.00  0.00    -0.461 OA
BRANCH   2   3
ATOM      3  C   UNL A   1      35.626  23.357  23.459  1.00  0.00     0.329 C 
ATOM      4  O   UNL A   1      36.188  22.959  22.441  1.00  0.00    -0.250 OA
BRANCH   3   5
ATOM      5  C   UNL A   1      34.325  24.210  23.432  1.00  0.00     0.201 C 
BRANCH   5   6
ATOM      6  C   UNL A   1      33.376  24.209  22.226  1.00  0.00     0.034 C 
ATOM      7  C   UNL A   1      32.299  25.272  22.164  1.00  0.00     0.007 C 
ENDBRANCH   5   6
BRANCH   5   8
ATOM      8  N   UNL A   1      33.582  24.030  24.717  1.00  0.00    -0.278 N 
ATOM      9  C   UNL A   1      33.655  25.015  25.695  1.00  0.00     0.266 C 
ATOM     10  C   UNL A   1      32.779  22.962  25.074  1.00  0.00     0.149 C 
ATOM     11  O   UNL A   1      34.650  25.637  26.032  1.00  0.00    -0.268 OA
ATOM     12  C   UNL A   1      32.354  25.011  26.392  1.00  0.00     0.081 C 
ATOM     13  S   UNL A   1      31.964  23.329  26.609  1.00  0.00    -0.054 SA
ATOM     14  S   UNL A   1      32.477  21.552  24.236  1.00  0.00    -0.052 S 
ATOM     15  C   UNL A   1      31.386  25.941  26.417  1.00  0.00     0.033 C 
BRANCH  15  16
ATOM     16  C   UNL A   1      31.262  27.329  25.887  1.00  0.00     0.021 A 
ATOM     17  C   UNL A   1      30.322  27.384  24.813  1.00  0.00     0.058 A 
ATOM     18  C   UNL A   1      32.141  28.452  26.053  1.00  0.00     0.126 A 
ATOM     19  C   UNL A   1      30.255  28.466  23.927  1.00  0.00     0.119 A 
ATOM     20  C   UNL A   1      31.863  29.603  25.261  1.00  0.00     0.051 A 
ATOM     21  C   UNL A   1      30.966  29.611  24.203  1.00  0.00     0.050 A 
BRANCH  18  22
ATOM     22  O   UNL A   1      33.389  28.666  26.726  1.00  0.00    -0.496 OA
ATOM     23  C   UNL A   1      34.978  29.371  27.710  1.00  0.00     0.278 C 
ENDBRANCH  18  22
BRANCH  19  24
ATOM     24  O   UNL A   1      29.496  28.330  22.796  1.00  0.00    -0.497 OA
ATOM     25  C   UNL A   1      29.756  29.346  21.812  1.00  0.00     0.278 C 
ENDBRANCH  19  24
ENDBRANCH  15  16
ENDBRANCH   5   8
ENDBRANCH   3   5
ENDBRANCH   2   3
ENDBRANCH   1   2
BRANCH   1  26
ATOM     26  C   UNL A   1      37.455  21.201  25.782  1.00  0.00     0.275 C 
BRANCH  26  27
ATOM     27  O   UNL A   1      38.790  21.653  25.490  1.00  0.00    -0.458 OA
BRANCH  27  28
ATOM     28  C   UNL A   1      39.680  21.574  26.510  1.00  0.00     0.338 C 
ATOM     29  O   UNL A   1      40.176  20.580  26.989  1.00  0.00    -0.246 OA
BRANCH  28  30
ATOM     30  C   UNL A   1      40.108  22.929  26.869  1.00  0.00     0.060 A 
ATOM     31  C   UNL A   1      41.294  23.153  28.221  1.00  0.00     0.016 A 
ATOM     32  C   UNL A   1      39.413  24.356  26.041  1.00  0.00     0.016 A 
ATOM     33  C   UNL A   1      41.810  24.822  28.710  1.00  0.00     0.010 A 
ATOM     34  C   UNL A   1      39.930  26.019  26.528  1.00  0.00     0.010 A 
ATOM     35  C   UNL A   1      41.140  26.265  27.842  1.00  0.00    -0.014 A 
BRANCH  35  36
ATOM     36  C   UNL A   1      41.510  27.646  28.267  1.00  0.00     0.031 A 
ATOM     37  C   UNL A   1      42.942  28.082  28.234  1.00  0.00     0.074 A 
ATOM     38  C   UNL A   1      40.575  28.491  28.745  1.00  0.00     0.049 A 
ATOM     39  N   UNL A   1      43.468  29.203  28.651  1.00  0.00    -0.248 NA
ATOM     40  C   UNL A   1      43.925  27.127  27.702  1.00  0.00     0.031 C 
ATOM     41  C   UNL A   1      39.190  28.126  28.949  1.00  0.00     0.029 A 
ATOM     42  N   UNL A   1      40.615  29.788  29.191  1.00  0.00    -0.354 N 
ATOM     43  C   UNL A   1      44.840  29.054  28.503  1.00  0.00     0.074 A 
ATOM     44  C   UNL A   1      45.070  27.731  27.973  1.00  0.00     0.031 C 
ATOM     45  C   UNL A   1      38.482  29.151  29.431  1.00  0.00     0.029 A 
ATOM     46  C   UNL A   1      39.396  30.256  29.642  1.00  0.00     0.049 A 
ATOM     47  H   UNL A   1      41.434  30.334  29.187  1.00  0.00     0.167 HD
ATOM     48  C   UNL A   1      45.820  29.949  28.768  1.00  0.00     0.034 A 
ATOM     49  C   UNL A   1      39.046  31.433  30.194  1.00  0.00     0.034 A 
ATOM     50  C   UNL A   1      45.560  31.279  29.242  1.00  0.00     0.049 A 
ATOM     51  C   UNL A   1      40.128  32.455  30.354  1.00  0.00     0.074 A 
ATOM     52  C   UNL A   1      46.458  32.303  29.478  1.00  0.00     0.029 A 
ATOM     53  N   UNL A   1      44.297  31.772  29.543  1.00  0.00    -0.354 N 
ATOM     54  N   UNL A   1      41.409  32.325  30.104  1.00  0.00    -0.248 NA
ATOM     55  C   UNL A   1      39.732  33.785  30.826  1.00  0.00     0.031 C 
ATOM     56  C   UNL A   1      45.734  33.418  29.919  1.00  0.00     0.029 A 
ATOM     57  C   UNL A   1      44.385  33.093  29.940  1.00  0.00     0.049 A 
ATOM     58  H   UNL A   1      43.461  31.256  29.481  1.00  0.00     0.167 HD
ATOM     59  C   UNL A   1      41.973  33.562  30.363  1.00  0.00     0.074 A 
ATOM     60  C   UNL A   1      40.886  34.436  30.768  1.00  0.00     0.031 C 
ATOM     61  C   UNL A   1      43.272  33.940  30.291  1.00  0.00     0.034 A 
BRANCH  48  62
ATOM     62  C   UNL A   1      47.237  29.504  28.515  1.00  0.00     0.023 A 
ATOM     63  C   UNL A   1      47.813  29.697  27.241  1.00  0.00     0.012 A 
ATOM     64  C   UNL A   1      47.984  28.859  29.518  1.00  0.00     0.148 A 
ATOM     65  C   UNL A   1      49.081  29.197  26.950  1.00  0.00     0.002 A 
ATOM     66  C   UNL A   1      49.269  28.405  29.234  1.00  0.00     0.091 A 
ATOM     67  F   UNL A   1      47.417  28.669  30.718  1.00  0.00    -0.205 F 
ATOM     68  C   UNL A   1      49.810  28.556  27.947  1.00  0.00     0.022 A 
BRANCH  66  69
ATOM     69  S   UNL A   1      50.319  27.618  30.460  1.00  0.00     0.127 S 
ATOM     70  O   UNL A   1      49.597  26.371  30.711  1.00  0.00    -0.237 OA
ATOM     71  O   UNL A   1      51.575  27.458  29.727  1.00  0.00    -0.237 OA
ATOM     72  O   UNL A   1      50.383  28.536  31.588  1.00  0.00    -0.744 OA
ENDBRANCH  66  69
ENDBRANCH  48  62
BRANCH  49  73
ATOM     73  C   UNL A   1      37.621  31.714  30.548  1.00  0.00     0.023 A 
ATOM     74  C   UNL A   1      37.150  31.366  31.829  1.00  0.00     0.012 A 
ATOM     75  C   UNL A   1      36.750  32.381  29.661  1.00  0.00     0.148 A 
ATOM     76  C   UNL A   1      35.837  31.650  32.212  1.00  0.00     0.002 A 
ATOM     77  C   UNL A   1      35.457  32.704  30.066  1.00  0.00     0.091 A 
ATOM     78  F   UNL A   1      37.210  32.708  28.445  1.00  0.00    -0.205 F 
ATOM     79  C   UNL A   1      34.995  32.327  31.335  1.00  0.00     0.022 A 
BRANCH  77  80
ATOM     80  S   UNL A   1      34.339  33.678  29.049  1.00  0.00     0.127 S 
ATOM     81  O   UNL A   1      33.389  34.175  30.041  1.00  0.00    -0.237 OA
ATOM     82  O   UNL A   1      35.237  34.693  28.495  1.00  0.00    -0.237 OA
ATOM     83  O   UNL A   1      33.798  32.750  28.065  1.00  0.00    -0.744 OA
ENDBRANCH  77  80
ENDBRANCH  49  73
BRANCH  61  84
ATOM     84  C   UNL A   1      43.578  35.369  30.620  1.00  0.00     0.023 A 
ATOM     85  C   UNL A   1      43.989  35.715  31.920  1.00  0.00     0.012 A 
ATOM     86  C   UNL A   1      43.526  36.350  29.614  1.00  0.00     0.148 A 
ATOM     87  C   UNL A   1      44.327  37.032  32.221  1.00  0.00     0.002 A 
ATOM     88  C   UNL A   1      43.910  37.650  29.910  1.00  0.00     0.091 A 
ATOM     89  F   UNL A   1      43.100  35.995  28.392  1.00  0.00    -0.205 F 
ATOM     90  C   UNL A   1      44.300  37.995  31.214  1.00  0.00     0.022 A 
BRANCH  88  91
ATOM     91  S   UNL A   1      44.000  38.923  28.648  1.00  0.00     0.127 S 
ATOM     92  O   UNL A   1      42.592  39.088  28.291  1.00  0.00    -0.237 OA
ATOM     93  O   UNL A   1      44.580  40.048  29.384  1.00  0.00    -0.237 OA
ATOM     94  O   UNL A   1      44.856  38.386  27.600  1.00  0.00    -0.744 OA
ENDBRANCH  88  91
ENDBRANCH  61  84
ENDBRANCH  35  36
ENDBRANCH  28  30
ENDBRANCH  27  28
ENDBRANCH  26  27
ENDBRANCH   1  26
TORSDOF 19
ENDMDL
