MODEL 1
REMARK VINA RESULT:     -12.8      0.000      0.000
REMARK SMILES C[C@@H](NC(=O)[C@H]1CC=CC[C@@H]1C(=O)OCCOC(=O)c1ccc(-c2c3nc(c(-c4cccc(S(=O)(=O)[O-])c4F)c4ccc([nH]4)c(-c4cccc(S(=O)(=O)[O-])c4F)c4nc(c(-c5cccc(S(=O)(=O)[O-])c5F)c5ccc2[nH]5)C=C4)C=C3)cc1)c1ccc(-n2ccnc2)cc1
REMARK SMILES IDX 15 1 14 2 12 3 13 4 11 5 6 6 7 7 8 8 10 9 9 10 4 11 3 12
REMARK SMILES IDX 5 14 2 15 1 16 83 17 84 18 93 19 85 20 92 21 86 22 87 23
REMARK SMILES IDX 88 24 91 25 89 26 90 27 16 28 17 29 18 30 19 31 20 32 21 33
REMARK SMILES IDX 82 34 22 35 81 36 23 37 24 38 25 39 75 40 26 41 80 42 74 43
REMARK SMILES IDX 76 44 27 45 79 46 73 47 72 48 28 50 60 51 40 52 59 53 41 54
REMARK SMILES IDX 44 55 58 56 77 57 42 58 43 59 57 61 78 62 45 63 29 64 30 65
REMARK SMILES IDX 38 66 31 67 33 68 39 69 32 70 34 71 35 72 36 73 37 74 61 75
REMARK SMILES IDX 62 76 70 77 63 78 65 79 71 80 64 81 66 82 67 83 68 84 69 85
REMARK SMILES IDX 46 86 47 87 55 88 48 89 50 90 56 91 49 92 51 93 52 94 53 95
REMARK SMILES IDX 54 96
REMARK H PARENT 3 13 76 49 44 60
REMARK Flexibility Score: inf
ROOT
ATOM      1  C   UNL A   1      31.781  28.554  27.237  1.00  0.00     0.274 C 
ENDROOT
BRANCH   1   2
ATOM      2  O   UNL A   1      32.286  27.507  26.381  1.00  0.00    -0.462 OA
BRANCH   2   3
ATOM      3  C   UNL A   1      31.338  26.713  25.799  1.00  0.00     0.310 C 
ATOM      4  O   UNL A   1      30.367  26.269  26.399  1.00  0.00    -0.252 OA
BRANCH   3   5
ATOM      5  C   UNL A   1      31.724  26.325  24.376  1.00  0.00     0.115 C 
ATOM      6  C   UNL A   1      33.206  26.618  24.015  1.00  0.00     0.097 C 
ATOM      7  C   UNL A   1      33.463  28.048  23.516  1.00  0.00     0.041 C 
ATOM      8  C   UNL A   1      32.319  28.725  22.834  1.00  0.00    -0.030 C 
ATOM      9  C   UNL A   1      30.711  26.894  23.359  1.00  0.00     0.043 C 
ATOM     10  C   UNL A   1      31.089  28.210  22.758  1.00  0.00    -0.030 C 
BRANCH   6  11
ATOM     11  C   UNL A   1      33.703  25.584  23.003  1.00  0.00     0.224 C 
ATOM     12  N   UNL A   1      33.961  24.292  23.346  1.00  0.00    -0.349 N 
ATOM     13  H   UNL A   1      34.062  23.695  22.570  1.00  0.00     0.164 HD
ATOM     14  O   UNL A   1      33.847  25.860  21.807  1.00  0.00    -0.275 OA
BRANCH  12  15
ATOM     15  C   UNL A   1      34.119  23.607  24.632  1.00  0.00     0.109 C 
ATOM     16  C   UNL A   1      35.480  23.969  25.236  1.00  0.00     0.036 C 
BRANCH  15  17
ATOM     17  C   UNL A   1      33.994  22.101  24.558  1.00  0.00    -0.026 A 
ATOM     18  C   UNL A   1      35.116  21.298  24.814  1.00  0.00     0.008 A 
ATOM     19  C   UNL A   1      32.786  21.477  24.224  1.00  0.00     0.008 A 
ATOM     20  C   UNL A   1      35.015  19.904  24.805  1.00  0.00     0.027 A 
ATOM     21  C   UNL A   1      32.678  20.083  24.218  1.00  0.00     0.027 A 
ATOM     22  C   UNL A   1      33.783  19.285  24.549  1.00  0.00     0.046 A 
BRANCH  22  23
ATOM     23  N   UNL A   1      33.624  17.882  24.739  1.00  0.00    -0.306 N 
ATOM     24  C   UNL A   1      32.578  17.232  25.363  1.00  0.00     0.113 A 
ATOM     25  C   UNL A   1      34.518  16.884  24.406  1.00  0.00     0.204 A 
ATOM     26  C   UNL A   1      32.913  15.899  25.388  1.00  0.00     0.131 A 
ATOM     27  N   UNL A   1      34.119  15.690  24.790  1.00  0.00    -0.245 NA
ENDBRANCH  22  23
ENDBRANCH  15  17
ENDBRANCH  12  15
ENDBRANCH   6  11
ENDBRANCH   3   5
ENDBRANCH   2   3
ENDBRANCH   1   2
BRANCH   1  28
ATOM     28  C   UNL A   1      31.647  29.909  26.537  1.00  0.00     0.275 C 
BRANCH  28  29
ATOM     29  O   UNL A   1      32.920  30.448  26.141  1.00  0.00    -0.458 OA
BRANCH  29  30
ATOM     30  C   UNL A   1      33.433  31.298  27.052  1.00  0.00     0.338 C 
ATOM     31  O   UNL A   1      32.844  32.226  27.585  1.00  0.00    -0.246 OA
BRANCH  30  32
ATOM     32  C   UNL A   1      34.795  30.970  27.464  1.00  0.00     0.060 A 
ATOM     33  C   UNL A   1      35.052  29.659  27.843  1.00  0.00     0.016 A 
ATOM     34  C   UNL A   1      35.688  31.994  27.793  1.00  0.00     0.016 A 
ATOM     35  C   UNL A   1      36.150  29.386  28.649  1.00  0.00     0.010 A 
ATOM     36  C   UNL A   1      36.847  31.694  28.518  1.00  0.00     0.010 A 
ATOM     37  C   UNL A   1      37.070  30.391  28.986  1.00  0.00    -0.014 A 
BRANCH  37  38
ATOM     38  C   UNL A   1      38.278  30.035  29.778  1.00  0.00     0.031 A 
ATOM     39  C   UNL A   1      39.356  29.141  29.230  1.00  0.00     0.074 A 
ATOM     40  C   UNL A   1      38.399  30.551  31.017  1.00  0.00     0.049 A 
ATOM     41  N   UNL A   1      40.414  28.667  29.837  1.00  0.00    -0.248 NA
ATOM     42  C   UNL A   1      39.235  28.713  27.826  1.00  0.00     0.031 C 
ATOM     43  C   UNL A   1      37.414  31.425  31.659  1.00  0.00     0.029 A 
ATOM     44  N   UNL A   1      39.394  30.433  31.953  1.00  0.00    -0.354 N 
ATOM     45  C   UNL A   1      41.044  27.831  28.923  1.00  0.00     0.074 A 
ATOM     46  C   UNL A   1      40.265  27.883  27.703  1.00  0.00     0.031 C 
ATOM     47  C   UNL A   1      37.876  31.809  32.854  1.00  0.00     0.029 A 
ATOM     48  C   UNL A   1      39.140  31.132  33.108  1.00  0.00     0.049 A 
ATOM     49  H   UNL A   1      40.210  29.901  31.810  1.00  0.00     0.167 HD
ATOM     50  C   UNL A   1      42.168  27.093  29.090  1.00  0.00     0.034 A 
ATOM     51  C   UNL A   1      39.822  31.200  34.267  1.00  0.00     0.034 A 
ATOM     52  C   UNL A   1      42.976  27.107  30.284  1.00  0.00     0.049 A 
ATOM     53  C   UNL A   1      41.087  30.413  34.405  1.00  0.00     0.074 A 
ATOM     54  C   UNL A   1      44.153  26.421  30.535  1.00  0.00     0.029 A 
ATOM     55  N   UNL A   1      42.702  27.854  31.420  1.00  0.00    -0.354 N 
ATOM     56  N   UNL A   1      41.680  29.652  33.518  1.00  0.00    -0.248 NA
ATOM     57  C   UNL A   1      41.779  30.490  35.697  1.00  0.00     0.031 C 
ATOM     58  C   UNL A   1      44.590  26.754  31.822  1.00  0.00     0.029 A 
ATOM     59  C   UNL A   1      43.688  27.650  32.373  1.00  0.00     0.049 A 
ATOM     60  H   UNL A   1      41.922  28.443  31.534  1.00  0.00     0.167 HD
ATOM     61  C   UNL A   1      42.809  29.148  34.145  1.00  0.00     0.074 A 
ATOM     62  C   UNL A   1      42.842  29.728  35.474  1.00  0.00     0.031 C 
ATOM     63  C   UNL A   1      43.718  28.259  33.677  1.00  0.00     0.034 A 
BRANCH  50  64
ATOM     64  C   UNL A   1      42.628  26.223  27.948  1.00  0.00     0.023 A 
ATOM     65  C   UNL A   1      43.661  26.673  27.104  1.00  0.00     0.012 A 
ATOM     66  C   UNL A   1      42.111  24.923  27.777  1.00  0.00     0.148 A 
ATOM     67  C   UNL A   1      44.166  25.846  26.098  1.00  0.00     0.002 A 
ATOM     68  C   UNL A   1      42.642  24.093  26.794  1.00  0.00     0.091 A 
ATOM     69  F   UNL A   1      41.109  24.522  28.571  1.00  0.00    -0.205 F 
ATOM     70  C   UNL A   1      43.666  24.554  25.952  1.00  0.00     0.022 A 
BRANCH  68  71
ATOM     71  S   UNL A   1      42.105  22.389  26.589  1.00  0.00     0.127 S 
ATOM     72  O   UNL A   1      42.510  21.797  27.863  1.00  0.00    -0.237 OA
ATOM     73  O   UNL A   1      40.659  22.531  26.418  1.00  0.00    -0.237 OA
ATOM     74  O   UNL A   1      42.804  21.898  25.410  1.00  0.00    -0.744 OA
ENDBRANCH  68  71
ENDBRANCH  50  64
BRANCH  51  75
ATOM     75  C   UNL A   1      39.302  32.073  35.355  1.00  0.00     0.023 A 
ATOM     76  C   UNL A   1      38.517  31.509  36.377  1.00  0.00     0.012 A 
ATOM     77  C   UNL A   1      39.704  33.419  35.460  1.00  0.00     0.148 A 
ATOM     78  C   UNL A   1      38.153  32.269  37.490  1.00  0.00     0.002 A 
ATOM     79  C   UNL A   1      39.403  34.145  36.606  1.00  0.00     0.091 A 
ATOM     80  F   UNL A   1      40.426  33.951  34.463  1.00  0.00    -0.205 F 
ATOM     81  C   UNL A   1      38.616  33.577  37.617  1.00  0.00     0.022 A 
BRANCH  79  82
ATOM     82  S   UNL A   1      40.155  35.749  36.905  1.00  0.00     0.127 S 
ATOM     83  O   UNL A   1      39.662  36.532  35.777  1.00  0.00    -0.237 OA
ATOM     84  O   UNL A   1      39.597  36.125  38.206  1.00  0.00    -0.237 OA
ATOM     85  O   UNL A   1      41.589  35.485  36.934  1.00  0.00    -0.744 OA
ENDBRANCH  79  82
ENDBRANCH  51  75
BRANCH  63  86
ATOM     86  C   UNL A   1      44.811  27.846  34.621  1.00  0.00     0.023 A 
ATOM     87  C   UNL A   1      46.026  28.558  34.615  1.00  0.00     0.012 A 
ATOM     88  C   UNL A   1      44.629  26.790  35.533  1.00  0.00     0.148 A 
ATOM     89  C   UNL A   1      47.056  28.207  35.485  1.00  0.00     0.002 A 
ATOM     90  C   UNL A   1      45.650  26.467  36.420  1.00  0.00     0.091 A 
ATOM     91  F   UNL A   1      43.474  26.108  35.505  1.00  0.00    -0.205 F 
ATOM     92  C   UNL A   1      46.866  27.169  36.393  1.00  0.00     0.022 A 
BRANCH  90  93
ATOM     93  S   UNL A   1      45.451  25.184  37.661  1.00  0.00     0.127 S 
ATOM     94  O   UNL A   1      46.740  25.229  38.349  1.00  0.00    -0.237 OA
ATOM     95  O   UNL A   1      44.321  25.676  38.451  1.00  0.00    -0.237 OA
ATOM     96  O   UNL A   1      45.171  23.962  36.917  1.00  0.00    -0.744 OA
ENDBRANCH  90  93
ENDBRANCH  63  86
ENDBRANCH  37  38
ENDBRANCH  30  32
ENDBRANCH  29  30
ENDBRANCH  28  29
ENDBRANCH   1  28
TORSDOF 18
ENDMDL
MODEL 2
REMARK VINA RESULT:     -12.7      5.331     10.503
REMARK SMILES C[C@@H](NC(=O)[C@H]1CC=CC[C@@H]1C(=O)OCCOC(=O)c1ccc(-c2c3nc(c(-c4cccc(S(=O)(=O)[O-])c4F)c4ccc([nH]4)c(-c4cccc(S(=O)(=O)[O-])c4F)c4nc(c(-c5cccc(S(=O)(=O)[O-])c5F)c5ccc2[nH]5)C=C4)C=C3)cc1)c1ccc(-n2ccnc2)cc1
REMARK SMILES IDX 15 1 14 2 12 3 13 4 11 5 6 6 7 7 8 8 10 9 9 10 4 11 3 12
REMARK SMILES IDX 5 14 2 15 1 16 83 17 84 18 93 19 85 20 92 21 86 22 87 23
REMARK SMILES IDX 88 24 91 25 89 26 90 27 16 28 17 29 18 30 19 31 20 32 21 33
REMARK SMILES IDX 82 34 22 35 81 36 23 37 24 38 25 39 75 40 26 41 80 42 74 43
REMARK SMILES IDX 76 44 27 45 79 46 73 47 72 48 28 50 60 51 40 52 59 53 41 54
REMARK SMILES IDX 44 55 58 56 77 57 42 58 43 59 57 61 78 62 45 63 29 64 30 65
REMARK SMILES IDX 38 66 31 67 33 68 39 69 32 70 34 71 35 72 36 73 37 74 61 75
REMARK SMILES IDX 62 76 70 77 63 78 65 79 71 80 64 81 66 82 67 83 68 84 69 85
REMARK SMILES IDX 46 86 47 87 55 88 48 89 50 90 56 91 49 92 51 93 52 94 53 95
REMARK SMILES IDX 54 96
REMARK H PARENT 3 13 76 49 44 60
REMARK Flexibility Score: inf
ROOT
ATOM      1  C   UNL A   1      36.780  22.321  23.769  1.00  0.00     0.274 C 
ENDROOT
BRANCH   1   2
ATOM      2  O   UNL A   1      35.706  23.037  24.415  1.00  0.00    -0.462 OA
BRANCH   2   3
ATOM      3  C   UNL A   1      34.545  23.129  23.698  1.00  0.00     0.310 C 
ATOM      4  O   UNL A   1      34.511  23.308  22.488  1.00  0.00    -0.252 OA
BRANCH   3   5
ATOM      5  C   UNL A   1      33.322  23.141  24.608  1.00  0.00     0.115 C 
ATOM      6  C   UNL A   1      33.568  23.784  26.001  1.00  0.00     0.097 C 
ATOM      7  C   UNL A   1      34.130  22.815  27.051  1.00  0.00     0.041 C 
ATOM      8  C   UNL A   1      33.771  21.375  26.881  1.00  0.00    -0.030 C 
ATOM      9  C   UNL A   1      32.673  21.742  24.673  1.00  0.00     0.043 C 
ATOM     10  C   UNL A   1      33.116  20.893  25.822  1.00  0.00    -0.030 C 
BRANCH   6  11
ATOM     11  C   UNL A   1      32.282  24.448  26.496  1.00  0.00     0.224 C 
ATOM     12  N   UNL A   1      31.825  25.626  25.987  1.00  0.00    -0.349 N 
ATOM     13  H   UNL A   1      30.894  25.823  26.237  1.00  0.00     0.164 HD
ATOM     14  O   UNL A   1      31.564  23.920  27.352  1.00  0.00    -0.275 OA
BRANCH  12  15
ATOM     15  C   UNL A   1      32.434  26.659  25.144  1.00  0.00     0.109 C 
ATOM     16  C   UNL A   1      33.509  27.399  25.946  1.00  0.00     0.036 C 
BRANCH  15  17
ATOM     17  C   UNL A   1      31.454  27.664  24.581  1.00  0.00    -0.026 A 
ATOM     18  C   UNL A   1      31.537  29.009  24.972  1.00  0.00     0.008 A 
ATOM     19  C   UNL A   1      30.446  27.288  23.685  1.00  0.00     0.008 A 
ATOM     20  C   UNL A   1      30.679  29.968  24.426  1.00  0.00     0.027 A 
ATOM     21  C   UNL A   1      29.587  28.244  23.132  1.00  0.00     0.027 A 
ATOM     22  C   UNL A   1      29.724  29.599  23.469  1.00  0.00     0.046 A 
BRANCH  22  23
ATOM     23  N   UNL A   1      28.989  30.592  22.759  1.00  0.00    -0.306 N 
ATOM     24  C   UNL A   1      28.670  30.603  21.416  1.00  0.00     0.113 A 
ATOM     25  C   UNL A   1      28.505  31.788  23.251  1.00  0.00     0.204 A 
ATOM     26  C   UNL A   1      28.042  31.801  21.178  1.00  0.00     0.131 A 
ATOM     27  N   UNL A   1      27.941  32.533  22.323  1.00  0.00    -0.245 NA
ENDBRANCH  22  23
ENDBRANCH  15  17
ENDBRANCH  12  15
ENDBRANCH   6  11
ENDBRANCH   3   5
ENDBRANCH   2   3
ENDBRANCH   1   2
BRANCH   1  28
ATOM     28  C   UNL A   1      37.265  21.099  24.555  1.00  0.00     0.275 C 
BRANCH  28  29
ATOM     29  O   UNL A   1      37.613  21.425  25.911  1.00  0.00    -0.458 OA
BRANCH  29  30
ATOM     30  C   UNL A   1      38.944  21.481  26.110  1.00  0.00     0.338 C 
ATOM     31  O   UNL A   1      39.772  20.693  25.678  1.00  0.00    -0.246 OA
BRANCH  30  32
ATOM     32  C   UNL A   1      39.383  22.666  26.842  1.00  0.00     0.060 A 
ATOM     33  C   UNL A   1      38.833  23.887  26.473  1.00  0.00     0.016 A 
ATOM     34  C   UNL A   1      40.542  22.614  27.621  1.00  0.00     0.016 A 
ATOM     35  C   UNL A   1      39.506  25.060  26.789  1.00  0.00     0.010 A 
ATOM     36  C   UNL A   1      41.158  23.804  28.023  1.00  0.00     0.010 A 
ATOM     37  C   UNL A   1      40.666  25.040  27.579  1.00  0.00    -0.014 A 
BRANCH  37  38
ATOM     38  C   UNL A   1      41.305  26.326  27.966  1.00  0.00     0.031 A 
ATOM     39  C   UNL A   1      40.571  27.375  28.757  1.00  0.00     0.074 A 
ATOM     40  C   UNL A   1      42.586  26.534  27.603  1.00  0.00     0.049 A 
ATOM     41  N   UNL A   1      40.964  28.580  29.082  1.00  0.00    -0.248 NA
ATOM     42  C   UNL A   1      39.220  27.041  29.238  1.00  0.00     0.031 C 
ATOM     43  C   UNL A   1      43.398  25.593  26.828  1.00  0.00     0.029 A 
ATOM     44  N   UNL A   1      43.434  27.585  27.838  1.00  0.00    -0.354 N 
ATOM     45  C   UNL A   1      39.892  29.174  29.738  1.00  0.00     0.074 A 
ATOM     46  C   UNL A   1      38.836  28.185  29.792  1.00  0.00     0.031 C 
ATOM     47  C   UNL A   1      44.638  26.079  26.702  1.00  0.00     0.029 A 
ATOM     48  C   UNL A   1      44.684  27.408  27.296  1.00  0.00     0.049 A 
ATOM     49  H   UNL A   1      43.173  28.387  28.347  1.00  0.00     0.167 HD
ATOM     50  C   UNL A   1      39.805  30.426  30.247  1.00  0.00     0.034 A 
ATOM     51  C   UNL A   1      45.748  28.231  27.241  1.00  0.00     0.034 A 
ATOM     52  C   UNL A   1      40.889  31.376  30.252  1.00  0.00     0.049 A 
ATOM     53  C   UNL A   1      45.638  29.591  27.856  1.00  0.00     0.074 A 
ATOM     54  C   UNL A   1      40.907  32.658  30.777  1.00  0.00     0.029 A 
ATOM     55  N   UNL A   1      42.150  31.147  29.722  1.00  0.00    -0.354 N 
ATOM     56  N   UNL A   1      44.625  30.122  28.498  1.00  0.00    -0.248 NA
ATOM     57  C   UNL A   1      46.810  30.467  27.744  1.00  0.00     0.031 C 
ATOM     58  C   UNL A   1      42.180  33.201  30.564  1.00  0.00     0.029 A 
ATOM     59  C   UNL A   1      42.955  32.259  29.910  1.00  0.00     0.049 A 
ATOM     60  H   UNL A   1      42.432  30.316  29.276  1.00  0.00     0.167 HD
ATOM     61  C   UNL A   1      45.031  31.398  28.856  1.00  0.00     0.074 A 
ATOM     62  C   UNL A   1      46.400  31.544  28.401  1.00  0.00     0.031 C 
ATOM     63  C   UNL A   1      44.323  32.374  29.476  1.00  0.00     0.034 A 
BRANCH  50  64
ATOM     64  C   UNL A   1      38.504  30.851  30.879  1.00  0.00     0.023 A 
ATOM     65  C   UNL A   1      38.323  30.700  32.266  1.00  0.00     0.012 A 
ATOM     66  C   UNL A   1      37.507  31.494  30.117  1.00  0.00     0.148 A 
ATOM     67  C   UNL A   1      37.163  31.171  32.886  1.00  0.00     0.002 A 
ATOM     68  C   UNL A   1      36.369  31.990  30.747  1.00  0.00     0.091 A 
ATOM     69  F   UNL A   1      37.683  31.604  28.793  1.00  0.00    -0.205 F 
ATOM     70  C   UNL A   1      36.195  31.826  32.130  1.00  0.00     0.022 A 
BRANCH  68  71
ATOM     71  S   UNL A   1      35.109  32.912  29.856  1.00  0.00     0.127 S 
ATOM     72  O   UNL A   1      34.616  31.906  28.916  1.00  0.00    -0.237 OA
ATOM     73  O   UNL A   1      34.166  33.266  30.917  1.00  0.00    -0.237 OA
ATOM     74  O   UNL A   1      35.801  34.049  29.264  1.00  0.00    -0.744 OA
ENDBRANCH  68  71
ENDBRANCH  50  64
BRANCH  51  75
ATOM     75  C   UNL A   1      46.997  27.748  26.593  1.00  0.00     0.023 A 
ATOM     76  C   UNL A   1      47.839  26.863  27.290  1.00  0.00     0.012 A 
ATOM     77  C   UNL A   1      47.275  28.042  25.243  1.00  0.00     0.148 A 
ATOM     78  C   UNL A   1      48.929  26.271  26.649  1.00  0.00     0.002 A 
ATOM     79  C   UNL A   1      48.314  27.389  24.592  1.00  0.00     0.091 A 
ATOM     80  F   UNL A   1      46.481  28.910  24.601  1.00  0.00    -0.205 F 
ATOM     81  C   UNL A   1      49.152  26.513  25.296  1.00  0.00     0.022 A 
BRANCH  79  82
ATOM     82  S   UNL A   1      48.502  27.507  22.808  1.00  0.00     0.127 S 
ATOM     83  O   UNL A   1      48.530  26.104  22.412  1.00  0.00    -0.237 OA
ATOM     84  O   UNL A   1      47.296  28.236  22.408  1.00  0.00    -0.237 OA
ATOM     85  O   UNL A   1      49.736  28.261  22.616  1.00  0.00    -0.744 OA
ENDBRANCH  79  82
ENDBRANCH  51  75
BRANCH  63  86
ATOM     86  C   UNL A   1      45.016  33.692  29.674  1.00  0.00     0.023 A 
ATOM     87  C   UNL A   1      45.694  33.933  30.885  1.00  0.00     0.012 A 
ATOM     88  C   UNL A   1      45.031  34.669  28.662  1.00  0.00     0.148 A 
ATOM     89  C   UNL A   1      46.355  35.141  31.096  1.00  0.00     0.002 A 
ATOM     90  C   UNL A   1      45.721  35.859  28.869  1.00  0.00     0.091 A 
ATOM     91  F   UNL A   1      44.358  34.431  27.527  1.00  0.00    -0.205 F 
ATOM     92  C   UNL A   1      46.377  36.099  30.087  1.00  0.00     0.022 A 
BRANCH  90  93
ATOM     93  S   UNL A   1      45.845  37.112  27.589  1.00  0.00     0.127 S 
ATOM     94  O   UNL A   1      46.980  37.907  28.056  1.00  0.00    -0.237 OA
ATOM     95  O   UNL A   1      46.112  36.318  26.388  1.00  0.00    -0.237 OA
ATOM     96  O   UNL A   1      44.556  37.791  27.581  1.00  0.00    -0.744 OA
ENDBRANCH  90  93
ENDBRANCH  63  86
ENDBRANCH  37  38
ENDBRANCH  30  32
ENDBRANCH  29  30
ENDBRANCH  28  29
ENDBRANCH   1  28
TORSDOF 18
ENDMDL
MODEL 3
REMARK VINA RESULT:     -12.3      1.438      7.507
REMARK SMILES C[C@@H](NC(=O)[C@H]1CC=CC[C@@H]1C(=O)OCCOC(=O)c1ccc(-c2c3nc(c(-c4cccc(S(=O)(=O)[O-])c4F)c4ccc([nH]4)c(-c4cccc(S(=O)(=O)[O-])c4F)c4nc(c(-c5cccc(S(=O)(=O)[O-])c5F)c5ccc2[nH]5)C=C4)C=C3)cc1)c1ccc(-n2ccnc2)cc1
REMARK SMILES IDX 15 1 14 2 12 3 13 4 11 5 6 6 7 7 8 8 10 9 9 10 4 11 3 12
REMARK SMILES IDX 5 14 2 15 1 16 83 17 84 18 93 19 85 20 92 21 86 22 87 23
REMARK SMILES IDX 88 24 91 25 89 26 90 27 16 28 17 29 18 30 19 31 20 32 21 33
REMARK SMILES IDX 82 34 22 35 81 36 23 37 24 38 25 39 75 40 26 41 80 42 74 43
REMARK SMILES IDX 76 44 27 45 79 46 73 47 72 48 28 50 60 51 40 52 59 53 41 54
REMARK SMILES IDX 44 55 58 56 77 57 42 58 43 59 57 61 78 62 45 63 29 64 30 65
REMARK SMILES IDX 38 66 31 67 33 68 39 69 32 70 34 71 35 72 36 73 37 74 61 75
REMARK SMILES IDX 62 76 70 77 63 78 65 79 71 80 64 81 66 82 67 83 68 84 69 85
REMARK SMILES IDX 46 86 47 87 55 88 48 89 50 90 56 91 49 92 51 93 52 94 53 95
REMARK SMILES IDX 54 96
REMARK H PARENT 3 13 76 49 44 60
REMARK Flexibility Score: inf
ROOT
ATOM      1  C   UNL A   1      31.781  28.801  27.245  1.00  0.00     0.274 C 
ENDROOT
BRANCH   1   2
ATOM      2  O   UNL A   1      32.244  27.919  26.200  1.00  0.00    -0.462 OA
BRANCH   2   3
ATOM      3  C   UNL A   1      31.396  26.899  25.872  1.00  0.00     0.310 C 
ATOM      4  O   UNL A   1      30.615  26.389  26.664  1.00  0.00    -0.252 OA
BRANCH   3   5
ATOM      5  C   UNL A   1      31.658  26.380  24.462  1.00  0.00     0.115 C 
ATOM      6  C   UNL A   1      32.968  26.913  23.819  1.00  0.00     0.097 C 
ATOM      7  C   UNL A   1      32.817  28.268  23.111  1.00  0.00     0.041 C 
ATOM      8  C   UNL A   1      31.464  28.575  22.557  1.00  0.00    -0.030 C 
ATOM      9  C   UNL A   1      30.410  26.558  23.572  1.00  0.00     0.043 C 
ATOM     10  C   UNL A   1      30.387  27.811  22.757  1.00  0.00    -0.030 C 
BRANCH   6  11
ATOM     11  C   UNL A   1      33.543  25.858  22.872  1.00  0.00     0.224 C 
ATOM     12  N   UNL A   1      33.913  24.619  23.298  1.00  0.00    -0.349 N 
ATOM     13  H   UNL A   1      34.058  23.981  22.563  1.00  0.00     0.164 HD
ATOM     14  O   UNL A   1      33.654  26.063  21.658  1.00  0.00    -0.275 OA
BRANCH  12  15
ATOM     15  C   UNL A   1      34.140  24.039  24.626  1.00  0.00     0.109 C 
ATOM     16  C   UNL A   1      35.535  24.435  25.121  1.00  0.00     0.036 C 
BRANCH  15  17
ATOM     17  C   UNL A   1      34.001  22.534  24.682  1.00  0.00    -0.026 A 
ATOM     18  C   UNL A   1      32.827  21.927  24.209  1.00  0.00     0.008 A 
ATOM     19  C   UNL A   1      35.010  21.720  25.210  1.00  0.00     0.008 A 
ATOM     20  C   UNL A   1      32.694  20.536  24.200  1.00  0.00     0.027 A 
ATOM     21  C   UNL A   1      34.885  20.327  25.200  1.00  0.00     0.027 A 
ATOM     22  C   UNL A   1      33.741  19.722  24.656  1.00  0.00     0.046 A 
BRANCH  22  23
ATOM     23  N   UNL A   1      33.700  18.311  24.461  1.00  0.00    -0.306 N 
ATOM     24  C   UNL A   1      32.597  17.485  24.537  1.00  0.00     0.113 A 
ATOM     25  C   UNL A   1      34.765  17.465  24.229  1.00  0.00     0.204 A 
ATOM     26  C   UNL A   1      33.063  16.203  24.371  1.00  0.00     0.131 A 
ATOM     27  N   UNL A   1      34.412  16.198  24.178  1.00  0.00    -0.245 NA
ENDBRANCH  22  23
ENDBRANCH  15  17
ENDBRANCH  12  15
ENDBRANCH   6  11
ENDBRANCH   3   5
ENDBRANCH   2   3
ENDBRANCH   1   2
BRANCH   1  28
ATOM     28  C   UNL A   1      31.753  30.276  26.838  1.00  0.00     0.275 C 
BRANCH  28  29
ATOM     29  O   UNL A   1      33.032  30.739  26.372  1.00  0.00    -0.458 OA
BRANCH  29  30
ATOM     30  C   UNL A   1      33.645  31.554  27.252  1.00  0.00     0.338 C 
ATOM     31  O   UNL A   1      33.153  32.532  27.794  1.00  0.00    -0.246 OA
BRANCH  30  32
ATOM     32  C   UNL A   1      34.991  31.122  27.618  1.00  0.00     0.060 A 
ATOM     33  C   UNL A   1      35.177  29.775  27.902  1.00  0.00     0.016 A 
ATOM     34  C   UNL A   1      35.946  32.068  28.001  1.00  0.00     0.016 A 
ATOM     35  C   UNL A   1      36.267  29.385  28.669  1.00  0.00     0.010 A 
ATOM     36  C   UNL A   1      37.095  31.654  28.684  1.00  0.00     0.010 A 
ATOM     37  C   UNL A   1      37.248  30.311  29.058  1.00  0.00    -0.014 A 
BRANCH  37  38
ATOM     38  C   UNL A   1      38.443  29.833  29.804  1.00  0.00     0.031 A 
ATOM     39  C   UNL A   1      38.747  30.295  31.203  1.00  0.00     0.074 A 
ATOM     40  C   UNL A   1      39.258  28.948  29.198  1.00  0.00     0.049 A 
ATOM     41  N   UNL A   1      39.799  30.041  31.939  1.00  0.00    -0.248 NA
ATOM     42  C   UNL A   1      37.755  31.159  31.864  1.00  0.00     0.031 C 
ATOM     43  C   UNL A   1      39.070  28.433  27.839  1.00  0.00     0.029 A 
ATOM     44  N   UNL A   1      40.393  28.315  29.636  1.00  0.00    -0.354 N 
ATOM     45  C   UNL A   1      39.635  30.766  33.113  1.00  0.00     0.074 A 
ATOM     46  C   UNL A   1      38.364  31.451  33.007  1.00  0.00     0.031 C 
ATOM     47  C   UNL A   1      40.016  27.525  27.575  1.00  0.00     0.029 A 
ATOM     48  C   UNL A   1      40.937  27.465  28.703  1.00  0.00     0.049 A 
ATOM     49  H   UNL A   1      40.779  28.456  30.530  1.00  0.00     0.167 HD
ATOM     50  C   UNL A   1      40.469  30.847  34.178  1.00  0.00     0.034 A 
ATOM     51  C   UNL A   1      42.071  26.740  28.724  1.00  0.00     0.034 A 
ATOM     52  C   UNL A   1      41.696  30.101  34.303  1.00  0.00     0.049 A 
ATOM     53  C   UNL A   1      42.949  26.811  29.934  1.00  0.00     0.074 A 
ATOM     54  C   UNL A   1      42.592  30.089  35.360  1.00  0.00     0.029 A 
ATOM     55  N   UNL A   1      42.196  29.225  33.350  1.00  0.00    -0.354 N 
ATOM     56  N   UNL A   1      42.760  27.481  31.046  1.00  0.00    -0.248 NA
ATOM     57  C   UNL A   1      44.191  26.032  29.899  1.00  0.00     0.031 C 
ATOM     58  C   UNL A   1      43.630  29.205  35.046  1.00  0.00     0.029 A 
ATOM     59  C   UNL A   1      43.383  28.664  33.795  1.00  0.00     0.049 A 
ATOM     60  H   UNL A   1      41.770  29.031  32.485  1.00  0.00     0.167 HD
ATOM     61  C   UNL A   1      43.864  27.214  31.840  1.00  0.00     0.074 A 
ATOM     62  C   UNL A   1      44.696  26.284  31.100  1.00  0.00     0.031 C 
ATOM     63  C   UNL A   1      44.180  27.720  33.057  1.00  0.00     0.034 A 
BRANCH  50  64
ATOM     64  C   UNL A   1      40.081  31.747  35.323  1.00  0.00     0.023 A 
ATOM     65  C   UNL A   1      40.596  33.055  35.384  1.00  0.00     0.012 A 
ATOM     66  C   UNL A   1      39.128  31.333  36.276  1.00  0.00     0.148 A 
ATOM     67  C   UNL A   1      40.177  33.936  36.384  1.00  0.00     0.002 A 
ATOM     68  C   UNL A   1      38.692  32.226  37.250  1.00  0.00     0.091 A 
ATOM     69  F   UNL A   1      38.670  30.075  36.219  1.00  0.00    -0.205 F 
ATOM     70  C   UNL A   1      39.218  33.527  37.307  1.00  0.00     0.022 A 
BRANCH  68  71
ATOM     71  S   UNL A   1      37.404  31.801  38.430  1.00  0.00     0.127 S 
ATOM     72  O   UNL A   1      38.088  32.016  39.703  1.00  0.00    -0.237 OA
ATOM     73  O   UNL A   1      36.360  32.781  38.126  1.00  0.00    -0.237 OA
ATOM     74  O   UNL A   1      37.039  30.423  38.130  1.00  0.00    -0.744 OA
ENDBRANCH  68  71
ENDBRANCH  50  64
BRANCH  51  75
ATOM     75  C   UNL A   1      42.395  25.881  27.552  1.00  0.00     0.023 A 
ATOM     76  C   UNL A   1      43.359  26.315  26.624  1.00  0.00     0.012 A 
ATOM     77  C   UNL A   1      41.866  24.581  27.438  1.00  0.00     0.148 A 
ATOM     78  C   UNL A   1      43.796  25.462  25.608  1.00  0.00     0.002 A 
ATOM     79  C   UNL A   1      42.362  23.713  26.473  1.00  0.00     0.091 A 
ATOM     80  F   UNL A   1      40.926  24.193  28.312  1.00  0.00    -0.205 F 
ATOM     81  C   UNL A   1      43.319  24.155  25.548  1.00  0.00     0.022 A 
BRANCH  79  82
ATOM     82  S   UNL A   1      41.935  21.968  26.496  1.00  0.00     0.127 S 
ATOM     83  O   UNL A   1      42.711  21.449  25.376  1.00  0.00    -0.237 OA
ATOM     84  O   UNL A   1      42.401  21.543  27.818  1.00  0.00    -0.237 OA
ATOM     85  O   UNL A   1      40.484  21.941  26.348  1.00  0.00    -0.744 OA
ENDBRANCH  79  82
ENDBRANCH  51  75
BRANCH  63  86
ATOM     86  C   UNL A   1      45.492  27.291  33.650  1.00  0.00     0.023 A 
ATOM     87  C   UNL A   1      46.632  28.090  33.437  1.00  0.00     0.012 A 
ATOM     88  C   UNL A   1      45.594  26.131  34.440  1.00  0.00     0.148 A 
ATOM     89  C   UNL A   1      47.862  27.727  33.981  1.00  0.00     0.002 A 
ATOM     90  C   UNL A   1      46.818  25.793  35.006  1.00  0.00     0.091 A 
ATOM     91  F   UNL A   1      44.502  25.370  34.608  1.00  0.00    -0.205 F 
ATOM     92  C   UNL A   1      47.954  26.585  34.772  1.00  0.00     0.022 A 
BRANCH  90  93
ATOM     93  S   UNL A   1      46.996  24.371  36.088  1.00  0.00     0.127 S 
ATOM     94  O   UNL A   1      48.407  24.452  36.460  1.00  0.00    -0.237 OA
ATOM     95  O   UNL A   1      46.062  24.676  37.173  1.00  0.00    -0.237 OA
ATOM     96  O   UNL A   1      46.617  23.217  35.282  1.00  0.00    -0.744 OA
ENDBRANCH  90  93
ENDBRANCH  63  86
ENDBRANCH  37  38
ENDBRANCH  30  32
ENDBRANCH  29  30
ENDBRANCH  28  29
ENDBRANCH   1  28
TORSDOF 18
ENDMDL
