MODEL 1
REMARK VINA RESULT:     -13.5      0.000      0.000
REMARK SMILES C[C@]1(C(=O)OCCOC(=O)c2ccc(-c3c4nc(c(-c5cccc(S(=O)(=O)[O-])c5F)c5ccc([nH]5)c(-c5cccc(S(=O)(=O)[O-])c5F)c5nc(c(-c6cccc(S(=O)(=O)[O-])c6F)c6ccc3[nH]6)C=C5)C=C4)cc2)[NH2+]C2(C(=O)c3ccccc3C2=O)[C@@H]2C(=O)N(c3ccccc3)C(=O)[C@H]21
REMARK SMILES IDX 7 1 6 2 5 3 3 4 4 5 2 6 1 7 74 8 98 9 75 10 86 13 96 14
REMARK SMILES IDX 76 15 84 16 87 17 89 18 97 19 77 20 78 21 83 22 85 23 88 24
REMARK SMILES IDX 79 25 82 26 80 27 81 28 90 29 91 30 95 31 92 32 94 33 93 34
REMARK SMILES IDX 8 35 9 36 10 37 11 38 12 39 73 40 13 41 72 42 14 43 15 44
REMARK SMILES IDX 16 45 66 46 17 47 71 48 65 49 67 50 18 51 70 52 64 53 63 54
REMARK SMILES IDX 19 56 51 57 31 58 50 59 32 60 35 61 49 62 68 63 33 64 34 65
REMARK SMILES IDX 48 67 69 68 36 69 20 70 21 71 29 72 22 73 24 74 30 75 23 76
REMARK SMILES IDX 25 77 26 78 27 79 28 80 52 81 53 82 61 83 54 84 56 85 62 86
REMARK SMILES IDX 55 87 57 88 58 89 59 90 60 91 37 92 38 93 46 94 39 95 41 96
REMARK SMILES IDX 47 97 40 98 42 99 43 100 44 101 45 102
REMARK H PARENT 74 11 74 12 67 55 35 66
REMARK Flexibility Score: inf
ROOT
ATOM      1  C   UNL A   1      38.641  20.186  25.256  1.00  0.00     0.275 C 
ENDROOT
BRANCH   1   2
ATOM      2  C   UNL A   1      37.782  20.867  24.192  1.00  0.00     0.274 C 
BRANCH   2   3
ATOM      3  O   UNL A   1      37.562  22.252  24.520  1.00  0.00    -0.457 OA
BRANCH   3   4
ATOM      4  C   UNL A   1      36.535  22.895  23.897  1.00  0.00     0.368 C 
ATOM      5  O   UNL A   1      36.451  23.015  22.683  1.00  0.00    -0.245 OA
BRANCH   4   6
ATOM      6  C   UNL A   1      35.550  23.562  24.912  1.00  0.00     0.205 C 
ATOM      7  C   UNL A   1      36.239  23.986  26.208  1.00  0.00     0.093 C 
ATOM      8  N   UNL A   1      34.826  24.752  24.313  1.00  0.00    -0.313 N 
ATOM      9  C   UNL A   1      34.411  22.623  25.196  1.00  0.00     0.172 C 
ATOM     10  C   UNL A   1      33.421  24.311  23.965  1.00  0.00     0.237 C 
ATOM     11  H   UNL A   1      35.310  25.065  23.472  1.00  0.00     0.348 HD
ATOM     12  H   UNL A   1      34.802  25.525  24.978  1.00  0.00     0.348 HD
ATOM     13  C   UNL A   1      33.549  22.824  23.968  1.00  0.00     0.177 C 
ATOM     14  C   UNL A   1      34.500  21.142  25.255  1.00  0.00     0.244 C 
ATOM     15  C   UNL A   1      32.423  24.935  24.938  1.00  0.00     0.232 C 
ATOM     16  C   UNL A   1      33.018  24.908  22.616  1.00  0.00     0.232 C 
ATOM     17  C   UNL A   1      32.552  21.741  24.172  1.00  0.00     0.245 C 
ATOM     18  N   UNL A   1      33.298  20.694  24.715  1.00  0.00    -0.250 N 
ATOM     19  O   UNL A   1      35.422  20.520  25.747  1.00  0.00    -0.273 OA
ATOM     20  O   UNL A   1      32.323  24.733  26.131  1.00  0.00    -0.286 OA
ATOM     21  C   UNL A   1      31.635  25.925  24.208  1.00  0.00     0.036 A 
ATOM     22  C   UNL A   1      31.985  25.918  22.865  1.00  0.00     0.036 A 
ATOM     23  O   UNL A   1      33.422  24.616  21.507  1.00  0.00    -0.286 OA
ATOM     24  O   UNL A   1      31.395  21.782  23.791  1.00  0.00    -0.273 OA
ATOM     25  C   UNL A   1      30.685  26.794  24.713  1.00  0.00     0.013 A 
ATOM     26  C   UNL A   1      31.390  26.778  21.961  1.00  0.00     0.013 A 
ATOM     27  C   UNL A   1      30.072  27.669  23.814  1.00  0.00     0.001 A 
ATOM     28  C   UNL A   1      30.423  27.661  22.450  1.00  0.00     0.001 A 
BRANCH  18  29
ATOM     29  C   UNL A   1      32.997  19.321  24.600  1.00  0.00     0.052 A 
ATOM     30  C   UNL A   1      32.755  18.545  25.742  1.00  0.00     0.027 A 
ATOM     31  C   UNL A   1      33.080  18.686  23.355  1.00  0.00     0.027 A 
ATOM     32  C   UNL A   1      32.614  17.162  25.648  1.00  0.00     0.002 A 
ATOM     33  C   UNL A   1      32.983  17.296  23.268  1.00  0.00     0.002 A 
ATOM     34  C   UNL A   1      32.746  16.535  24.413  1.00  0.00     0.000 A 
ENDBRANCH  18  29
ENDBRANCH   4   6
ENDBRANCH   3   4
ENDBRANCH   2   3
ENDBRANCH   1   2
BRANCH   1  35
ATOM     35  O   UNL A   1      38.931  21.099  26.328  1.00  0.00    -0.458 OA
BRANCH  35  36
ATOM     36  C   UNL A   1      40.162  20.972  26.874  1.00  0.00     0.338 C 
ATOM     37  O   UNL A   1      40.852  19.970  26.943  1.00  0.00    -0.246 OA
BRANCH  36  38
ATOM     38  C   UNL A   1      40.631  22.303  27.268  1.00  0.00     0.060 A 
ATOM     39  C   UNL A   1      41.562  22.482  28.282  1.00  0.00     0.016 A 
ATOM     40  C   UNL A   1      40.159  23.396  26.548  1.00  0.00     0.016 A 
ATOM     41  C   UNL A   1      41.985  23.781  28.584  1.00  0.00     0.010 A 
ATOM     42  C   UNL A   1      40.632  24.673  26.790  1.00  0.00     0.010 A 
ATOM     43  C   UNL A   1      41.524  24.885  27.837  1.00  0.00    -0.014 A 
BRANCH  43  44
ATOM     44  C   UNL A   1      41.970  26.267  28.118  1.00  0.00     0.031 A 
ATOM     45  C   UNL A   1      43.358  26.714  27.741  1.00  0.00     0.074 A 
ATOM     46  C   UNL A   1      41.148  27.086  28.798  1.00  0.00     0.049 A 
ATOM     47  N   UNL A   1      43.920  27.882  27.922  1.00  0.00    -0.248 NA
ATOM     48  C   UNL A   1      44.247  25.722  27.107  1.00  0.00     0.031 C 
ATOM     49  C   UNL A   1      39.831  26.715  29.324  1.00  0.00     0.029 A 
ATOM     50  N   UNL A   1      41.302  28.393  29.179  1.00  0.00    -0.354 N 
ATOM     51  C   UNL A   1      45.223  27.756  27.458  1.00  0.00     0.074 A 
ATOM     52  C   UNL A   1      45.389  26.390  27.018  1.00  0.00     0.031 C 
ATOM     53  C   UNL A   1      39.282  27.780  29.925  1.00  0.00     0.029 A 
ATOM     54  C   UNL A   1      40.217  28.899  29.852  1.00  0.00     0.049 A 
ATOM     55  H   UNL A   1      42.112  28.919  28.988  1.00  0.00     0.167 HD
ATOM     56  C   UNL A   1      46.183  28.705  27.371  1.00  0.00     0.034 A 
ATOM     57  C   UNL A   1      39.996  30.131  30.349  1.00  0.00     0.034 A 
ATOM     58  C   UNL A   1      45.987  30.076  27.751  1.00  0.00     0.049 A 
ATOM     59  C   UNL A   1      41.045  31.186  30.165  1.00  0.00     0.074 A 
ATOM     60  C   UNL A   1      46.856  31.141  27.597  1.00  0.00     0.029 A 
ATOM     61  N   UNL A   1      44.845  30.571  28.358  1.00  0.00    -0.354 N 
ATOM     62  N   UNL A   1      42.215  31.087  29.582  1.00  0.00    -0.248 NA
ATOM     63  C   UNL A   1      40.737  32.528  30.679  1.00  0.00     0.031 C 
ATOM     64  C   UNL A   1      46.241  32.281  28.124  1.00  0.00     0.029 A 
ATOM     65  C   UNL A   1      44.987  31.926  28.592  1.00  0.00     0.049 A 
ATOM     66  H   UNL A   1      44.050  30.037  28.590  1.00  0.00     0.167 HD
ATOM     67  C   UNL A   1      42.781  32.353  29.647  1.00  0.00     0.074 A 
ATOM     68  C   UNL A   1      41.813  33.209  30.306  1.00  0.00     0.031 C 
ATOM     69  C   UNL A   1      43.998  32.765  29.218  1.00  0.00     0.034 A 
BRANCH  56  70
ATOM     70  C   UNL A   1      47.507  28.328  26.761  1.00  0.00     0.023 A 
ATOM     71  C   UNL A   1      48.614  28.114  27.608  1.00  0.00     0.012 A 
ATOM     72  C   UNL A   1      47.629  28.075  25.381  1.00  0.00     0.148 A 
ATOM     73  C   UNL A   1      49.826  27.661  27.089  1.00  0.00     0.002 A 
ATOM     74  C   UNL A   1      48.832  27.593  24.877  1.00  0.00     0.091 A 
ATOM     75  F   UNL A   1      46.566  28.295  24.596  1.00  0.00    -0.205 F 
ATOM     76  C   UNL A   1      49.931  27.390  25.728  1.00  0.00     0.022 A 
BRANCH  74  77
ATOM     77  S   UNL A   1      49.061  27.153  23.150  1.00  0.00     0.127 S 
ATOM     78  O   UNL A   1      48.335  25.886  23.068  1.00  0.00    -0.237 OA
ATOM     79  O   UNL A   1      48.415  28.271  22.462  1.00  0.00    -0.237 OA
ATOM     80  O   UNL A   1      50.499  27.053  22.943  1.00  0.00    -0.744 OA
ENDBRANCH  74  77
ENDBRANCH  56  70
BRANCH  57  81
ATOM     81  C   UNL A   1      38.686  30.429  30.983  1.00  0.00     0.023 A 
ATOM     82  C   UNL A   1      38.489  30.099  32.337  1.00  0.00     0.012 A 
ATOM     83  C   UNL A   1      37.678  31.120  30.284  1.00  0.00     0.148 A 
ATOM     84  C   UNL A   1      37.304  30.449  32.986  1.00  0.00     0.002 A 
ATOM     85  C   UNL A   1      36.517  31.499  30.946  1.00  0.00     0.091 A 
ATOM     86  F   UNL A   1      37.897  31.426  28.998  1.00  0.00    -0.205 F 
ATOM     87  C   UNL A   1      36.324  31.156  32.294  1.00  0.00     0.022 A 
BRANCH  85  88
ATOM     88  S   UNL A   1      35.242  32.500  30.174  1.00  0.00     0.127 S 
ATOM     89  O   UNL A   1      35.999  33.680  29.761  1.00  0.00    -0.237 OA
ATOM     90  O   UNL A   1      34.808  31.634  29.077  1.00  0.00    -0.237 OA
ATOM     91  O   UNL A   1      34.237  32.730  31.201  1.00  0.00    -0.744 OA
ENDBRANCH  85  88
ENDBRANCH  57  81
BRANCH  69  92
ATOM     92  C   UNL A   1      44.367  34.203  29.444  1.00  0.00     0.023 A 
ATOM     93  C   UNL A   1      45.057  34.560  30.618  1.00  0.00     0.012 A 
ATOM     94  C   UNL A   1      44.129  35.173  28.452  1.00  0.00     0.148 A 
ATOM     95  C   UNL A   1      45.492  35.869  30.810  1.00  0.00     0.002 A 
ATOM     96  C   UNL A   1      44.597  36.468  28.634  1.00  0.00     0.091 A 
ATOM     97  F   UNL A   1      43.464  34.806  27.347  1.00  0.00    -0.205 F 
ATOM     98  C   UNL A   1      45.273  36.819  29.814  1.00  0.00     0.022 A 
BRANCH  96  99
ATOM     99  S   UNL A   1      44.424  37.743  27.380  1.00  0.00     0.127 S 
ATOM    100  O   UNL A   1      44.489  38.961  28.185  1.00  0.00    -0.237 OA
ATOM    101  O   UNL A   1      45.595  37.506  26.536  1.00  0.00    -0.237 OA
ATOM    102  O   UNL A   1      43.145  37.499  26.728  1.00  0.00    -0.744 OA
ENDBRANCH  96  99
ENDBRANCH  69  92
ENDBRANCH  43  44
ENDBRANCH  36  38
ENDBRANCH  35  36
ENDBRANCH   1  35
TORSDOF 15
ENDMDL
MODEL 2
REMARK VINA RESULT:     -13.5      4.930     10.578
REMARK SMILES C[C@]1(C(=O)OCCOC(=O)c2ccc(-c3c4nc(c(-c5cccc(S(=O)(=O)[O-])c5F)c5ccc([nH]5)c(-c5cccc(S(=O)(=O)[O-])c5F)c5nc(c(-c6cccc(S(=O)(=O)[O-])c6F)c6ccc3[nH]6)C=C5)C=C4)cc2)[NH2+]C2(C(=O)c3ccccc3C2=O)[C@@H]2C(=O)N(c3ccccc3)C(=O)[C@H]21
REMARK SMILES IDX 7 1 6 2 5 3 3 4 4 5 2 6 1 7 74 8 98 9 75 10 86 13 96 14
REMARK SMILES IDX 76 15 84 16 87 17 89 18 97 19 77 20 78 21 83 22 85 23 88 24
REMARK SMILES IDX 79 25 82 26 80 27 81 28 90 29 91 30 95 31 92 32 94 33 93 34
REMARK SMILES IDX 8 35 9 36 10 37 11 38 12 39 73 40 13 41 72 42 14 43 15 44
REMARK SMILES IDX 16 45 66 46 17 47 71 48 65 49 67 50 18 51 70 52 64 53 63 54
REMARK SMILES IDX 19 56 51 57 31 58 50 59 32 60 35 61 49 62 68 63 33 64 34 65
REMARK SMILES IDX 48 67 69 68 36 69 20 70 21 71 29 72 22 73 24 74 30 75 23 76
REMARK SMILES IDX 25 77 26 78 27 79 28 80 52 81 53 82 61 83 54 84 56 85 62 86
REMARK SMILES IDX 55 87 57 88 58 89 59 90 60 91 37 92 38 93 46 94 39 95 41 96
REMARK SMILES IDX 47 97 40 98 42 99 43 100 44 101 45 102
REMARK H PARENT 74 11 74 12 67 55 35 66
REMARK Flexibility Score: inf
ROOT
ATOM      1  C   UNL A   1      32.009  31.958  26.954  1.00  0.00     0.275 C 
ENDROOT
BRANCH   1   2
ATOM      2  C   UNL A   1      31.412  30.592  27.288  1.00  0.00     0.274 C 
BRANCH   2   3
ATOM      3  O   UNL A   1      32.448  29.602  27.431  1.00  0.00    -0.457 OA
BRANCH   3   4
ATOM      4  C   UNL A   1      32.113  28.299  27.212  1.00  0.00     0.368 C 
ATOM      5  O   UNL A   1      31.224  27.719  27.819  1.00  0.00    -0.245 OA
BRANCH   4   6
ATOM      6  C   UNL A   1      33.071  27.605  26.190  1.00  0.00     0.205 C 
ATOM      7  C   UNL A   1      34.470  28.220  26.184  1.00  0.00     0.093 C 
ATOM      8  N   UNL A   1      33.178  26.111  26.425  1.00  0.00    -0.313 N 
ATOM      9  C   UNL A   1      32.461  27.655  24.817  1.00  0.00     0.172 C 
ATOM     10  C   UNL A   1      32.330  25.416  25.382  1.00  0.00     0.237 C 
ATOM     11  H   UNL A   1      32.836  25.881  27.359  1.00  0.00     0.348 HD
ATOM     12  H   UNL A   1      34.149  25.808  26.354  1.00  0.00     0.348 HD
ATOM     13  C   UNL A   1      31.456  26.525  24.899  1.00  0.00     0.177 C 
ATOM     14  C   UNL A   1      31.625  28.756  24.277  1.00  0.00     0.244 C 
ATOM     15  C   UNL A   1      33.227  24.728  24.357  1.00  0.00     0.232 C 
ATOM     16  C   UNL A   1      31.577  24.253  26.028  1.00  0.00     0.232 C 
ATOM     17  C   UNL A   1      30.729  26.732  23.620  1.00  0.00     0.245 C 
ATOM     18  N   UNL A   1      30.672  28.121  23.486  1.00  0.00    -0.250 N 
ATOM     19  O   UNL A   1      31.827  29.940  24.468  1.00  0.00    -0.273 OA
ATOM     20  O   UNL A   1      33.991  25.248  23.568  1.00  0.00    -0.286 OA
ATOM     21  C   UNL A   1      33.098  23.283  24.536  1.00  0.00     0.036 A 
ATOM     22  C   UNL A   1      32.150  23.006  25.511  1.00  0.00     0.036 A 
ATOM     23  O   UNL A   1      30.645  24.293  26.808  1.00  0.00    -0.286 OA
ATOM     24  O   UNL A   1      30.205  25.846  22.968  1.00  0.00    -0.273 OA
ATOM     25  C   UNL A   1      33.800  22.282  23.890  1.00  0.00     0.013 A 
ATOM     26  C   UNL A   1      31.853  21.707  25.878  1.00  0.00     0.013 A 
ATOM     27  C   UNL A   1      33.511  20.963  24.247  1.00  0.00     0.001 A 
ATOM     28  C   UNL A   1      32.546  20.679  25.233  1.00  0.00     0.001 A 
BRANCH  18  29
ATOM     29  C   UNL A   1      29.681  28.841  22.787  1.00  0.00     0.052 A 
ATOM     30  C   UNL A   1      30.038  29.820  21.849  1.00  0.00     0.027 A 
ATOM     31  C   UNL A   1      28.332  28.690  23.128  1.00  0.00     0.027 A 
ATOM     32  C   UNL A   1      29.072  30.643  21.274  1.00  0.00     0.002 A 
ATOM     33  C   UNL A   1      27.370  29.544  22.584  1.00  0.00     0.002 A 
ATOM     34  C   UNL A   1      27.739  30.517  21.656  1.00  0.00     0.000 A 
ENDBRANCH  18  29
ENDBRANCH   4   6
ENDBRANCH   3   4
ENDBRANCH   2   3
ENDBRANCH   1   2
BRANCH   1  35
ATOM     35  O   UNL A   1      33.445  31.902  26.989  1.00  0.00    -0.458 OA
BRANCH  35  36
ATOM     36  C   UNL A   1      34.041  32.869  27.723  1.00  0.00     0.338 C 
ATOM     37  O   UNL A   1      33.616  33.981  27.983  1.00  0.00    -0.246 OA
BRANCH  36  38
ATOM     38  C   UNL A   1      35.267  32.316  28.305  1.00  0.00     0.060 A 
ATOM     39  C   UNL A   1      36.444  33.049  28.367  1.00  0.00     0.016 A 
ATOM     40  C   UNL A   1      35.204  31.041  28.859  1.00  0.00     0.016 A 
ATOM     41  C   UNL A   1      37.568  32.467  28.963  1.00  0.00     0.010 A 
ATOM     42  C   UNL A   1      36.289  30.491  29.517  1.00  0.00     0.010 A 
ATOM     43  C   UNL A   1      37.496  31.184  29.545  1.00  0.00    -0.014 A 
BRANCH  43  44
ATOM     44  C   UNL A   1      38.660  30.550  30.202  1.00  0.00     0.031 A 
ATOM     45  C   UNL A   1      39.064  30.953  31.597  1.00  0.00     0.074 A 
ATOM     46  C   UNL A   1      39.405  29.679  29.499  1.00  0.00     0.049 A 
ATOM     47  N   UNL A   1      40.061  30.513  32.319  1.00  0.00    -0.248 NA
ATOM     48  C   UNL A   1      38.271  32.006  32.260  1.00  0.00     0.031 C 
ATOM     49  C   UNL A   1      39.178  29.314  28.097  1.00  0.00     0.029 A 
ATOM     50  N   UNL A   1      40.511  28.954  29.857  1.00  0.00    -0.354 N 
ATOM     51  C   UNL A   1      40.035  31.249  33.497  1.00  0.00     0.074 A 
ATOM     52  C   UNL A   1      38.946  32.193  33.386  1.00  0.00     0.031 C 
ATOM     53  C   UNL A   1      40.093  28.406  27.727  1.00  0.00     0.029 A 
ATOM     54  C   UNL A   1      40.985  28.146  28.853  1.00  0.00     0.049 A 
ATOM     55  H   UNL A   1      40.925  29.008  30.748  1.00  0.00     0.167 HD
ATOM     56  C   UNL A   1      40.823  31.122  34.589  1.00  0.00     0.034 A 
ATOM     57  C   UNL A   1      42.019  27.284  28.843  1.00  0.00     0.034 A 
ATOM     58  C   UNL A   1      41.861  30.137  34.715  1.00  0.00     0.049 A 
ATOM     59  C   UNL A   1      42.825  27.104  30.095  1.00  0.00     0.074 A 
ATOM     60  C   UNL A   1      42.640  29.849  35.821  1.00  0.00     0.029 A 
ATOM     61  N   UNL A   1      42.261  29.281  33.704  1.00  0.00    -0.354 N 
ATOM     62  N   UNL A   1      42.685  27.700  31.254  1.00  0.00    -0.248 NA
ATOM     63  C   UNL A   1      43.912  26.115  30.050  1.00  0.00     0.031 C 
ATOM     64  C   UNL A   1      43.524  28.824  35.472  1.00  0.00     0.029 A 
ATOM     65  C   UNL A   1      43.283  28.465  34.156  1.00  0.00     0.049 A 
ATOM     66  H   UNL A   1      41.877  29.256  32.797  1.00  0.00     0.167 HD
ATOM     67  C   UNL A   1      43.656  27.154  32.082  1.00  0.00     0.074 A 
ATOM     68  C   UNL A   1      44.363  26.160  31.298  1.00  0.00     0.031 C 
ATOM     69  C   UNL A   1      43.948  27.460  33.369  1.00  0.00     0.034 A 
BRANCH  56  70
ATOM     70  C   UNL A   1      40.545  32.004  35.777  1.00  0.00     0.023 A 
ATOM     71  C   UNL A   1      41.362  33.131  35.999  1.00  0.00     0.012 A 
ATOM     72  C   UNL A   1      39.420  31.791  36.597  1.00  0.00     0.148 A 
ATOM     73  C   UNL A   1      41.070  34.029  37.025  1.00  0.00     0.002 A 
ATOM     74  C   UNL A   1      39.117  32.707  37.598  1.00  0.00     0.091 A 
ATOM     75  F   UNL A   1      38.664  30.708  36.372  1.00  0.00    -0.205 F 
ATOM     76  C   UNL A   1      39.943  33.823  37.815  1.00  0.00     0.022 A 
BRANCH  74  77
ATOM     77  S   UNL A   1      37.658  32.574  38.637  1.00  0.00     0.127 S 
ATOM     78  O   UNL A   1      37.959  33.536  39.697  1.00  0.00    -0.237 OA
ATOM     79  O   UNL A   1      36.594  32.988  37.723  1.00  0.00    -0.237 OA
ATOM     80  O   UNL A   1      37.591  31.185  39.069  1.00  0.00    -0.744 OA
ENDBRANCH  74  77
ENDBRANCH  56  70
BRANCH  57  81
ATOM     81  C   UNL A   1      42.273  26.475  27.623  1.00  0.00     0.023 A 
ATOM     82  C   UNL A   1      42.998  27.047  26.560  1.00  0.00     0.012 A 
ATOM     83  C   UNL A   1      41.889  25.123  27.552  1.00  0.00     0.148 A 
ATOM     84  C   UNL A   1      43.331  26.285  25.440  1.00  0.00     0.002 A 
ATOM     85  C   UNL A   1      42.257  24.359  26.451  1.00  0.00     0.091 A 
ATOM     86  F   UNL A   1      41.205  24.605  28.581  1.00  0.00    -0.205 F 
ATOM     87  C   UNL A   1      42.970  24.941  25.391  1.00  0.00     0.022 A 
BRANCH  85  88
ATOM     88  S   UNL A   1      41.930  22.597  26.340  1.00  0.00     0.127 S 
ATOM     89  O   UNL A   1      42.568  22.098  27.556  1.00  0.00    -0.237 OA
ATOM     90  O   UNL A   1      40.467  22.565  26.355  1.00  0.00    -0.237 OA
ATOM     91  O   UNL A   1      42.534  22.157  25.091  1.00  0.00    -0.744 OA
ENDBRANCH  85  88
ENDBRANCH  57  81
BRANCH  69  92
ATOM     92  C   UNL A   1      45.082  26.722  34.021  1.00  0.00     0.023 A 
ATOM     93  C   UNL A   1      46.387  27.241  33.925  1.00  0.00     0.012 A 
ATOM     94  C   UNL A   1      44.839  25.585  34.815  1.00  0.00     0.148 A 
ATOM     95  C   UNL A   1      47.441  26.627  34.598  1.00  0.00     0.002 A 
ATOM     96  C   UNL A   1      45.889  24.999  35.511  1.00  0.00     0.091 A 
ATOM     97  F   UNL A   1      43.588  25.110  34.883  1.00  0.00    -0.205 F 
ATOM     98  C   UNL A   1      47.190  25.515  35.399  1.00  0.00     0.022 A 
BRANCH  96  99
ATOM     99  S   UNL A   1      45.654  23.606  36.621  1.00  0.00     0.127 S 
ATOM    100  O   UNL A   1      47.034  23.252  36.948  1.00  0.00    -0.237 OA
ATOM    101  O   UNL A   1      44.902  24.212  37.721  1.00  0.00    -0.237 OA
ATOM    102  O   UNL A   1      44.919  22.603  35.863  1.00  0.00    -0.744 OA
ENDBRANCH  96  99
ENDBRANCH  69  92
ENDBRANCH  43  44
ENDBRANCH  36  38
ENDBRANCH  35  36
ENDBRANCH   1  35
TORSDOF 15
ENDMDL
MODEL 3
REMARK VINA RESULT:     -13.3      5.301      9.091
REMARK SMILES C[C@]1(C(=O)OCCOC(=O)c2ccc(-c3c4nc(c(-c5cccc(S(=O)(=O)[O-])c5F)c5ccc([nH]5)c(-c5cccc(S(=O)(=O)[O-])c5F)c5nc(c(-c6cccc(S(=O)(=O)[O-])c6F)c6ccc3[nH]6)C=C5)C=C4)cc2)[NH2+]C2(C(=O)c3ccccc3C2=O)[C@@H]2C(=O)N(c3ccccc3)C(=O)[C@H]21
REMARK SMILES IDX 7 1 6 2 5 3 3 4 4 5 2 6 1 7 74 8 98 9 75 10 86 13 96 14
REMARK SMILES IDX 76 15 84 16 87 17 89 18 97 19 77 20 78 21 83 22 85 23 88 24
REMARK SMILES IDX 79 25 82 26 80 27 81 28 90 29 91 30 95 31 92 32 94 33 93 34
REMARK SMILES IDX 8 35 9 36 10 37 11 38 12 39 73 40 13 41 72 42 14 43 15 44
REMARK SMILES IDX 16 45 66 46 17 47 71 48 65 49 67 50 18 51 70 52 64 53 63 54
REMARK SMILES IDX 19 56 51 57 31 58 50 59 32 60 35 61 49 62 68 63 33 64 34 65
REMARK SMILES IDX 48 67 69 68 36 69 20 70 21 71 29 72 22 73 24 74 30 75 23 76
REMARK SMILES IDX 25 77 26 78 27 79 28 80 52 81 53 82 61 83 54 84 56 85 62 86
REMARK SMILES IDX 55 87 57 88 58 89 59 90 60 91 37 92 38 93 46 94 39 95 41 96
REMARK SMILES IDX 47 97 40 98 42 99 43 100 44 101 45 102
REMARK H PARENT 74 11 74 12 67 55 35 66
REMARK Flexibility Score: inf
ROOT
ATOM      1  C   UNL A   1      32.978  32.012  27.196  1.00  0.00     0.275 C 
ENDROOT
BRANCH   1   2
ATOM      2  C   UNL A   1      32.025  30.819  27.252  1.00  0.00     0.274 C 
BRANCH   2   3
ATOM      3  O   UNL A   1      32.730  29.617  27.616  1.00  0.00    -0.457 OA
BRANCH   3   4
ATOM      4  C   UNL A   1      32.212  28.428  27.199  1.00  0.00     0.368 C 
ATOM      5  O   UNL A   1      31.196  27.933  27.666  1.00  0.00    -0.245 OA
BRANCH   4   6
ATOM      6  C   UNL A   1      33.127  27.719  26.149  1.00  0.00     0.205 C 
ATOM      7  C   UNL A   1      34.529  28.325  26.085  1.00  0.00     0.093 C 
ATOM      8  N   UNL A   1      33.234  26.226  26.394  1.00  0.00    -0.313 N 
ATOM      9  C   UNL A   1      32.467  27.760  24.799  1.00  0.00     0.172 C 
ATOM     10  C   UNL A   1      32.344  25.528  25.389  1.00  0.00     0.237 C 
ATOM     11  H   UNL A   1      32.926  26.007  27.341  1.00  0.00     0.348 HD
ATOM     12  H   UNL A   1      34.200  25.917  26.290  1.00  0.00     0.348 HD
ATOM     13  C   UNL A   1      31.459  26.638  24.928  1.00  0.00     0.177 C 
ATOM     14  C   UNL A   1      31.618  28.862  24.281  1.00  0.00     0.244 C 
ATOM     15  C   UNL A   1      33.199  24.824  24.337  1.00  0.00     0.232 C 
ATOM     16  C   UNL A   1      31.608  24.375  26.073  1.00  0.00     0.232 C 
ATOM     17  C   UNL A   1      30.686  26.838  23.675  1.00  0.00     0.245 C 
ATOM     18  N   UNL A   1      30.633  28.226  23.531  1.00  0.00    -0.250 N 
ATOM     19  O   UNL A   1      31.834  30.047  24.453  1.00  0.00    -0.273 OA
ATOM     20  O   UNL A   1      33.936  25.333  23.516  1.00  0.00    -0.286 OA
ATOM     21  C   UNL A   1      33.068  23.383  24.534  1.00  0.00     0.036 A 
ATOM     22  C   UNL A   1      32.155  23.120  25.546  1.00  0.00     0.036 A 
ATOM     23  O   UNL A   1      30.707  24.428  26.886  1.00  0.00    -0.286 OA
ATOM     24  O   UNL A   1      30.134  25.949  23.051  1.00  0.00    -0.273 OA
ATOM     25  C   UNL A   1      33.739  22.371  23.872  1.00  0.00     0.013 A 
ATOM     26  C   UNL A   1      31.864  21.827  25.936  1.00  0.00     0.013 A 
ATOM     27  C   UNL A   1      33.456  21.058  24.251  1.00  0.00     0.001 A 
ATOM     28  C   UNL A   1      32.527  20.788  25.275  1.00  0.00     0.001 A 
BRANCH  18  29
ATOM     29  C   UNL A   1      29.621  28.946  22.862  1.00  0.00     0.052 A 
ATOM     30  C   UNL A   1      29.949  29.901  21.889  1.00  0.00     0.027 A 
ATOM     31  C   UNL A   1      28.287  28.821  23.267  1.00  0.00     0.027 A 
ATOM     32  C   UNL A   1      28.968  30.726  21.341  1.00  0.00     0.002 A 
ATOM     33  C   UNL A   1      27.313  29.678  22.749  1.00  0.00     0.002 A 
ATOM     34  C   UNL A   1      27.653  30.627  21.785  1.00  0.00     0.000 A 
ENDBRANCH  18  29
ENDBRANCH   4   6
ENDBRANCH   3   4
ENDBRANCH   2   3
ENDBRANCH   1   2
BRANCH   1  35
ATOM     35  O   UNL A   1      32.292  33.223  27.552  1.00  0.00    -0.458 OA
BRANCH  35  36
ATOM     36  C   UNL A   1      33.049  34.150  28.180  1.00  0.00     0.338 C 
ATOM     37  O   UNL A   1      32.787  35.324  28.377  1.00  0.00    -0.246 OA
BRANCH  36  38
ATOM     38  C   UNL A   1      34.226  33.480  28.742  1.00  0.00     0.060 A 
ATOM     39  C   UNL A   1      35.496  33.664  28.212  1.00  0.00     0.016 A 
ATOM     40  C   UNL A   1      34.044  32.693  29.874  1.00  0.00     0.016 A 
ATOM     41  C   UNL A   1      36.577  33.014  28.818  1.00  0.00     0.010 A 
ATOM     42  C   UNL A   1      35.118  32.111  30.523  1.00  0.00     0.010 A 
ATOM     43  C   UNL A   1      36.394  32.235  29.979  1.00  0.00    -0.014 A 
BRANCH  43  44
ATOM     44  C   UNL A   1      37.520  31.555  30.656  1.00  0.00     0.031 A 
ATOM     45  C   UNL A   1      38.314  30.494  29.940  1.00  0.00     0.074 A 
ATOM     46  C   UNL A   1      37.759  31.832  31.951  1.00  0.00     0.049 A 
ATOM     47  N   UNL A   1      39.322  29.787  30.383  1.00  0.00    -0.248 NA
ATOM     48  C   UNL A   1      37.914  30.155  28.561  1.00  0.00     0.031 C 
ATOM     49  C   UNL A   1      36.970  32.749  32.777  1.00  0.00     0.029 A 
ATOM     50  N   UNL A   1      38.723  31.362  32.802  1.00  0.00    -0.354 N 
ATOM     51  C   UNL A   1      39.652  28.908  29.359  1.00  0.00     0.074 A 
ATOM     52  C   UNL A   1      38.719  29.138  28.281  1.00  0.00     0.031 C 
ATOM     53  C   UNL A   1      37.504  32.803  34.006  1.00  0.00     0.029 A 
ATOM     54  C   UNL A   1      38.654  31.906  34.061  1.00  0.00     0.049 A 
ATOM     55  H   UNL A   1      39.401  30.699  32.538  1.00  0.00     0.167 HD
ATOM     56  C   UNL A   1      40.668  28.015  29.309  1.00  0.00     0.034 A 
ATOM     57  C   UNL A   1      39.436  31.711  35.140  1.00  0.00     0.034 A 
ATOM     58  C   UNL A   1      41.630  27.840  30.360  1.00  0.00     0.049 A 
ATOM     59  C   UNL A   1      40.605  30.777  35.029  1.00  0.00     0.074 A 
ATOM     60  C   UNL A   1      42.763  27.046  30.362  1.00  0.00     0.029 A 
ATOM     61  N   UNL A   1      41.574  28.467  31.593  1.00  0.00    -0.354 N 
ATOM     62  N   UNL A   1      40.993  30.069  33.997  1.00  0.00    -0.248 NA
ATOM     63  C   UNL A   1      41.458  30.635  36.217  1.00  0.00     0.031 C 
ATOM     64  C   UNL A   1      43.386  27.185  31.606  1.00  0.00     0.029 A 
ATOM     65  C   UNL A   1      42.649  28.075  32.370  1.00  0.00     0.049 A 
ATOM     66  H   UNL A   1      40.873  29.098  31.876  1.00  0.00     0.167 HD
ATOM     67  C   UNL A   1      42.143  29.404  34.403  1.00  0.00     0.074 A 
ATOM     68  C   UNL A   1      42.401  29.815  35.770  1.00  0.00     0.031 C 
ATOM     69  C   UNL A   1      42.904  28.521  33.714  1.00  0.00     0.034 A 
BRANCH  56  70
ATOM     70  C   UNL A   1      40.857  27.220  28.045  1.00  0.00     0.023 A 
ATOM     71  C   UNL A   1      41.483  27.830  26.939  1.00  0.00     0.012 A 
ATOM     72  C   UNL A   1      40.527  25.851  27.988  1.00  0.00     0.148 A 
ATOM     73  C   UNL A   1      41.771  27.093  25.791  1.00  0.00     0.002 A 
ATOM     74  C   UNL A   1      40.846  25.116  26.851  1.00  0.00     0.091 A 
ATOM     75  F   UNL A   1      39.925  25.296  29.048  1.00  0.00    -0.205 F 
ATOM     76  C   UNL A   1      41.463  25.737  25.752  1.00  0.00     0.022 A 
BRANCH  74  77
ATOM     77  S   UNL A   1      40.550  23.349  26.715  1.00  0.00     0.127 S 
ATOM     78  O   UNL A   1      39.162  23.316  26.256  1.00  0.00    -0.237 OA
ATOM     79  O   UNL A   1      41.534  22.952  25.709  1.00  0.00    -0.237 OA
ATOM     80  O   UNL A   1      40.773  22.796  28.044  1.00  0.00    -0.744 OA
ENDBRANCH  74  77
ENDBRANCH  56  70
BRANCH  57  81
ATOM     81  C   UNL A   1      39.170  32.492  36.376  1.00  0.00     0.023 A 
ATOM     82  C   UNL A   1      39.721  33.781  36.503  1.00  0.00     0.012 A 
ATOM     83  C   UNL A   1      38.303  32.006  37.373  1.00  0.00     0.148 A 
ATOM     84  C   UNL A   1      39.416  34.575  37.609  1.00  0.00     0.002 A 
ATOM     85  C   UNL A   1      37.973  32.817  38.452  1.00  0.00     0.091 A 
ATOM     86  F   UNL A   1      37.790  30.778  37.221  1.00  0.00    -0.205 F 
ATOM     87  C   UNL A   1      38.536  34.097  38.577  1.00  0.00     0.022 A 
BRANCH  85  88
ATOM     88  S   UNL A   1      36.772  32.333  39.696  1.00  0.00     0.127 S 
ATOM     89  O   UNL A   1      36.893  33.420  40.666  1.00  0.00    -0.237 OA
ATOM     90  O   UNL A   1      35.528  32.334  38.925  1.00  0.00    -0.237 OA
ATOM     91  O   UNL A   1      37.192  31.023  40.170  1.00  0.00    -0.744 OA
ENDBRANCH  85  88
ENDBRANCH  57  81
BRANCH  69  92
ATOM     92  C   UNL A   1      44.091  27.927  34.417  1.00  0.00     0.023 A 
ATOM     93  C   UNL A   1      45.311  28.630  34.423  1.00  0.00     0.012 A 
ATOM     94  C   UNL A   1      43.969  26.735  35.155  1.00  0.00     0.148 A 
ATOM     95  C   UNL A   1      46.400  28.146  35.144  1.00  0.00     0.002 A 
ATOM     96  C   UNL A   1      45.048  26.277  35.901  1.00  0.00     0.091 A 
ATOM     97  F   UNL A   1      42.797  26.083  35.126  1.00  0.00    -0.205 F 
ATOM     98  C   UNL A   1      46.265  26.978  35.891  1.00  0.00     0.022 A 
BRANCH  96  99
ATOM     99  S   UNL A   1      44.951  24.821  36.948  1.00  0.00     0.127 S 
ATOM    100  O   UNL A   1      43.906  25.205  37.895  1.00  0.00    -0.237 OA
ATOM    101  O   UNL A   1      44.559  23.781  35.995  1.00  0.00    -0.237 OA
ATOM    102  O   UNL A   1      46.277  24.647  37.524  1.00  0.00    -0.744 OA
ENDBRANCH  96  99
ENDBRANCH  69  92
ENDBRANCH  43  44
ENDBRANCH  36  38
ENDBRANCH  35  36
ENDBRANCH   1  35
TORSDOF 15
ENDMDL
