MODEL 1
REMARK VINA RESULT:     -10.4      0.000      0.000
REMARK SMILES C#CCN(CC(=O)OCCOC(=O)c1ccc(-c2c3nc(c(-c4cccc(S(=O)(=O)[O-])c4F)c4ccc([nH]4)c(-c4cccc(S(=O)(=O)[O-])c4F)c4nc(c(-c5cccc(S(=O)(=O)[O-])c5F)c5ccc2[nH]5)C=C4)C=C3)cc1)C(=O)N[C@@H]1CCOC1
REMARK SMILES IDX 9 1 8 2 6 3 7 4 5 5 4 6 3 7 2 8 1 9 77 10 78 11 79 12 80 14
REMARK SMILES IDX 81 15 84 16 82 17 83 18 10 19 11 20 12 21 13 22 14 23 15 24
REMARK SMILES IDX 76 25 16 26 75 27 17 28 18 29 19 30 69 31 20 32 74 33 68 34
REMARK SMILES IDX 70 35 21 36 73 37 67 38 66 39 22 41 54 42 34 43 53 44 35 45
REMARK SMILES IDX 38 46 52 47 71 48 36 49 37 50 51 52 72 53 39 54 23 55 24 56
REMARK SMILES IDX 32 57 25 58 27 59 33 60 26 61 28 62 29 63 30 64 31 65 55 66
REMARK SMILES IDX 56 67 64 68 57 69 59 70 65 71 58 72 60 73 61 74 62 75 63 76
REMARK SMILES IDX 40 77 41 78 49 79 42 80 44 81 50 82 43 83 45 84 46 85 47 86
REMARK SMILES IDX 48 87
REMARK H PARENT 79 13 70 40 38 51
REMARK Flexibility Score: inf
ROOT
ATOM      1  C   UNL A   1      35.404  21.513  26.163  1.00  0.00     0.274 C 
ENDROOT
BRANCH   1   2
ATOM      2  O   UNL A   1      35.473  22.925  25.862  1.00  0.00    -0.461 OA
BRANCH   2   3
ATOM      3  C   UNL A   1      34.345  23.623  26.148  1.00  0.00     0.325 C 
ATOM      4  O   UNL A   1      34.155  24.794  25.832  1.00  0.00    -0.250 OA
BRANCH   3   5
ATOM      5  C   UNL A   1      33.246  22.808  26.829  1.00  0.00     0.245 C 
BRANCH   5   6
ATOM      6  N   UNL A   1      31.897  22.711  26.255  1.00  0.00    -0.303 N 
BRANCH   6   7
ATOM      7  C   UNL A   1      31.763  22.047  24.992  1.00  0.00     0.211 C 
BRANCH   7   8
ATOM      8  C   UNL A   1      32.214  20.595  25.011  1.00  0.00    -0.085 C 
ATOM      9  C   UNL A   1      32.602  19.350  25.028  1.00  0.00     0.006 C 
ENDBRANCH   7   8
ENDBRANCH   6   7
BRANCH   6  10
ATOM     10  C   UNL A   1      30.769  23.335  26.691  1.00  0.00     0.319 C 
ATOM     11  O   UNL A   1      30.114  22.918  27.649  1.00  0.00    -0.249 OA
ATOM     12  N   UNL A   1      30.399  24.515  26.176  1.00  0.00    -0.333 N 
ATOM     13  H   UNL A   1      29.551  24.858  26.538  1.00  0.00     0.165 HD
BRANCH  12  14
ATOM     14  C   UNL A   1      31.002  25.383  25.190  1.00  0.00     0.112 C 
ATOM     15  C   UNL A   1      30.923  26.884  25.433  1.00  0.00     0.056 C 
ATOM     16  C   UNL A   1      30.376  25.196  23.820  1.00  0.00     0.185 C 
ATOM     17  C   UNL A   1      30.323  27.474  24.182  1.00  0.00     0.162 C 
ATOM     18  O   UNL A   1      30.370  26.467  23.180  1.00  0.00    -0.379 OA
ENDBRANCH  12  14
ENDBRANCH   6  10
ENDBRANCH   5   6
ENDBRANCH   3   5
ENDBRANCH   2   3
ENDBRANCH   1   2
BRANCH   1  19
ATOM     19  C   UNL A   1      36.186  20.709  25.123  1.00  0.00     0.275 C 
BRANCH  19  20
ATOM     20  O   UNL A   1      37.402  21.399  24.781  1.00  0.00    -0.458 OA
BRANCH  20  21
ATOM     21  C   UNL A   1      38.463  21.107  25.575  1.00  0.00     0.338 C 
ATOM     22  O   UNL A   1      38.991  20.013  25.686  1.00  0.00    -0.246 OA
BRANCH  21  23
ATOM     23  C   UNL A   1      38.989  22.322  26.254  1.00  0.00     0.060 A 
ATOM     24  C   UNL A   1      38.543  23.603  25.925  1.00  0.00     0.016 A 
ATOM     25  C   UNL A   1      40.076  22.179  27.123  1.00  0.00     0.016 A 
ATOM     26  C   UNL A   1      39.285  24.719  26.331  1.00  0.00     0.010 A 
ATOM     27  C   UNL A   1      40.736  23.307  27.627  1.00  0.00     0.010 A 
ATOM     28  C   UNL A   1      40.387  24.596  27.200  1.00  0.00    -0.014 A 
BRANCH  28  29
ATOM     29  C   UNL A   1      41.129  25.798  27.697  1.00  0.00     0.031 A 
ATOM     30  C   UNL A   1      40.450  26.902  28.486  1.00  0.00     0.074 A 
ATOM     31  C   UNL A   1      42.438  25.930  27.397  1.00  0.00     0.049 A 
ATOM     32  N   UNL A   1      40.939  28.051  28.890  1.00  0.00    -0.248 NA
ATOM     33  C   UNL A   1      39.051  26.693  28.883  1.00  0.00     0.031 C 
ATOM     34  C   UNL A   1      43.232  24.964  26.635  1.00  0.00     0.029 A 
ATOM     35  N   UNL A   1      43.326  26.946  27.662  1.00  0.00    -0.354 N 
ATOM     36  C   UNL A   1      39.910  28.693  29.579  1.00  0.00     0.074 A 
ATOM     37  C   UNL A   1      38.771  27.804  29.550  1.00  0.00     0.031 C 
ATOM     38  C   UNL A   1      44.480  25.425  26.498  1.00  0.00     0.029 A 
ATOM     39  C   UNL A   1      44.551  26.765  27.062  1.00  0.00     0.049 A 
ATOM     40  H   UNL A   1      43.108  27.724  28.225  1.00  0.00     0.167 HD
ATOM     41  C   UNL A   1      39.906  29.908  30.180  1.00  0.00     0.034 A 
ATOM     42  C   UNL A   1      45.596  27.600  26.901  1.00  0.00     0.034 A 
ATOM     43  C   UNL A   1      41.022  30.816  30.188  1.00  0.00     0.049 A 
ATOM     44  C   UNL A   1      45.531  28.981  27.474  1.00  0.00     0.074 A 
ATOM     45  C   UNL A   1      41.110  32.066  30.778  1.00  0.00     0.029 A 
ATOM     46  N   UNL A   1      42.232  30.590  29.554  1.00  0.00    -0.354 N 
ATOM     47  N   UNL A   1      44.578  29.534  28.183  1.00  0.00    -0.248 NA
ATOM     48  C   UNL A   1      46.688  29.853  27.231  1.00  0.00     0.031 C 
ATOM     49  C   UNL A   1      42.362  32.611  30.469  1.00  0.00     0.029 A 
ATOM     50  C   UNL A   1      43.063  31.688  29.711  1.00  0.00     0.049 A 
ATOM     51  H   UNL A   1      42.467  29.769  29.063  1.00  0.00     0.167 HD
ATOM     52  C   UNL A   1      45.022  30.816  28.478  1.00  0.00     0.074 A 
ATOM     53  C   UNL A   1      46.344  30.945  27.899  1.00  0.00     0.031 C 
ATOM     54  C   UNL A   1      44.381  31.804  29.149  1.00  0.00     0.034 A 
BRANCH  41  55
ATOM     55  C   UNL A   1      38.653  30.345  30.898  1.00  0.00     0.023 A 
ATOM     56  C   UNL A   1      38.534  30.122  32.284  1.00  0.00     0.012 A 
ATOM     57  C   UNL A   1      37.649  31.073  30.226  1.00  0.00     0.148 A 
ATOM     58  C   UNL A   1      37.434  30.613  32.990  1.00  0.00     0.002 A 
ATOM     59  C   UNL A   1      36.573  31.586  30.943  1.00  0.00     0.091 A 
ATOM     60  F   UNL A   1      37.768  31.252  28.903  1.00  0.00    -0.205 F 
ATOM     61  C   UNL A   1      36.462  31.355  32.323  1.00  0.00     0.022 A 
BRANCH  59  62
ATOM     62  S   UNL A   1      35.308  32.612  30.183  1.00  0.00     0.127 S 
ATOM     63  O   UNL A   1      36.087  33.772  29.751  1.00  0.00    -0.237 OA
ATOM     64  O   UNL A   1      34.829  31.761  29.093  1.00  0.00    -0.237 OA
ATOM     65  O   UNL A   1      34.323  32.871  31.226  1.00  0.00    -0.744 OA
ENDBRANCH  59  62
ENDBRANCH  41  55
BRANCH  42  66
ATOM     66  C   UNL A   1      46.775  27.131  26.121  1.00  0.00     0.023 A 
ATOM     67  C   UNL A   1      46.889  27.462  24.760  1.00  0.00     0.012 A 
ATOM     68  C   UNL A   1      47.835  26.453  26.757  1.00  0.00     0.148 A 
ATOM     69  C   UNL A   1      48.041  27.128  24.046  1.00  0.00     0.002 A 
ATOM     70  C   UNL A   1      49.010  26.197  26.063  1.00  0.00     0.091 A 
ATOM     71  F   UNL A   1      47.693  26.113  28.048  1.00  0.00    -0.205 F 
ATOM     72  C   UNL A   1      49.109  26.519  24.702  1.00  0.00     0.022 A 
BRANCH  70  73
ATOM     73  S   UNL A   1      50.487  25.609  26.901  1.00  0.00     0.127 S 
ATOM     74  O   UNL A   1      51.430  25.482  25.794  1.00  0.00    -0.237 OA
ATOM     75  O   UNL A   1      50.770  26.704  27.831  1.00  0.00    -0.237 OA
ATOM     76  O   UNL A   1      50.089  24.369  27.552  1.00  0.00    -0.744 OA
ENDBRANCH  70  73
ENDBRANCH  42  66
BRANCH  54  77
ATOM     77  C   UNL A   1      45.106  33.115  29.290  1.00  0.00     0.023 A 
ATOM     78  C   UNL A   1      45.934  33.331  30.408  1.00  0.00     0.012 A 
ATOM     79  C   UNL A   1      44.985  34.121  28.312  1.00  0.00     0.148 A 
ATOM     80  C   UNL A   1      46.600  34.545  30.573  1.00  0.00     0.002 A 
ATOM     81  C   UNL A   1      45.684  35.312  28.462  1.00  0.00     0.091 A 
ATOM     82  F   UNL A   1      44.174  33.905  27.266  1.00  0.00    -0.205 F 
ATOM     83  C   UNL A   1      46.482  35.531  29.597  1.00  0.00     0.022 A 
BRANCH  81  84
ATOM     84  S   UNL A   1      45.644  36.604  27.215  1.00  0.00     0.127 S 
ATOM     85  O   UNL A   1      46.523  37.613  27.803  1.00  0.00    -0.237 OA
ATOM     86  O   UNL A   1      46.194  35.926  26.041  1.00  0.00    -0.237 OA
ATOM     87  O   UNL A   1      44.244  36.986  27.085  1.00  0.00    -0.744 OA
ENDBRANCH  81  84
ENDBRANCH  54  77
ENDBRANCH  28  29
ENDBRANCH  21  23
ENDBRANCH  20  21
ENDBRANCH  19  20
ENDBRANCH   1  19
TORSDOF 19
ENDMDL
MODEL 2
REMARK VINA RESULT:     -10.0      5.128     10.117
REMARK SMILES C#CCN(CC(=O)OCCOC(=O)c1ccc(-c2c3nc(c(-c4cccc(S(=O)(=O)[O-])c4F)c4ccc([nH]4)c(-c4cccc(S(=O)(=O)[O-])c4F)c4nc(c(-c5cccc(S(=O)(=O)[O-])c5F)c5ccc2[nH]5)C=C4)C=C3)cc1)C(=O)N[C@@H]1CCOC1
REMARK SMILES IDX 9 1 8 2 6 3 7 4 5 5 4 6 3 7 2 8 1 9 77 10 78 11 79 12 80 14
REMARK SMILES IDX 81 15 84 16 82 17 83 18 10 19 11 20 12 21 13 22 14 23 15 24
REMARK SMILES IDX 76 25 16 26 75 27 17 28 18 29 19 30 69 31 20 32 74 33 68 34
REMARK SMILES IDX 70 35 21 36 73 37 67 38 66 39 22 41 54 42 34 43 53 44 35 45
REMARK SMILES IDX 38 46 52 47 71 48 36 49 37 50 51 52 72 53 39 54 23 55 24 56
REMARK SMILES IDX 32 57 25 58 27 59 33 60 26 61 28 62 29 63 30 64 31 65 55 66
REMARK SMILES IDX 56 67 64 68 57 69 59 70 65 71 58 72 60 73 61 74 62 75 63 76
REMARK SMILES IDX 40 77 41 78 49 79 42 80 44 81 50 82 43 83 45 84 46 85 47 86
REMARK SMILES IDX 48 87
REMARK H PARENT 79 13 70 40 38 51
REMARK Flexibility Score: inf
ROOT
ATOM      1  C   UNL A   1      31.715  30.106  25.555  1.00  0.00     0.274 C 
ENDROOT
BRANCH   1   2
ATOM      2  O   UNL A   1      33.033  29.645  25.182  1.00  0.00    -0.461 OA
BRANCH   2   3
ATOM      3  C   UNL A   1      33.058  28.780  24.136  1.00  0.00     0.325 C 
ATOM      4  O   UNL A   1      34.066  28.494  23.495  1.00  0.00    -0.250 OA
BRANCH   3   5
ATOM      5  C   UNL A   1      31.727  28.085  23.851  1.00  0.00     0.245 C 
BRANCH   5   6
ATOM      6  N   UNL A   1      31.508  26.676  24.202  1.00  0.00    -0.303 N 
BRANCH   6   7
ATOM      7  C   UNL A   1      30.948  25.823  23.193  1.00  0.00     0.211 C 
BRANCH   7   8
ATOM      8  C   UNL A   1      31.788  25.737  21.929  1.00  0.00    -0.085 C 
ATOM      9  C   UNL A   1      32.508  25.662  20.845  1.00  0.00     0.006 C 
ENDBRANCH   7   8
ENDBRANCH   6   7
BRANCH   6  10
ATOM     10  C   UNL A   1      31.603  26.109  25.435  1.00  0.00     0.319 C 
ATOM     11  O   UNL A   1      30.776  26.325  26.324  1.00  0.00    -0.249 OA
ATOM     12  N   UNL A   1      32.533  25.179  25.690  1.00  0.00    -0.333 N 
ATOM     13  H   UNL A   1      32.534  24.864  26.622  1.00  0.00     0.165 HD
BRANCH  12  14
ATOM     14  C   UNL A   1      33.537  24.548  24.862  1.00  0.00     0.112 C 
ATOM     15  C   UNL A   1      33.398  23.054  24.607  1.00  0.00     0.056 C 
ATOM     16  C   UNL A   1      34.926  24.697  25.455  1.00  0.00     0.185 C 
ATOM     17  C   UNL A   1      34.720  22.444  25.002  1.00  0.00     0.162 C 
ATOM     18  O   UNL A   1      35.649  23.511  25.143  1.00  0.00    -0.379 OA
ENDBRANCH  12  14
ENDBRANCH   6  10
ENDBRANCH   5   6
ENDBRANCH   3   5
ENDBRANCH   2   3
ENDBRANCH   1   2
BRANCH   1  19
ATOM     19  C   UNL A   1      31.818  31.273  26.537  1.00  0.00     0.275 C 
BRANCH  19  20
ATOM     20  O   UNL A   1      32.827  30.997  27.525  1.00  0.00    -0.458 OA
BRANCH  20  21
ATOM     21  C   UNL A   1      33.739  31.987  27.697  1.00  0.00     0.338 C 
ATOM     22  O   UNL A   1      33.509  33.184  27.656  1.00  0.00    -0.246 OA
BRANCH  21  23
ATOM     23  C   UNL A   1      35.080  31.442  28.040  1.00  0.00     0.060 A 
ATOM     24  C   UNL A   1      35.275  30.092  28.335  1.00  0.00     0.016 A 
ATOM     25  C   UNL A   1      36.135  32.341  28.231  1.00  0.00     0.016 A 
ATOM     26  C   UNL A   1      36.455  29.685  28.971  1.00  0.00     0.010 A 
ATOM     27  C   UNL A   1      37.359  31.902  28.751  1.00  0.00     0.010 A 
ATOM     28  C   UNL A   1      37.525  30.578  29.179  1.00  0.00    -0.014 A 
BRANCH  28  29
ATOM     29  C   UNL A   1      38.817  30.122  29.785  1.00  0.00     0.031 A 
ATOM     30  C   UNL A   1      39.670  29.035  29.157  1.00  0.00     0.074 A 
ATOM     31  C   UNL A   1      39.218  30.662  30.955  1.00  0.00     0.049 A 
ATOM     32  N   UNL A   1      40.756  28.463  29.621  1.00  0.00    -0.248 NA
ATOM     33  C   UNL A   1      39.264  28.530  27.838  1.00  0.00     0.031 C 
ATOM     34  C   UNL A   1      38.504  31.706  31.693  1.00  0.00     0.029 A 
ATOM     35  N   UNL A   1      40.304  30.384  31.751  1.00  0.00    -0.354 N 
ATOM     36  C   UNL A   1      41.153  27.538  28.657  1.00  0.00     0.074 A 
ATOM     37  C   UNL A   1      40.200  27.627  27.574  1.00  0.00     0.031 C 
ATOM     38  C   UNL A   1      39.165  31.983  32.821  1.00  0.00     0.029 A 
ATOM     39  C   UNL A   1      40.288  31.064  32.947  1.00  0.00     0.049 A 
ATOM     40  H   UNL A   1      41.022  29.762  31.491  1.00  0.00     0.167 HD
ATOM     41  C   UNL A   1      42.209  26.688  28.666  1.00  0.00     0.034 A 
ATOM     42  C   UNL A   1      41.030  30.924  34.062  1.00  0.00     0.034 A 
ATOM     43  C   UNL A   1      43.146  26.564  29.751  1.00  0.00     0.049 A 
ATOM     44  C   UNL A   1      42.122  29.900  34.097  1.00  0.00     0.074 A 
ATOM     45  C   UNL A   1      44.250  25.733  29.844  1.00  0.00     0.029 A 
ATOM     46  N   UNL A   1      43.075  27.265  30.943  1.00  0.00    -0.354 N 
ATOM     47  N   UNL A   1      42.523  29.093  33.147  1.00  0.00    -0.248 NA
ATOM     48  C   UNL A   1      42.869  29.773  35.355  1.00  0.00     0.031 C 
ATOM     49  C   UNL A   1      44.825  25.907  31.108  1.00  0.00     0.029 A 
ATOM     50  C   UNL A   1      44.095  26.866  31.790  1.00  0.00     0.049 A 
ATOM     51  H   UNL A   1      42.397  27.947  31.157  1.00  0.00     0.167 HD
ATOM     52  C   UNL A   1      43.573  28.364  33.688  1.00  0.00     0.074 A 
ATOM     53  C   UNL A   1      43.768  28.852  35.039  1.00  0.00     0.031 C 
ATOM     54  C   UNL A   1      44.296  27.366  33.124  1.00  0.00     0.034 A 
BRANCH  41  55
ATOM     55  C   UNL A   1      42.429  25.811  27.458  1.00  0.00     0.023 A 
ATOM     56  C   UNL A   1      43.184  26.301  26.374  1.00  0.00     0.012 A 
ATOM     57  C   UNL A   1      41.990  24.471  27.444  1.00  0.00     0.148 A 
ATOM     58  C   UNL A   1      43.494  25.474  25.293  1.00  0.00     0.002 A 
ATOM     59  C   UNL A   1      42.330  23.645  26.378  1.00  0.00     0.091 A 
ATOM     60  F   UNL A   1      41.252  24.031  28.473  1.00  0.00    -0.205 F 
ATOM     61  C   UNL A   1      43.079  24.144  25.301  1.00  0.00     0.022 A 
BRANCH  59  62
ATOM     62  S   UNL A   1      41.901  21.899  26.334  1.00  0.00     0.127 S 
ATOM     63  O   UNL A   1      40.470  21.955  26.035  1.00  0.00    -0.237 OA
ATOM     64  O   UNL A   1      42.732  21.402  25.237  1.00  0.00    -0.237 OA
ATOM     65  O   UNL A   1      42.248  21.368  27.645  1.00  0.00    -0.744 OA
ENDBRANCH  59  62
ENDBRANCH  41  55
BRANCH  42  66
ATOM     66  C   UNL A   1      40.715  31.772  35.245  1.00  0.00     0.023 A 
ATOM     67  C   UNL A   1      41.497  32.907  35.520  1.00  0.00     0.012 A 
ATOM     68  C   UNL A   1      39.573  31.514  36.031  1.00  0.00     0.148 A 
ATOM     69  C   UNL A   1      41.145  33.773  36.556  1.00  0.00     0.002 A 
ATOM     70  C   UNL A   1      39.184  32.422  37.006  1.00  0.00     0.091 A 
ATOM     71  F   UNL A   1      38.859  30.406  35.778  1.00  0.00    -0.205 F 
ATOM     72  C   UNL A   1      39.977  33.545  37.282  1.00  0.00     0.022 A 
BRANCH  70  73
ATOM     73  S   UNL A   1      37.589  32.295  37.826  1.00  0.00     0.127 S 
ATOM     74  O   UNL A   1      37.419  30.849  37.929  1.00  0.00    -0.237 OA
ATOM     75  O   UNL A   1      37.840  32.979  39.096  1.00  0.00    -0.237 OA
ATOM     76  O   UNL A   1      36.654  32.992  36.954  1.00  0.00    -0.744 OA
ENDBRANCH  70  73
ENDBRANCH  42  66
BRANCH  54  77
ATOM     77  C   UNL A   1      45.365  26.734  33.971  1.00  0.00     0.023 A 
ATOM     78  C   UNL A   1      46.681  27.232  33.911  1.00  0.00     0.012 A 
ATOM     79  C   UNL A   1      45.067  25.665  34.839  1.00  0.00     0.148 A 
ATOM     80  C   UNL A   1      47.695  26.650  34.671  1.00  0.00     0.002 A 
ATOM     81  C   UNL A   1      46.074  25.116  35.624  1.00  0.00     0.091 A 
ATOM     82  F   UNL A   1      43.814  25.190  34.865  1.00  0.00    -0.205 F 
ATOM     83  C   UNL A   1      47.390  25.599  35.534  1.00  0.00     0.022 A 
BRANCH  81  84
ATOM     84  S   UNL A   1      45.751  23.809  36.813  1.00  0.00     0.127 S 
ATOM     85  O   UNL A   1      45.160  22.775  35.965  1.00  0.00    -0.237 OA
ATOM     86  O   UNL A   1      47.091  23.498  37.311  1.00  0.00    -0.237 OA
ATOM     87  O   UNL A   1      44.862  24.392  37.809  1.00  0.00    -0.744 OA
ENDBRANCH  81  84
ENDBRANCH  54  77
ENDBRANCH  28  29
ENDBRANCH  21  23
ENDBRANCH  20  21
ENDBRANCH  19  20
ENDBRANCH   1  19
TORSDOF 19
ENDMDL
MODEL 3
REMARK VINA RESULT:     -10.0      4.889     10.030
REMARK SMILES C#CCN(CC(=O)OCCOC(=O)c1ccc(-c2c3nc(c(-c4cccc(S(=O)(=O)[O-])c4F)c4ccc([nH]4)c(-c4cccc(S(=O)(=O)[O-])c4F)c4nc(c(-c5cccc(S(=O)(=O)[O-])c5F)c5ccc2[nH]5)C=C4)C=C3)cc1)C(=O)N[C@@H]1CCOC1
REMARK SMILES IDX 9 1 8 2 6 3 7 4 5 5 4 6 3 7 2 8 1 9 77 10 78 11 79 12 80 14
REMARK SMILES IDX 81 15 84 16 82 17 83 18 10 19 11 20 12 21 13 22 14 23 15 24
REMARK SMILES IDX 76 25 16 26 75 27 17 28 18 29 19 30 69 31 20 32 74 33 68 34
REMARK SMILES IDX 70 35 21 36 73 37 67 38 66 39 22 41 54 42 34 43 53 44 35 45
REMARK SMILES IDX 38 46 52 47 71 48 36 49 37 50 51 52 72 53 39 54 23 55 24 56
REMARK SMILES IDX 32 57 25 58 27 59 33 60 26 61 28 62 29 63 30 64 31 65 55 66
REMARK SMILES IDX 56 67 64 68 57 69 59 70 65 71 58 72 60 73 61 74 62 75 63 76
REMARK SMILES IDX 40 77 41 78 49 79 42 80 44 81 50 82 43 83 45 84 46 85 47 86
REMARK SMILES IDX 48 87
REMARK H PARENT 79 13 70 40 38 51
REMARK Flexibility Score: inf
ROOT
ATOM      1  C   UNL A   1      31.733  27.864  25.792  1.00  0.00     0.274 C 
ENDROOT
BRANCH   1   2
ATOM      2  O   UNL A   1      30.575  27.135  25.328  1.00  0.00    -0.461 OA
BRANCH   2   3
ATOM      3  C   UNL A   1      30.791  25.816  25.093  1.00  0.00     0.325 C 
ATOM      4  O   UNL A   1      30.859  24.956  25.967  1.00  0.00    -0.250 OA
BRANCH   3   5
ATOM      5  C   UNL A   1      30.854  25.434  23.614  1.00  0.00     0.245 C 
BRANCH   5   6
ATOM      6  N   UNL A   1      31.972  25.855  22.760  1.00  0.00    -0.303 N 
BRANCH   6   7
ATOM      7  C   UNL A   1      31.973  27.212  22.295  1.00  0.00     0.211 C 
BRANCH   7   8
ATOM      8  C   UNL A   1      33.278  27.947  22.554  1.00  0.00    -0.085 C 
ATOM      9  C   UNL A   1      34.398  28.578  22.776  1.00  0.00     0.006 C 
ENDBRANCH   7   8
ENDBRANCH   6   7
BRANCH   6  10
ATOM     10  C   UNL A   1      32.926  25.062  22.201  1.00  0.00     0.319 C 
ATOM     11  O   UNL A   1      33.188  25.098  20.997  1.00  0.00    -0.249 OA
ATOM     12  N   UNL A   1      33.718  24.302  22.968  1.00  0.00    -0.333 N 
ATOM     13  H   UNL A   1      34.347  23.743  22.458  1.00  0.00     0.165 HD
BRANCH  12  14
ATOM     14  C   UNL A   1      33.829  24.140  24.401  1.00  0.00     0.112 C 
ATOM     15  C   UNL A   1      35.052  24.737  25.082  1.00  0.00     0.056 C 
ATOM     16  C   UNL A   1      33.859  22.676  24.799  1.00  0.00     0.185 C 
ATOM     17  C   UNL A   1      35.672  23.613  25.874  1.00  0.00     0.162 C 
ATOM     18  O   UNL A   1      34.717  22.562  25.929  1.00  0.00    -0.379 OA
ENDBRANCH  12  14
ENDBRANCH   6  10
ENDBRANCH   5   6
ENDBRANCH   3   5
ENDBRANCH   2   3
ENDBRANCH   1   2
BRANCH   1  19
ATOM     19  C   UNL A   1      31.605  29.346  25.439  1.00  0.00     0.275 C 
BRANCH  19  20
ATOM     20  O   UNL A   1      32.869  30.008  25.623  1.00  0.00    -0.458 OA
BRANCH  20  21
ATOM     21  C   UNL A   1      32.876  30.963  26.587  1.00  0.00     0.338 C 
ATOM     22  O   UNL A   1      32.020  31.816  26.750  1.00  0.00    -0.246 OA
BRANCH  21  23
ATOM     23  C   UNL A   1      34.031  30.801  27.510  1.00  0.00     0.060 A 
ATOM     24  C   UNL A   1      34.873  31.866  27.832  1.00  0.00     0.016 A 
ATOM     25  C   UNL A   1      34.373  29.511  27.928  1.00  0.00     0.016 A 
ATOM     26  C   UNL A   1      36.120  31.612  28.418  1.00  0.00     0.010 A 
ATOM     27  C   UNL A   1      35.565  29.281  28.627  1.00  0.00     0.010 A 
ATOM     28  C   UNL A   1      36.485  30.318  28.839  1.00  0.00    -0.014 A 
BRANCH  28  29
ATOM     29  C   UNL A   1      37.785  30.061  29.538  1.00  0.00     0.031 A 
ATOM     30  C   UNL A   1      38.828  29.107  28.986  1.00  0.00     0.074 A 
ATOM     31  C   UNL A   1      38.021  30.661  30.723  1.00  0.00     0.049 A 
ATOM     32  N   UNL A   1      39.952  28.703  29.532  1.00  0.00    -0.248 NA
ATOM     33  C   UNL A   1      38.593  28.539  27.651  1.00  0.00     0.031 C 
ATOM     34  C   UNL A   1      37.113  31.594  31.393  1.00  0.00     0.029 A 
ATOM     35  N   UNL A   1      39.079  30.551  31.594  1.00  0.00    -0.354 N 
ATOM     36  C   UNL A   1      40.545  27.840  28.612  1.00  0.00     0.074 A 
ATOM     37  C   UNL A   1      39.666  27.782  27.466  1.00  0.00     0.031 C 
ATOM     38  C   UNL A   1      37.647  31.972  32.559  1.00  0.00     0.029 A 
ATOM     39  C   UNL A   1      38.881  31.229  32.774  1.00  0.00     0.049 A 
ATOM     40  H   UNL A   1      39.896  30.040  31.393  1.00  0.00     0.167 HD
ATOM     41  C   UNL A   1      41.711  27.154  28.705  1.00  0.00     0.034 A 
ATOM     42  C   UNL A   1      39.557  31.207  33.939  1.00  0.00     0.034 A 
ATOM     43  C   UNL A   1      42.579  27.177  29.853  1.00  0.00     0.049 A 
ATOM     44  C   UNL A   1      40.782  30.355  34.064  1.00  0.00     0.074 A 
ATOM     45  C   UNL A   1      43.783  26.518  30.033  1.00  0.00     0.029 A 
ATOM     46  N   UNL A   1      42.324  27.868  31.025  1.00  0.00    -0.354 N 
ATOM     47  N   UNL A   1      41.361  29.609  33.156  1.00  0.00    -0.248 NA
ATOM     48  C   UNL A   1      41.451  30.347  35.371  1.00  0.00     0.031 C 
ATOM     49  C   UNL A   1      44.239  26.783  31.331  1.00  0.00     0.029 A 
ATOM     50  C   UNL A   1      43.332  27.629  31.946  1.00  0.00     0.049 A 
ATOM     51  H   UNL A   1      41.541  28.444  31.182  1.00  0.00     0.167 HD
ATOM     52  C   UNL A   1      42.466  29.046  33.779  1.00  0.00     0.074 A 
ATOM     53  C   UNL A   1      42.495  29.566  35.132  1.00  0.00     0.031 C 
ATOM     54  C   UNL A   1      43.365  28.161  33.281  1.00  0.00     0.034 A 
BRANCH  41  55
ATOM     55  C   UNL A   1      42.140  26.312  27.530  1.00  0.00     0.023 A 
ATOM     56  C   UNL A   1      42.992  26.865  26.554  1.00  0.00     0.012 A 
ATOM     57  C   UNL A   1      41.794  24.947  27.451  1.00  0.00     0.148 A 
ATOM     58  C   UNL A   1      43.490  26.076  25.516  1.00  0.00     0.002 A 
ATOM     59  C   UNL A   1      42.320  24.160  26.432  1.00  0.00     0.091 A 
ATOM     60  F   UNL A   1      40.962  24.445  28.374  1.00  0.00    -0.205 F 
ATOM     61  C   UNL A   1      43.165  24.722  25.462  1.00  0.00     0.022 A 
BRANCH  59  62
ATOM     62  S   UNL A   1      42.015  22.392  26.321  1.00  0.00     0.127 S 
ATOM     63  O   UNL A   1      40.562  22.352  26.157  1.00  0.00    -0.237 OA
ATOM     64  O   UNL A   1      42.772  22.019  25.126  1.00  0.00    -0.237 OA
ATOM     65  O   UNL A   1      42.522  21.820  27.562  1.00  0.00    -0.744 OA
ENDBRANCH  59  62
ENDBRANCH  41  55
BRANCH  42  66
ATOM     66  C   UNL A   1      39.041  32.007  35.084  1.00  0.00     0.023 A 
ATOM     67  C   UNL A   1      38.178  31.412  36.020  1.00  0.00     0.012 A 
ATOM     68  C   UNL A   1      39.495  33.324  35.305  1.00  0.00     0.148 A 
ATOM     69  C   UNL A   1      37.778  32.114  37.159  1.00  0.00     0.002 A 
ATOM     70  C   UNL A   1      39.159  33.985  36.478  1.00  0.00     0.091 A 
ATOM     71  F   UNL A   1      40.289  33.889  34.382  1.00  0.00    -0.205 F 
ATOM     72  C   UNL A   1      38.288  33.389  37.400  1.00  0.00     0.022 A 
BRANCH  70  73
ATOM     73  S   UNL A   1      39.945  35.534  36.942  1.00  0.00     0.127 S 
ATOM     74  O   UNL A   1      39.305  35.825  38.221  1.00  0.00    -0.237 OA
ATOM     75  O   UNL A   1      41.355  35.150  37.030  1.00  0.00    -0.237 OA
ATOM     76  O   UNL A   1      39.650  36.453  35.851  1.00  0.00    -0.744 OA
ENDBRANCH  70  73
ENDBRANCH  42  66
BRANCH  54  77
ATOM     77  C   UNL A   1      44.454  27.698  34.209  1.00  0.00     0.023 A 
ATOM     78  C   UNL A   1      45.668  28.410  34.261  1.00  0.00     0.012 A 
ATOM     79  C   UNL A   1      44.272  26.577  35.042  1.00  0.00     0.148 A 
ATOM     80  C   UNL A   1      46.701  27.989  35.097  1.00  0.00     0.002 A 
ATOM     81  C   UNL A   1      45.291  26.188  35.903  1.00  0.00     0.091 A 
ATOM     82  F   UNL A   1      43.118  25.900  34.962  1.00  0.00    -0.205 F 
ATOM     83  C   UNL A   1      46.510  26.884  35.924  1.00  0.00     0.022 A 
BRANCH  81  84
ATOM     84  S   UNL A   1      45.097  24.821  37.052  1.00  0.00     0.127 S 
ATOM     85  O   UNL A   1      43.866  25.190  37.749  1.00  0.00    -0.237 OA
ATOM     86  O   UNL A   1      44.969  23.672  36.155  1.00  0.00    -0.237 OA
ATOM     87  O   UNL A   1      46.305  24.814  37.866  1.00  0.00    -0.744 OA
ENDBRANCH  81  84
ENDBRANCH  54  77
ENDBRANCH  28  29
ENDBRANCH  21  23
ENDBRANCH  20  21
ENDBRANCH  19  20
ENDBRANCH   1  19
TORSDOF 19
ENDMDL
