MODEL 1
REMARK VINA RESULT:      -8.6      0.000      0.000
REMARK SMILES C=CCN1C(=O)/C(=C/c2ccc(OCC(=O)OCCOC(=O)c3ccc(-c4c5nc(c(-c6cccc(S(=O)(=O)[O-])c6F)c6ccc([nH]6)c(-c6cccc(S(=O)(=O)[O-])c6F)c6nc(c(-c7cccc(S(=O)(=O)[O-])c7F)c7ccc4[nH]7)C=C6)C=C5)cc3)c(OC)c2)C(=O)[NH+]=C1S
REMARK SMILES IDX 18 1 17 2 15 3 16 4 14 5 13 6 12 7 9 8 10 9 89 10 11 11
REMARK SMILES IDX 86 12 8 13 4 14 5 15 93 16 6 17 7 18 92 19 90 20 91 22 3 23
REMARK SMILES IDX 2 24 1 25 94 26 87 28 88 29 19 30 20 31 21 32 22 33 23 34
REMARK SMILES IDX 24 35 85 36 25 37 84 38 26 39 27 40 28 41 78 42 29 43 83 44
REMARK SMILES IDX 77 45 79 46 30 47 82 48 76 49 75 50 31 52 63 53 43 54 62 55
REMARK SMILES IDX 44 56 47 57 61 58 80 59 45 60 46 61 60 63 81 64 48 65 32 66
REMARK SMILES IDX 33 67 41 68 34 69 36 70 42 71 35 72 37 73 38 74 39 75 40 76
REMARK SMILES IDX 64 77 65 78 73 79 66 80 68 81 74 82 67 83 69 84 70 85 71 86
REMARK SMILES IDX 72 87 49 88 50 89 58 90 51 91 53 92 59 93 52 94 54 95 55 96
REMARK SMILES IDX 56 97 57 98
REMARK H PARENT 92 21 94 27 79 51 47 62
REMARK Flexibility Score: inf
ROOT
ATOM      1  C   UNL A   1      44.074  19.353  25.203  1.00  0.00     0.274 C 
ENDROOT
BRANCH   1   2
ATOM      2  O   UNL A   1      43.279  20.240  26.026  1.00  0.00    -0.460 OA
BRANCH   2   3
ATOM      3  C   UNL A   1      41.957  19.945  26.113  1.00  0.00     0.344 C 
ATOM      4  O   UNL A   1      41.468  18.876  25.751  1.00  0.00    -0.248 OA
BRANCH   3   5
ATOM      5  C   UNL A   1      41.078  21.086  26.643  1.00  0.00     0.352 C 
BRANCH   5   6
ATOM      6  O   UNL A   1      41.093  22.400  26.119  1.00  0.00    -0.478 OA
BRANCH   6   7
ATOM      7  C   UNL A   1      40.512  23.426  26.814  1.00  0.00     0.162 A 
ATOM      8  C   UNL A   1      39.614  25.412  28.607  1.00  0.00    -0.021 A 
ATOM      9  C   UNL A   1      40.959  25.063  28.581  1.00  0.00     0.012 A 
ATOM     10  C   UNL A   1      38.758  24.854  27.655  1.00  0.00     0.058 A 
ATOM     11  C   UNL A   1      41.395  24.061  27.704  1.00  0.00     0.051 A 
ATOM     12  C   UNL A   1      39.209  23.922  26.707  1.00  0.00     0.161 A 
BRANCH   8  13
ATOM     13  C   UNL A   1      39.049  26.378  29.557  1.00  0.00     0.032 C 
ATOM     14  N   UNL A   1      39.368  29.759  30.895  1.00  0.00    -0.183 N 
ATOM     15  C   UNL A   1      38.871  28.469  30.780  1.00  0.00     0.349 C 
ATOM     16  C   UNL A   1      40.247  30.226  29.946  1.00  0.00     0.318 C 
ATOM     17  O   UNL A   1      38.143  27.940  31.621  1.00  0.00    -0.240 OA
ATOM     18  C   UNL A   1      39.318  27.704  29.588  1.00  0.00     0.154 C 
ATOM     19  N   UNL A   1      40.575  29.624  28.857  1.00  0.00    -0.200 N 
ATOM     20  C   UNL A   1      40.044  28.422  28.521  1.00  0.00     0.347 C 
ATOM     21  H   UNL A   1      41.229  30.046  28.255  1.00  0.00     0.316 HD
ATOM     22  O   UNL A   1      40.106  27.996  27.367  1.00  0.00    -0.241 OA
BRANCH  14  23
ATOM     23  C   UNL A   1      39.045  30.473  32.144  1.00  0.00     0.275 C 
BRANCH  23  24
ATOM     24  C   UNL A   1      37.864  31.395  31.994  1.00  0.00     0.011 C 
ATOM     25  C   UNL A   1      37.582  32.452  32.765  1.00  0.00     0.008 C 
ENDBRANCH  23  24
ENDBRANCH  14  23
BRANCH  16  26
ATOM     26  S   UNL A   1      41.022  31.782  30.150  1.00  0.00    -0.055 SA
ATOM     27  H   UNL A   1      40.281  32.551  30.991  1.00  0.00     0.116 HD
ENDBRANCH  16  26
ENDBRANCH   8  13
BRANCH  12  28
ATOM     28  O   UNL A   1      38.426  23.515  25.661  1.00  0.00    -0.493 OA
ATOM     29  C   UNL A   1      37.041  23.366  25.952  1.00  0.00     0.278 C 
ENDBRANCH  12  28
ENDBRANCH   6   7
ENDBRANCH   5   6
ENDBRANCH   3   5
ENDBRANCH   2   3
ENDBRANCH   1   2
BRANCH   1  30
ATOM     30  C   UNL A   1      44.903  20.114  24.168  1.00  0.00     0.275 C 
BRANCH  30  31
ATOM     31  O   UNL A   1      45.402  21.349  24.718  1.00  0.00    -0.458 OA
BRANCH  31  32
ATOM     32  C   UNL A   1      44.950  22.436  24.061  1.00  0.00     0.338 C 
ATOM     33  O   UNL A   1      44.411  22.454  22.966  1.00  0.00    -0.246 OA
BRANCH  32  34
ATOM     34  C   UNL A   1      45.153  23.691  24.785  1.00  0.00     0.060 A 
ATOM     35  C   UNL A   1      46.349  23.888  25.473  1.00  0.00     0.016 A 
ATOM     36  C   UNL A   1      44.020  24.450  25.089  1.00  0.00     0.016 A 
ATOM     37  C   UNL A   1      46.373  24.777  26.550  1.00  0.00     0.010 A 
ATOM     38  C   UNL A   1      44.065  25.377  26.132  1.00  0.00     0.010 A 
ATOM     39  C   UNL A   1      45.227  25.512  26.907  1.00  0.00    -0.014 A 
BRANCH  39  40
ATOM     40  C   UNL A   1      45.264  26.483  28.032  1.00  0.00     0.031 A 
ATOM     41  C   UNL A   1      45.014  26.081  29.467  1.00  0.00     0.074 A 
ATOM     42  C   UNL A   1      45.461  27.777  27.721  1.00  0.00     0.049 A 
ATOM     43  N   UNL A   1      44.887  26.841  30.526  1.00  0.00    -0.248 NA
ATOM     44  C   UNL A   1      44.910  24.644  29.763  1.00  0.00     0.031 C 
ATOM     45  C   UNL A   1      45.727  28.284  26.373  1.00  0.00     0.029 A 
ATOM     46  N   UNL A   1      45.418  28.904  28.500  1.00  0.00    -0.354 N 
ATOM     47  C   UNL A   1      44.668  25.984  31.603  1.00  0.00     0.074 A 
ATOM     48  C   UNL A   1      44.706  24.638  31.075  1.00  0.00     0.031 C 
ATOM     49  C   UNL A   1      45.788  29.619  26.409  1.00  0.00     0.029 A 
ATOM     50  C   UNL A   1      45.475  30.061  27.760  1.00  0.00     0.049 A 
ATOM     51  H   UNL A   1      45.352  28.886  29.482  1.00  0.00     0.167 HD
ATOM     52  C   UNL A   1      44.437  26.297  32.903  1.00  0.00     0.034 A 
ATOM     53  C   UNL A   1      45.223  31.335  28.103  1.00  0.00     0.034 A 
ATOM     54  C   UNL A   1      44.368  27.646  33.405  1.00  0.00     0.049 A 
ATOM     55  C   UNL A   1      44.870  31.650  29.521  1.00  0.00     0.074 A 
ATOM     56  C   UNL A   1      44.178  28.072  34.710  1.00  0.00     0.029 A 
ATOM     57  N   UNL A   1      44.444  28.789  32.622  1.00  0.00    -0.354 N 
ATOM     58  N   UNL A   1      44.757  30.833  30.539  1.00  0.00    -0.248 NA
ATOM     59  C   UNL A   1      44.635  33.062  29.844  1.00  0.00     0.031 C 
ATOM     60  C   UNL A   1      44.082  29.467  34.706  1.00  0.00     0.029 A 
ATOM     61  C   UNL A   1      44.269  29.915  33.408  1.00  0.00     0.049 A 
ATOM     62  H   UNL A   1      44.600  28.797  31.650  1.00  0.00     0.167 HD
ATOM     63  C   UNL A   1      44.480  31.636  31.637  1.00  0.00     0.074 A 
ATOM     64  C   UNL A   1      44.448  33.004  31.156  1.00  0.00     0.031 C 
ATOM     65  C   UNL A   1      44.272  31.272  32.925  1.00  0.00     0.034 A 
BRANCH  52  66
ATOM     66  C   UNL A   1      44.223  25.177  33.897  1.00  0.00     0.023 A 
ATOM     67  C   UNL A   1      42.917  24.814  34.282  1.00  0.00     0.012 A 
ATOM     68  C   UNL A   1      45.312  24.400  34.349  1.00  0.00     0.148 A 
ATOM     69  C   UNL A   1      42.699  23.711  35.110  1.00  0.00     0.002 A 
ATOM     70  C   UNL A   1      45.085  23.280  35.143  1.00  0.00     0.091 A 
ATOM     71  F   UNL A   1      46.550  24.767  33.987  1.00  0.00    -0.205 F 
ATOM     72  C   UNL A   1      43.780  22.937  35.530  1.00  0.00     0.022 A 
BRANCH  70  73
ATOM     73  S   UNL A   1      46.405  22.180  35.672  1.00  0.00     0.127 S 
ATOM     74  O   UNL A   1      46.923  21.706  34.389  1.00  0.00    -0.237 OA
ATOM     75  O   UNL A   1      47.298  23.090  36.391  1.00  0.00    -0.237 OA
ATOM     76  O   UNL A   1      45.774  21.165  36.503  1.00  0.00    -0.744 OA
ENDBRANCH  70  73
ENDBRANCH  52  66
BRANCH  53  77
ATOM     77  C   UNL A   1      45.293  32.387  27.053  1.00  0.00     0.023 A 
ATOM     78  C   UNL A   1      44.154  32.670  26.282  1.00  0.00     0.012 A 
ATOM     79  C   UNL A   1      46.454  33.172  26.894  1.00  0.00     0.148 A 
ATOM     80  C   UNL A   1      44.173  33.714  25.357  1.00  0.00     0.002 A 
ATOM     81  C   UNL A   1      46.444  34.248  26.019  1.00  0.00     0.091 A 
ATOM     82  F   UNL A   1      47.529  32.874  27.639  1.00  0.00    -0.205 F 
ATOM     83  C   UNL A   1      45.310  34.512  25.237  1.00  0.00     0.022 A 
BRANCH  81  84
ATOM     84  S   UNL A   1      47.802  35.419  25.922  1.00  0.00     0.127 S 
ATOM     85  O   UNL A   1      48.713  34.742  25.002  1.00  0.00    -0.237 OA
ATOM     86  O   UNL A   1      47.141  36.605  25.376  1.00  0.00    -0.237 OA
ATOM     87  O   UNL A   1      48.285  35.577  27.288  1.00  0.00    -0.744 OA
ENDBRANCH  81  84
ENDBRANCH  53  77
BRANCH  65  88
ATOM     88  C   UNL A   1      44.044  32.373  33.925  1.00  0.00     0.023 A 
ATOM     89  C   UNL A   1      45.135  32.956  34.598  1.00  0.00     0.012 A 
ATOM     90  C   UNL A   1      42.744  32.864  34.154  1.00  0.00     0.148 A 
ATOM     91  C   UNL A   1      44.930  33.989  35.511  1.00  0.00     0.002 A 
ATOM     92  C   UNL A   1      42.554  33.930  35.023  1.00  0.00     0.091 A 
ATOM     93  F   UNL A   1      41.719  32.282  33.515  1.00  0.00    -0.205 F 
ATOM     94  C   UNL A   1      43.643  34.483  35.714  1.00  0.00     0.022 A 
BRANCH  92  95
ATOM     95  S   UNL A   1      40.949  34.694  35.276  1.00  0.00     0.127 S 
ATOM     96  O   UNL A   1      40.585  35.080  33.912  1.00  0.00    -0.237 OA
ATOM     97  O   UNL A   1      40.166  33.587  35.826  1.00  0.00    -0.237 OA
ATOM     98  O   UNL A   1      41.167  35.800  36.196  1.00  0.00    -0.744 OA
ENDBRANCH  92  95
ENDBRANCH  65  88
ENDBRANCH  39  40
ENDBRANCH  32  34
ENDBRANCH  31  32
ENDBRANCH  30  31
ENDBRANCH   1  30
TORSDOF 21
ENDMDL
MODEL 2
REMARK VINA RESULT:      -8.5      5.119     11.737
REMARK SMILES C=CCN1C(=O)/C(=C/c2ccc(OCC(=O)OCCOC(=O)c3ccc(-c4c5nc(c(-c6cccc(S(=O)(=O)[O-])c6F)c6ccc([nH]6)c(-c6cccc(S(=O)(=O)[O-])c6F)c6nc(c(-c7cccc(S(=O)(=O)[O-])c7F)c7ccc4[nH]7)C=C6)C=C5)cc3)c(OC)c2)C(=O)[NH+]=C1S
REMARK SMILES IDX 18 1 17 2 15 3 16 4 14 5 13 6 12 7 9 8 10 9 89 10 11 11
REMARK SMILES IDX 86 12 8 13 4 14 5 15 93 16 6 17 7 18 92 19 90 20 91 22 3 23
REMARK SMILES IDX 2 24 1 25 94 26 87 28 88 29 19 30 20 31 21 32 22 33 23 34
REMARK SMILES IDX 24 35 85 36 25 37 84 38 26 39 27 40 28 41 78 42 29 43 83 44
REMARK SMILES IDX 77 45 79 46 30 47 82 48 76 49 75 50 31 52 63 53 43 54 62 55
REMARK SMILES IDX 44 56 47 57 61 58 80 59 45 60 46 61 60 63 81 64 48 65 32 66
REMARK SMILES IDX 33 67 41 68 34 69 36 70 42 71 35 72 37 73 38 74 39 75 40 76
REMARK SMILES IDX 64 77 65 78 73 79 66 80 68 81 74 82 67 83 69 84 70 85 71 86
REMARK SMILES IDX 72 87 49 88 50 89 58 90 51 91 53 92 59 93 52 94 54 95 55 96
REMARK SMILES IDX 56 97 57 98
REMARK H PARENT 92 21 94 27 79 51 47 62
REMARK Flexibility Score: inf
ROOT
ATOM      1  C   UNL A   1      32.881  35.796  28.968  1.00  0.00     0.274 C 
ENDROOT
BRANCH   1   2
ATOM      2  O   UNL A   1      34.256  35.694  28.525  1.00  0.00    -0.460 OA
BRANCH   2   3
ATOM      3  C   UNL A   1      34.691  34.443  28.226  1.00  0.00     0.344 C 
ATOM      4  O   UNL A   1      35.868  34.092  28.296  1.00  0.00    -0.248 OA
BRANCH   3   5
ATOM      5  C   UNL A   1      33.602  33.489  27.717  1.00  0.00     0.352 C 
BRANCH   5   6
ATOM      6  O   UNL A   1      33.355  32.210  28.270  1.00  0.00    -0.478 OA
BRANCH   6   7
ATOM      7  C   UNL A   1      33.246  31.116  27.455  1.00  0.00     0.162 A 
ATOM      8  C   UNL A   1      33.507  28.847  25.796  1.00  0.00    -0.021 A 
ATOM      9  C   UNL A   1      34.366  29.015  26.876  1.00  0.00     0.012 A 
ATOM     10  C   UNL A   1      32.454  29.749  25.630  1.00  0.00     0.058 A 
ATOM     11  C   UNL A   1      34.245  30.155  27.683  1.00  0.00     0.051 A 
ATOM     12  C   UNL A   1      32.268  30.839  26.496  1.00  0.00     0.161 A 
BRANCH   8  13
ATOM     13  C   UNL A   1      33.619  27.739  24.840  1.00  0.00     0.032 C 
ATOM     14  N   UNL A   1      33.560  24.107  24.487  1.00  0.00    -0.183 N 
ATOM     15  C   UNL A   1      33.713  25.429  24.096  1.00  0.00     0.349 C 
ATOM     16  C   UNL A   1      33.064  23.830  25.740  1.00  0.00     0.318 C 
ATOM     17  O   UNL A   1      34.221  25.770  23.028  1.00  0.00    -0.240 OA
ATOM     18  C   UNL A   1      33.277  26.452  25.081  1.00  0.00     0.154 C 
ATOM     19  N   UNL A   1      32.590  24.690  26.572  1.00  0.00    -0.200 N 
ATOM     20  C   UNL A   1      32.518  26.010  26.268  1.00  0.00     0.347 C 
ATOM     21  H   UNL A   1      32.274  24.381  27.451  1.00  0.00     0.316 HD
ATOM     22  O   UNL A   1      31.798  26.775  26.910  1.00  0.00    -0.241 OA
BRANCH  14  23
ATOM     23  C   UNL A   1      34.120  23.090  23.579  1.00  0.00     0.275 C 
BRANCH  23  24
ATOM     24  C   UNL A   1      35.573  22.804  23.858  1.00  0.00     0.011 C 
ATOM     25  C   UNL A   1      36.549  22.706  22.947  1.00  0.00     0.008 C 
ENDBRANCH  23  24
ENDBRANCH  14  23
BRANCH  16  26
ATOM     26  S   UNL A   1      33.018  22.183  26.328  1.00  0.00    -0.055 SA
ATOM     27  H   UNL A   1      33.249  21.326  25.298  1.00  0.00     0.116 HD
ENDBRANCH  16  26
ENDBRANCH   8  13
BRANCH  12  28
ATOM     28  O   UNL A   1      31.140  31.613  26.454  1.00  0.00    -0.493 OA
ATOM     29  C   UNL A   1      30.464  31.647  25.201  1.00  0.00     0.278 C 
ENDBRANCH  12  28
ENDBRANCH   6   7
ENDBRANCH   5   6
ENDBRANCH   3   5
ENDBRANCH   2   3
ENDBRANCH   1   2
BRANCH   1  30
ATOM     30  C   UNL A   1      32.764  36.467  30.338  1.00  0.00     0.275 C 
BRANCH  30  31
ATOM     31  O   UNL A   1      32.422  35.503  31.353  1.00  0.00    -0.458 OA
BRANCH  31  32
ATOM     32  C   UNL A   1      33.239  35.557  32.424  1.00  0.00     0.338 C 
ATOM     33  O   UNL A   1      33.132  36.300  33.386  1.00  0.00    -0.246 OA
BRANCH  32  34
ATOM     34  C   UNL A   1      34.348  34.604  32.369  1.00  0.00     0.060 A 
ATOM     35  C   UNL A   1      34.402  33.576  33.310  1.00  0.00     0.016 A 
ATOM     36  C   UNL A   1      35.490  34.983  31.659  1.00  0.00     0.016 A 
ATOM     37  C   UNL A   1      35.637  33.003  33.617  1.00  0.00     0.010 A 
ATOM     38  C   UNL A   1      36.713  34.369  31.932  1.00  0.00     0.010 A 
ATOM     39  C   UNL A   1      36.810  33.408  32.951  1.00  0.00    -0.014 A 
BRANCH  39  40
ATOM     40  C   UNL A   1      38.119  32.773  33.255  1.00  0.00     0.031 A 
ATOM     41  C   UNL A   1      38.662  31.604  32.468  1.00  0.00     0.074 A 
ATOM     42  C   UNL A   1      38.793  33.236  34.323  1.00  0.00     0.049 A 
ATOM     43  N   UNL A   1      39.723  30.872  32.703  1.00  0.00    -0.248 NA
ATOM     44  C   UNL A   1      37.938  31.209  31.249  1.00  0.00     0.031 C 
ATOM     45  C   UNL A   1      38.376  34.369  35.152  1.00  0.00     0.029 A 
ATOM     46  N   UNL A   1      39.937  32.783  34.926  1.00  0.00    -0.354 N 
ATOM     47  C   UNL A   1      39.783  29.924  31.683  1.00  0.00     0.074 A 
ATOM     48  C   UNL A   1      38.664  30.188  30.806  1.00  0.00     0.031 C 
ATOM     49  C   UNL A   1      39.226  34.503  36.175  1.00  0.00     0.029 A 
ATOM     50  C   UNL A   1      40.190  33.413  36.121  1.00  0.00     0.049 A 
ATOM     51  H   UNL A   1      40.515  32.082  34.545  1.00  0.00     0.167 HD
ATOM     52  C   UNL A   1      40.677  28.918  31.512  1.00  0.00     0.034 A 
ATOM     53  C   UNL A   1      41.043  33.106  37.113  1.00  0.00     0.034 A 
ATOM     54  C   UNL A   1      41.767  28.649  32.416  1.00  0.00     0.049 A 
ATOM     55  C   UNL A   1      41.954  31.932  36.950  1.00  0.00     0.074 A 
ATOM     56  C   UNL A   1      42.752  27.679  32.314  1.00  0.00     0.029 A 
ATOM     57  N   UNL A   1      41.993  29.320  33.609  1.00  0.00    -0.354 N 
ATOM     58  N   UNL A   1      42.053  31.105  35.939  1.00  0.00    -0.248 NA
ATOM     59  C   UNL A   1      42.886  31.662  38.050  1.00  0.00     0.031 C 
ATOM     60  C   UNL A   1      43.536  27.728  33.471  1.00  0.00     0.029 A 
ATOM     61  C   UNL A   1      43.076  28.764  34.268  1.00  0.00     0.049 A 
ATOM     62  H   UNL A   1      41.460  30.080  33.938  1.00  0.00     0.167 HD
ATOM     63  C   UNL A   1      43.090  30.240  36.260  1.00  0.00     0.074 A 
ATOM     64  C   UNL A   1      43.588  30.650  37.559  1.00  0.00     0.031 C 
ATOM     65  C   UNL A   1      43.583  29.202  35.544  1.00  0.00     0.034 A 
BRANCH  52  66
ATOM     66  C   UNL A   1      40.530  28.006  30.314  1.00  0.00     0.023 A 
ATOM     67  C   UNL A   1      39.553  26.991  30.315  1.00  0.00     0.012 A 
ATOM     68  C   UNL A   1      41.274  28.240  29.138  1.00  0.00     0.148 A 
ATOM     69  C   UNL A   1      39.330  26.216  29.174  1.00  0.00     0.002 A 
ATOM     70  C   UNL A   1      41.021  27.489  27.994  1.00  0.00     0.091 A 
ATOM     71  F   UNL A   1      42.212  29.200  29.157  1.00  0.00    -0.205 F 
ATOM     72  C   UNL A   1      40.054  26.473  28.012  1.00  0.00     0.022 A 
BRANCH  70  73
ATOM     73  S   UNL A   1      41.850  27.796  26.428  1.00  0.00     0.127 S 
ATOM     74  O   UNL A   1      41.247  26.774  25.572  1.00  0.00    -0.237 OA
ATOM     75  O   UNL A   1      41.439  29.167  26.122  1.00  0.00    -0.237 OA
ATOM     76  O   UNL A   1      43.273  27.631  26.687  1.00  0.00    -0.744 OA
ENDBRANCH  70  73
ENDBRANCH  52  66
BRANCH  53  77
ATOM     77  C   UNL A   1      41.044  33.942  38.343  1.00  0.00     0.023 A 
ATOM     78  C   UNL A   1      41.893  35.059  38.419  1.00  0.00     0.012 A 
ATOM     79  C   UNL A   1      40.132  33.690  39.388  1.00  0.00     0.148 A 
ATOM     80  C   UNL A   1      41.843  35.907  39.525  1.00  0.00     0.002 A 
ATOM     81  C   UNL A   1      40.041  34.574  40.453  1.00  0.00     0.091 A 
ATOM     82  F   UNL A   1      39.337  32.613  39.292  1.00  0.00    -0.205 F 
ATOM     83  C   UNL A   1      40.907  35.675  40.532  1.00  0.00     0.022 A 
BRANCH  81  84
ATOM     84  S   UNL A   1      38.763  34.440  41.707  1.00  0.00     0.127 S 
ATOM     85  O   UNL A   1      39.334  33.442  42.609  1.00  0.00    -0.237 OA
ATOM     86  O   UNL A   1      38.718  35.802  42.240  1.00  0.00    -0.237 OA
ATOM     87  O   UNL A   1      37.556  34.034  40.997  1.00  0.00    -0.744 OA
ENDBRANCH  81  84
ENDBRANCH  53  77
BRANCH  65  88
ATOM     88  C   UNL A   1      44.761  28.463  36.120  1.00  0.00     0.023 A 
ATOM     89  C   UNL A   1      46.073  28.859  35.796  1.00  0.00     0.012 A 
ATOM     90  C   UNL A   1      44.559  27.406  37.029  1.00  0.00     0.148 A 
ATOM     91  C   UNL A   1      47.167  28.190  36.343  1.00  0.00     0.002 A 
ATOM     92  C   UNL A   1      45.652  26.780  37.611  1.00  0.00     0.091 A 
ATOM     93  F   UNL A   1      43.300  27.035  37.307  1.00  0.00    -0.205 F 
ATOM     94  C   UNL A   1      46.957  27.160  37.258  1.00  0.00     0.022 A 
BRANCH  92  95
ATOM     95  S   UNL A   1      45.480  25.511  38.869  1.00  0.00     0.127 S 
ATOM     96  O   UNL A   1      44.860  24.423  38.111  1.00  0.00    -0.237 OA
ATOM     97  O   UNL A   1      46.870  25.270  39.254  1.00  0.00    -0.237 OA
ATOM     98  O   UNL A   1      44.651  26.088  39.917  1.00  0.00    -0.744 OA
ENDBRANCH  92  95
ENDBRANCH  65  88
ENDBRANCH  39  40
ENDBRANCH  32  34
ENDBRANCH  31  32
ENDBRANCH  30  31
ENDBRANCH   1  30
TORSDOF 21
ENDMDL
MODEL 3
REMARK VINA RESULT:      -8.5      5.328     11.376
REMARK SMILES C=CCN1C(=O)/C(=C/c2ccc(OCC(=O)OCCOC(=O)c3ccc(-c4c5nc(c(-c6cccc(S(=O)(=O)[O-])c6F)c6ccc([nH]6)c(-c6cccc(S(=O)(=O)[O-])c6F)c6nc(c(-c7cccc(S(=O)(=O)[O-])c7F)c7ccc4[nH]7)C=C6)C=C5)cc3)c(OC)c2)C(=O)[NH+]=C1S
REMARK SMILES IDX 18 1 17 2 15 3 16 4 14 5 13 6 12 7 9 8 10 9 89 10 11 11
REMARK SMILES IDX 86 12 8 13 4 14 5 15 93 16 6 17 7 18 92 19 90 20 91 22 3 23
REMARK SMILES IDX 2 24 1 25 94 26 87 28 88 29 19 30 20 31 21 32 22 33 23 34
REMARK SMILES IDX 24 35 85 36 25 37 84 38 26 39 27 40 28 41 78 42 29 43 83 44
REMARK SMILES IDX 77 45 79 46 30 47 82 48 76 49 75 50 31 52 63 53 43 54 62 55
REMARK SMILES IDX 44 56 47 57 61 58 80 59 45 60 46 61 60 63 81 64 48 65 32 66
REMARK SMILES IDX 33 67 41 68 34 69 36 70 42 71 35 72 37 73 38 74 39 75 40 76
REMARK SMILES IDX 64 77 65 78 73 79 66 80 68 81 74 82 67 83 69 84 70 85 71 86
REMARK SMILES IDX 72 87 49 88 50 89 58 90 51 91 53 92 59 93 52 94 54 95 55 96
REMARK SMILES IDX 56 97 57 98
REMARK H PARENT 92 21 94 27 79 51 47 62
REMARK Flexibility Score: inf
ROOT
ATOM      1  C   UNL A   1      33.143  35.481  28.751  1.00  0.00     0.274 C 
ENDROOT
BRANCH   1   2
ATOM      2  O   UNL A   1      34.582  35.360  28.643  1.00  0.00    -0.460 OA
BRANCH   2   3
ATOM      3  C   UNL A   1      35.079  34.100  28.726  1.00  0.00     0.344 C 
ATOM      4  O   UNL A   1      36.262  33.842  28.944  1.00  0.00    -0.248 OA
BRANCH   3   5
ATOM      5  C   UNL A   1      34.056  32.987  28.457  1.00  0.00     0.352 C 
BRANCH   5   6
ATOM      6  O   UNL A   1      34.278  31.623  28.762  1.00  0.00    -0.478 OA
BRANCH   6   7
ATOM      7  C   UNL A   1      34.132  30.667  27.794  1.00  0.00     0.162 A 
ATOM      8  C   UNL A   1      33.363  28.831  25.793  1.00  0.00    -0.021 A 
ATOM      9  C   UNL A   1      32.787  30.095  25.827  1.00  0.00     0.012 A 
ATOM     10  C   UNL A   1      34.402  28.543  26.681  1.00  0.00     0.058 A 
ATOM     11  C   UNL A   1      33.157  30.995  26.837  1.00  0.00     0.051 A 
ATOM     12  C   UNL A   1      34.846  29.477  27.631  1.00  0.00     0.161 A 
BRANCH   8  13
ATOM     13  C   UNL A   1      32.969  27.790  24.836  1.00  0.00     0.032 C 
ATOM     14  N   UNL A   1      31.615  24.415  24.516  1.00  0.00    -0.183 N 
ATOM     15  C   UNL A   1      32.168  25.618  24.100  1.00  0.00     0.349 C 
ATOM     16  C   UNL A   1      31.208  24.279  25.822  1.00  0.00     0.318 C 
ATOM     17  O   UNL A   1      32.630  25.804  22.975  1.00  0.00    -0.240 OA
ATOM     18  C   UNL A   1      32.234  26.691  25.126  1.00  0.00     0.154 C 
ATOM     19  N   UNL A   1      31.165  25.216  26.703  1.00  0.00    -0.200 N 
ATOM     20  C   UNL A   1      31.518  26.492  26.402  1.00  0.00     0.347 C 
ATOM     21  H   UNL A   1      30.870  25.002  27.616  1.00  0.00     0.316 HD
ATOM     22  O   UNL A   1      31.189  27.432  27.125  1.00  0.00    -0.241 OA
BRANCH  14  23
ATOM     23  C   UNL A   1      31.676  23.303  23.550  1.00  0.00     0.275 C 
BRANCH  23  24
ATOM     24  C   UNL A   1      32.857  22.398  23.785  1.00  0.00     0.011 C 
ATOM     25  C   UNL A   1      34.139  22.774  23.860  1.00  0.00     0.008 C 
ENDBRANCH  23  24
ENDBRANCH  14  23
BRANCH  16  26
ATOM     26  S   UNL A   1      30.666  22.727  26.421  1.00  0.00    -0.055 SA
ATOM     27  H   UNL A   1      29.316  22.638  26.294  1.00  0.00     0.116 HD
ENDBRANCH  16  26
ENDBRANCH   8  13
BRANCH  12  28
ATOM     28  O   UNL A   1      35.978  29.273  28.373  1.00  0.00    -0.493 OA
ATOM     29  C   UNL A   1      37.140  29.962  27.922  1.00  0.00     0.278 C 
ENDBRANCH  12  28
ENDBRANCH   6   7
ENDBRANCH   5   6
ENDBRANCH   3   5
ENDBRANCH   2   3
ENDBRANCH   1   2
BRANCH   1  30
ATOM     30  C   UNL A   1      32.720  36.239  30.011  1.00  0.00     0.275 C 
BRANCH  30  31
ATOM     31  O   UNL A   1      33.773  36.222  30.996  1.00  0.00    -0.458 OA
BRANCH  31  32
ATOM     32  C   UNL A   1      33.489  35.432  32.051  1.00  0.00     0.338 C 
ATOM     33  O   UNL A   1      32.383  35.058  32.406  1.00  0.00    -0.246 OA
BRANCH  32  34
ATOM     34  C   UNL A   1      34.669  35.013  32.809  1.00  0.00     0.060 A 
ATOM     35  C   UNL A   1      35.932  35.193  32.247  1.00  0.00     0.016 A 
ATOM     36  C   UNL A   1      34.474  34.108  33.855  1.00  0.00     0.016 A 
ATOM     37  C   UNL A   1      36.983  34.376  32.666  1.00  0.00     0.010 A 
ATOM     38  C   UNL A   1      35.542  33.330  34.307  1.00  0.00     0.010 A 
ATOM     39  C   UNL A   1      36.795  33.419  33.682  1.00  0.00    -0.014 A 
BRANCH  39  40
ATOM     40  C   UNL A   1      37.924  32.572  34.150  1.00  0.00     0.031 A 
ATOM     41  C   UNL A   1      38.784  32.940  35.336  1.00  0.00     0.074 A 
ATOM     42  C   UNL A   1      38.209  31.474  33.427  1.00  0.00     0.049 A 
ATOM     43  N   UNL A   1      39.876  32.364  35.774  1.00  0.00    -0.248 NA
ATOM     44  C   UNL A   1      38.362  34.090  36.152  1.00  0.00     0.031 C 
ATOM     45  C   UNL A   1      37.442  31.008  32.270  1.00  0.00     0.029 A 
ATOM     46  N   UNL A   1      39.246  30.582  33.522  1.00  0.00    -0.354 N 
ATOM     47  C   UNL A   1      40.282  33.087  36.894  1.00  0.00     0.074 A 
ATOM     48  C   UNL A   1      39.303  34.133  37.089  1.00  0.00     0.031 C 
ATOM     49  C   UNL A   1      38.049  29.942  31.739  1.00  0.00     0.029 A 
ATOM     50  C   UNL A   1      39.291  29.708  32.462  1.00  0.00     0.049 A 
ATOM     51  H   UNL A   1      39.889  30.570  34.268  1.00  0.00     0.167 HD
ATOM     52  C   UNL A   1      41.381  32.904  37.669  1.00  0.00     0.034 A 
ATOM     53  C   UNL A   1      40.257  28.867  32.058  1.00  0.00     0.034 A 
ATOM     54  C   UNL A   1      42.365  31.877  37.438  1.00  0.00     0.049 A 
ATOM     55  C   UNL A   1      41.507  28.751  32.871  1.00  0.00     0.074 A 
ATOM     56  C   UNL A   1      43.494  31.581  38.186  1.00  0.00     0.029 A 
ATOM     57  N   UNL A   1      42.365  31.006  36.359  1.00  0.00    -0.354 N 
ATOM     58  N   UNL A   1      41.829  29.380  33.975  1.00  0.00    -0.248 NA
ATOM     59  C   UNL A   1      42.514  27.794  32.400  1.00  0.00     0.031 C 
ATOM     60  C   UNL A   1      44.203  30.571  37.528  1.00  0.00     0.029 A 
ATOM     61  C   UNL A   1      43.488  30.198  36.401  1.00  0.00     0.049 A 
ATOM     62  H   UNL A   1      41.667  30.967  35.666  1.00  0.00     0.167 HD
ATOM     63  C   UNL A   1      43.059  28.864  34.356  1.00  0.00     0.074 A 
ATOM     64  C   UNL A   1      43.419  27.868  33.367  1.00  0.00     0.031 C 
ATOM     65  C   UNL A   1      43.820  29.187  35.430  1.00  0.00     0.034 A 
BRANCH  52  66
ATOM     66  C   UNL A   1      41.610  33.832  38.842  1.00  0.00     0.023 A 
ATOM     67  C   UNL A   1      42.341  35.024  38.667  1.00  0.00     0.012 A 
ATOM     68  C   UNL A   1      40.989  33.584  40.085  1.00  0.00     0.148 A 
ATOM     69  C   UNL A   1      42.465  35.943  39.712  1.00  0.00     0.002 A 
ATOM     70  C   UNL A   1      41.085  34.522  41.109  1.00  0.00     0.091 A 
ATOM     71  F   UNL A   1      40.310  32.438  40.241  1.00  0.00    -0.205 F 
ATOM     72  C   UNL A   1      41.827  35.699  40.927  1.00  0.00     0.022 A 
BRANCH  70  73
ATOM     73  S   UNL A   1      40.238  34.331  42.683  1.00  0.00     0.127 S 
ATOM     74  O   UNL A   1      41.050  33.302  43.331  1.00  0.00    -0.237 OA
ATOM     75  O   UNL A   1      40.365  35.667  43.269  1.00  0.00    -0.237 OA
ATOM     76  O   UNL A   1      38.874  33.937  42.361  1.00  0.00    -0.744 OA
ENDBRANCH  70  73
ENDBRANCH  52  66
BRANCH  53  77
ATOM     77  C   UNL A   1      40.052  28.087  30.809  1.00  0.00     0.023 A 
ATOM     78  C   UNL A   1      39.118  27.038  30.794  1.00  0.00     0.012 A 
ATOM     79  C   UNL A   1      40.705  28.452  29.614  1.00  0.00     0.148 A 
ATOM     80  C   UNL A   1      38.845  26.355  29.610  1.00  0.00     0.002 A 
ATOM     81  C   UNL A   1      40.381  27.812  28.427  1.00  0.00     0.091 A 
ATOM     82  F   UNL A   1      41.598  29.453  29.657  1.00  0.00    -0.205 F 
ATOM     83  C   UNL A   1      39.463  26.752  28.425  1.00  0.00     0.022 A 
BRANCH  81  84
ATOM     84  S   UNL A   1      41.007  28.363  26.836  1.00  0.00     0.127 S 
ATOM     85  O   UNL A   1      42.329  28.869  27.196  1.00  0.00    -0.237 OA
ATOM     86  O   UNL A   1      41.009  27.119  26.064  1.00  0.00    -0.237 OA
ATOM     87  O   UNL A   1      40.055  29.360  26.363  1.00  0.00    -0.744 OA
ENDBRANCH  81  84
ENDBRANCH  53  77
BRANCH  65  88
ATOM     88  C   UNL A   1      45.098  28.418  35.626  1.00  0.00     0.023 A 
ATOM     89  C   UNL A   1      46.306  28.903  35.090  1.00  0.00     0.012 A 
ATOM     90  C   UNL A   1      45.104  27.236  36.393  1.00  0.00     0.148 A 
ATOM     91  C   UNL A   1      47.496  28.204  35.285  1.00  0.00     0.002 A 
ATOM     92  C   UNL A   1      46.301  26.575  36.630  1.00  0.00     0.091 A 
ATOM     93  F   UNL A   1      43.938  26.784  36.878  1.00  0.00    -0.205 F 
ATOM     94  C   UNL A   1      47.495  27.048  36.064  1.00  0.00     0.022 A 
BRANCH  92  95
ATOM     95  S   UNL A   1      46.413  25.135  37.696  1.00  0.00     0.127 S 
ATOM     96  O   UNL A   1      45.586  24.166  36.976  1.00  0.00    -0.237 OA
ATOM     97  O   UNL A   1      47.847  24.849  37.674  1.00  0.00    -0.237 OA
ATOM     98  O   UNL A   1      45.896  25.550  38.992  1.00  0.00    -0.744 OA
ENDBRANCH  92  95
ENDBRANCH  65  88
ENDBRANCH  39  40
ENDBRANCH  32  34
ENDBRANCH  31  32
ENDBRANCH  30  31
ENDBRANCH   1  30
TORSDOF 21
ENDMDL
