MODEL 1
REMARK VINA RESULT:      -9.2      0.000      0.000
REMARK SMILES N#C/C(=C\c1ccc(-c2ccc(C(=O)OCCOC(=O)c3ccc(-c4c5nc(c(-c6cccc(S(=O)(=O)[O-])c6F)c6ccc([nH]6)c(-c6cccc(S(=O)(=O)[O-])c6F)c6nc(c(-c7cccc(S(=O)(=O)[O-])c7F)c7ccc4[nH]7)C=C6)C=C5)cc3)cc2)o1)[C@@H]1N=c2cc(Br)cnc2=N1
REMARK SMILES IDX 16 1 15 2 13 3 14 4 12 5 9 6 10 7 85 8 11 9 84 10 8 11 5 12
REMARK SMILES IDX 6 13 86 14 7 15 4 16 3 17 2 18 1 19 87 20 88 21 96 22 89 23
REMARK SMILES IDX 95 24 90 25 94 26 91 27 93 28 92 29 17 30 18 31 19 32 20 33
REMARK SMILES IDX 21 34 22 35 83 36 23 37 82 38 24 39 25 40 26 41 76 42 27 43
REMARK SMILES IDX 81 44 75 45 77 46 28 47 80 48 74 49 73 50 29 52 61 53 41 54
REMARK SMILES IDX 60 55 42 56 45 57 59 58 78 59 43 60 44 61 58 63 79 64 46 65
REMARK SMILES IDX 30 66 31 67 39 68 32 69 34 70 40 71 33 72 35 73 36 74 37 75
REMARK SMILES IDX 38 76 62 77 63 78 71 79 64 80 66 81 72 82 65 83 67 84 68 85
REMARK SMILES IDX 69 86 70 87 47 88 48 89 56 90 49 91 51 92 57 93 50 94 52 95
REMARK SMILES IDX 53 96 54 97 55 98
REMARK H PARENT 77 51 45 62
REMARK Flexibility Score: inf
ROOT
ATOM      1  C   UNL A   1      34.933  33.841  31.710  1.00  0.00     0.275 C 
ENDROOT
BRANCH   1   2
ATOM      2  O   UNL A   1      35.914  34.888  31.865  1.00  0.00    -0.458 OA
BRANCH   2   3
ATOM      3  C   UNL A   1      36.865  34.651  32.803  1.00  0.00     0.338 C 
ATOM      4  O   UNL A   1      36.691  34.556  34.005  1.00  0.00    -0.246 OA
BRANCH   3   5
ATOM      5  C   UNL A   1      38.197  34.480  32.177  1.00  0.00     0.060 A 
ATOM      6  C   UNL A   1      40.657  33.889  30.952  1.00  0.00     0.017 A 
ATOM      7  C   UNL A   1      39.485  33.934  30.193  1.00  0.00     0.013 A 
ATOM      8  C   UNL A   1      40.592  34.182  32.324  1.00  0.00     0.013 A 
ATOM      9  C   UNL A   1      38.260  34.197  30.807  1.00  0.00     0.016 A 
ATOM     10  C   UNL A   1      39.370  34.494  32.935  1.00  0.00     0.016 A 
BRANCH   6  11
ATOM     11  C   UNL A   1      41.887  33.408  30.349  1.00  0.00     0.134 A 
ATOM     12  C   UNL A   1      43.242  31.802  29.624  1.00  0.00     0.128 A 
ATOM     13  C   UNL A   1      43.936  33.009  29.581  1.00  0.00     0.051 A 
ATOM     14  O   UNL A   1      41.969  32.075  30.076  1.00  0.00    -0.457 OA
ATOM     15  C   UNL A   1      43.073  34.028  30.039  1.00  0.00     0.051 A 
BRANCH  12  16
ATOM     16  C   UNL A   1      43.685  30.498  29.255  1.00  0.00     0.066 C 
ATOM     17  C   UNL A   1      44.006  30.158  27.987  1.00  0.00     0.080 C 
BRANCH  17  18
ATOM     18  C   UNL A   1      44.050  31.237  26.917  1.00  0.00     0.099 C 
ATOM     19  N   UNL A   1      44.087  32.132  26.029  1.00  0.00    -0.193 NA
ENDBRANCH  17  18
BRANCH  17  20
ATOM     20  C   UNL A   1      44.284  28.739  27.579  1.00  0.00     0.265 C 
ATOM     21  N   UNL A   1      45.585  28.263  28.113  1.00  0.00    -0.249 NA
ATOM     22  N   UNL A   1      44.249  28.633  26.095  1.00  0.00    -0.232 NA
ATOM     23  C   UNL A   1      46.194  27.878  27.048  1.00  0.00     0.106 A 
ATOM     24  C   UNL A   1      45.397  28.113  25.823  1.00  0.00     0.175 A 
ATOM     25  C   UNL A   1      47.514  27.271  26.889  1.00  0.00     0.049 A 
ATOM     26  N   UNL A   1      45.814  27.837  24.556  1.00  0.00    -0.234 NA
ATOM     27  C   UNL A   1      47.908  26.995  25.638  1.00  0.00     0.038 A 
ATOM     28  C   UNL A   1      47.001  27.320  24.491  1.00  0.00     0.129 A 
ATOM     29  Br  UNL A   1      49.547  26.211  25.243  1.00  0.00    -0.049 Br
ENDBRANCH  17  20
ENDBRANCH  12  16
ENDBRANCH   6  11
ENDBRANCH   3   5
ENDBRANCH   2   3
ENDBRANCH   1   2
BRANCH   1  30
ATOM     30  C   UNL A   1      34.514  33.686  30.249  1.00  0.00     0.275 C 
BRANCH  30  31
ATOM     31  O   UNL A   1      34.262  32.302  29.954  1.00  0.00    -0.458 OA
BRANCH  31  32
ATOM     32  C   UNL A   1      34.663  31.880  28.734  1.00  0.00     0.338 C 
ATOM     33  O   UNL A   1      34.150  32.137  27.659  1.00  0.00    -0.246 OA
BRANCH  32  34
ATOM     34  C   UNL A   1      35.861  31.030  28.862  1.00  0.00     0.060 A 
ATOM     35  C   UNL A   1      35.811  29.872  29.634  1.00  0.00     0.016 A 
ATOM     36  C   UNL A   1      37.076  31.468  28.339  1.00  0.00     0.016 A 
ATOM     37  C   UNL A   1      36.988  29.212  29.985  1.00  0.00     0.010 A 
ATOM     38  C   UNL A   1      38.244  30.748  28.611  1.00  0.00     0.010 A 
ATOM     39  C   UNL A   1      38.225  29.647  29.487  1.00  0.00    -0.014 A 
BRANCH  39  40
ATOM     40  C   UNL A   1      39.502  29.023  29.946  1.00  0.00     0.031 A 
ATOM     41  C   UNL A   1      40.163  29.514  31.214  1.00  0.00     0.074 A 
ATOM     42  C   UNL A   1      40.078  28.020  29.254  1.00  0.00     0.049 A 
ATOM     43  N   UNL A   1      41.351  29.240  31.689  1.00  0.00    -0.248 NA
ATOM     44  C   UNL A   1      39.391  30.453  32.046  1.00  0.00     0.031 C 
ATOM     45  C   UNL A   1      39.549  27.420  28.029  1.00  0.00     0.029 A 
ATOM     46  N   UNL A   1      41.241  27.324  29.486  1.00  0.00    -0.354 N 
ATOM     47  C   UNL A   1      41.503  30.037  32.818  1.00  0.00     0.074 A 
ATOM     48  C   UNL A   1      40.281  30.796  32.967  1.00  0.00     0.031 C 
ATOM     49  C   UNL A   1      40.359  26.423  27.640  1.00  0.00     0.029 A 
ATOM     50  C   UNL A   1      41.504  26.356  28.544  1.00  0.00     0.049 A 
ATOM     51  H   UNL A   1      41.830  27.502  30.254  1.00  0.00     0.167 HD
ATOM     52  C   UNL A   1      42.556  30.122  33.667  1.00  0.00     0.034 A 
ATOM     53  C   UNL A   1      42.554  25.523  28.407  1.00  0.00     0.034 A 
ATOM     54  C   UNL A   1      43.728  29.292  33.587  1.00  0.00     0.049 A 
ATOM     55  C   UNL A   1      43.688  25.597  29.393  1.00  0.00     0.074 A 
ATOM     56  C   UNL A   1      44.842  29.294  34.409  1.00  0.00     0.029 A 
ATOM     57  N   UNL A   1      43.920  28.286  32.654  1.00  0.00    -0.354 N 
ATOM     58  N   UNL A   1      43.810  26.356  30.455  1.00  0.00    -0.248 NA
ATOM     59  C   UNL A   1      44.826  24.693  29.167  1.00  0.00     0.031 C 
ATOM     60  C   UNL A   1      45.701  28.275  33.982  1.00  0.00     0.029 A 
ATOM     61  C   UNL A   1      45.124  27.644  32.893  1.00  0.00     0.049 A 
ATOM     62  H   UNL A   1      43.295  28.061  31.929  1.00  0.00     0.167 HD
ATOM     63  C   UNL A   1      45.028  26.012  31.031  1.00  0.00     0.074 A 
ATOM     64  C   UNL A   1      45.591  24.954  30.219  1.00  0.00     0.031 C 
ATOM     65  C   UNL A   1      45.638  26.545  32.118  1.00  0.00     0.034 A 
BRANCH  52  66
ATOM     66  C   UNL A   1      42.470  31.123  34.786  1.00  0.00     0.023 A 
ATOM     67  C   UNL A   1      41.981  30.721  36.044  1.00  0.00     0.012 A 
ATOM     68  C   UNL A   1      42.914  32.449  34.610  1.00  0.00     0.148 A 
ATOM     69  C   UNL A   1      41.907  31.629  37.101  1.00  0.00     0.002 A 
ATOM     70  C   UNL A   1      42.872  33.339  35.678  1.00  0.00     0.091 A 
ATOM     71  F   UNL A   1      43.351  32.825  33.398  1.00  0.00    -0.205 F 
ATOM     72  C   UNL A   1      42.362  32.933  36.921  1.00  0.00     0.022 A 
BRANCH  70  73
ATOM     73  S   UNL A   1      43.510  35.013  35.542  1.00  0.00     0.127 S 
ATOM     74  O   UNL A   1      44.728  34.806  34.763  1.00  0.00    -0.237 OA
ATOM     75  O   UNL A   1      42.439  35.705  34.823  1.00  0.00    -0.237 OA
ATOM     76  O   UNL A   1      43.699  35.469  36.913  1.00  0.00    -0.744 OA
ENDBRANCH  70  73
ENDBRANCH  52  66
BRANCH  53  77
ATOM     77  C   UNL A   1      42.556  24.506  27.317  1.00  0.00     0.023 A 
ATOM     78  C   UNL A   1      43.250  24.786  26.123  1.00  0.00     0.012 A 
ATOM     79  C   UNL A   1      41.928  23.255  27.468  1.00  0.00     0.148 A 
ATOM     80  C   UNL A   1      43.307  23.843  25.096  1.00  0.00     0.002 A 
ATOM     81  C   UNL A   1      42.039  22.299  26.464  1.00  0.00     0.091 A 
ATOM     82  F   UNL A   1      41.244  23.016  28.596  1.00  0.00    -0.205 F 
ATOM     83  C   UNL A   1      42.717  22.595  25.272  1.00  0.00     0.022 A 
BRANCH  81  84
ATOM     84  S   UNL A   1      41.430  20.623  26.685  1.00  0.00     0.127 S 
ATOM     85  O   UNL A   1      42.208  20.169  27.834  1.00  0.00    -0.237 OA
ATOM     86  O   UNL A   1      40.007  20.841  26.953  1.00  0.00    -0.237 OA
ATOM     87  O   UNL A   1      41.699  19.951  25.420  1.00  0.00    -0.744 OA
ENDBRANCH  81  84
ENDBRANCH  53  77
BRANCH  65  88
ATOM     88  C   UNL A   1      46.975  25.982  32.512  1.00  0.00     0.023 A 
ATOM     89  C   UNL A   1      47.044  25.019  33.537  1.00  0.00     0.012 A 
ATOM     90  C   UNL A   1      48.148  26.348  31.824  1.00  0.00     0.148 A 
ATOM     91  C   UNL A   1      48.264  24.442  33.886  1.00  0.00     0.002 A 
ATOM     92  C   UNL A   1      49.357  25.744  32.156  1.00  0.00     0.091 A 
ATOM     93  F   UNL A   1      48.068  27.285  30.868  1.00  0.00    -0.205 F 
ATOM     94  C   UNL A   1      49.418  24.796  33.189  1.00  0.00     0.022 A 
BRANCH  92  95
ATOM     95  S   UNL A   1      50.868  26.096  31.250  1.00  0.00     0.127 S 
ATOM     96  O   UNL A   1      50.431  25.942  29.863  1.00  0.00    -0.237 OA
ATOM     97  O   UNL A   1      51.165  27.474  31.644  1.00  0.00    -0.237 OA
ATOM     98  O   UNL A   1      51.841  25.119  31.721  1.00  0.00    -0.744 OA
ENDBRANCH  92  95
ENDBRANCH  65  88
ENDBRANCH  39  40
ENDBRANCH  32  34
ENDBRANCH  31  32
ENDBRANCH  30  31
ENDBRANCH   1  30
TORSDOF 18
ENDMDL
MODEL 2
REMARK VINA RESULT:      -9.2      5.211      8.140
REMARK SMILES N#C/C(=C\c1ccc(-c2ccc(C(=O)OCCOC(=O)c3ccc(-c4c5nc(c(-c6cccc(S(=O)(=O)[O-])c6F)c6ccc([nH]6)c(-c6cccc(S(=O)(=O)[O-])c6F)c6nc(c(-c7cccc(S(=O)(=O)[O-])c7F)c7ccc4[nH]7)C=C6)C=C5)cc3)cc2)o1)[C@@H]1N=c2cc(Br)cnc2=N1
REMARK SMILES IDX 16 1 15 2 13 3 14 4 12 5 9 6 10 7 85 8 11 9 84 10 8 11 5 12
REMARK SMILES IDX 6 13 86 14 7 15 4 16 3 17 2 18 1 19 87 20 88 21 96 22 89 23
REMARK SMILES IDX 95 24 90 25 94 26 91 27 93 28 92 29 17 30 18 31 19 32 20 33
REMARK SMILES IDX 21 34 22 35 83 36 23 37 82 38 24 39 25 40 26 41 76 42 27 43
REMARK SMILES IDX 81 44 75 45 77 46 28 47 80 48 74 49 73 50 29 52 61 53 41 54
REMARK SMILES IDX 60 55 42 56 45 57 59 58 78 59 43 60 44 61 58 63 79 64 46 65
REMARK SMILES IDX 30 66 31 67 39 68 32 69 34 70 40 71 33 72 35 73 36 74 37 75
REMARK SMILES IDX 38 76 62 77 63 78 71 79 64 80 66 81 72 82 65 83 67 84 68 85
REMARK SMILES IDX 69 86 70 87 47 88 48 89 56 90 49 91 51 92 57 93 50 94 52 95
REMARK SMILES IDX 53 96 54 97 55 98
REMARK H PARENT 77 51 45 62
REMARK Flexibility Score: inf
ROOT
ATOM      1  C   UNL A   1      34.794  35.417  28.188  1.00  0.00     0.275 C 
ENDROOT
BRANCH   1   2
ATOM      2  O   UNL A   1      34.638  34.162  27.494  1.00  0.00    -0.458 OA
BRANCH   2   3
ATOM      3  C   UNL A   1      35.392  33.141  27.971  1.00  0.00     0.338 C 
ATOM      4  O   UNL A   1      36.500  33.230  28.473  1.00  0.00    -0.246 OA
BRANCH   3   5
ATOM      5  C   UNL A   1      34.681  31.848  27.842  1.00  0.00     0.060 A 
ATOM      6  C   UNL A   1      33.455  29.368  27.349  1.00  0.00     0.017 A 
ATOM      7  C   UNL A   1      34.820  29.433  27.635  1.00  0.00     0.013 A 
ATOM      8  C   UNL A   1      32.699  30.552  27.352  1.00  0.00     0.013 A 
ATOM      9  C   UNL A   1      35.435  30.667  27.849  1.00  0.00     0.016 A 
ATOM     10  C   UNL A   1      33.305  31.789  27.614  1.00  0.00     0.016 A 
BRANCH   6  11
ATOM     11  C   UNL A   1      32.869  28.111  26.920  1.00  0.00     0.134 A 
ATOM     12  C   UNL A   1      32.943  26.134  25.906  1.00  0.00     0.128 A 
ATOM     13  C   UNL A   1      31.620  26.392  26.259  1.00  0.00     0.051 A 
ATOM     14  O   UNL A   1      33.701  27.196  26.347  1.00  0.00    -0.457 OA
ATOM     15  C   UNL A   1      31.576  27.646  26.905  1.00  0.00     0.051 A 
BRANCH  12  16
ATOM     16  C   UNL A   1      33.490  24.995  25.243  1.00  0.00     0.066 C 
ATOM     17  C   UNL A   1      33.602  24.905  23.901  1.00  0.00     0.080 C 
BRANCH  17  18
ATOM     18  C   UNL A   1      33.277  26.119  23.044  1.00  0.00     0.099 C 
ATOM     19  N   UNL A   1      33.009  27.126  22.334  1.00  0.00    -0.193 NA
ENDBRANCH  17  18
BRANCH  17  20
ATOM     20  C   UNL A   1      33.998  23.631  23.208  1.00  0.00     0.265 C 
ATOM     21  N   UNL A   1      32.839  22.718  23.045  1.00  0.00    -0.249 NA
ATOM     22  N   UNL A   1      35.091  22.970  23.971  1.00  0.00    -0.232 NA
ATOM     23  C   UNL A   1      33.259  21.640  23.606  1.00  0.00     0.106 A 
ATOM     24  C   UNL A   1      34.614  21.791  24.182  1.00  0.00     0.175 A 
ATOM     25  C   UNL A   1      32.604  20.341  23.753  1.00  0.00     0.049 A 
ATOM     26  N   UNL A   1      35.284  20.823  24.867  1.00  0.00    -0.234 NA
ATOM     27  C   UNL A   1      33.277  19.394  24.420  1.00  0.00     0.038 A 
ATOM     28  C   UNL A   1      34.634  19.706  24.974  1.00  0.00     0.129 A 
ATOM     29  Br  UNL A   1      32.611  17.680  24.693  1.00  0.00    -0.049 Br
ENDBRANCH  17  20
ENDBRANCH  12  16
ENDBRANCH   6  11
ENDBRANCH   3   5
ENDBRANCH   2   3
ENDBRANCH   1   2
BRANCH   1  30
ATOM     30  C   UNL A   1      33.441  36.012  28.572  1.00  0.00     0.275 C 
BRANCH  30  31
ATOM     31  O   UNL A   1      32.806  35.189  29.565  1.00  0.00    -0.458 OA
BRANCH  31  32
ATOM     32  C   UNL A   1      32.850  35.660  30.832  1.00  0.00     0.338 C 
ATOM     33  O   UNL A   1      32.211  36.586  31.297  1.00  0.00    -0.246 OA
BRANCH  32  34
ATOM     34  C   UNL A   1      33.812  34.876  31.628  1.00  0.00     0.060 A 
ATOM     35  C   UNL A   1      34.794  35.528  32.371  1.00  0.00     0.016 A 
ATOM     36  C   UNL A   1      33.832  33.487  31.512  1.00  0.00     0.016 A 
ATOM     37  C   UNL A   1      35.865  34.809  32.901  1.00  0.00     0.010 A 
ATOM     38  C   UNL A   1      34.854  32.758  32.129  1.00  0.00     0.010 A 
ATOM     39  C   UNL A   1      35.917  33.413  32.779  1.00  0.00    -0.014 A 
BRANCH  39  40
ATOM     40  C   UNL A   1      37.111  32.644  33.240  1.00  0.00     0.031 A 
ATOM     41  C   UNL A   1      37.732  32.959  34.581  1.00  0.00     0.074 A 
ATOM     42  C   UNL A   1      37.645  31.664  32.485  1.00  0.00     0.049 A 
ATOM     43  N   UNL A   1      38.865  32.543  35.089  1.00  0.00    -0.248 NA
ATOM     44  C   UNL A   1      36.989  33.879  35.460  1.00  0.00     0.031 C 
ATOM     45  C   UNL A   1      37.144  31.225  31.182  1.00  0.00     0.029 A 
ATOM     46  N   UNL A   1      38.735  30.854  32.708  1.00  0.00    -0.354 N 
ATOM     47  C   UNL A   1      39.012  33.218  36.296  1.00  0.00     0.074 A 
ATOM     48  C   UNL A   1      37.847  34.060  36.454  1.00  0.00     0.031 C 
ATOM     49  C   UNL A   1      37.895  30.204  30.741  1.00  0.00     0.029 A 
ATOM     50  C   UNL A   1      38.975  29.958  31.692  1.00  0.00     0.049 A 
ATOM     51  H   UNL A   1      39.290  30.911  33.519  1.00  0.00     0.167 HD
ATOM     52  C   UNL A   1      40.017  33.135  37.201  1.00  0.00     0.034 A 
ATOM     53  C   UNL A   1      39.963  29.055  31.530  1.00  0.00     0.034 A 
ATOM     54  C   UNL A   1      41.123  32.221  37.102  1.00  0.00     0.049 A 
ATOM     55  C   UNL A   1      41.039  28.943  32.575  1.00  0.00     0.074 A 
ATOM     56  C   UNL A   1      42.183  32.053  37.976  1.00  0.00     0.029 A 
ATOM     57  N   UNL A   1      41.290  31.292  36.087  1.00  0.00    -0.354 N 
ATOM     58  N   UNL A   1      41.158  29.589  33.710  1.00  0.00    -0.248 NA
ATOM     59  C   UNL A   1      42.113  27.971  32.321  1.00  0.00     0.031 C 
ATOM     60  C   UNL A   1      42.983  31.009  37.498  1.00  0.00     0.029 A 
ATOM     61  C   UNL A   1      42.423  30.532  36.324  1.00  0.00     0.049 A 
ATOM     62  H   UNL A   1      40.692  31.189  35.313  1.00  0.00     0.167 HD
ATOM     63  C   UNL A   1      42.308  29.092  34.312  1.00  0.00     0.074 A 
ATOM     64  C   UNL A   1      42.834  28.069  33.431  1.00  0.00     0.031 C 
ATOM     65  C   UNL A   1      42.893  29.470  35.475  1.00  0.00     0.034 A 
BRANCH  52  66
ATOM     66  C   UNL A   1      39.945  34.034  38.406  1.00  0.00     0.023 A 
ATOM     67  C   UNL A   1      40.646  35.255  38.407  1.00  0.00     0.012 A 
ATOM     68  C   UNL A   1      39.149  33.693  39.518  1.00  0.00     0.148 A 
ATOM     69  C   UNL A   1      40.581  36.110  39.507  1.00  0.00     0.002 A 
ATOM     70  C   UNL A   1      39.059  34.568  40.596  1.00  0.00     0.091 A 
ATOM     71  F   UNL A   1      38.510  32.513  39.514  1.00  0.00    -0.205 F 
ATOM     72  C   UNL A   1      39.780  35.772  40.596  1.00  0.00     0.022 A 
BRANCH  70  73
ATOM     73  S   UNL A   1      37.990  34.233  42.000  1.00  0.00     0.127 S 
ATOM     74  O   UNL A   1      37.989  35.521  42.690  1.00  0.00    -0.237 OA
ATOM     75  O   UNL A   1      36.720  33.887  41.359  1.00  0.00    -0.237 OA
ATOM     76  O   UNL A   1      38.619  33.129  42.712  1.00  0.00    -0.744 OA
ENDBRANCH  70  73
ENDBRANCH  52  66
BRANCH  53  77
ATOM     77  C   UNL A   1      39.948  28.147  30.348  1.00  0.00     0.023 A 
ATOM     78  C   UNL A   1      39.056  27.057  30.335  1.00  0.00     0.012 A 
ATOM     79  C   UNL A   1      40.764  28.378  29.224  1.00  0.00     0.148 A 
ATOM     80  C   UNL A   1      38.986  26.208  29.230  1.00  0.00     0.002 A 
ATOM     81  C   UNL A   1      40.647  27.563  28.103  1.00  0.00     0.091 A 
ATOM     82  F   UNL A   1      41.632  29.399  29.264  1.00  0.00    -0.205 F 
ATOM     83  C   UNL A   1      39.768  26.469  28.109  1.00  0.00     0.022 A 
BRANCH  81  84
ATOM     84  S   UNL A   1      41.516  27.930  26.574  1.00  0.00     0.127 S 
ATOM     85  O   UNL A   1      42.910  27.899  27.004  1.00  0.00    -0.237 OA
ATOM     86  O   UNL A   1      41.112  26.818  25.711  1.00  0.00    -0.237 OA
ATOM     87  O   UNL A   1      41.003  29.226  26.148  1.00  0.00    -0.744 OA
ENDBRANCH  81  84
ENDBRANCH  53  77
BRANCH  65  88
ATOM     88  C   UNL A   1      44.156  28.762  35.880  1.00  0.00     0.023 A 
ATOM     89  C   UNL A   1      44.074  27.609  36.684  1.00  0.00     0.012 A 
ATOM     90  C   UNL A   1      45.412  29.192  35.410  1.00  0.00     0.148 A 
ATOM     91  C   UNL A   1      45.226  26.904  37.031  1.00  0.00     0.002 A 
ATOM     92  C   UNL A   1      46.554  28.465  35.734  1.00  0.00     0.091 A 
ATOM     93  F   UNL A   1      45.475  30.307  34.667  1.00  0.00    -0.205 F 
ATOM     94  C   UNL A   1      46.463  27.325  36.548  1.00  0.00     0.022 A 
BRANCH  92  95
ATOM     95  S   UNL A   1      48.169  28.906  35.084  1.00  0.00     0.127 S 
ATOM     96  O   UNL A   1      48.380  30.227  35.671  1.00  0.00    -0.237 OA
ATOM     97  O   UNL A   1      49.031  27.855  35.627  1.00  0.00    -0.237 OA
ATOM     98  O   UNL A   1      48.029  28.870  33.634  1.00  0.00    -0.744 OA
ENDBRANCH  92  95
ENDBRANCH  65  88
ENDBRANCH  39  40
ENDBRANCH  32  34
ENDBRANCH  31  32
ENDBRANCH  30  31
ENDBRANCH   1  30
TORSDOF 18
ENDMDL
MODEL 3
REMARK VINA RESULT:      -8.8      5.179     11.617
REMARK SMILES N#C/C(=C\c1ccc(-c2ccc(C(=O)OCCOC(=O)c3ccc(-c4c5nc(c(-c6cccc(S(=O)(=O)[O-])c6F)c6ccc([nH]6)c(-c6cccc(S(=O)(=O)[O-])c6F)c6nc(c(-c7cccc(S(=O)(=O)[O-])c7F)c7ccc4[nH]7)C=C6)C=C5)cc3)cc2)o1)[C@@H]1N=c2cc(Br)cnc2=N1
REMARK SMILES IDX 16 1 15 2 13 3 14 4 12 5 9 6 10 7 85 8 11 9 84 10 8 11 5 12
REMARK SMILES IDX 6 13 86 14 7 15 4 16 3 17 2 18 1 19 87 20 88 21 96 22 89 23
REMARK SMILES IDX 95 24 90 25 94 26 91 27 93 28 92 29 17 30 18 31 19 32 20 33
REMARK SMILES IDX 21 34 22 35 83 36 23 37 82 38 24 39 25 40 26 41 76 42 27 43
REMARK SMILES IDX 81 44 75 45 77 46 28 47 80 48 74 49 73 50 29 52 61 53 41 54
REMARK SMILES IDX 60 55 42 56 45 57 59 58 78 59 43 60 44 61 58 63 79 64 46 65
REMARK SMILES IDX 30 66 31 67 39 68 32 69 34 70 40 71 33 72 35 73 36 74 37 75
REMARK SMILES IDX 38 76 62 77 63 78 71 79 64 80 66 81 72 82 65 83 67 84 68 85
REMARK SMILES IDX 69 86 70 87 47 88 48 89 56 90 49 91 51 92 57 93 50 94 52 95
REMARK SMILES IDX 53 96 54 97 55 98
REMARK H PARENT 77 51 45 62
REMARK Flexibility Score: inf
ROOT
ATOM      1  C   UNL A   1      43.246  22.146  24.993  1.00  0.00     0.275 C 
ENDROOT
BRANCH   1   2
ATOM      2  O   UNL A   1      43.300  21.363  26.203  1.00  0.00    -0.458 OA
BRANCH   2   3
ATOM      3  C   UNL A   1      42.428  21.739  27.172  1.00  0.00     0.338 C 
ATOM      4  O   UNL A   1      42.698  21.987  28.335  1.00  0.00    -0.246 OA
BRANCH   3   5
ATOM      5  C   UNL A   1      41.053  21.853  26.635  1.00  0.00     0.060 A 
ATOM      6  C   UNL A   1      38.356  22.085  25.878  1.00  0.00     0.017 A 
ATOM      7  C   UNL A   1      39.035  23.185  26.405  1.00  0.00     0.013 A 
ATOM      8  C   UNL A   1      39.050  20.877  25.695  1.00  0.00     0.013 A 
ATOM      9  C   UNL A   1      40.365  23.061  26.810  1.00  0.00     0.016 A 
ATOM     10  C   UNL A   1      40.400  20.764  26.056  1.00  0.00     0.016 A 
BRANCH   6  11
ATOM     11  C   UNL A   1      36.922  22.161  25.660  1.00  0.00     0.134 A 
ATOM     12  C   UNL A   1      34.934  23.133  25.875  1.00  0.00     0.128 A 
ATOM     13  C   UNL A   1      34.744  21.871  25.315  1.00  0.00     0.051 A 
ATOM     14  O   UNL A   1      36.290  23.302  26.055  1.00  0.00    -0.457 OA
ATOM     15  C   UNL A   1      36.007  21.257  25.177  1.00  0.00     0.051 A 
BRANCH  12  16
ATOM     16  C   UNL A   1      33.965  24.128  26.196  1.00  0.00     0.066 C 
ATOM     17  C   UNL A   1      33.524  25.043  25.307  1.00  0.00     0.080 C 
BRANCH  17  18
ATOM     18  C   UNL A   1      33.950  24.932  23.852  1.00  0.00     0.099 C 
ATOM     19  N   UNL A   1      34.303  24.840  22.645  1.00  0.00    -0.193 NA
ENDBRANCH  17  18
BRANCH  17  20
ATOM     20  C   UNL A   1      32.653  26.201  25.707  1.00  0.00     0.265 C 
ATOM     21  N   UNL A   1      31.218  25.918  25.449  1.00  0.00    -0.249 NA
ATOM     22  N   UNL A   1      33.090  27.426  24.982  1.00  0.00    -0.232 NA
ATOM     23  C   UNL A   1      30.872  26.909  24.706  1.00  0.00     0.106 A 
ATOM     24  C   UNL A   1      32.004  27.815  24.407  1.00  0.00     0.175 A 
ATOM     25  C   UNL A   1      29.569  27.243  24.134  1.00  0.00     0.049 A 
ATOM     26  N   UNL A   1      31.931  28.920  23.613  1.00  0.00    -0.234 NA
ATOM     27  C   UNL A   1      29.509  28.337  23.363  1.00  0.00     0.038 A 
ATOM     28  C   UNL A   1      30.750  29.142  23.125  1.00  0.00     0.129 A 
ATOM     29  Br  UNL A   1      27.937  28.926  22.563  1.00  0.00    -0.049 Br
ENDBRANCH  17  20
ENDBRANCH  12  16
ENDBRANCH   6  11
ENDBRANCH   3   5
ENDBRANCH   2   3
ENDBRANCH   1   2
BRANCH   1  30
ATOM     30  C   UNL A   1      44.568  22.869  24.741  1.00  0.00     0.275 C 
BRANCH  30  31
ATOM     31  O   UNL A   1      44.317  24.202  24.267  1.00  0.00    -0.458 OA
BRANCH  31  32
ATOM     32  C   UNL A   1      44.993  25.187  24.903  1.00  0.00     0.338 C 
ATOM     33  O   UNL A   1      46.173  25.466  24.787  1.00  0.00    -0.246 OA
BRANCH  32  34
ATOM     34  C   UNL A   1      44.083  25.926  25.797  1.00  0.00     0.060 A 
ATOM     35  C   UNL A   1      43.974  27.310  25.687  1.00  0.00     0.016 A 
ATOM     36  C   UNL A   1      43.455  25.258  26.846  1.00  0.00     0.016 A 
ATOM     37  C   UNL A   1      43.338  28.046  26.687  1.00  0.00     0.010 A 
ATOM     38  C   UNL A   1      42.734  25.989  27.796  1.00  0.00     0.010 A 
ATOM     39  C   UNL A   1      42.718  27.395  27.765  1.00  0.00    -0.014 A 
BRANCH  39  40
ATOM     40  C   UNL A   1      42.135  28.172  28.899  1.00  0.00     0.031 A 
ATOM     41  C   UNL A   1      42.951  28.392  30.152  1.00  0.00     0.074 A 
ATOM     42  C   UNL A   1      40.893  28.690  28.827  1.00  0.00     0.049 A 
ATOM     43  N   UNL A   1      42.578  28.875  31.310  1.00  0.00    -0.248 NA
ATOM     44  C   UNL A   1      44.370  28.000  30.101  1.00  0.00     0.031 C 
ATOM     45  C   UNL A   1      39.994  28.585  27.678  1.00  0.00     0.029 A 
ATOM     46  N   UNL A   1      40.170  29.413  29.747  1.00  0.00    -0.354 N 
ATOM     47  C   UNL A   1      43.684  28.759  32.146  1.00  0.00     0.074 A 
ATOM     48  C   UNL A   1      44.748  28.174  31.360  1.00  0.00     0.031 C 
ATOM     49  C   UNL A   1      38.859  29.252  27.942  1.00  0.00     0.029 A 
ATOM     50  C   UNL A   1      38.917  29.773  29.305  1.00  0.00     0.049 A 
ATOM     51  H   UNL A   1      40.516  29.651  30.637  1.00  0.00     0.167 HD
ATOM     52  C   UNL A   1      43.812  29.120  33.445  1.00  0.00     0.034 A 
ATOM     53  C   UNL A   1      37.918  30.427  29.929  1.00  0.00     0.034 A 
ATOM     54  C   UNL A   1      42.795  29.801  34.200  1.00  0.00     0.049 A 
ATOM     55  C   UNL A   1      38.102  30.867  31.356  1.00  0.00     0.074 A 
ATOM     56  C   UNL A   1      42.836  30.221  35.519  1.00  0.00     0.029 A 
ATOM     57  N   UNL A   1      41.568  30.198  33.692  1.00  0.00    -0.354 N 
ATOM     58  N   UNL A   1      39.157  30.750  32.127  1.00  0.00    -0.248 NA
ATOM     59  C   UNL A   1      36.962  31.538  31.998  1.00  0.00     0.031 C 
ATOM     60  C   UNL A   1      41.639  30.888  35.803  1.00  0.00     0.029 A 
ATOM     61  C   UNL A   1      40.852  30.878  34.663  1.00  0.00     0.049 A 
ATOM     62  H   UNL A   1      41.253  30.022  32.777  1.00  0.00     0.167 HD
ATOM     63  C   UNL A   1      38.813  31.344  33.336  1.00  0.00     0.074 A 
ATOM     64  C   UNL A   1      37.464  31.848  33.186  1.00  0.00     0.031 C 
ATOM     65  C   UNL A   1      39.539  31.437  34.477  1.00  0.00     0.034 A 
BRANCH  52  66
ATOM     66  C   UNL A   1      45.121  28.822  34.126  1.00  0.00     0.023 A 
ATOM     67  C   UNL A   1      46.145  29.789  34.120  1.00  0.00     0.012 A 
ATOM     68  C   UNL A   1      45.323  27.607  34.808  1.00  0.00     0.148 A 
ATOM     69  C   UNL A   1      47.360  29.540  34.757  1.00  0.00     0.002 A 
ATOM     70  C   UNL A   1      46.524  27.380  35.474  1.00  0.00     0.091 A 
ATOM     71  F   UNL A   1      44.349  26.684  34.781  1.00  0.00    -0.205 F 
ATOM     72  C   UNL A   1      47.546  28.341  35.442  1.00  0.00     0.022 A 
BRANCH  70  73
ATOM     73  S   UNL A   1      46.806  25.891  36.439  1.00  0.00     0.127 S 
ATOM     74  O   UNL A   1      48.221  26.016  36.775  1.00  0.00    -0.237 OA
ATOM     75  O   UNL A   1      45.894  26.067  37.570  1.00  0.00    -0.237 OA
ATOM     76  O   UNL A   1      46.455  24.786  35.557  1.00  0.00    -0.744 OA
ENDBRANCH  70  73
ENDBRANCH  52  66
BRANCH  53  77
ATOM     77  C   UNL A   1      36.667  30.753  29.186  1.00  0.00     0.023 A 
ATOM     78  C   UNL A   1      35.855  29.699  28.722  1.00  0.00     0.012 A 
ATOM     79  C   UNL A   1      36.250  32.082  28.981  1.00  0.00     0.148 A 
ATOM     80  C   UNL A   1      34.657  29.965  28.056  1.00  0.00     0.002 A 
ATOM     81  C   UNL A   1      35.028  32.338  28.369  1.00  0.00     0.091 A 
ATOM     82  F   UNL A   1      37.050  33.073  29.399  1.00  0.00    -0.205 F 
ATOM     83  C   UNL A   1      34.236  31.282  27.895  1.00  0.00     0.022 A 
BRANCH  81  84
ATOM     84  S   UNL A   1      34.356  34.001  28.261  1.00  0.00     0.127 S 
ATOM     85  O   UNL A   1      34.730  34.562  29.555  1.00  0.00    -0.237 OA
ATOM     86  O   UNL A   1      35.081  34.556  27.116  1.00  0.00    -0.237 OA
ATOM     87  O   UNL A   1      32.929  33.820  28.027  1.00  0.00    -0.744 OA
ENDBRANCH  81  84
ENDBRANCH  53  77
BRANCH  65  88
ATOM     88  C   UNL A   1      38.904  32.128  35.651  1.00  0.00     0.023 A 
ATOM     89  C   UNL A   1      38.881  33.535  35.694  1.00  0.00     0.012 A 
ATOM     90  C   UNL A   1      38.269  31.392  36.670  1.00  0.00     0.148 A 
ATOM     91  C   UNL A   1      38.253  34.202  36.745  1.00  0.00     0.002 A 
ATOM     92  C   UNL A   1      37.616  32.064  37.699  1.00  0.00     0.091 A 
ATOM     93  F   UNL A   1      38.323  30.053  36.627  1.00  0.00    -0.205 F 
ATOM     94  C   UNL A   1      37.612  33.467  37.741  1.00  0.00     0.022 A 
BRANCH  92  95
ATOM     95  S   UNL A   1      36.705  31.184  38.973  1.00  0.00     0.127 S 
ATOM     96  O   UNL A   1      35.569  32.074  39.200  1.00  0.00    -0.237 OA
ATOM     97  O   UNL A   1      36.367  29.922  38.311  1.00  0.00    -0.237 OA
ATOM     98  O   UNL A   1      37.633  31.041  40.087  1.00  0.00    -0.744 OA
ENDBRANCH  92  95
ENDBRANCH  65  88
ENDBRANCH  39  40
ENDBRANCH  32  34
ENDBRANCH  31  32
ENDBRANCH  30  31
ENDBRANCH   1  30
TORSDOF 18
ENDMDL
