MODEL 1
REMARK VINA RESULT:     -12.0      0.000      0.000
REMARK SMILES C[C@@H](C(=O)OCCOC(=O)c1ccc(-c2c3nc(c(-c4cccc(S(=O)(=O)[O-])c4F)c4ccc([nH]4)c(-c4cccc(S(=O)(=O)[O-])c4F)c4nc(c(-c5cccc(S(=O)(=O)[O-])c5F)c5ccc2[nH]5)C=C4)C=C3)cc1)c1ccc(C[C@H]2CCCC2=O)cc1[N+](=O)[O-]
REMARK SMILES IDX 6 1 5 2 3 3 4 4 2 5 1 6 74 7 75 8 86 9 76 10 85 11 77 12
REMARK SMILES IDX 87 13 88 14 89 15 78 16 79 17 80 18 83 19 81 20 82 21 84 22
REMARK SMILES IDX 7 23 8 24 9 25 10 26 11 27 12 28 73 29 13 30 72 31 14 32
REMARK SMILES IDX 15 33 16 34 66 35 17 36 71 37 65 38 67 39 18 40 70 41 64 42
REMARK SMILES IDX 63 43 19 45 51 46 31 47 50 48 32 49 35 50 49 51 68 52 33 53
REMARK SMILES IDX 34 54 48 56 69 57 36 58 20 59 21 60 29 61 22 62 24 63 30 64
REMARK SMILES IDX 23 65 25 66 26 67 27 68 28 69 52 70 53 71 61 72 54 73 56 74
REMARK SMILES IDX 62 75 55 76 57 77 58 78 59 79 60 80 37 81 38 82 46 83 39 84
REMARK SMILES IDX 41 85 47 86 40 87 42 88 43 89 44 90 45 91
REMARK H PARENT 67 44 35 55
REMARK Flexibility Score: inf
ROOT
ATOM      1  C   UNL A   1      31.535  27.990  25.793  1.00  0.00     0.274 C 
ENDROOT
BRANCH   1   2
ATOM      2  O   UNL A   1      32.099  27.361  24.620  1.00  0.00    -0.462 OA
BRANCH   2   3
ATOM      3  C   UNL A   1      31.466  27.585  23.433  1.00  0.00     0.313 C 
ATOM      4  O   UNL A   1      31.582  28.613  22.774  1.00  0.00    -0.252 OA
BRANCH   3   5
ATOM      5  C   UNL A   1      30.558  26.409  22.994  1.00  0.00     0.133 C 
ATOM      6  C   UNL A   1      29.303  26.250  23.854  1.00  0.00     0.025 C 
BRANCH   5   7
ATOM      7  C   UNL A   1      31.366  25.113  22.949  1.00  0.00     0.044 A 
ATOM      8  C   UNL A   1      30.811  24.032  23.631  1.00  0.00     0.012 A 
ATOM      9  C   UNL A   1      32.637  24.897  22.374  1.00  0.00     0.273 A 
ATOM     10  C   UNL A   1      31.565  22.907  23.929  1.00  0.00     0.004 A 
ATOM     11  C   UNL A   1      33.426  23.770  22.747  1.00  0.00     0.089 A 
ATOM     12  C   UNL A   1      32.916  22.810  23.619  1.00  0.00    -0.040 A 
BRANCH   9  13
ATOM     13  N   UNL A   1      33.143  25.739  21.272  1.00  0.00     0.063 N 
ATOM     14  O   UNL A   1      33.953  26.636  21.553  1.00  0.00    -0.258 OA
ATOM     15  O   UNL A   1      32.791  25.476  20.114  1.00  0.00    -0.258 OA
ENDBRANCH   9  13
BRANCH  12  16
ATOM     16  C   UNL A   1      33.690  21.638  24.175  1.00  0.00     0.047 C 
BRANCH  16  17
ATOM     17  C   UNL A   1      34.956  21.905  25.022  1.00  0.00     0.060 C 
ATOM     18  C   UNL A   1      36.263  22.010  24.218  1.00  0.00     0.012 C 
ATOM     19  C   UNL A   1      35.035  23.172  25.864  1.00  0.00     0.136 C 
ATOM     20  C   UNL A   1      36.758  23.445  24.381  1.00  0.00     0.009 C 
ATOM     21  C   UNL A   1      36.381  23.822  25.795  1.00  0.00     0.076 C 
ATOM     22  O   UNL A   1      34.152  23.631  26.552  1.00  0.00    -0.299 OA
ENDBRANCH  16  17
ENDBRANCH  12  16
ENDBRANCH   5   7
ENDBRANCH   3   5
ENDBRANCH   2   3
ENDBRANCH   1   2
BRANCH   1  23
ATOM     23  C   UNL A   1      31.531  29.512  25.626  1.00  0.00     0.275 C 
BRANCH  23  24
ATOM     24  O   UNL A   1      32.867  30.028  25.808  1.00  0.00    -0.458 OA
BRANCH  24  25
ATOM     25  C   UNL A   1      33.035  30.965  26.775  1.00  0.00     0.338 C 
ATOM     26  O   UNL A   1      32.203  31.766  27.168  1.00  0.00    -0.246 OA
BRANCH  25  27
ATOM     27  C   UNL A   1      34.372  30.820  27.395  1.00  0.00     0.060 A 
ATOM     28  C   UNL A   1      34.731  29.553  27.811  1.00  0.00     0.016 A 
ATOM     29  C   UNL A   1      35.204  31.899  27.723  1.00  0.00     0.016 A 
ATOM     30  C   UNL A   1      35.849  29.382  28.618  1.00  0.00     0.010 A 
ATOM     31  C   UNL A   1      36.406  31.687  28.448  1.00  0.00     0.010 A 
ATOM     32  C   UNL A   1      36.736  30.409  28.909  1.00  0.00    -0.014 A 
BRANCH  32  33
ATOM     33  C   UNL A   1      37.894  29.992  29.757  1.00  0.00     0.031 A 
ATOM     34  C   UNL A   1      39.108  29.405  29.103  1.00  0.00     0.074 A 
ATOM     35  C   UNL A   1      38.011  30.439  31.030  1.00  0.00     0.049 A 
ATOM     36  N   UNL A   1      40.228  29.015  29.652  1.00  0.00    -0.248 NA
ATOM     37  C   UNL A   1      39.070  29.263  27.639  1.00  0.00     0.031 C 
ATOM     38  C   UNL A   1      36.997  31.221  31.733  1.00  0.00     0.029 A 
ATOM     39  N   UNL A   1      39.061  30.391  31.924  1.00  0.00    -0.354 N 
ATOM     40  C   UNL A   1      40.958  28.431  28.629  1.00  0.00     0.074 A 
ATOM     41  C   UNL A   1      40.225  28.655  27.402  1.00  0.00     0.031 C 
ATOM     42  C   UNL A   1      37.507  31.667  32.892  1.00  0.00     0.029 A 
ATOM     43  C   UNL A   1      38.851  31.128  33.076  1.00  0.00     0.049 A 
ATOM     44  H   UNL A   1      39.885  29.880  31.757  1.00  0.00     0.167 HD
ATOM     45  C   UNL A   1      42.088  27.693  28.734  1.00  0.00     0.034 A 
ATOM     46  C   UNL A   1      39.645  31.327  34.153  1.00  0.00     0.034 A 
ATOM     47  C   UNL A   1      42.821  27.510  29.957  1.00  0.00     0.049 A 
ATOM     48  C   UNL A   1      40.933  30.543  34.241  1.00  0.00     0.074 A 
ATOM     49  C   UNL A   1      43.884  26.661  30.211  1.00  0.00     0.029 A 
ATOM     50  N   UNL A   1      42.571  28.199  31.134  1.00  0.00    -0.354 N 
ATOM     51  N   UNL A   1      41.539  29.840  33.315  1.00  0.00    -0.248 NA
ATOM     52  C   UNL A   1      41.619  30.531  35.545  1.00  0.00     0.031 C 
ATOM     53  C   UNL A   1      44.258  26.819  31.551  1.00  0.00     0.029 A 
ATOM     54  C   UNL A   1      43.461  27.800  32.115  1.00  0.00     0.049 A 
ATOM     55  H   UNL A   1      41.864  28.874  31.253  1.00  0.00     0.167 HD
ATOM     56  C   UNL A   1      42.642  29.264  33.936  1.00  0.00     0.074 A 
ATOM     57  C   UNL A   1      42.680  29.777  35.289  1.00  0.00     0.031 C 
ATOM     58  C   UNL A   1      43.508  28.340  33.449  1.00  0.00     0.034 A 
BRANCH  45  59
ATOM     59  C   UNL A   1      42.476  26.885  27.529  1.00  0.00     0.023 A 
ATOM     60  C   UNL A   1      43.150  27.460  26.439  1.00  0.00     0.012 A 
ATOM     61  C   UNL A   1      42.134  25.516  27.496  1.00  0.00     0.148 A 
ATOM     62  C   UNL A   1      43.444  26.689  25.311  1.00  0.00     0.002 A 
ATOM     63  C   UNL A   1      42.472  24.746  26.394  1.00  0.00     0.091 A 
ATOM     64  F   UNL A   1      41.464  25.001  28.537  1.00  0.00    -0.205 F 
ATOM     65  C   UNL A   1      43.113  25.334  25.294  1.00  0.00     0.022 A 
BRANCH  63  66
ATOM     66  S   UNL A   1      42.148  22.983  26.316  1.00  0.00     0.127 S 
ATOM     67  O   UNL A   1      40.691  22.945  26.448  1.00  0.00    -0.237 OA
ATOM     68  O   UNL A   1      42.650  22.641  24.986  1.00  0.00    -0.237 OA
ATOM     69  O   UNL A   1      42.887  22.385  27.419  1.00  0.00    -0.744 OA
ENDBRANCH  63  66
ENDBRANCH  45  59
BRANCH  46  70
ATOM     70  C   UNL A   1      39.264  32.255  35.271  1.00  0.00     0.023 A 
ATOM     71  C   UNL A   1      38.392  31.803  36.287  1.00  0.00     0.012 A 
ATOM     72  C   UNL A   1      39.717  33.586  35.330  1.00  0.00     0.148 A 
ATOM     73  C   UNL A   1      37.967  32.659  37.310  1.00  0.00     0.002 A 
ATOM     74  C   UNL A   1      39.374  34.399  36.405  1.00  0.00     0.091 A 
ATOM     75  F   UNL A   1      40.464  34.055  34.320  1.00  0.00    -0.205 F 
ATOM     76  C   UNL A   1      38.476  33.951  37.381  1.00  0.00     0.022 A 
BRANCH  74  77
ATOM     77  S   UNL A   1      40.176  35.985  36.663  1.00  0.00     0.127 S 
ATOM     78  O   UNL A   1      41.584  35.610  36.729  1.00  0.00    -0.237 OA
ATOM     79  O   UNL A   1      39.788  36.726  35.461  1.00  0.00    -0.237 OA
ATOM     80  O   UNL A   1      39.586  36.504  37.890  1.00  0.00    -0.744 OA
ENDBRANCH  74  77
ENDBRANCH  46  70
BRANCH  58  81
ATOM     81  C   UNL A   1      44.560  27.804  34.383  1.00  0.00     0.023 A 
ATOM     82  C   UNL A   1      45.845  28.386  34.395  1.00  0.00     0.012 A 
ATOM     83  C   UNL A   1      44.254  26.786  35.306  1.00  0.00     0.148 A 
ATOM     84  C   UNL A   1      46.816  27.942  35.292  1.00  0.00     0.002 A 
ATOM     85  C   UNL A   1      45.212  26.383  36.229  1.00  0.00     0.091 A 
ATOM     86  F   UNL A   1      43.033  26.235  35.265  1.00  0.00    -0.205 F 
ATOM     87  C   UNL A   1      46.496  26.952  36.217  1.00  0.00     0.022 A 
BRANCH  85  88
ATOM     88  S   UNL A   1      44.863  25.177  37.513  1.00  0.00     0.127 S 
ATOM     89  O   UNL A   1      46.087  25.231  38.312  1.00  0.00    -0.237 OA
ATOM     90  O   UNL A   1      43.684  25.750  38.163  1.00  0.00    -0.237 OA
ATOM     91  O   UNL A   1      44.623  23.916  36.825  1.00  0.00    -0.744 OA
ENDBRANCH  85  88
ENDBRANCH  58  81
ENDBRANCH  32  33
ENDBRANCH  25  27
ENDBRANCH  24  25
ENDBRANCH  23  24
ENDBRANCH   1  23
TORSDOF 18
ENDMDL
MODEL 2
REMARK VINA RESULT:     -12.0      2.259      2.962
REMARK SMILES C[C@@H](C(=O)OCCOC(=O)c1ccc(-c2c3nc(c(-c4cccc(S(=O)(=O)[O-])c4F)c4ccc([nH]4)c(-c4cccc(S(=O)(=O)[O-])c4F)c4nc(c(-c5cccc(S(=O)(=O)[O-])c5F)c5ccc2[nH]5)C=C4)C=C3)cc1)c1ccc(C[C@H]2CCCC2=O)cc1[N+](=O)[O-]
REMARK SMILES IDX 6 1 5 2 3 3 4 4 2 5 1 6 74 7 75 8 86 9 76 10 85 11 77 12
REMARK SMILES IDX 87 13 88 14 89 15 78 16 79 17 80 18 83 19 81 20 82 21 84 22
REMARK SMILES IDX 7 23 8 24 9 25 10 26 11 27 12 28 73 29 13 30 72 31 14 32
REMARK SMILES IDX 15 33 16 34 66 35 17 36 71 37 65 38 67 39 18 40 70 41 64 42
REMARK SMILES IDX 63 43 19 45 51 46 31 47 50 48 32 49 35 50 49 51 68 52 33 53
REMARK SMILES IDX 34 54 48 56 69 57 36 58 20 59 21 60 29 61 22 62 24 63 30 64
REMARK SMILES IDX 23 65 25 66 26 67 27 68 28 69 52 70 53 71 61 72 54 73 56 74
REMARK SMILES IDX 62 75 55 76 57 77 58 78 59 79 60 80 37 81 38 82 46 83 39 84
REMARK SMILES IDX 41 85 47 86 40 87 42 88 43 89 44 90 45 91
REMARK H PARENT 67 44 35 55
REMARK Flexibility Score: inf
ROOT
ATOM      1  C   UNL A   1      32.800  28.393  23.312  1.00  0.00     0.274 C 
ENDROOT
BRANCH   1   2
ATOM      2  O   UNL A   1      33.402  27.091  23.497  1.00  0.00    -0.462 OA
BRANCH   2   3
ATOM      3  C   UNL A   1      32.576  26.077  23.883  1.00  0.00     0.313 C 
ATOM      4  O   UNL A   1      31.623  25.677  23.224  1.00  0.00    -0.252 OA
BRANCH   3   5
ATOM      5  C   UNL A   1      32.949  25.477  25.262  1.00  0.00     0.133 C 
ATOM      6  C   UNL A   1      34.346  25.872  25.744  1.00  0.00     0.025 C 
BRANCH   5   7
ATOM      7  C   UNL A   1      32.781  23.958  25.234  1.00  0.00     0.044 A 
ATOM      8  C   UNL A   1      33.814  23.249  24.625  1.00  0.00     0.012 A 
ATOM      9  C   UNL A   1      31.679  23.195  25.674  1.00  0.00     0.273 A 
ATOM     10  C   UNL A   1      33.654  21.920  24.260  1.00  0.00     0.004 A 
ATOM     11  C   UNL A   1      31.496  21.853  25.231  1.00  0.00     0.089 A 
ATOM     12  C   UNL A   1      32.455  21.239  24.427  1.00  0.00    -0.040 A 
BRANCH   9  13
ATOM     13  N   UNL A   1      30.752  23.695  26.708  1.00  0.00     0.063 N 
ATOM     14  O   UNL A   1      30.454  24.899  26.685  1.00  0.00    -0.258 OA
ATOM     15  O   UNL A   1      30.263  22.887  27.510  1.00  0.00    -0.258 OA
ENDBRANCH   9  13
BRANCH  12  16
ATOM     16  C   UNL A   1      32.323  19.869  23.804  1.00  0.00     0.047 C 
BRANCH  16  17
ATOM     17  C   UNL A   1      33.218  18.718  24.319  1.00  0.00     0.060 C 
ATOM     18  C   UNL A   1      32.868  18.209  25.729  1.00  0.00     0.012 C 
ATOM     19  C   UNL A   1      33.264  17.407  23.545  1.00  0.00     0.136 C 
ATOM     20  C   UNL A   1      32.392  16.767  25.563  1.00  0.00     0.009 C 
ATOM     21  C   UNL A   1      33.239  16.210  24.443  1.00  0.00     0.076 C 
ATOM     22  O   UNL A   1      33.342  17.287  22.343  1.00  0.00    -0.299 OA
ENDBRANCH  16  17
ENDBRANCH  12  16
ENDBRANCH   5   7
ENDBRANCH   3   5
ENDBRANCH   2   3
ENDBRANCH   1   2
BRANCH   1  23
ATOM     23  C   UNL A   1      32.222  28.900  24.636  1.00  0.00     0.275 C 
BRANCH  23  24
ATOM     24  O   UNL A   1      32.991  30.029  25.105  1.00  0.00    -0.458 OA
BRANCH  24  25
ATOM     25  C   UNL A   1      32.826  30.386  26.404  1.00  0.00     0.338 C 
ATOM     26  O   UNL A   1      31.769  30.614  26.970  1.00  0.00    -0.246 OA
BRANCH  25  27
ATOM     27  C   UNL A   1      34.128  30.358  27.107  1.00  0.00     0.060 A 
ATOM     28  C   UNL A   1      34.691  29.116  27.325  1.00  0.00     0.016 A 
ATOM     29  C   UNL A   1      34.726  31.483  27.692  1.00  0.00     0.016 A 
ATOM     30  C   UNL A   1      35.774  28.990  28.188  1.00  0.00     0.010 A 
ATOM     31  C   UNL A   1      35.904  31.347  28.474  1.00  0.00     0.010 A 
ATOM     32  C   UNL A   1      36.438  30.081  28.732  1.00  0.00    -0.014 A 
BRANCH  32  33
ATOM     33  C   UNL A   1      37.602  29.717  29.595  1.00  0.00     0.031 A 
ATOM     34  C   UNL A   1      38.857  29.207  28.955  1.00  0.00     0.074 A 
ATOM     35  C   UNL A   1      37.673  30.152  30.876  1.00  0.00     0.049 A 
ATOM     36  N   UNL A   1      39.988  28.871  29.519  1.00  0.00    -0.248 NA
ATOM     37  C   UNL A   1      38.853  29.083  27.489  1.00  0.00     0.031 C 
ATOM     38  C   UNL A   1      36.606  30.867  31.570  1.00  0.00     0.029 A 
ATOM     39  N   UNL A   1      38.708  30.150  31.788  1.00  0.00    -0.354 N 
ATOM     40  C   UNL A   1      40.767  28.342  28.501  1.00  0.00     0.074 A 
ATOM     41  C   UNL A   1      40.043  28.542  27.265  1.00  0.00     0.031 C 
ATOM     42  C   UNL A   1      37.071  31.325  32.744  1.00  0.00     0.029 A 
ATOM     43  C   UNL A   1      38.440  30.858  32.945  1.00  0.00     0.049 A 
ATOM     44  H   UNL A   1      39.563  29.687  31.629  1.00  0.00     0.167 HD
ATOM     45  C   UNL A   1      41.933  27.666  28.616  1.00  0.00     0.034 A 
ATOM     46  C   UNL A   1      39.203  31.085  34.038  1.00  0.00     0.034 A 
ATOM     47  C   UNL A   1      42.655  27.507  29.850  1.00  0.00     0.049 A 
ATOM     48  C   UNL A   1      40.530  30.372  34.138  1.00  0.00     0.074 A 
ATOM     49  C   UNL A   1      43.758  26.714  30.112  1.00  0.00     0.029 A 
ATOM     50  N   UNL A   1      42.347  28.164  31.031  1.00  0.00    -0.354 N 
ATOM     51  N   UNL A   1      41.190  29.716  33.215  1.00  0.00    -0.248 NA
ATOM     52  C   UNL A   1      41.194  30.380  35.454  1.00  0.00     0.031 C 
ATOM     53  C   UNL A   1      44.101  26.874  31.460  1.00  0.00     0.029 A 
ATOM     54  C   UNL A   1      43.241  27.802  32.023  1.00  0.00     0.049 A 
ATOM     55  H   UNL A   1      41.602  28.798  31.146  1.00  0.00     0.167 HD
ATOM     56  C   UNL A   1      42.312  29.193  33.847  1.00  0.00     0.074 A 
ATOM     57  C   UNL A   1      42.299  29.689  35.207  1.00  0.00     0.031 C 
ATOM     58  C   UNL A   1      43.236  28.326  33.364  1.00  0.00     0.034 A 
BRANCH  45  59
ATOM     59  C   UNL A   1      42.386  26.897  27.409  1.00  0.00     0.023 A 
ATOM     60  C   UNL A   1      43.049  27.522  26.339  1.00  0.00     0.012 A 
ATOM     61  C   UNL A   1      42.116  25.513  27.350  1.00  0.00     0.148 A 
ATOM     62  C   UNL A   1      43.404  26.785  25.208  1.00  0.00     0.002 A 
ATOM     63  C   UNL A   1      42.515  24.778  26.245  1.00  0.00     0.091 A 
ATOM     64  F   UNL A   1      41.455  24.948  28.371  1.00  0.00    -0.205 F 
ATOM     65  C   UNL A   1      43.145  25.415  25.165  1.00  0.00     0.022 A 
BRANCH  63  66
ATOM     66  S   UNL A   1      42.285  23.002  26.137  1.00  0.00     0.127 S 
ATOM     67  O   UNL A   1      40.828  22.888  26.200  1.00  0.00    -0.237 OA
ATOM     68  O   UNL A   1      42.866  22.700  24.828  1.00  0.00    -0.237 OA
ATOM     69  O   UNL A   1      43.002  22.429  27.267  1.00  0.00    -0.744 OA
ENDBRANCH  63  66
ENDBRANCH  45  59
BRANCH  46  70
ATOM     70  C   UNL A   1      38.752  31.976  35.161  1.00  0.00     0.023 A 
ATOM     71  C   UNL A   1      38.797  33.379  35.000  1.00  0.00     0.012 A 
ATOM     72  C   UNL A   1      38.315  31.464  36.396  1.00  0.00     0.148 A 
ATOM     73  C   UNL A   1      38.444  34.239  36.046  1.00  0.00     0.002 A 
ATOM     74  C   UNL A   1      37.865  32.323  37.395  1.00  0.00     0.091 A 
ATOM     75  F   UNL A   1      38.360  30.138  36.595  1.00  0.00    -0.205 F 
ATOM     76  C   UNL A   1      37.956  33.711  37.236  1.00  0.00     0.022 A 
BRANCH  74  77
ATOM     77  S   UNL A   1      37.022  31.694  38.851  1.00  0.00     0.127 S 
ATOM     78  O   UNL A   1      35.858  32.569  38.932  1.00  0.00    -0.237 OA
ATOM     79  O   UNL A   1      36.733  30.311  38.467  1.00  0.00    -0.237 OA
ATOM     80  O   UNL A   1      38.000  31.814  39.925  1.00  0.00    -0.744 OA
ENDBRANCH  74  77
ENDBRANCH  46  70
BRANCH  58  81
ATOM     81  C   UNL A   1      44.300  27.835  34.309  1.00  0.00     0.023 A 
ATOM     82  C   UNL A   1      45.504  28.557  34.440  1.00  0.00     0.012 A 
ATOM     83  C   UNL A   1      44.075  26.713  35.129  1.00  0.00     0.148 A 
ATOM     84  C   UNL A   1      46.479  28.153  35.352  1.00  0.00     0.002 A 
ATOM     85  C   UNL A   1      45.031  26.344  36.068  1.00  0.00     0.091 A 
ATOM     86  F   UNL A   1      42.932  26.030  34.974  1.00  0.00    -0.205 F 
ATOM     87  C   UNL A   1      46.237  27.056  36.174  1.00  0.00     0.022 A 
BRANCH  85  88
ATOM     88  S   UNL A   1      44.769  24.999  37.230  1.00  0.00     0.127 S 
ATOM     89  O   UNL A   1      45.900  25.169  38.140  1.00  0.00    -0.237 OA
ATOM     90  O   UNL A   1      43.467  25.336  37.804  1.00  0.00    -0.237 OA
ATOM     91  O   UNL A   1      44.785  23.777  36.438  1.00  0.00    -0.744 OA
ENDBRANCH  85  88
ENDBRANCH  58  81
ENDBRANCH  32  33
ENDBRANCH  25  27
ENDBRANCH  24  25
ENDBRANCH  23  24
ENDBRANCH   1  23
TORSDOF 18
ENDMDL
MODEL 3
REMARK VINA RESULT:     -11.9      0.831      7.732
REMARK SMILES C[C@@H](C(=O)OCCOC(=O)c1ccc(-c2c3nc(c(-c4cccc(S(=O)(=O)[O-])c4F)c4ccc([nH]4)c(-c4cccc(S(=O)(=O)[O-])c4F)c4nc(c(-c5cccc(S(=O)(=O)[O-])c5F)c5ccc2[nH]5)C=C4)C=C3)cc1)c1ccc(C[C@H]2CCCC2=O)cc1[N+](=O)[O-]
REMARK SMILES IDX 6 1 5 2 3 3 4 4 2 5 1 6 74 7 75 8 86 9 76 10 85 11 77 12
REMARK SMILES IDX 87 13 88 14 89 15 78 16 79 17 80 18 83 19 81 20 82 21 84 22
REMARK SMILES IDX 7 23 8 24 9 25 10 26 11 27 12 28 73 29 13 30 72 31 14 32
REMARK SMILES IDX 15 33 16 34 66 35 17 36 71 37 65 38 67 39 18 40 70 41 64 42
REMARK SMILES IDX 63 43 19 45 51 46 31 47 50 48 32 49 35 50 49 51 68 52 33 53
REMARK SMILES IDX 34 54 48 56 69 57 36 58 20 59 21 60 29 61 22 62 24 63 30 64
REMARK SMILES IDX 23 65 25 66 26 67 27 68 28 69 52 70 53 71 61 72 54 73 56 74
REMARK SMILES IDX 62 75 55 76 57 77 58 78 59 79 60 80 37 81 38 82 46 83 39 84
REMARK SMILES IDX 41 85 47 86 40 87 42 88 43 89 44 90 45 91
REMARK H PARENT 67 44 35 55
REMARK Flexibility Score: inf
ROOT
ATOM      1  C   UNL A   1      32.287  29.491  25.206  1.00  0.00     0.274 C 
ENDROOT
BRANCH   1   2
ATOM      2  O   UNL A   1      31.198  28.643  24.774  1.00  0.00    -0.462 OA
BRANCH   2   3
ATOM      3  C   UNL A   1      31.379  27.297  24.889  1.00  0.00     0.313 C 
ATOM      4  O   UNL A   1      32.050  26.765  25.767  1.00  0.00    -0.252 OA
BRANCH   3   5
ATOM      5  C   UNL A   1      30.661  26.488  23.780  1.00  0.00     0.133 C 
ATOM      6  C   UNL A   1      29.172  26.265  24.051  1.00  0.00     0.025 C 
BRANCH   5   7
ATOM      7  C   UNL A   1      31.386  25.163  23.547  1.00  0.00     0.044 A 
ATOM      8  C   UNL A   1      30.950  24.092  24.325  1.00  0.00     0.012 A 
ATOM      9  C   UNL A   1      32.490  24.910  22.705  1.00  0.00     0.273 A 
ATOM     10  C   UNL A   1      31.705  22.934  24.440  1.00  0.00     0.004 A 
ATOM     11  C   UNL A   1      33.295  23.747  22.885  1.00  0.00     0.089 A 
ATOM     12  C   UNL A   1      32.950  22.792  23.840  1.00  0.00    -0.040 A 
BRANCH   9  13
ATOM     13  N   UNL A   1      32.776  25.751  21.526  1.00  0.00     0.063 N 
ATOM     14  O   UNL A   1      31.943  25.762  20.607  1.00  0.00    -0.258 OA
ATOM     15  O   UNL A   1      33.794  26.457  21.533  1.00  0.00    -0.258 OA
ENDBRANCH   9  13
BRANCH  12  16
ATOM     16  C   UNL A   1      33.778  21.582  24.202  1.00  0.00     0.047 C 
BRANCH  16  17
ATOM     17  C   UNL A   1      35.072  21.774  25.027  1.00  0.00     0.060 C 
ATOM     18  C   UNL A   1      36.350  21.965  24.192  1.00  0.00     0.012 C 
ATOM     19  C   UNL A   1      35.176  22.954  25.985  1.00  0.00     0.136 C 
ATOM     20  C   UNL A   1      36.846  23.381  24.478  1.00  0.00     0.009 C 
ATOM     21  C   UNL A   1      36.517  23.617  25.933  1.00  0.00     0.076 C 
ATOM     22  O   UNL A   1      34.315  23.339  26.744  1.00  0.00    -0.299 OA
ENDBRANCH  16  17
ENDBRANCH  12  16
ENDBRANCH   5   7
ENDBRANCH   3   5
ENDBRANCH   2   3
ENDBRANCH   1   2
BRANCH   1  23
ATOM     23  C   UNL A   1      31.744  30.695  25.982  1.00  0.00     0.275 C 
BRANCH  23  24
ATOM     24  O   UNL A   1      32.463  30.840  27.225  1.00  0.00    -0.458 OA
BRANCH  24  25
ATOM     25  C   UNL A   1      33.095  32.023  27.433  1.00  0.00     0.338 C 
ATOM     26  O   UNL A   1      32.598  33.136  27.378  1.00  0.00    -0.246 OA
BRANCH  25  27
ATOM     27  C   UNL A   1      34.493  31.784  27.858  1.00  0.00     0.060 A 
ATOM     28  C   UNL A   1      34.813  30.498  28.246  1.00  0.00     0.016 A 
ATOM     29  C   UNL A   1      35.441  32.799  28.038  1.00  0.00     0.016 A 
ATOM     30  C   UNL A   1      36.021  30.251  28.889  1.00  0.00     0.010 A 
ATOM     31  C   UNL A   1      36.717  32.504  28.587  1.00  0.00     0.010 A 
ATOM     32  C   UNL A   1      37.015  31.210  29.025  1.00  0.00    -0.014 A 
BRANCH  32  33
ATOM     33  C   UNL A   1      38.249  30.716  29.707  1.00  0.00     0.031 A 
ATOM     34  C   UNL A   1      38.358  30.828  31.198  1.00  0.00     0.074 A 
ATOM     35  C   UNL A   1      39.098  29.876  29.069  1.00  0.00     0.049 A 
ATOM     36  N   UNL A   1      39.324  30.428  31.983  1.00  0.00    -0.248 NA
ATOM     37  C   UNL A   1      37.223  31.444  31.902  1.00  0.00     0.031 C 
ATOM     38  C   UNL A   1      38.989  29.494  27.664  1.00  0.00     0.029 A 
ATOM     39  N   UNL A   1      40.154  29.117  29.531  1.00  0.00    -0.354 N 
ATOM     40  C   UNL A   1      38.991  30.891  33.246  1.00  0.00     0.074 A 
ATOM     41  C   UNL A   1      37.666  31.465  33.152  1.00  0.00     0.031 C 
ATOM     42  C   UNL A   1      39.859  28.503  27.405  1.00  0.00     0.029 A 
ATOM     43  C   UNL A   1      40.666  28.238  28.594  1.00  0.00     0.049 A 
ATOM     44  H   UNL A   1      40.511  29.194  30.445  1.00  0.00     0.167 HD
ATOM     45  C   UNL A   1      39.770  30.916  34.352  1.00  0.00     0.034 A 
ATOM     46  C   UNL A   1      41.675  27.341  28.683  1.00  0.00     0.034 A 
ATOM     47  C   UNL A   1      41.072  30.310  34.435  1.00  0.00     0.049 A 
ATOM     48  C   UNL A   1      42.509  27.333  29.942  1.00  0.00     0.074 A 
ATOM     49  C   UNL A   1      42.010  30.408  35.447  1.00  0.00     0.029 A 
ATOM     50  N   UNL A   1      41.616  29.482  33.466  1.00  0.00    -0.354 N 
ATOM     51  N   UNL A   1      42.279  27.921  31.091  1.00  0.00    -0.248 NA
ATOM     52  C   UNL A   1      43.777  26.584  29.897  1.00  0.00     0.031 C 
ATOM     53  C   UNL A   1      43.133  29.659  35.076  1.00  0.00     0.029 A 
ATOM     54  C   UNL A   1      42.873  29.056  33.857  1.00  0.00     0.049 A 
ATOM     55  H   UNL A   1      41.172  29.232  32.623  1.00  0.00     0.167 HD
ATOM     56  C   UNL A   1      43.392  27.656  31.882  1.00  0.00     0.074 A 
ATOM     57  C   UNL A   1      44.250  26.774  31.121  1.00  0.00     0.031 C 
ATOM     58  C   UNL A   1      43.705  28.154  33.104  1.00  0.00     0.034 A 
BRANCH  45  59
ATOM     59  C   UNL A   1      39.303  31.785  35.483  1.00  0.00     0.023 A 
ATOM     60  C   UNL A   1      38.407  31.314  36.457  1.00  0.00     0.012 A 
ATOM     61  C   UNL A   1      39.770  33.116  35.550  1.00  0.00     0.148 A 
ATOM     62  C   UNL A   1      37.950  32.169  37.462  1.00  0.00     0.002 A 
ATOM     63  C   UNL A   1      39.350  33.944  36.578  1.00  0.00     0.091 A 
ATOM     64  F   UNL A   1      40.601  33.548  34.590  1.00  0.00    -0.205 F 
ATOM     65  C   UNL A   1      38.428  33.478  37.527  1.00  0.00     0.022 A 
BRANCH  63  66
ATOM     66  S   UNL A   1      39.966  35.617  36.778  1.00  0.00     0.127 S 
ATOM     67  O   UNL A   1      39.344  36.012  38.042  1.00  0.00    -0.237 OA
ATOM     68  O   UNL A   1      41.411  35.402  36.849  1.00  0.00    -0.237 OA
ATOM     69  O   UNL A   1      39.518  36.358  35.608  1.00  0.00    -0.744 OA
ENDBRANCH  63  66
ENDBRANCH  45  59
BRANCH  46  70
ATOM     70  C   UNL A   1      42.013  26.399  27.562  1.00  0.00     0.023 A 
ATOM     71  C   UNL A   1      42.832  26.844  26.501  1.00  0.00     0.012 A 
ATOM     72  C   UNL A   1      41.511  25.086  27.508  1.00  0.00     0.148 A 
ATOM     73  C   UNL A   1      43.118  26.014  25.410  1.00  0.00     0.002 A 
ATOM     74  C   UNL A   1      41.884  24.233  26.474  1.00  0.00     0.091 A 
ATOM     75  F   UNL A   1      40.654  24.686  28.458  1.00  0.00    -0.205 F 
ATOM     76  C   UNL A   1      42.662  24.700  25.408  1.00  0.00     0.022 A 
BRANCH  74  77
ATOM     77  S   UNL A   1      41.511  22.477  26.539  1.00  0.00     0.127 S 
ATOM     78  O   UNL A   1      40.059  22.467  26.405  1.00  0.00    -0.237 OA
ATOM     79  O   UNL A   1      42.244  21.963  25.380  1.00  0.00    -0.237 OA
ATOM     80  O   UNL A   1      42.047  22.032  27.819  1.00  0.00    -0.744 OA
ENDBRANCH  74  77
ENDBRANCH  46  70
BRANCH  58  81
ATOM     81  C   UNL A   1      45.039  27.778  33.694  1.00  0.00     0.023 A 
ATOM     82  C   UNL A   1      46.158  28.608  33.476  1.00  0.00     0.012 A 
ATOM     83  C   UNL A   1      45.166  26.653  34.532  1.00  0.00     0.148 A 
ATOM     84  C   UNL A   1      47.388  28.309  34.061  1.00  0.00     0.002 A 
ATOM     85  C   UNL A   1      46.382  26.389  35.149  1.00  0.00     0.091 A 
ATOM     86  F   UNL A   1      44.094  25.867  34.709  1.00  0.00    -0.205 F 
ATOM     87  C   UNL A   1      47.497  27.209  34.907  1.00  0.00     0.022 A 
BRANCH  85  88
ATOM     88  S   UNL A   1      46.594  25.046  36.322  1.00  0.00     0.127 S 
ATOM     89  O   UNL A   1      45.750  25.484  37.432  1.00  0.00    -0.237 OA
ATOM     90  O   UNL A   1      46.076  23.899  35.576  1.00  0.00    -0.237 OA
ATOM     91  O   UNL A   1      48.021  24.986  36.610  1.00  0.00    -0.744 OA
ENDBRANCH  85  88
ENDBRANCH  58  81
ENDBRANCH  32  33
ENDBRANCH  25  27
ENDBRANCH  24  25
ENDBRANCH  23  24
ENDBRANCH   1  23
TORSDOF 18
ENDMDL
