MODEL 1
REMARK VINA RESULT:     -11.0      0.000      0.000
REMARK SMILES CSc1ccc(Cl)c(C(=O)N[C@@H](CO)C(=O)OCCOC(=O)c2ccc(-c3c4nc(c(-c5cccc(S(=O)(=O)[O-])c5F)c5ccc([nH]5)c(-c5cccc(S(=O)(=O)[O-])c5F)c5nc(c(-c6cccc(S(=O)(=O)[O-])c6F)c6ccc3[nH]6)C=C5)C=C4)cc2)c1
REMARK SMILES IDX 18 1 17 2 15 3 16 4 12 5 11 6 9 7 10 8 8 10 3 11 4 12 86 13
REMARK SMILES IDX 5 14 6 15 7 16 2 17 1 18 13 19 14 20 19 22 20 23 21 24 22 25
REMARK SMILES IDX 23 26 24 27 85 28 25 29 84 30 26 31 27 32 28 33 78 34 29 35
REMARK SMILES IDX 83 36 77 37 79 38 30 39 82 40 76 41 75 42 31 44 63 45 43 46
REMARK SMILES IDX 62 47 44 48 47 49 61 50 80 51 45 52 46 53 60 55 81 56 48 57
REMARK SMILES IDX 32 58 33 59 41 60 34 61 36 62 42 63 35 64 37 65 38 66 39 67
REMARK SMILES IDX 40 68 64 69 65 70 73 71 66 72 68 73 74 74 67 75 69 76 70 77
REMARK SMILES IDX 71 78 72 79 49 80 50 81 58 82 51 83 53 84 59 85 52 86 54 87
REMARK SMILES IDX 55 88 56 89 57 90
REMARK H PARENT 11 9 14 21 79 43 47 54
REMARK Flexibility Score: inf
ROOT
ATOM      1  C   UNL A   1      35.586  19.990  24.961  1.00  0.00     0.274 C 
ENDROOT
BRANCH   1   2
ATOM      2  O   UNL A   1      35.032  21.073  25.735  1.00  0.00    -0.460 OA
BRANCH   2   3
ATOM      3  C   UNL A   1      33.708  21.316  25.538  1.00  0.00     0.331 C 
ATOM      4  O   UNL A   1      32.900  20.494  25.116  1.00  0.00    -0.250 OA
BRANCH   3   5
ATOM      5  C   UNL A   1      33.310  22.767  25.833  1.00  0.00     0.218 C 
BRANCH   5   6
ATOM      6  N   UNL A   1      31.953  22.982  26.351  1.00  0.00    -0.337 N 
ATOM      7  C   UNL A   1      31.151  24.089  26.458  1.00  0.00     0.253 C 
ATOM      8  O   UNL A   1      30.198  24.020  27.237  1.00  0.00    -0.269 OA
ATOM      9  H   UNL A   1      31.531  22.160  26.693  1.00  0.00     0.164 HD
BRANCH   7  10
ATOM     10  C   UNL A   1      31.257  25.297  25.596  1.00  0.00     0.059 A 
ATOM     11  C   UNL A   1      32.195  27.562  25.513  1.00  0.00     0.008 A 
ATOM     12  C   UNL A   1      31.693  27.728  24.226  1.00  0.00     0.016 A 
ATOM     13  C   UNL A   1      31.937  26.374  26.204  1.00  0.00     0.030 A 
ATOM     14  C   UNL A   1      31.047  26.663  23.598  1.00  0.00     0.022 A 
ATOM     15  C   UNL A   1      30.883  25.432  24.255  1.00  0.00     0.053 A 
ATOM     16  Cl  UNL A   1      30.374  24.122  23.260  1.00  0.00    -0.083 Cl
BRANCH  11  17
ATOM     17  S   UNL A   1      33.243  28.813  26.222  1.00  0.00    -0.130 SA
ATOM     18  C   UNL A   1      31.969  29.729  27.139  1.00  0.00     0.091 C 
ENDBRANCH  11  17
ENDBRANCH   7  10
ENDBRANCH   5   6
BRANCH   5  19
ATOM     19  C   UNL A   1      34.327  23.286  26.866  1.00  0.00     0.193 C 
BRANCH  19  20
ATOM     20  O   UNL A   1      34.365  22.437  28.021  1.00  0.00    -0.394 OA
ATOM     21  H   UNL A   1      34.865  22.874  28.727  1.00  0.00     0.210 HD
ENDBRANCH  19  20
ENDBRANCH   5  19
ENDBRANCH   3   5
ENDBRANCH   2   3
ENDBRANCH   1   2
BRANCH   1  22
ATOM     22  C   UNL A   1      37.098  20.145  24.801  1.00  0.00     0.275 C 
BRANCH  22  23
ATOM     23  O   UNL A   1      37.622  21.113  25.726  1.00  0.00    -0.458 OA
BRANCH  23  24
ATOM     24  C   UNL A   1      38.932  20.961  26.015  1.00  0.00     0.338 C 
ATOM     25  O   UNL A   1      39.643  19.994  25.766  1.00  0.00    -0.246 OA
BRANCH  24  26
ATOM     26  C   UNL A   1      39.459  22.195  26.602  1.00  0.00     0.060 A 
ATOM     27  C   UNL A   1      38.948  23.410  26.150  1.00  0.00     0.016 A 
ATOM     28  C   UNL A   1      40.539  22.161  27.481  1.00  0.00     0.016 A 
ATOM     29  C   UNL A   1      39.555  24.603  26.532  1.00  0.00     0.010 A 
ATOM     30  C   UNL A   1      41.120  23.364  27.897  1.00  0.00     0.010 A 
ATOM     31  C   UNL A   1      40.659  24.595  27.395  1.00  0.00    -0.014 A 
BRANCH  31  32
ATOM     32  C   UNL A   1      41.357  25.869  27.718  1.00  0.00     0.031 A 
ATOM     33  C   UNL A   1      40.655  26.935  28.520  1.00  0.00     0.074 A 
ATOM     34  C   UNL A   1      42.623  26.073  27.307  1.00  0.00     0.049 A 
ATOM     35  N   UNL A   1      41.060  28.144  28.815  1.00  0.00    -0.248 NA
ATOM     36  C   UNL A   1      39.325  26.602  29.051  1.00  0.00     0.031 C 
ATOM     37  C   UNL A   1      43.422  25.125  26.530  1.00  0.00     0.029 A 
ATOM     38  N   UNL A   1      43.459  27.150  27.478  1.00  0.00    -0.354 N 
ATOM     39  C   UNL A   1      40.008  28.739  29.502  1.00  0.00     0.074 A 
ATOM     40  C   UNL A   1      38.953  27.752  29.596  1.00  0.00     0.031 C 
ATOM     41  C   UNL A   1      44.633  25.656  26.301  1.00  0.00     0.029 A 
ATOM     42  C   UNL A   1      44.679  27.001  26.863  1.00  0.00     0.049 A 
ATOM     43  H   UNL A   1      43.207  27.952  27.993  1.00  0.00     0.167 HD
ATOM     44  C   UNL A   1      39.929  29.987  30.021  1.00  0.00     0.034 A 
ATOM     45  C   UNL A   1      45.711  27.860  26.736  1.00  0.00     0.034 A 
ATOM     46  C   UNL A   1      41.002  30.944  30.001  1.00  0.00     0.049 A 
ATOM     47  C   UNL A   1      45.610  29.230  27.348  1.00  0.00     0.074 A 
ATOM     48  C   UNL A   1      41.031  32.216  30.549  1.00  0.00     0.029 A 
ATOM     49  N   UNL A   1      42.239  30.736  29.412  1.00  0.00    -0.354 N 
ATOM     50  N   UNL A   1      44.635  29.747  28.056  1.00  0.00    -0.248 NA
ATOM     51  C   UNL A   1      46.757  30.130  27.156  1.00  0.00     0.031 C 
ATOM     52  C   UNL A   1      42.287  32.777  30.290  1.00  0.00     0.029 A 
ATOM     53  C   UNL A   1      43.040  31.853  29.584  1.00  0.00     0.049 A 
ATOM     54  H   UNL A   1      42.509  29.915  28.941  1.00  0.00     0.167 HD
ATOM     55  C   UNL A   1      45.053  31.026  28.403  1.00  0.00     0.074 A 
ATOM     56  C   UNL A   1      46.386  31.193  27.858  1.00  0.00     0.031 C 
ATOM     57  C   UNL A   1      44.383  31.987  29.083  1.00  0.00     0.034 A 
BRANCH  44  58
ATOM     58  C   UNL A   1      38.643  30.386  30.693  1.00  0.00     0.023 A 
ATOM     59  C   UNL A   1      38.467  30.134  32.067  1.00  0.00     0.012 A 
ATOM     60  C   UNL A   1      37.636  31.066  29.978  1.00  0.00     0.148 A 
ATOM     61  C   UNL A   1      37.298  30.535  32.717  1.00  0.00     0.002 A 
ATOM     62  C   UNL A   1      36.491  31.494  30.641  1.00  0.00     0.091 A 
ATOM     63  F   UNL A   1      37.809  31.271  28.665  1.00  0.00    -0.205 F 
ATOM     64  C   UNL A   1      36.318  31.224  32.007  1.00  0.00     0.022 A 
BRANCH  62  65
ATOM     65  S   UNL A   1      35.209  32.450  29.819  1.00  0.00     0.127 S 
ATOM     66  O   UNL A   1      34.283  32.710  30.919  1.00  0.00    -0.237 OA
ATOM     67  O   UNL A   1      35.945  33.625  29.351  1.00  0.00    -0.237 OA
ATOM     68  O   UNL A   1      34.702  31.596  28.754  1.00  0.00    -0.744 OA
ENDBRANCH  62  65
ENDBRANCH  44  58
BRANCH  45  69
ATOM     69  C   UNL A   1      46.943  27.429  26.019  1.00  0.00     0.023 A 
ATOM     70  C   UNL A   1      47.871  26.599  26.676  1.00  0.00     0.012 A 
ATOM     71  C   UNL A   1      47.174  27.788  24.677  1.00  0.00     0.148 A 
ATOM     72  C   UNL A   1      49.012  26.145  26.014  1.00  0.00     0.002 A 
ATOM     73  C   UNL A   1      48.281  27.283  24.005  1.00  0.00     0.091 A 
ATOM     74  F   UNL A   1      46.298  28.606  24.075  1.00  0.00    -0.205 F 
ATOM     75  C   UNL A   1      49.209  26.473  24.674  1.00  0.00     0.022 A 
BRANCH  73  76
ATOM     76  S   UNL A   1      48.509  27.535  22.240  1.00  0.00     0.127 S 
ATOM     77  O   UNL A   1      49.721  28.346  22.206  1.00  0.00    -0.237 OA
ATOM     78  O   UNL A   1      48.669  26.164  21.750  1.00  0.00    -0.237 OA
ATOM     79  O   UNL A   1      47.285  28.186  21.789  1.00  0.00    -0.744 OA
ENDBRANCH  73  76
ENDBRANCH  45  69
BRANCH  57  80
ATOM     80  C   UNL A   1      45.076  33.308  29.287  1.00  0.00     0.023 A 
ATOM     81  C   UNL A   1      45.870  33.501  30.435  1.00  0.00     0.012 A 
ATOM     82  C   UNL A   1      44.999  34.328  28.319  1.00  0.00     0.148 A 
ATOM     83  C   UNL A   1      46.557  34.698  30.629  1.00  0.00     0.002 A 
ATOM     84  C   UNL A   1      45.716  35.505  28.501  1.00  0.00     0.091 A 
ATOM     85  F   UNL A   1      44.219  34.136  27.246  1.00  0.00    -0.205 F 
ATOM     86  C   UNL A   1      46.489  35.695  29.658  1.00  0.00     0.022 A 
BRANCH  84  87
ATOM     87  S   UNL A   1      45.746  36.804  27.260  1.00  0.00     0.127 S 
ATOM     88  O   UNL A   1      46.286  36.097  26.100  1.00  0.00    -0.237 OA
ATOM     89  O   UNL A   1      44.332  37.168  27.148  1.00  0.00    -0.237 OA
ATOM     90  O   UNL A   1      46.592  37.854  27.811  1.00  0.00    -0.744 OA
ENDBRANCH  84  87
ENDBRANCH  57  80
ENDBRANCH  31  32
ENDBRANCH  24  26
ENDBRANCH  23  24
ENDBRANCH  22  23
ENDBRANCH   1  22
TORSDOF 19
ENDMDL
MODEL 2
REMARK VINA RESULT:     -11.0      2.006      8.289
REMARK SMILES CSc1ccc(Cl)c(C(=O)N[C@@H](CO)C(=O)OCCOC(=O)c2ccc(-c3c4nc(c(-c5cccc(S(=O)(=O)[O-])c5F)c5ccc([nH]5)c(-c5cccc(S(=O)(=O)[O-])c5F)c5nc(c(-c6cccc(S(=O)(=O)[O-])c6F)c6ccc3[nH]6)C=C5)C=C4)cc2)c1
REMARK SMILES IDX 18 1 17 2 15 3 16 4 12 5 11 6 9 7 10 8 8 10 3 11 4 12 86 13
REMARK SMILES IDX 5 14 6 15 7 16 2 17 1 18 13 19 14 20 19 22 20 23 21 24 22 25
REMARK SMILES IDX 23 26 24 27 85 28 25 29 84 30 26 31 27 32 28 33 78 34 29 35
REMARK SMILES IDX 83 36 77 37 79 38 30 39 82 40 76 41 75 42 31 44 63 45 43 46
REMARK SMILES IDX 62 47 44 48 47 49 61 50 80 51 45 52 46 53 60 55 81 56 48 57
REMARK SMILES IDX 32 58 33 59 41 60 34 61 36 62 42 63 35 64 37 65 38 66 39 67
REMARK SMILES IDX 40 68 64 69 65 70 73 71 66 72 68 73 74 74 67 75 69 76 70 77
REMARK SMILES IDX 71 78 72 79 49 80 50 81 58 82 51 83 53 84 59 85 52 86 54 87
REMARK SMILES IDX 55 88 56 89 57 90
REMARK H PARENT 11 9 14 21 79 43 47 54
REMARK Flexibility Score: inf
ROOT
ATOM      1  C   UNL A   1      36.317  20.265  24.947  1.00  0.00     0.274 C 
ENDROOT
BRANCH   1   2
ATOM      2  O   UNL A   1      36.151  21.614  25.428  1.00  0.00    -0.460 OA
BRANCH   2   3
ATOM      3  C   UNL A   1      35.984  22.562  24.467  1.00  0.00     0.331 C 
ATOM      4  O   UNL A   1      36.840  23.374  24.128  1.00  0.00    -0.250 OA
BRANCH   3   5
ATOM      5  C   UNL A   1      34.571  22.576  23.873  1.00  0.00     0.218 C 
BRANCH   5   6
ATOM      6  N   UNL A   1      33.471  22.256  24.792  1.00  0.00    -0.337 N 
ATOM      7  C   UNL A   1      32.492  21.297  24.788  1.00  0.00     0.253 C 
ATOM      8  O   UNL A   1      31.515  21.486  25.516  1.00  0.00    -0.269 OA
ATOM      9  H   UNL A   1      33.427  22.855  25.571  1.00  0.00     0.164 HD
BRANCH   7  10
ATOM     10  C   UNL A   1      32.595  19.984  24.096  1.00  0.00     0.059 A 
ATOM     11  C   UNL A   1      32.879  17.580  24.497  1.00  0.00     0.008 A 
ATOM     12  C   UNL A   1      32.788  17.336  23.131  1.00  0.00     0.016 A 
ATOM     13  C   UNL A   1      32.829  18.896  24.966  1.00  0.00     0.030 A 
ATOM     14  C   UNL A   1      32.525  18.394  22.260  1.00  0.00     0.022 A 
ATOM     15  C   UNL A   1      32.368  19.703  22.745  1.00  0.00     0.053 A 
ATOM     16  Cl  UNL A   1      31.728  20.838  21.619  1.00  0.00    -0.083 Cl
BRANCH  11  17
ATOM     17  S   UNL A   1      32.950  16.215  25.637  1.00  0.00    -0.130 SA
ATOM     18  C   UNL A   1      34.685  15.746  25.370  1.00  0.00     0.091 C 
ENDBRANCH  11  17
ENDBRANCH   7  10
ENDBRANCH   5   6
BRANCH   5  19
ATOM     19  C   UNL A   1      34.358  23.994  23.313  1.00  0.00     0.193 C 
BRANCH  19  20
ATOM     20  O   UNL A   1      33.589  23.959  22.104  1.00  0.00    -0.394 OA
ATOM     21  H   UNL A   1      33.060  23.147  22.080  1.00  0.00     0.210 HD
ENDBRANCH  19  20
ENDBRANCH   5  19
ENDBRANCH   3   5
ENDBRANCH   2   3
ENDBRANCH   1   2
BRANCH   1  22
ATOM     22  C   UNL A   1      37.764  19.799  25.099  1.00  0.00     0.275 C 
BRANCH  22  23
ATOM     23  O   UNL A   1      38.660  20.917  25.214  1.00  0.00    -0.458 OA
BRANCH  23  24
ATOM     24  C   UNL A   1      39.627  20.768  26.144  1.00  0.00     0.338 C 
ATOM     25  O   UNL A   1      40.200  19.732  26.466  1.00  0.00    -0.246 OA
BRANCH  24  26
ATOM     26  C   UNL A   1      40.008  22.075  26.682  1.00  0.00     0.060 A 
ATOM     27  C   UNL A   1      39.365  23.207  26.182  1.00  0.00     0.016 A 
ATOM     28  C   UNL A   1      41.079  22.199  27.564  1.00  0.00     0.016 A 
ATOM     29  C   UNL A   1      39.830  24.475  26.517  1.00  0.00     0.010 A 
ATOM     30  C   UNL A   1      41.517  23.476  27.932  1.00  0.00     0.010 A 
ATOM     31  C   UNL A   1      40.922  24.626  27.381  1.00  0.00    -0.014 A 
BRANCH  31  32
ATOM     32  C   UNL A   1      41.469  25.982  27.656  1.00  0.00     0.031 A 
ATOM     33  C   UNL A   1      42.844  26.358  27.168  1.00  0.00     0.074 A 
ATOM     34  C   UNL A   1      40.734  26.887  28.331  1.00  0.00     0.049 A 
ATOM     35  N   UNL A   1      43.529  27.451  27.394  1.00  0.00    -0.248 NA
ATOM     36  C   UNL A   1      43.544  25.376  26.326  1.00  0.00     0.031 C 
ATOM     37  C   UNL A   1      39.387  26.660  28.855  1.00  0.00     0.029 A 
ATOM     38  N   UNL A   1      41.020  28.178  28.701  1.00  0.00    -0.354 N 
ATOM     39  C   UNL A   1      44.763  27.258  26.783  1.00  0.00     0.074 A 
ATOM     40  C   UNL A   1      44.727  25.951  26.163  1.00  0.00     0.031 C 
ATOM     41  C   UNL A   1      38.960  27.774  29.468  1.00  0.00     0.029 A 
ATOM     42  C   UNL A   1      40.021  28.775  29.433  1.00  0.00     0.049 A 
ATOM     43  H   UNL A   1      41.862  28.633  28.465  1.00  0.00     0.167 HD
ATOM     44  C   UNL A   1      45.825  28.096  26.731  1.00  0.00     0.034 A 
ATOM     45  C   UNL A   1      39.971  29.981  30.035  1.00  0.00     0.034 A 
ATOM     46  C   UNL A   1      45.838  29.426  27.277  1.00  0.00     0.049 A 
ATOM     47  C   UNL A   1      41.153  30.905  29.935  1.00  0.00     0.074 A 
ATOM     48  C   UNL A   1      46.852  30.368  27.224  1.00  0.00     0.029 A 
ATOM     49  N   UNL A   1      44.788  30.010  27.966  1.00  0.00    -0.354 N 
ATOM     50  N   UNL A   1      42.282  30.732  29.292  1.00  0.00    -0.248 NA
ATOM     51  C   UNL A   1      41.048  32.196  30.632  1.00  0.00     0.031 C 
ATOM     52  C   UNL A   1      46.415  31.522  27.884  1.00  0.00     0.029 A 
ATOM     53  C   UNL A   1      45.126  31.299  28.342  1.00  0.00     0.049 A 
ATOM     54  H   UNL A   1      43.927  29.574  28.158  1.00  0.00     0.167 HD
ATOM     55  C   UNL A   1      43.018  31.893  29.497  1.00  0.00     0.074 A 
ATOM     56  C   UNL A   1      42.191  32.778  30.294  1.00  0.00     0.031 C 
ATOM     57  C   UNL A   1      44.276  32.189  29.090  1.00  0.00     0.034 A 
BRANCH  44  58
ATOM     58  C   UNL A   1      47.063  27.613  26.024  1.00  0.00     0.023 A 
ATOM     59  C   UNL A   1      48.032  26.880  26.736  1.00  0.00     0.012 A 
ATOM     60  C   UNL A   1      47.236  27.831  24.642  1.00  0.00     0.148 A 
ATOM     61  C   UNL A   1      49.165  26.387  26.088  1.00  0.00     0.002 A 
ATOM     62  C   UNL A   1      48.350  27.306  23.997  1.00  0.00     0.091 A 
ATOM     63  F   UNL A   1      46.318  28.557  23.988  1.00  0.00    -0.205 F 
ATOM     64  C   UNL A   1      49.318  26.590  24.719  1.00  0.00     0.022 A 
BRANCH  62  65
ATOM     65  S   UNL A   1      48.591  27.460  22.222  1.00  0.00     0.127 S 
ATOM     66  O   UNL A   1      47.412  28.227  21.828  1.00  0.00    -0.237 OA
ATOM     67  O   UNL A   1      49.853  28.198  22.140  1.00  0.00    -0.237 OA
ATOM     68  O   UNL A   1      48.659  26.097  21.713  1.00  0.00    -0.744 OA
ENDBRANCH  62  65
ENDBRANCH  44  58
BRANCH  45  69
ATOM     69  C   UNL A   1      38.736  30.389  30.763  1.00  0.00     0.023 A 
ATOM     70  C   UNL A   1      38.648  30.169  32.150  1.00  0.00     0.012 A 
ATOM     71  C   UNL A   1      37.677  31.039  30.102  1.00  0.00     0.148 A 
ATOM     72  C   UNL A   1      37.522  30.579  32.865  1.00  0.00     0.002 A 
ATOM     73  C   UNL A   1      36.586  31.500  30.829  1.00  0.00     0.091 A 
ATOM     74  F   UNL A   1      37.762  31.212  28.775  1.00  0.00    -0.205 F 
ATOM     75  C   UNL A   1      36.499  31.260  32.208  1.00  0.00     0.022 A 
BRANCH  73  76
ATOM     76  S   UNL A   1      35.313  32.520  30.075  1.00  0.00     0.127 S 
ATOM     77  O   UNL A   1      34.392  32.724  31.189  1.00  0.00    -0.237 OA
ATOM     78  O   UNL A   1      36.067  33.709  29.673  1.00  0.00    -0.237 OA
ATOM     79  O   UNL A   1      34.808  31.733  28.958  1.00  0.00    -0.744 OA
ENDBRANCH  73  76
ENDBRANCH  45  69
BRANCH  57  80
ATOM     80  C   UNL A   1      44.842  33.525  29.490  1.00  0.00     0.023 A 
ATOM     81  C   UNL A   1      45.594  33.628  30.676  1.00  0.00     0.012 A 
ATOM     82  C   UNL A   1      44.689  34.657  28.666  1.00  0.00     0.148 A 
ATOM     83  C   UNL A   1      46.166  34.843  31.049  1.00  0.00     0.002 A 
ATOM     84  C   UNL A   1      45.293  35.857  29.026  1.00  0.00     0.091 A 
ATOM     85  F   UNL A   1      43.948  34.546  27.554  1.00  0.00    -0.205 F 
ATOM     86  C   UNL A   1      46.025  35.954  30.221  1.00  0.00     0.022 A 
BRANCH  84  87
ATOM     87  S   UNL A   1      45.226  37.311  27.972  1.00  0.00     0.127 S 
ATOM     88  O   UNL A   1      43.795  37.608  27.964  1.00  0.00    -0.237 OA
ATOM     89  O   UNL A   1      46.045  38.275  28.708  1.00  0.00    -0.237 OA
ATOM     90  O   UNL A   1      45.793  36.896  26.696  1.00  0.00    -0.744 OA
ENDBRANCH  84  87
ENDBRANCH  57  80
ENDBRANCH  31  32
ENDBRANCH  24  26
ENDBRANCH  23  24
ENDBRANCH  22  23
ENDBRANCH   1  22
TORSDOF 19
ENDMDL
MODEL 3
REMARK VINA RESULT:     -10.8      1.403      7.771
REMARK SMILES CSc1ccc(Cl)c(C(=O)N[C@@H](CO)C(=O)OCCOC(=O)c2ccc(-c3c4nc(c(-c5cccc(S(=O)(=O)[O-])c5F)c5ccc([nH]5)c(-c5cccc(S(=O)(=O)[O-])c5F)c5nc(c(-c6cccc(S(=O)(=O)[O-])c6F)c6ccc3[nH]6)C=C5)C=C4)cc2)c1
REMARK SMILES IDX 18 1 17 2 15 3 16 4 12 5 11 6 9 7 10 8 8 10 3 11 4 12 86 13
REMARK SMILES IDX 5 14 6 15 7 16 2 17 1 18 13 19 14 20 19 22 20 23 21 24 22 25
REMARK SMILES IDX 23 26 24 27 85 28 25 29 84 30 26 31 27 32 28 33 78 34 29 35
REMARK SMILES IDX 83 36 77 37 79 38 30 39 82 40 76 41 75 42 31 44 63 45 43 46
REMARK SMILES IDX 62 47 44 48 47 49 61 50 80 51 45 52 46 53 60 55 81 56 48 57
REMARK SMILES IDX 32 58 33 59 41 60 34 61 36 62 42 63 35 64 37 65 38 66 39 67
REMARK SMILES IDX 40 68 64 69 65 70 73 71 66 72 68 73 74 74 67 75 69 76 70 77
REMARK SMILES IDX 71 78 72 79 49 80 50 81 58 82 51 83 53 84 59 85 52 86 54 87
REMARK SMILES IDX 55 88 56 89 57 90
REMARK H PARENT 11 9 14 21 79 43 47 54
REMARK Flexibility Score: inf
ROOT
ATOM      1  C   UNL A   1      36.087  19.832  24.998  1.00  0.00     0.274 C 
ENDROOT
BRANCH   1   2
ATOM      2  O   UNL A   1      35.548  21.122  25.351  1.00  0.00    -0.460 OA
BRANCH   2   3
ATOM      3  C   UNL A   1      34.265  21.349  24.960  1.00  0.00     0.331 C 
ATOM      4  O   UNL A   1      33.606  20.594  24.252  1.00  0.00    -0.250 OA
BRANCH   3   5
ATOM      5  C   UNL A   1      33.718  22.699  25.438  1.00  0.00     0.218 C 
BRANCH   5   6
ATOM      6  N   UNL A   1      32.504  22.658  26.263  1.00  0.00    -0.337 N 
ATOM      7  C   UNL A   1      31.582  23.605  26.626  1.00  0.00     0.253 C 
ATOM      8  O   UNL A   1      30.862  23.348  27.594  1.00  0.00    -0.269 OA
ATOM      9  H   UNL A   1      32.314  21.766  26.634  1.00  0.00     0.164 HD
BRANCH   7  10
ATOM     10  C   UNL A   1      31.283  24.838  25.848  1.00  0.00     0.059 A 
ATOM     11  C   UNL A   1      31.517  27.280  25.890  1.00  0.00     0.008 A 
ATOM     12  C   UNL A   1      30.917  27.363  24.638  1.00  0.00     0.016 A 
ATOM     13  C   UNL A   1      31.654  26.031  26.505  1.00  0.00     0.030 A 
ATOM     14  C   UNL A   1      30.575  26.193  23.960  1.00  0.00     0.022 A 
ATOM     15  C   UNL A   1      30.812  24.933  24.535  1.00  0.00     0.053 A 
ATOM     16  Cl  UNL A   1      30.650  23.590  23.469  1.00  0.00    -0.083 Cl
BRANCH  11  17
ATOM     17  S   UNL A   1      32.195  28.740  26.646  1.00  0.00    -0.130 SA
ATOM     18  C   UNL A   1      33.807  28.741  25.808  1.00  0.00     0.091 C 
ENDBRANCH  11  17
ENDBRANCH   7  10
ENDBRANCH   5   6
BRANCH   5  19
ATOM     19  C   UNL A   1      34.852  23.356  26.247  1.00  0.00     0.193 C 
BRANCH  19  20
ATOM     20  O   UNL A   1      34.907  22.825  27.577  1.00  0.00    -0.394 OA
ATOM     21  H   UNL A   1      35.801  22.942  27.936  1.00  0.00     0.210 HD
ENDBRANCH  19  20
ENDBRANCH   5  19
ENDBRANCH   3   5
ENDBRANCH   2   3
ENDBRANCH   1   2
BRANCH   1  22
ATOM     22  C   UNL A   1      37.583  19.921  24.703  1.00  0.00     0.275 C 
BRANCH  22  23
ATOM     23  O   UNL A   1      38.146  21.133  25.235  1.00  0.00    -0.458 OA
BRANCH  23  24
ATOM     24  C   UNL A   1      39.214  20.949  26.041  1.00  0.00     0.338 C 
ATOM     25  O   UNL A   1      39.824  19.903  26.244  1.00  0.00    -0.246 OA
BRANCH  24  26
ATOM     26  C   UNL A   1      39.648  22.232  26.595  1.00  0.00     0.060 A 
ATOM     27  C   UNL A   1      39.009  23.390  26.155  1.00  0.00     0.016 A 
ATOM     28  C   UNL A   1      40.760  22.308  27.431  1.00  0.00     0.016 A 
ATOM     29  C   UNL A   1      39.518  24.638  26.501  1.00  0.00     0.010 A 
ATOM     30  C   UNL A   1      41.244  23.565  27.812  1.00  0.00     0.010 A 
ATOM     31  C   UNL A   1      40.651  24.742  27.319  1.00  0.00    -0.014 A 
BRANCH  31  32
ATOM     32  C   UNL A   1      41.240  26.078  27.604  1.00  0.00     0.031 A 
ATOM     33  C   UNL A   1      42.622  26.419  27.108  1.00  0.00     0.074 A 
ATOM     34  C   UNL A   1      40.539  26.996  28.298  1.00  0.00     0.049 A 
ATOM     35  N   UNL A   1      43.340  27.488  27.340  1.00  0.00    -0.248 NA
ATOM     36  C   UNL A   1      43.284  25.427  26.247  1.00  0.00     0.031 C 
ATOM     37  C   UNL A   1      39.192  26.802  28.833  1.00  0.00     0.029 A 
ATOM     38  N   UNL A   1      40.868  28.274  28.681  1.00  0.00    -0.354 N 
ATOM     39  C   UNL A   1      44.563  27.266  26.715  1.00  0.00     0.074 A 
ATOM     40  C   UNL A   1      44.482  25.968  26.079  1.00  0.00     0.031 C 
ATOM     41  C   UNL A   1      38.804  27.921  29.463  1.00  0.00     0.029 A 
ATOM     42  C   UNL A   1      39.893  28.891  29.429  1.00  0.00     0.049 A 
ATOM     43  H   UNL A   1      41.720  28.706  28.442  1.00  0.00     0.167 HD
ATOM     44  C   UNL A   1      45.649  28.073  26.661  1.00  0.00     0.034 A 
ATOM     45  C   UNL A   1      39.885  30.090  30.046  1.00  0.00     0.034 A 
ATOM     46  C   UNL A   1      45.707  29.395  27.223  1.00  0.00     0.049 A 
ATOM     47  C   UNL A   1      41.093  30.979  29.946  1.00  0.00     0.074 A 
ATOM     48  C   UNL A   1      46.748  30.307  27.171  1.00  0.00     0.029 A 
ATOM     49  N   UNL A   1      44.681  30.002  27.929  1.00  0.00    -0.354 N 
ATOM     50  N   UNL A   1      42.210  30.782  29.289  1.00  0.00    -0.248 NA
ATOM     51  C   UNL A   1      41.034  32.265  30.659  1.00  0.00     0.031 C 
ATOM     52  C   UNL A   1      46.351  31.465  27.849  1.00  0.00     0.029 A 
ATOM     53  C   UNL A   1      45.061  31.276  28.318  1.00  0.00     0.049 A 
ATOM     54  H   UNL A   1      43.809  29.589  28.125  1.00  0.00     0.167 HD
ATOM     55  C   UNL A   1      42.983  31.918  29.501  1.00  0.00     0.074 A 
ATOM     56  C   UNL A   1      42.190  32.817  30.316  1.00  0.00     0.031 C 
ATOM     57  C   UNL A   1      44.245  32.181  29.084  1.00  0.00     0.034 A 
BRANCH  44  58
ATOM     58  C   UNL A   1      46.865  27.562  25.936  1.00  0.00     0.023 A 
ATOM     59  C   UNL A   1      47.024  27.834  24.564  1.00  0.00     0.012 A 
ATOM     60  C   UNL A   1      47.878  26.869  26.627  1.00  0.00     0.148 A 
ATOM     61  C   UNL A   1      48.165  27.406  23.884  1.00  0.00     0.002 A 
ATOM     62  C   UNL A   1      49.029  26.477  25.951  1.00  0.00     0.091 A 
ATOM     63  F   UNL A   1      47.695  26.593  27.927  1.00  0.00    -0.205 F 
ATOM     64  C   UNL A   1      49.171  26.739  24.579  1.00  0.00     0.022 A 
BRANCH  62  65
ATOM     65  S   UNL A   1      50.404  25.674  26.784  1.00  0.00     0.127 S 
ATOM     66  O   UNL A   1      50.758  26.667  27.796  1.00  0.00    -0.237 OA
ATOM     67  O   UNL A   1      49.784  24.459  27.315  1.00  0.00    -0.237 OA
ATOM     68  O   UNL A   1      51.405  25.436  25.754  1.00  0.00    -0.744 OA
ENDBRANCH  62  65
ENDBRANCH  44  58
BRANCH  45  69
ATOM     69  C   UNL A   1      38.670  30.525  30.791  1.00  0.00     0.023 A 
ATOM     70  C   UNL A   1      38.609  30.333  32.184  1.00  0.00     0.012 A 
ATOM     71  C   UNL A   1      37.605  31.175  30.139  1.00  0.00     0.148 A 
ATOM     72  C   UNL A   1      37.502  30.770  32.913  1.00  0.00     0.002 A 
ATOM     73  C   UNL A   1      36.534  31.662  30.879  1.00  0.00     0.091 A 
ATOM     74  F   UNL A   1      37.664  31.321  28.808  1.00  0.00    -0.205 F 
ATOM     75  C   UNL A   1      36.473  31.448  32.264  1.00  0.00     0.022 A 
BRANCH  73  76
ATOM     76  S   UNL A   1      35.257  32.681  30.132  1.00  0.00     0.127 S 
ATOM     77  O   UNL A   1      34.377  32.942  31.267  1.00  0.00    -0.237 OA
ATOM     78  O   UNL A   1      36.020  33.840  29.665  1.00  0.00    -0.237 OA
ATOM     79  O   UNL A   1      34.700  31.867  29.060  1.00  0.00    -0.744 OA
ENDBRANCH  73  76
ENDBRANCH  45  69
BRANCH  57  80
ATOM     80  C   UNL A   1      44.854  33.495  29.495  1.00  0.00     0.023 A 
ATOM     81  C   UNL A   1      45.626  33.559  30.671  1.00  0.00     0.012 A 
ATOM     82  C   UNL A   1      44.721  34.642  28.689  1.00  0.00     0.148 A 
ATOM     83  C   UNL A   1      46.238  34.752  31.053  1.00  0.00     0.002 A 
ATOM     84  C   UNL A   1      45.365  35.819  29.057  1.00  0.00     0.091 A 
ATOM     85  F   UNL A   1      43.962  34.568  27.587  1.00  0.00    -0.205 F 
ATOM     86  C   UNL A   1      46.116  35.878  30.242  1.00  0.00     0.022 A 
BRANCH  84  87
ATOM     87  S   UNL A   1      45.323  37.289  28.025  1.00  0.00     0.127 S 
ATOM     88  O   UNL A   1      43.887  37.544  27.925  1.00  0.00    -0.237 OA
ATOM     89  O   UNL A   1      46.061  38.264  28.830  1.00  0.00    -0.237 OA
ATOM     90  O   UNL A   1      45.987  36.915  26.783  1.00  0.00    -0.744 OA
ENDBRANCH  84  87
ENDBRANCH  57  80
ENDBRANCH  31  32
ENDBRANCH  24  26
ENDBRANCH  23  24
ENDBRANCH  22  23
ENDBRANCH   1  22
TORSDOF 19
ENDMDL
