MODEL 1
REMARK VINA RESULT:     -11.4      0.000      0.000
REMARK SMILES C[C@H](NC(=O)N(CC(=O)OCCOC(=O)c1ccc(-c2c3nc(c(-c4cccc(S(=O)(=O)[O-])c4F)c4ccc([nH]4)c(-c4cccc(S(=O)(=O)[O-])c4F)c4nc(c(-c5cccc(S(=O)(=O)[O-])c5F)c5ccc2[nH]5)C=C4)C=C3)cc1)CC(F)(F)F)[C@@H]1CCCO1
REMARK SMILES IDX 11 1 10 2 8 3 9 4 7 5 6 6 4 7 3 8 5 10 2 11 1 12 84 13 85 14
REMARK SMILES IDX 88 15 86 16 87 17 79 18 80 19 81 20 82 21 83 22 12 23 13 24
REMARK SMILES IDX 14 25 15 26 16 27 17 28 78 29 18 30 77 31 19 32 20 33 21 34
REMARK SMILES IDX 71 35 22 36 76 37 70 38 72 39 23 40 75 41 69 42 68 43 24 45
REMARK SMILES IDX 56 46 36 47 55 48 37 49 40 50 54 51 73 52 38 53 39 54 53 56
REMARK SMILES IDX 74 57 41 58 25 59 26 60 34 61 27 62 29 63 35 64 28 65 30 66
REMARK SMILES IDX 31 67 32 68 33 69 57 70 58 71 66 72 59 73 61 74 67 75 60 76
REMARK SMILES IDX 62 77 63 78 64 79 65 80 42 81 43 82 51 83 44 84 46 85 52 86
REMARK SMILES IDX 45 87 47 88 48 89 49 90 50 91
REMARK H PARENT 3 9 72 44 40 55
REMARK Flexibility Score: inf
ROOT
ATOM      1  C   UNL A   1      35.220  21.364  24.809  1.00  0.00     0.274 C 
ENDROOT
BRANCH   1   2
ATOM      2  O   UNL A   1      34.049  20.551  25.009  1.00  0.00    -0.461 OA
BRANCH   2   3
ATOM      3  C   UNL A   1      32.917  21.228  25.306  1.00  0.00     0.325 C 
ATOM      4  O   UNL A   1      31.783  20.770  25.197  1.00  0.00    -0.250 OA
BRANCH   3   5
ATOM      5  C   UNL A   1      33.162  22.602  25.915  1.00  0.00     0.244 C 
BRANCH   5   6
ATOM      6  N   UNL A   1      32.275  23.716  25.650  1.00  0.00    -0.305 N 
BRANCH   6   7
ATOM      7  C   UNL A   1      31.355  24.226  26.503  1.00  0.00     0.318 C 
ATOM      8  N   UNL A   1      31.023  25.517  26.606  1.00  0.00    -0.333 N 
ATOM      9  H   UNL A   1      30.318  25.588  27.289  1.00  0.00     0.165 HD
ATOM     10  O   UNL A   1      30.721  23.480  27.257  1.00  0.00    -0.249 OA
BRANCH   8  11
ATOM     11  C   UNL A   1      31.294  26.881  26.102  1.00  0.00     0.109 C 
ATOM     12  C   UNL A   1      32.585  27.532  26.590  1.00  0.00     0.034 C 
BRANCH  11  13
ATOM     13  C   UNL A   1      30.888  27.158  24.628  1.00  0.00     0.140 C 
ATOM     14  C   UNL A   1      30.748  28.593  24.135  1.00  0.00     0.036 C 
ATOM     15  O   UNL A   1      29.594  26.547  24.382  1.00  0.00    -0.376 OA
ATOM     16  C   UNL A   1      29.778  28.446  22.988  1.00  0.00     0.031 C 
ATOM     17  C   UNL A   1      28.824  27.411  23.532  1.00  0.00     0.160 C 
ENDBRANCH  11  13
ENDBRANCH   8  11
ENDBRANCH   6   7
BRANCH   6  18
ATOM     18  C   UNL A   1      32.556  24.489  24.409  1.00  0.00     0.237 C 
BRANCH  18  19
ATOM     19  C   UNL A   1      33.965  25.066  24.206  1.00  0.00     0.406 C 
ATOM     20  F   UNL A   1      34.667  25.185  25.352  1.00  0.00    -0.169 F 
ATOM     21  F   UNL A   1      34.683  24.240  23.400  1.00  0.00    -0.169 F 
ATOM     22  F   UNL A   1      33.956  26.278  23.611  1.00  0.00    -0.169 F 
ENDBRANCH  18  19
ENDBRANCH   6  18
ENDBRANCH   5   6
ENDBRANCH   3   5
ENDBRANCH   2   3
ENDBRANCH   1   2
BRANCH   1  23
ATOM     23  C   UNL A   1      36.506  20.608  25.163  1.00  0.00     0.275 C 
BRANCH  23  24
ATOM     24  O   UNL A   1      37.692  21.392  24.922  1.00  0.00    -0.458 OA
BRANCH  24  25
ATOM     25  C   UNL A   1      38.754  21.067  25.692  1.00  0.00     0.338 C 
ATOM     26  O   UNL A   1      39.301  19.979  25.771  1.00  0.00    -0.246 OA
BRANCH  25  27
ATOM     27  C   UNL A   1      39.290  22.249  26.381  1.00  0.00     0.060 A 
ATOM     28  C   UNL A   1      38.734  23.494  26.089  1.00  0.00     0.016 A 
ATOM     29  C   UNL A   1      40.457  22.159  27.139  1.00  0.00     0.016 A 
ATOM     30  C   UNL A   1      39.388  24.659  26.470  1.00  0.00     0.010 A 
ATOM     31  C   UNL A   1      41.074  23.332  27.586  1.00  0.00     0.010 A 
ATOM     32  C   UNL A   1      40.568  24.593  27.219  1.00  0.00    -0.014 A 
BRANCH  32  33
ATOM     33  C   UNL A   1      41.281  25.846  27.573  1.00  0.00     0.031 A 
ATOM     34  C   UNL A   1      40.607  26.885  28.428  1.00  0.00     0.074 A 
ATOM     35  C   UNL A   1      42.546  26.039  27.149  1.00  0.00     0.049 A 
ATOM     36  N   UNL A   1      41.032  28.076  28.763  1.00  0.00    -0.248 NA
ATOM     37  C   UNL A   1      39.281  26.546  28.973  1.00  0.00     0.031 C 
ATOM     38  C   UNL A   1      43.315  25.098  26.333  1.00  0.00     0.029 A 
ATOM     39  N   UNL A   1      43.407  27.089  27.344  1.00  0.00    -0.354 N 
ATOM     40  C   UNL A   1      40.000  28.655  29.490  1.00  0.00     0.074 A 
ATOM     41  C   UNL A   1      38.937  27.678  29.573  1.00  0.00     0.031 C 
ATOM     42  C   UNL A   1      44.539  25.601  26.117  1.00  0.00     0.029 A 
ATOM     43  C   UNL A   1      44.625  26.924  26.726  1.00  0.00     0.049 A 
ATOM     44  H   UNL A   1      43.176  27.885  27.876  1.00  0.00     0.167 HD
ATOM     45  C   UNL A   1      39.947  29.887  30.049  1.00  0.00     0.034 A 
ATOM     46  C   UNL A   1      45.682  27.754  26.639  1.00  0.00     0.034 A 
ATOM     47  C   UNL A   1      41.037  30.825  30.041  1.00  0.00     0.049 A 
ATOM     48  C   UNL A   1      45.609  29.100  27.301  1.00  0.00     0.074 A 
ATOM     49  C   UNL A   1      41.091  32.083  30.616  1.00  0.00     0.029 A 
ATOM     50  N   UNL A   1      42.267  30.601  29.448  1.00  0.00    -0.354 N 
ATOM     51  N   UNL A   1      44.645  29.608  28.031  1.00  0.00    -0.248 NA
ATOM     52  C   UNL A   1      46.770  29.988  27.134  1.00  0.00     0.031 C 
ATOM     53  C   UNL A   1      42.364  32.616  30.376  1.00  0.00     0.029 A 
ATOM     54  C   UNL A   1      43.094  31.694  29.644  1.00  0.00     0.049 A 
ATOM     55  H   UNL A   1      42.518  29.785  28.957  1.00  0.00     0.167 HD
ATOM     56  C   UNL A   1      45.087  30.865  28.422  1.00  0.00     0.074 A 
ATOM     57  C   UNL A   1      46.417  31.032  27.873  1.00  0.00     0.031 C 
ATOM     58  C   UNL A   1      44.438  31.811  29.144  1.00  0.00     0.034 A 
BRANCH  45  59
ATOM     59  C   UNL A   1      38.677  30.284  30.746  1.00  0.00     0.023 A 
ATOM     60  C   UNL A   1      38.494  29.946  32.100  1.00  0.00     0.012 A 
ATOM     61  C   UNL A   1      37.694  31.042  30.079  1.00  0.00     0.148 A 
ATOM     62  C   UNL A   1      37.342  30.345  32.778  1.00  0.00     0.002 A 
ATOM     63  C   UNL A   1      36.562  31.459  30.770  1.00  0.00     0.091 A 
ATOM     64  F   UNL A   1      37.873  31.324  28.781  1.00  0.00    -0.205 F 
ATOM     65  C   UNL A   1      36.383  31.110  32.118  1.00  0.00     0.022 A 
BRANCH  63  66
ATOM     66  S   UNL A   1      35.308  32.492  30.003  1.00  0.00     0.127 S 
ATOM     67  O   UNL A   1      36.096  33.647  29.578  1.00  0.00    -0.237 OA
ATOM     68  O   UNL A   1      34.828  31.646  28.908  1.00  0.00    -0.237 OA
ATOM     69  O   UNL A   1      34.319  32.743  31.042  1.00  0.00    -0.744 OA
ENDBRANCH  63  66
ENDBRANCH  45  59
BRANCH  46  70
ATOM     70  C   UNL A   1      46.915  27.308  25.931  1.00  0.00     0.023 A 
ATOM     71  C   UNL A   1      47.794  26.418  26.576  1.00  0.00     0.012 A 
ATOM     72  C   UNL A   1      47.194  27.708  24.612  1.00  0.00     0.148 A 
ATOM     73  C   UNL A   1      48.933  25.944  25.922  1.00  0.00     0.002 A 
ATOM     74  C   UNL A   1      48.298  27.188  23.946  1.00  0.00     0.091 A 
ATOM     75  F   UNL A   1      46.365  28.579  24.015  1.00  0.00    -0.205 F 
ATOM     76  C   UNL A   1      49.178  26.316  24.601  1.00  0.00     0.022 A 
BRANCH  74  77
ATOM     77  S   UNL A   1      48.550  27.521  22.199  1.00  0.00     0.127 S 
ATOM     78  O   UNL A   1      48.700  26.178  21.648  1.00  0.00    -0.237 OA
ATOM     79  O   UNL A   1      47.314  28.208  21.817  1.00  0.00    -0.237 OA
ATOM     80  O   UNL A   1      49.732  28.374  22.167  1.00  0.00    -0.744 OA
ENDBRANCH  74  77
ENDBRANCH  46  70
BRANCH  58  81
ATOM     81  C   UNL A   1      45.157  33.107  29.387  1.00  0.00     0.023 A 
ATOM     82  C   UNL A   1      46.030  33.211  30.487  1.00  0.00     0.012 A 
ATOM     83  C   UNL A   1      45.029  34.189  28.498  1.00  0.00     0.148 A 
ATOM     84  C   UNL A   1      46.753  34.382  30.709  1.00  0.00     0.002 A 
ATOM     85  C   UNL A   1      45.778  35.343  28.708  1.00  0.00     0.091 A 
ATOM     86  F   UNL A   1      44.174  34.084  27.469  1.00  0.00    -0.205 F 
ATOM     87  C   UNL A   1      46.636  35.443  29.813  1.00  0.00     0.022 A 
BRANCH  85  88
ATOM     88  S   UNL A   1      45.718  36.708  27.542  1.00  0.00     0.127 S 
ATOM     89  O   UNL A   1      46.141  36.066  26.299  1.00  0.00    -0.237 OA
ATOM     90  O   UNL A   1      44.308  37.102  27.573  1.00  0.00    -0.237 OA
ATOM     91  O   UNL A   1      46.626  37.709  28.088  1.00  0.00    -0.744 OA
ENDBRANCH  85  88
ENDBRANCH  58  81
ENDBRANCH  32  33
ENDBRANCH  25  27
ENDBRANCH  24  25
ENDBRANCH  23  24
ENDBRANCH   1  23
TORSDOF 20
ENDMDL
MODEL 2
REMARK VINA RESULT:     -11.3      1.387      7.756
REMARK SMILES C[C@H](NC(=O)N(CC(=O)OCCOC(=O)c1ccc(-c2c3nc(c(-c4cccc(S(=O)(=O)[O-])c4F)c4ccc([nH]4)c(-c4cccc(S(=O)(=O)[O-])c4F)c4nc(c(-c5cccc(S(=O)(=O)[O-])c5F)c5ccc2[nH]5)C=C4)C=C3)cc1)CC(F)(F)F)[C@@H]1CCCO1
REMARK SMILES IDX 11 1 10 2 8 3 9 4 7 5 6 6 4 7 3 8 5 10 2 11 1 12 84 13 85 14
REMARK SMILES IDX 88 15 86 16 87 17 79 18 80 19 81 20 82 21 83 22 12 23 13 24
REMARK SMILES IDX 14 25 15 26 16 27 17 28 78 29 18 30 77 31 19 32 20 33 21 34
REMARK SMILES IDX 71 35 22 36 76 37 70 38 72 39 23 40 75 41 69 42 68 43 24 45
REMARK SMILES IDX 56 46 36 47 55 48 37 49 40 50 54 51 73 52 38 53 39 54 53 56
REMARK SMILES IDX 74 57 41 58 25 59 26 60 34 61 27 62 29 63 35 64 28 65 30 66
REMARK SMILES IDX 31 67 32 68 33 69 57 70 58 71 66 72 59 73 61 74 67 75 60 76
REMARK SMILES IDX 62 77 63 78 64 79 65 80 42 81 43 82 51 83 44 84 46 85 52 86
REMARK SMILES IDX 45 87 47 88 48 89 49 90 50 91
REMARK H PARENT 3 9 72 44 40 55
REMARK Flexibility Score: inf
ROOT
ATOM      1  C   UNL A   1      35.707  21.290  25.402  1.00  0.00     0.274 C 
ENDROOT
BRANCH   1   2
ATOM      2  O   UNL A   1      35.029  21.768  24.225  1.00  0.00    -0.461 OA
BRANCH   2   3
ATOM      3  C   UNL A   1      35.487  22.939  23.728  1.00  0.00     0.325 C 
ATOM      4  O   UNL A   1      36.165  23.045  22.709  1.00  0.00    -0.250 OA
BRANCH   3   5
ATOM      5  C   UNL A   1      34.989  24.165  24.480  1.00  0.00     0.244 C 
BRANCH   5   6
ATOM      6  N   UNL A   1      33.689  24.743  24.209  1.00  0.00    -0.305 N 
BRANCH   6   7
ATOM      7  C   UNL A   1      33.371  25.537  23.158  1.00  0.00     0.318 C 
ATOM      8  N   UNL A   1      32.736  26.710  23.236  1.00  0.00    -0.333 N 
ATOM      9  H   UNL A   1      32.662  27.069  22.322  1.00  0.00     0.165 HD
ATOM     10  O   UNL A   1      33.692  25.212  22.010  1.00  0.00    -0.249 OA
BRANCH   8  11
ATOM     11  C   UNL A   1      32.099  27.685  24.149  1.00  0.00     0.109 C 
ATOM     12  C   UNL A   1      30.726  27.298  24.691  1.00  0.00     0.034 C 
BRANCH  11  13
ATOM     13  C   UNL A   1      33.050  28.427  25.127  1.00  0.00     0.140 C 
ATOM     14  C   UNL A   1      33.390  27.806  26.476  1.00  0.00     0.036 C 
ATOM     15  O   UNL A   1      32.471  29.721  25.444  1.00  0.00    -0.376 OA
ATOM     16  C   UNL A   1      33.736  29.015  27.310  1.00  0.00     0.031 C 
ATOM     17  C   UNL A   1      32.714  30.015  26.827  1.00  0.00     0.160 C 
ENDBRANCH  11  13
ENDBRANCH   8  11
ENDBRANCH   6   7
BRANCH   6  18
ATOM     18  C   UNL A   1      32.567  24.241  25.048  1.00  0.00     0.237 C 
BRANCH  18  19
ATOM     19  C   UNL A   1      31.499  23.352  24.392  1.00  0.00     0.406 C 
ATOM     20  F   UNL A   1      30.707  24.016  23.525  1.00  0.00    -0.169 F 
ATOM     21  F   UNL A   1      32.103  22.364  23.681  1.00  0.00    -0.169 F 
ATOM     22  F   UNL A   1      30.694  22.748  25.292  1.00  0.00    -0.169 F 
ENDBRANCH  18  19
ENDBRANCH   6  18
ENDBRANCH   5   6
ENDBRANCH   3   5
ENDBRANCH   2   3
ENDBRANCH   1   2
BRANCH   1  23
ATOM     23  C   UNL A   1      36.914  20.414  25.048  1.00  0.00     0.275 C 
BRANCH  23  24
ATOM     24  O   UNL A   1      38.130  21.176  24.913  1.00  0.00    -0.458 OA
BRANCH  24  25
ATOM     25  C   UNL A   1      39.065  20.928  25.857  1.00  0.00     0.338 C 
ATOM     26  O   UNL A   1      39.578  19.852  26.120  1.00  0.00    -0.246 OA
BRANCH  25  27
ATOM     27  C   UNL A   1      39.513  22.171  26.499  1.00  0.00     0.060 A 
ATOM     28  C   UNL A   1      38.872  23.361  26.158  1.00  0.00     0.016 A 
ATOM     29  C   UNL A   1      40.681  22.193  27.261  1.00  0.00     0.016 A 
ATOM     30  C   UNL A   1      39.441  24.584  26.493  1.00  0.00     0.010 A 
ATOM     31  C   UNL A   1      41.212  23.424  27.662  1.00  0.00     0.010 A 
ATOM     32  C   UNL A   1      40.620  24.630  27.245  1.00  0.00    -0.014 A 
BRANCH  32  33
ATOM     33  C   UNL A   1      41.241  25.944  27.550  1.00  0.00     0.031 A 
ATOM     34  C   UNL A   1      42.608  26.276  27.018  1.00  0.00     0.074 A 
ATOM     35  C   UNL A   1      40.564  26.851  28.282  1.00  0.00     0.049 A 
ATOM     36  N   UNL A   1      43.349  27.328  27.253  1.00  0.00    -0.248 NA
ATOM     37  C   UNL A   1      43.229  25.297  26.108  1.00  0.00     0.031 C 
ATOM     38  C   UNL A   1      39.223  26.656  28.837  1.00  0.00     0.029 A 
ATOM     39  N   UNL A   1      40.910  28.115  28.687  1.00  0.00    -0.354 N 
ATOM     40  C   UNL A   1      44.547  27.104  26.586  1.00  0.00     0.074 A 
ATOM     41  C   UNL A   1      44.428  25.829  25.913  1.00  0.00     0.031 C 
ATOM     42  C   UNL A   1      38.851  27.767  29.489  1.00  0.00     0.029 A 
ATOM     43  C   UNL A   1      39.946  28.731  29.451  1.00  0.00     0.049 A 
ATOM     44  H   UNL A   1      41.767  28.541  28.454  1.00  0.00     0.167 HD
ATOM     45  C   UNL A   1      45.644  27.896  26.530  1.00  0.00     0.034 A 
ATOM     46  C   UNL A   1      39.952  29.927  30.071  1.00  0.00     0.034 A 
ATOM     47  C   UNL A   1      45.730  29.201  27.125  1.00  0.00     0.049 A 
ATOM     48  C   UNL A   1      41.169  30.800  29.960  1.00  0.00     0.074 A 
ATOM     49  C   UNL A   1      46.787  30.095  27.088  1.00  0.00     0.029 A 
ATOM     50  N   UNL A   1      44.717  29.807  27.848  1.00  0.00    -0.354 N 
ATOM     51  N   UNL A   1      42.271  30.595  29.278  1.00  0.00    -0.248 NA
ATOM     52  C   UNL A   1      41.145  32.073  30.696  1.00  0.00     0.031 C 
ATOM     53  C   UNL A   1      46.404  31.249  27.783  1.00  0.00     0.029 A 
ATOM     54  C   UNL A   1      45.117  31.067  28.259  1.00  0.00     0.049 A 
ATOM     55  H   UNL A   1      43.840  29.402  28.041  1.00  0.00     0.167 HD
ATOM     56  C   UNL A   1      43.064  31.715  29.491  1.00  0.00     0.074 A 
ATOM     57  C   UNL A   1      42.305  32.610  30.341  1.00  0.00     0.031 C 
ATOM     58  C   UNL A   1      44.320  31.967  29.050  1.00  0.00     0.034 A 
BRANCH  45  59
ATOM     59  C   UNL A   1      46.835  27.385  25.769  1.00  0.00     0.023 A 
ATOM     60  C   UNL A   1      47.711  26.470  26.382  1.00  0.00     0.012 A 
ATOM     61  C   UNL A   1      47.053  27.766  24.431  1.00  0.00     0.148 A 
ATOM     62  C   UNL A   1      48.795  25.949  25.678  1.00  0.00     0.002 A 
ATOM     63  C   UNL A   1      48.122  27.221  23.727  1.00  0.00     0.091 A 
ATOM     64  F   UNL A   1      46.228  28.666  23.876  1.00  0.00    -0.205 F 
ATOM     65  C   UNL A   1      48.995  26.315  24.348  1.00  0.00     0.022 A 
BRANCH  63  66
ATOM     66  S   UNL A   1      48.411  27.603  21.995  1.00  0.00     0.127 S 
ATOM     67  O   UNL A   1      48.665  26.277  21.437  1.00  0.00    -0.237 OA
ATOM     68  O   UNL A   1      47.138  28.203  21.586  1.00  0.00    -0.237 OA
ATOM     69  O   UNL A   1      49.538  28.526  21.981  1.00  0.00    -0.744 OA
ENDBRANCH  63  66
ENDBRANCH  45  59
BRANCH  46  70
ATOM     70  C   UNL A   1      38.743  30.380  30.814  1.00  0.00     0.023 A 
ATOM     71  C   UNL A   1      38.673  30.173  32.205  1.00  0.00     0.012 A 
ATOM     72  C   UNL A   1      37.694  31.061  30.171  1.00  0.00     0.148 A 
ATOM     73  C   UNL A   1      37.576  30.627  32.938  1.00  0.00     0.002 A 
ATOM     74  C   UNL A   1      36.631  31.562  30.915  1.00  0.00     0.091 A 
ATOM     75  F   UNL A   1      37.755  31.229  28.841  1.00  0.00    -0.205 F 
ATOM     76  C   UNL A   1      36.561  31.336  32.297  1.00  0.00     0.022 A 
BRANCH  74  77
ATOM     77  S   UNL A   1      35.394  32.613  30.146  1.00  0.00     0.127 S 
ATOM     78  O   UNL A   1      34.880  31.756  29.083  1.00  0.00    -0.237 OA
ATOM     79  O   UNL A   1      34.456  32.865  31.241  1.00  0.00    -0.237 OA
ATOM     80  O   UNL A   1      36.141  33.794  29.727  1.00  0.00    -0.744 OA
ENDBRANCH  74  77
ENDBRANCH  46  70
BRANCH  58  81
ATOM     81  C   UNL A   1      44.952  33.263  29.472  1.00  0.00     0.023 A 
ATOM     82  C   UNL A   1      45.852  33.266  30.554  1.00  0.00     0.012 A 
ATOM     83  C   UNL A   1      44.716  34.454  28.761  1.00  0.00     0.148 A 
ATOM     84  C   UNL A   1      46.496  34.443  30.935  1.00  0.00     0.002 A 
ATOM     85  C   UNL A   1      45.387  35.616  29.127  1.00  0.00     0.091 A 
ATOM     86  F   UNL A   1      43.836  34.440  27.749  1.00  0.00    -0.205 F 
ATOM     87  C   UNL A   1      46.273  35.614  30.215  1.00  0.00     0.022 A 
BRANCH  85  88
ATOM     88  S   UNL A   1      45.188  37.133  28.185  1.00  0.00     0.127 S 
ATOM     89  O   UNL A   1      45.611  36.719  26.849  1.00  0.00    -0.237 OA
ATOM     90  O   UNL A   1      43.756  37.410  28.311  1.00  0.00    -0.237 OA
ATOM     91  O   UNL A   1      46.042  38.106  28.855  1.00  0.00    -0.744 OA
ENDBRANCH  85  88
ENDBRANCH  58  81
ENDBRANCH  32  33
ENDBRANCH  25  27
ENDBRANCH  24  25
ENDBRANCH  23  24
ENDBRANCH   1  23
TORSDOF 20
ENDMDL
MODEL 3
REMARK VINA RESULT:     -11.2      1.897      2.493
REMARK SMILES C[C@H](NC(=O)N(CC(=O)OCCOC(=O)c1ccc(-c2c3nc(c(-c4cccc(S(=O)(=O)[O-])c4F)c4ccc([nH]4)c(-c4cccc(S(=O)(=O)[O-])c4F)c4nc(c(-c5cccc(S(=O)(=O)[O-])c5F)c5ccc2[nH]5)C=C4)C=C3)cc1)CC(F)(F)F)[C@@H]1CCCO1
REMARK SMILES IDX 11 1 10 2 8 3 9 4 7 5 6 6 4 7 3 8 5 10 2 11 1 12 84 13 85 14
REMARK SMILES IDX 88 15 86 16 87 17 79 18 80 19 81 20 82 21 83 22 12 23 13 24
REMARK SMILES IDX 14 25 15 26 16 27 17 28 78 29 18 30 77 31 19 32 20 33 21 34
REMARK SMILES IDX 71 35 22 36 76 37 70 38 72 39 23 40 75 41 69 42 68 43 24 45
REMARK SMILES IDX 56 46 36 47 55 48 37 49 40 50 54 51 73 52 38 53 39 54 53 56
REMARK SMILES IDX 74 57 41 58 25 59 26 60 34 61 27 62 29 63 35 64 28 65 30 66
REMARK SMILES IDX 31 67 32 68 33 69 57 70 58 71 66 72 59 73 61 74 67 75 60 76
REMARK SMILES IDX 62 77 63 78 64 79 65 80 42 81 43 82 51 83 44 84 46 85 52 86
REMARK SMILES IDX 45 87 47 88 48 89 49 90 50 91
REMARK H PARENT 3 9 72 44 40 55
REMARK Flexibility Score: inf
ROOT
ATOM      1  C   UNL A   1      35.295  21.148  24.860  1.00  0.00     0.274 C 
ENDROOT
BRANCH   1   2
ATOM      2  O   UNL A   1      35.468  22.572  24.970  1.00  0.00    -0.461 OA
BRANCH   2   3
ATOM      3  C   UNL A   1      34.326  23.289  25.064  1.00  0.00     0.325 C 
ATOM      4  O   UNL A   1      33.474  23.131  25.935  1.00  0.00    -0.250 OA
BRANCH   3   5
ATOM      5  C   UNL A   1      34.221  24.420  24.049  1.00  0.00     0.244 C 
BRANCH   5   6
ATOM      6  N   UNL A   1      33.408  24.294  22.857  1.00  0.00    -0.305 N 
BRANCH   6   7
ATOM      7  C   UNL A   1      32.936  25.314  22.101  1.00  0.00     0.318 C 
ATOM      8  N   UNL A   1      32.120  26.283  22.528  1.00  0.00    -0.333 N 
ATOM      9  H   UNL A   1      31.963  26.893  21.771  1.00  0.00     0.165 HD
ATOM     10  O   UNL A   1      33.273  25.422  20.918  1.00  0.00    -0.249 OA
BRANCH   8  11
ATOM     11  C   UNL A   1      31.358  26.804  23.684  1.00  0.00     0.109 C 
ATOM     12  C   UNL A   1      30.484  25.794  24.421  1.00  0.00     0.034 C 
BRANCH  11  13
ATOM     13  C   UNL A   1      32.083  27.865  24.557  1.00  0.00     0.140 C 
ATOM     14  C   UNL A   1      33.590  28.053  24.432  1.00  0.00     0.036 C 
ATOM     15  O   UNL A   1      31.858  27.546  25.956  1.00  0.00    -0.376 OA
ATOM     16  C   UNL A   1      33.958  28.615  25.783  1.00  0.00     0.031 C 
ATOM     17  C   UNL A   1      33.058  27.818  26.695  1.00  0.00     0.160 C 
ENDBRANCH  11  13
ENDBRANCH   8  11
ENDBRANCH   6   7
BRANCH   6  18
ATOM     18  C   UNL A   1      33.266  22.918  22.310  1.00  0.00     0.237 C 
BRANCH  18  19
ATOM     19  C   UNL A   1      32.066  22.069  22.757  1.00  0.00     0.406 C 
ATOM     20  F   UNL A   1      31.043  22.801  23.245  1.00  0.00    -0.169 F 
ATOM     21  F   UNL A   1      31.573  21.381  21.693  1.00  0.00    -0.169 F 
ATOM     22  F   UNL A   1      32.390  21.154  23.696  1.00  0.00    -0.169 F 
ENDBRANCH  18  19
ENDBRANCH   6  18
ENDBRANCH   5   6
ENDBRANCH   3   5
ENDBRANCH   2   3
ENDBRANCH   1   2
BRANCH   1  23
ATOM     23  C   UNL A   1      36.605  20.393  25.112  1.00  0.00     0.275 C 
BRANCH  23  24
ATOM     24  O   UNL A   1      37.766  21.234  24.953  1.00  0.00    -0.458 OA
BRANCH  24  25
ATOM     25  C   UNL A   1      38.800  20.938  25.772  1.00  0.00     0.338 C 
ATOM     26  O   UNL A   1      39.344  19.853  25.908  1.00  0.00    -0.246 OA
BRANCH  25  27
ATOM     27  C   UNL A   1      39.310  22.143  26.439  1.00  0.00     0.060 A 
ATOM     28  C   UNL A   1      38.769  23.377  26.081  1.00  0.00     0.016 A 
ATOM     29  C   UNL A   1      40.445  22.079  27.245  1.00  0.00     0.016 A 
ATOM     30  C   UNL A   1      39.410  24.555  26.445  1.00  0.00     0.010 A 
ATOM     31  C   UNL A   1      41.047  23.267  27.675  1.00  0.00     0.010 A 
ATOM     32  C   UNL A   1      40.559  24.514  27.243  1.00  0.00    -0.014 A 
BRANCH  32  33
ATOM     33  C   UNL A   1      41.260  25.779  27.580  1.00  0.00     0.031 A 
ATOM     34  C   UNL A   1      40.576  26.823  28.420  1.00  0.00     0.074 A 
ATOM     35  C   UNL A   1      42.523  25.977  27.155  1.00  0.00     0.049 A 
ATOM     36  N   UNL A   1      40.989  28.022  28.739  1.00  0.00    -0.248 NA
ATOM     37  C   UNL A   1      39.253  26.479  28.969  1.00  0.00     0.031 C 
ATOM     38  C   UNL A   1      43.302  25.032  26.352  1.00  0.00     0.029 A 
ATOM     39  N   UNL A   1      43.375  27.038  27.336  1.00  0.00    -0.354 N 
ATOM     40  C   UNL A   1      39.951  28.602  29.458  1.00  0.00     0.074 A 
ATOM     41  C   UNL A   1      38.897  27.616  29.553  1.00  0.00     0.031 C 
ATOM     42  C   UNL A   1      44.522  25.544  26.130  1.00  0.00     0.029 A 
ATOM     43  C   UNL A   1      44.595  26.876  26.721  1.00  0.00     0.049 A 
ATOM     44  H   UNL A   1      43.136  27.839  27.856  1.00  0.00     0.167 HD
ATOM     45  C   UNL A   1      39.887  29.841  29.999  1.00  0.00     0.034 A 
ATOM     46  C   UNL A   1      45.645  27.714  26.624  1.00  0.00     0.034 A 
ATOM     47  C   UNL A   1      40.968  30.789  29.979  1.00  0.00     0.049 A 
ATOM     48  C   UNL A   1      45.558  29.069  27.267  1.00  0.00     0.074 A 
ATOM     49  C   UNL A   1      41.010  32.055  30.536  1.00  0.00     0.029 A 
ATOM     50  N   UNL A   1      42.201  30.568  29.390  1.00  0.00    -0.354 N 
ATOM     51  N   UNL A   1      44.589  29.577  27.989  1.00  0.00    -0.248 NA
ATOM     52  C   UNL A   1      46.711  29.964  27.089  1.00  0.00     0.031 C 
ATOM     53  C   UNL A   1      42.278  32.597  30.290  1.00  0.00     0.029 A 
ATOM     54  C   UNL A   1      43.017  31.671  29.572  1.00  0.00     0.049 A 
ATOM     55  H   UNL A   1      42.459  29.747  28.910  1.00  0.00     0.167 HD
ATOM     56  C   UNL A   1      45.019  30.844  28.363  1.00  0.00     0.074 A 
ATOM     57  C   UNL A   1      46.348  31.015  27.813  1.00  0.00     0.031 C 
ATOM     58  C   UNL A   1      44.360  31.793  29.071  1.00  0.00     0.034 A 
BRANCH  45  59
ATOM     59  C   UNL A   1      38.612  30.236  30.689  1.00  0.00     0.023 A 
ATOM     60  C   UNL A   1      38.420  29.892  32.041  1.00  0.00     0.012 A 
ATOM     61  C   UNL A   1      37.634  30.997  30.019  1.00  0.00     0.148 A 
ATOM     62  C   UNL A   1      37.264  30.289  32.713  1.00  0.00     0.002 A 
ATOM     63  C   UNL A   1      36.498  31.412  30.705  1.00  0.00     0.091 A 
ATOM     64  F   UNL A   1      37.821  31.284  28.724  1.00  0.00    -0.205 F 
ATOM     65  C   UNL A   1      36.309  31.057  32.050  1.00  0.00     0.022 A 
BRANCH  63  66
ATOM     66  S   UNL A   1      35.250  32.449  29.934  1.00  0.00     0.127 S 
ATOM     67  O   UNL A   1      34.329  32.680  31.044  1.00  0.00    -0.237 OA
ATOM     68  O   UNL A   1      36.023  33.626  29.529  1.00  0.00    -0.237 OA
ATOM     69  O   UNL A   1      34.725  31.668  28.822  1.00  0.00    -0.744 OA
ENDBRANCH  63  66
ENDBRANCH  45  59
BRANCH  46  70
ATOM     70  C   UNL A   1      46.882  27.270  25.923  1.00  0.00     0.023 A 
ATOM     71  C   UNL A   1      47.046  27.573  24.559  1.00  0.00     0.012 A 
ATOM     72  C   UNL A   1      47.918  26.605  26.605  1.00  0.00     0.148 A 
ATOM     73  C   UNL A   1      48.214  27.212  23.884  1.00  0.00     0.002 A 
ATOM     74  C   UNL A   1      49.102  26.300  25.943  1.00  0.00     0.091 A 
ATOM     75  F   UNL A   1      47.741  26.295  27.898  1.00  0.00    -0.205 F 
ATOM     76  C   UNL A   1      49.250  26.590  24.580  1.00  0.00     0.022 A 
BRANCH  74  77
ATOM     77  S   UNL A   1      50.510  25.646  26.847  1.00  0.00     0.127 S 
ATOM     78  O   UNL A   1      51.511  25.503  25.795  1.00  0.00    -0.237 OA
ATOM     79  O   UNL A   1      50.789  26.702  27.822  1.00  0.00    -0.237 OA
ATOM     80  O   UNL A   1      50.009  24.412  27.442  1.00  0.00    -0.744 OA
ENDBRANCH  74  77
ENDBRANCH  46  70
BRANCH  58  81
ATOM     81  C   UNL A   1      45.067  33.099  29.297  1.00  0.00     0.023 A 
ATOM     82  C   UNL A   1      45.863  33.258  30.448  1.00  0.00     0.012 A 
ATOM     83  C   UNL A   1      45.006  34.135  28.347  1.00  0.00     0.148 A 
ATOM     84  C   UNL A   1      46.574  34.438  30.659  1.00  0.00     0.002 A 
ATOM     85  C   UNL A   1      45.745  35.297  28.549  1.00  0.00     0.091 A 
ATOM     86  F   UNL A   1      44.224  33.979  27.269  1.00  0.00    -0.205 F 
ATOM     87  C   UNL A   1      46.525  35.452  29.705  1.00  0.00     0.022 A 
BRANCH  85  88
ATOM     88  S   UNL A   1      45.771  36.601  27.314  1.00  0.00     0.127 S 
ATOM     89  O   UNL A   1      44.368  37.005  27.269  1.00  0.00    -0.237 OA
ATOM     90  O   UNL A   1      46.671  37.593  27.905  1.00  0.00    -0.237 OA
ATOM     91  O   UNL A   1      46.295  35.968  26.110  1.00  0.00    -0.744 OA
ENDBRANCH  85  88
ENDBRANCH  58  81
ENDBRANCH  32  33
ENDBRANCH  25  27
ENDBRANCH  24  25
ENDBRANCH  23  24
ENDBRANCH   1  23
TORSDOF 20
ENDMDL
