MODEL 1
REMARK VINA RESULT:     -12.0      0.000      0.000
REMARK SMILES CC1=C(C)C[C@@H](C(=O)NNC(=O)c2sccc2C)[C@@H](C(=O)OCCOC(=O)c2ccc(-c3c4nc(c(-c5cccc(S(=O)(=O)[O-])c5F)c5ccc([nH]5)c(-c5cccc(S(=O)(=O)[O-])c5F)c5nc(c(-c6cccc(S(=O)(=O)[O-])c6F)c6ccc3[nH]6)C=C5)C=C4)cc2)C1
REMARK SMILES IDX 23 1 22 2 20 3 21 4 19 5 1 6 2 7 3 8 91 9 4 10 5 11 6 12
REMARK SMILES IDX 7 13 8 14 9 15 10 17 11 18 12 20 13 21 14 22 17 23 15 24
REMARK SMILES IDX 16 25 18 26 24 27 25 28 26 29 27 30 28 31 29 32 90 33 30 34
REMARK SMILES IDX 89 35 31 36 32 37 33 38 83 39 34 40 88 41 82 42 84 43 35 44
REMARK SMILES IDX 87 45 81 46 80 47 36 49 68 50 48 51 67 52 49 53 52 54 66 55
REMARK SMILES IDX 85 56 50 57 51 58 65 60 86 61 53 62 37 63 38 64 46 65 39 66
REMARK SMILES IDX 41 67 47 68 40 69 42 70 43 71 44 72 45 73 69 74 70 75 78 76
REMARK SMILES IDX 71 77 73 78 79 79 72 80 74 81 75 82 76 83 77 84 54 85 55 86
REMARK SMILES IDX 63 87 56 88 58 89 64 90 57 91 59 92 60 93 61 94 62 95
REMARK H PARENT 9 16 10 19 84 48 52 59
REMARK Flexibility Score: inf
ROOT
ATOM      1  C   UNL A   1      36.283  22.659  23.928  1.00  0.00     0.274 C 
ENDROOT
BRANCH   1   2
ATOM      2  O   UNL A   1      35.597  23.247  25.056  1.00  0.00    -0.462 OA
BRANCH   2   3
ATOM      3  C   UNL A   1      34.368  22.775  25.365  1.00  0.00     0.310 C 
ATOM      4  O   UNL A   1      33.613  23.296  26.178  1.00  0.00    -0.252 OA
BRANCH   3   5
ATOM      5  C   UNL A   1      33.942  21.572  24.530  1.00  0.00     0.116 C 
ATOM      6  C   UNL A   1      32.903  18.030  25.769  1.00  0.00     0.039 C 
ATOM      7  C   UNL A   1      32.948  19.214  24.831  1.00  0.00    -0.073 C 
ATOM      8  C   UNL A   1      32.461  19.239  23.572  1.00  0.00    -0.074 C 
ATOM      9  C   UNL A   1      33.558  20.437  25.470  1.00  0.00     0.046 C 
ATOM     10  C   UNL A   1      31.759  18.083  22.904  1.00  0.00     0.039 C 
ATOM     11  C   UNL A   1      32.513  20.487  22.709  1.00  0.00     0.045 C 
ATOM     12  C   UNL A   1      32.943  21.795  23.392  1.00  0.00     0.099 C 
BRANCH  12  13
ATOM     13  C   UNL A   1      31.804  22.785  23.640  1.00  0.00     0.242 C 
ATOM     14  O   UNL A   1      30.982  22.535  24.534  1.00  0.00    -0.273 OA
ATOM     15  N   UNL A   1      31.609  23.925  22.924  1.00  0.00    -0.267 N 
ATOM     16  H   UNL A   1      30.754  24.388  23.078  1.00  0.00     0.191 HD
BRANCH  15  17
ATOM     17  N   UNL A   1      32.461  24.518  22.004  1.00  0.00    -0.263 N 
ATOM     18  C   UNL A   1      32.878  25.845  22.045  1.00  0.00     0.280 C 
ATOM     19  H   UNL A   1      32.796  23.958  21.266  1.00  0.00     0.191 HD
ATOM     20  O   UNL A   1      33.520  26.271  21.081  1.00  0.00    -0.266 OA
BRANCH  18  21
ATOM     21  C   UNL A   1      32.557  26.655  23.216  1.00  0.00     0.096 A 
ATOM     22  S   UNL A   1      33.640  26.595  24.551  1.00  0.00    -0.138 S 
ATOM     23  C   UNL A   1      31.458  27.462  23.489  1.00  0.00    -0.027 A 
ATOM     24  C   UNL A   1      32.787  27.811  25.386  1.00  0.00     0.066 A 
ATOM     25  C   UNL A   1      31.632  28.166  24.730  1.00  0.00     0.016 A 
ATOM     26  C   UNL A   1      30.241  27.610  22.635  1.00  0.00     0.046 C 
ENDBRANCH  18  21
ENDBRANCH  15  17
ENDBRANCH  12  13
ENDBRANCH   3   5
ENDBRANCH   2   3
ENDBRANCH   1   2
BRANCH   1  27
ATOM     27  C   UNL A   1      37.295  21.616  24.406  1.00  0.00     0.275 C 
BRANCH  27  28
ATOM     28  O   UNL A   1      37.540  21.770  25.816  1.00  0.00    -0.458 OA
BRANCH  28  29
ATOM     29  C   UNL A   1      38.834  21.593  26.162  1.00  0.00     0.338 C 
ATOM     30  O   UNL A   1      39.514  20.606  25.952  1.00  0.00    -0.246 OA
BRANCH  29  31
ATOM     31  C   UNL A   1      39.404  22.812  26.735  1.00  0.00     0.060 A 
ATOM     32  C   UNL A   1      38.982  24.036  26.221  1.00  0.00     0.016 A 
ATOM     33  C   UNL A   1      40.482  22.736  27.616  1.00  0.00     0.016 A 
ATOM     34  C   UNL A   1      39.695  25.189  26.529  1.00  0.00     0.010 A 
ATOM     35  C   UNL A   1      41.124  23.913  28.011  1.00  0.00     0.010 A 
ATOM     36  C   UNL A   1      40.750  25.149  27.457  1.00  0.00    -0.014 A 
BRANCH  36  37
ATOM     37  C   UNL A   1      41.395  26.413  27.901  1.00  0.00     0.031 A 
ATOM     38  C   UNL A   1      40.654  27.428  28.727  1.00  0.00     0.074 A 
ATOM     39  C   UNL A   1      42.669  26.649  27.526  1.00  0.00     0.049 A 
ATOM     40  N   UNL A   1      41.044  28.619  29.105  1.00  0.00    -0.248 NA
ATOM     41  C   UNL A   1      39.299  27.072  29.179  1.00  0.00     0.031 C 
ATOM     42  C   UNL A   1      43.484  25.748  26.708  1.00  0.00     0.029 A 
ATOM     43  N   UNL A   1      43.503  27.708  27.779  1.00  0.00    -0.354 N 
ATOM     44  C   UNL A   1      39.967  29.179  29.781  1.00  0.00     0.074 A 
ATOM     45  C   UNL A   1      38.910  28.191  29.778  1.00  0.00     0.031 C 
ATOM     46  C   UNL A   1      44.711  26.263  26.569  1.00  0.00     0.029 A 
ATOM     47  C   UNL A   1      44.751  27.568  27.217  1.00  0.00     0.049 A 
ATOM     48  H   UNL A   1      43.236  28.492  28.311  1.00  0.00     0.167 HD
ATOM     49  C   UNL A   1      39.875  30.402  30.357  1.00  0.00     0.034 A 
ATOM     50  C   UNL A   1      45.807  28.402  27.199  1.00  0.00     0.034 A 
ATOM     51  C   UNL A   1      40.954  31.355  30.414  1.00  0.00     0.049 A 
ATOM     52  C   UNL A   1      45.687  29.734  27.875  1.00  0.00     0.074 A 
ATOM     53  C   UNL A   1      40.971  32.604  31.013  1.00  0.00     0.029 A 
ATOM     54  N   UNL A   1      42.213  31.161  29.864  1.00  0.00    -0.354 N 
ATOM     55  N   UNL A   1      44.679  30.221  28.557  1.00  0.00    -0.248 NA
ATOM     56  C   UNL A   1      46.846  30.632  27.782  1.00  0.00     0.031 C 
ATOM     57  C   UNL A   1      42.241  33.163  30.827  1.00  0.00     0.029 A 
ATOM     58  C   UNL A   1      43.013  32.264  30.110  1.00  0.00     0.049 A 
ATOM     59  H   UNL A   1      42.495  30.358  29.370  1.00  0.00     0.167 HD
ATOM     60  C   UNL A   1      45.079  31.482  28.977  1.00  0.00     0.074 A 
ATOM     61  C   UNL A   1      46.437  31.669  28.502  1.00  0.00     0.031 C 
ATOM     62  C   UNL A   1      44.375  32.413  29.664  1.00  0.00     0.034 A 
BRANCH  49  63
ATOM     63  C   UNL A   1      38.572  30.773  31.017  1.00  0.00     0.023 A 
ATOM     64  C   UNL A   1      38.382  30.487  32.383  1.00  0.00     0.012 A 
ATOM     65  C   UNL A   1      37.569  31.463  30.310  1.00  0.00     0.148 A 
ATOM     66  C   UNL A   1      37.207  30.867  33.030  1.00  0.00     0.002 A 
ATOM     67  C   UNL A   1      36.411  31.866  30.970  1.00  0.00     0.091 A 
ATOM     68  F   UNL A   1      37.750  31.704  29.002  1.00  0.00    -0.205 F 
ATOM     69  C   UNL A   1      36.227  31.565  32.328  1.00  0.00     0.022 A 
BRANCH  67  70
ATOM     70  S   UNL A   1      35.138  32.829  30.143  1.00  0.00     0.127 S 
ATOM     71  O   UNL A   1      35.902  33.969  29.642  1.00  0.00    -0.237 OA
ATOM     72  O   UNL A   1      34.665  31.911  29.105  1.00  0.00    -0.237 OA
ATOM     73  O   UNL A   1      34.150  33.123  31.173  1.00  0.00    -0.744 OA
ENDBRANCH  67  70
ENDBRANCH  49  63
BRANCH  50  74
ATOM     74  C   UNL A   1      47.075  27.958  26.557  1.00  0.00     0.023 A 
ATOM     75  C   UNL A   1      48.033  27.279  27.331  1.00  0.00     0.012 A 
ATOM     76  C   UNL A   1      47.290  28.103  25.172  1.00  0.00     0.148 A 
ATOM     77  C   UNL A   1      49.180  26.749  26.738  1.00  0.00     0.002 A 
ATOM     78  C   UNL A   1      48.401  27.516  24.578  1.00  0.00     0.091 A 
ATOM     79  F   UNL A   1      46.383  28.778  24.450  1.00  0.00    -0.205 F 
ATOM     80  C   UNL A   1      49.355  26.849  25.359  1.00  0.00     0.022 A 
BRANCH  78  81
ATOM     81  S   UNL A   1      48.577  27.461  22.789  1.00  0.00     0.127 S 
ATOM     82  O   UNL A   1      47.422  28.235  22.346  1.00  0.00    -0.237 OA
ATOM     83  O   UNL A   1      49.871  28.112  22.578  1.00  0.00    -0.237 OA
ATOM     84  O   UNL A   1      48.571  26.041  22.459  1.00  0.00    -0.744 OA
ENDBRANCH  78  81
ENDBRANCH  50  74
BRANCH  62  85
ATOM     85  C   UNL A   1      45.062  33.723  29.933  1.00  0.00     0.023 A 
ATOM     86  C   UNL A   1      45.801  33.874  31.123  1.00  0.00     0.012 A 
ATOM     87  C   UNL A   1      45.018  34.777  29.003  1.00  0.00     0.148 A 
ATOM     88  C   UNL A   1      46.469  35.067  31.393  1.00  0.00     0.002 A 
ATOM     89  C   UNL A   1      45.713  35.953  29.265  1.00  0.00     0.091 A 
ATOM     90  F   UNL A   1      44.285  34.625  27.890  1.00  0.00    -0.205 F 
ATOM     91  C   UNL A   1      46.433  36.102  30.461  1.00  0.00     0.022 A 
BRANCH  89  92
ATOM     92  S   UNL A   1      45.762  37.300  28.079  1.00  0.00     0.127 S 
ATOM     93  O   UNL A   1      44.404  37.830  28.167  1.00  0.00    -0.237 OA
ATOM     94  O   UNL A   1      46.795  38.178  28.632  1.00  0.00    -0.237 OA
ATOM     95  O   UNL A   1      46.125  36.683  26.810  1.00  0.00    -0.744 OA
ENDBRANCH  89  92
ENDBRANCH  62  85
ENDBRANCH  36  37
ENDBRANCH  29  31
ENDBRANCH  28  29
ENDBRANCH  27  28
ENDBRANCH   1  27
TORSDOF 17
ENDMDL
MODEL 2
REMARK VINA RESULT:     -11.8      5.043     10.008
REMARK SMILES CC1=C(C)C[C@@H](C(=O)NNC(=O)c2sccc2C)[C@@H](C(=O)OCCOC(=O)c2ccc(-c3c4nc(c(-c5cccc(S(=O)(=O)[O-])c5F)c5ccc([nH]5)c(-c5cccc(S(=O)(=O)[O-])c5F)c5nc(c(-c6cccc(S(=O)(=O)[O-])c6F)c6ccc3[nH]6)C=C5)C=C4)cc2)C1
REMARK SMILES IDX 23 1 22 2 20 3 21 4 19 5 1 6 2 7 3 8 91 9 4 10 5 11 6 12
REMARK SMILES IDX 7 13 8 14 9 15 10 17 11 18 12 20 13 21 14 22 17 23 15 24
REMARK SMILES IDX 16 25 18 26 24 27 25 28 26 29 27 30 28 31 29 32 90 33 30 34
REMARK SMILES IDX 89 35 31 36 32 37 33 38 83 39 34 40 88 41 82 42 84 43 35 44
REMARK SMILES IDX 87 45 81 46 80 47 36 49 68 50 48 51 67 52 49 53 52 54 66 55
REMARK SMILES IDX 85 56 50 57 51 58 65 60 86 61 53 62 37 63 38 64 46 65 39 66
REMARK SMILES IDX 41 67 47 68 40 69 42 70 43 71 44 72 45 73 69 74 70 75 78 76
REMARK SMILES IDX 71 77 73 78 79 79 72 80 74 81 75 82 76 83 77 84 54 85 55 86
REMARK SMILES IDX 63 87 56 88 58 89 64 90 57 91 59 92 60 93 61 94 62 95
REMARK H PARENT 9 16 10 19 84 48 52 59
REMARK Flexibility Score: inf
ROOT
ATOM      1  C   UNL A   1      33.505  28.662  25.855  1.00  0.00     0.274 C 
ENDROOT
BRANCH   1   2
ATOM      2  O   UNL A   1      33.912  28.302  24.517  1.00  0.00    -0.462 OA
BRANCH   2   3
ATOM      3  C   UNL A   1      33.009  28.448  23.521  1.00  0.00     0.310 C 
ATOM      4  O   UNL A   1      33.292  28.793  22.378  1.00  0.00    -0.252 OA
BRANCH   3   5
ATOM      5  C   UNL A   1      31.591  28.043  23.909  1.00  0.00     0.116 C 
ATOM      6  C   UNL A   1      28.230  29.332  22.426  1.00  0.00     0.039 C 
ATOM      7  C   UNL A   1      29.161  28.361  23.114  1.00  0.00    -0.073 C 
ATOM      8  C   UNL A   1      28.791  27.220  23.735  1.00  0.00    -0.074 C 
ATOM      9  C   UNL A   1      30.610  28.763  22.993  1.00  0.00     0.046 C 
ATOM     10  C   UNL A   1      27.373  26.713  23.815  1.00  0.00     0.039 C 
ATOM     11  C   UNL A   1      29.799  26.279  24.369  1.00  0.00     0.045 C 
ATOM     12  C   UNL A   1      31.286  26.555  24.093  1.00  0.00     0.099 C 
BRANCH  12  13
ATOM     13  C   UNL A   1      31.941  25.576  23.117  1.00  0.00     0.242 C 
ATOM     14  O   UNL A   1      31.449  25.444  21.987  1.00  0.00    -0.273 OA
ATOM     15  N   UNL A   1      33.026  24.810  23.412  1.00  0.00    -0.267 N 
ATOM     16  H   UNL A   1      33.248  24.111  22.756  1.00  0.00     0.191 HD
BRANCH  15  17
ATOM     17  N   UNL A   1      33.858  24.888  24.519  1.00  0.00    -0.263 N 
ATOM     18  C   UNL A   1      34.051  23.865  25.443  1.00  0.00     0.280 C 
ATOM     19  H   UNL A   1      34.348  25.730  24.662  1.00  0.00     0.191 HD
ATOM     20  O   UNL A   1      34.708  24.127  26.453  1.00  0.00    -0.266 OA
BRANCH  18  21
ATOM     21  C   UNL A   1      33.492  22.544  25.169  1.00  0.00     0.096 A 
ATOM     22  S   UNL A   1      34.554  21.335  24.564  1.00  0.00    -0.138 S 
ATOM     23  C   UNL A   1      32.186  22.075  25.258  1.00  0.00    -0.027 A 
ATOM     24  C   UNL A   1      33.348  20.135  24.648  1.00  0.00     0.066 A 
ATOM     25  C   UNL A   1      32.129  20.663  25.001  1.00  0.00     0.016 A 
ATOM     26  C   UNL A   1      30.976  22.893  25.575  1.00  0.00     0.046 C 
ENDBRANCH  18  21
ENDBRANCH  15  17
ENDBRANCH  12  13
ENDBRANCH   3   5
ENDBRANCH   2   3
ENDBRANCH   1   2
BRANCH   1  27
ATOM     27  C   UNL A   1      33.136  30.145  25.919  1.00  0.00     0.275 C 
BRANCH  27  28
ATOM     28  O   UNL A   1      32.992  30.563  27.290  1.00  0.00    -0.458 OA
BRANCH  28  29
ATOM     29  C   UNL A   1      33.764  31.622  27.615  1.00  0.00     0.338 C 
ATOM     30  O   UNL A   1      33.426  32.791  27.632  1.00  0.00    -0.246 OA
BRANCH  29  31
ATOM     31  C   UNL A   1      35.081  31.196  28.089  1.00  0.00     0.060 A 
ATOM     32  C   UNL A   1      35.181  29.956  28.718  1.00  0.00     0.016 A 
ATOM     33  C   UNL A   1      36.149  32.092  28.095  1.00  0.00     0.016 A 
ATOM     34  C   UNL A   1      36.333  29.641  29.427  1.00  0.00     0.010 A 
ATOM     35  C   UNL A   1      37.346  31.722  28.715  1.00  0.00     0.010 A 
ATOM     36  C   UNL A   1      37.444  30.502  29.403  1.00  0.00    -0.014 A 
BRANCH  36  37
ATOM     37  C   UNL A   1      38.724  30.076  30.029  1.00  0.00     0.031 A 
ATOM     38  C   UNL A   1      39.653  29.110  29.346  1.00  0.00     0.074 A 
ATOM     39  C   UNL A   1      39.035  30.561  31.248  1.00  0.00     0.049 A 
ATOM     40  N   UNL A   1      40.752  28.567  29.804  1.00  0.00    -0.248 NA
ATOM     41  C   UNL A   1      39.302  28.687  27.980  1.00  0.00     0.031 C 
ATOM     42  C   UNL A   1      38.204  31.490  32.018  1.00  0.00     0.029 A 
ATOM     43  N   UNL A   1      40.124  30.349  32.055  1.00  0.00    -0.354 N 
ATOM     44  C   UNL A   1      41.190  27.693  28.816  1.00  0.00     0.074 A 
ATOM     45  C   UNL A   1      40.246  27.790  27.722  1.00  0.00     0.031 C 
ATOM     46  C   UNL A   1      38.831  31.807  33.157  1.00  0.00     0.029 A 
ATOM     47  C   UNL A   1      40.071  31.046  33.240  1.00  0.00     0.049 A 
ATOM     48  H   UNL A   1      40.871  29.756  31.810  1.00  0.00     0.167 HD
ATOM     49  C   UNL A   1      42.282  26.892  28.820  1.00  0.00     0.034 A 
ATOM     50  C   UNL A   1      40.910  31.056  34.292  1.00  0.00     0.034 A 
ATOM     51  C   UNL A   1      43.253  26.850  29.885  1.00  0.00     0.049 A 
ATOM     52  C   UNL A   1      42.130  30.186  34.253  1.00  0.00     0.074 A 
ATOM     53  C   UNL A   1      44.416  26.102  29.961  1.00  0.00     0.029 A 
ATOM     54  N   UNL A   1      43.182  27.597  31.052  1.00  0.00    -0.354 N 
ATOM     55  N   UNL A   1      42.554  29.411  33.285  1.00  0.00    -0.248 NA
ATOM     56  C   UNL A   1      42.986  30.190  35.447  1.00  0.00     0.031 C 
ATOM     57  C   UNL A   1      45.049  26.399  31.174  1.00  0.00     0.029 A 
ATOM     58  C   UNL A   1      44.279  27.328  31.854  1.00  0.00     0.049 A 
ATOM     59  H   UNL A   1      42.458  28.224  31.277  1.00  0.00     0.167 HD
ATOM     60  C   UNL A   1      43.728  28.833  33.750  1.00  0.00     0.074 A 
ATOM     61  C   UNL A   1      43.966  29.377  35.073  1.00  0.00     0.031 C 
ATOM     62  C   UNL A   1      44.519  27.912  33.149  1.00  0.00     0.034 A 
BRANCH  49  63
ATOM     63  C   UNL A   1      42.520  26.019  27.616  1.00  0.00     0.023 A 
ATOM     64  C   UNL A   1      43.268  26.522  26.533  1.00  0.00     0.012 A 
ATOM     65  C   UNL A   1      42.067  24.686  27.582  1.00  0.00     0.148 A 
ATOM     66  C   UNL A   1      43.547  25.716  25.429  1.00  0.00     0.002 A 
ATOM     67  C   UNL A   1      42.374  23.879  26.490  1.00  0.00     0.091 A 
ATOM     68  F   UNL A   1      41.331  24.229  28.607  1.00  0.00    -0.205 F 
ATOM     69  C   UNL A   1      43.110  24.394  25.411  1.00  0.00     0.022 A 
BRANCH  67  70
ATOM     70  S   UNL A   1      41.902  22.145  26.433  1.00  0.00     0.127 S 
ATOM     71  O   UNL A   1      42.591  21.686  25.229  1.00  0.00    -0.237 OA
ATOM     72  O   UNL A   1      42.451  21.621  27.685  1.00  0.00    -0.237 OA
ATOM     73  O   UNL A   1      40.446  22.147  26.376  1.00  0.00    -0.744 OA
ENDBRANCH  67  70
ENDBRANCH  49  63
BRANCH  50  74
ATOM     74  C   UNL A   1      40.632  31.968  35.437  1.00  0.00     0.023 A 
ATOM     75  C   UNL A   1      41.392  33.143  35.576  1.00  0.00     0.012 A 
ATOM     76  C   UNL A   1      39.555  31.740  36.316  1.00  0.00     0.148 A 
ATOM     77  C   UNL A   1      41.085  34.075  36.568  1.00  0.00     0.002 A 
ATOM     78  C   UNL A   1      39.213  32.703  37.258  1.00  0.00     0.091 A 
ATOM     79  F   UNL A   1      38.856  30.601  36.190  1.00  0.00    -0.205 F 
ATOM     80  C   UNL A   1      39.983  33.866  37.395  1.00  0.00     0.022 A 
BRANCH  78  81
ATOM     81  S   UNL A   1      37.701  32.564  38.221  1.00  0.00     0.127 S 
ATOM     82  O   UNL A   1      37.719  31.158  38.613  1.00  0.00    -0.237 OA
ATOM     83  O   UNL A   1      37.933  33.510  39.314  1.00  0.00    -0.237 OA
ATOM     84  O   UNL A   1      36.641  32.968  37.307  1.00  0.00    -0.744 OA
ENDBRANCH  78  81
ENDBRANCH  50  74
BRANCH  62  85
ATOM     85  C   UNL A   1      45.710  27.428  33.926  1.00  0.00     0.023 A 
ATOM     86  C   UNL A   1      46.915  28.155  33.852  1.00  0.00     0.012 A 
ATOM     87  C   UNL A   1      45.632  26.297  34.758  1.00  0.00     0.148 A 
ATOM     88  C   UNL A   1      48.033  27.748  34.577  1.00  0.00     0.002 A 
ATOM     89  C   UNL A   1      46.742  25.914  35.503  1.00  0.00     0.091 A 
ATOM     90  F   UNL A   1      44.486  25.601  34.793  1.00  0.00    -0.205 F 
ATOM     91  C   UNL A   1      47.944  26.634  35.410  1.00  0.00     0.022 A 
BRANCH  89  92
ATOM     92  S   UNL A   1      46.677  24.529  36.645  1.00  0.00     0.127 S 
ATOM     93  O   UNL A   1      46.632  23.389  35.733  1.00  0.00    -0.237 OA
ATOM     94  O   UNL A   1      47.930  24.666  37.388  1.00  0.00    -0.237 OA
ATOM     95  O   UNL A   1      45.482  24.748  37.449  1.00  0.00    -0.744 OA
ENDBRANCH  89  92
ENDBRANCH  62  85
ENDBRANCH  36  37
ENDBRANCH  29  31
ENDBRANCH  28  29
ENDBRANCH  27  28
ENDBRANCH   1  27
TORSDOF 17
ENDMDL
MODEL 3
REMARK VINA RESULT:     -11.6      5.186     10.183
REMARK SMILES CC1=C(C)C[C@@H](C(=O)NNC(=O)c2sccc2C)[C@@H](C(=O)OCCOC(=O)c2ccc(-c3c4nc(c(-c5cccc(S(=O)(=O)[O-])c5F)c5ccc([nH]5)c(-c5cccc(S(=O)(=O)[O-])c5F)c5nc(c(-c6cccc(S(=O)(=O)[O-])c6F)c6ccc3[nH]6)C=C5)C=C4)cc2)C1
REMARK SMILES IDX 23 1 22 2 20 3 21 4 19 5 1 6 2 7 3 8 91 9 4 10 5 11 6 12
REMARK SMILES IDX 7 13 8 14 9 15 10 17 11 18 12 20 13 21 14 22 17 23 15 24
REMARK SMILES IDX 16 25 18 26 24 27 25 28 26 29 27 30 28 31 29 32 90 33 30 34
REMARK SMILES IDX 89 35 31 36 32 37 33 38 83 39 34 40 88 41 82 42 84 43 35 44
REMARK SMILES IDX 87 45 81 46 80 47 36 49 68 50 48 51 67 52 49 53 52 54 66 55
REMARK SMILES IDX 85 56 50 57 51 58 65 60 86 61 53 62 37 63 38 64 46 65 39 66
REMARK SMILES IDX 41 67 47 68 40 69 42 70 43 71 44 72 45 73 69 74 70 75 78 76
REMARK SMILES IDX 71 77 73 78 79 79 72 80 74 81 75 82 76 83 77 84 54 85 55 86
REMARK SMILES IDX 63 87 56 88 58 89 64 90 57 91 59 92 60 93 61 94 62 95
REMARK H PARENT 9 16 10 19 84 48 52 59
REMARK Flexibility Score: inf
ROOT
ATOM      1  C   UNL A   1      31.402  30.330  26.182  1.00  0.00     0.274 C 
ENDROOT
BRANCH   1   2
ATOM      2  O   UNL A   1      32.178  29.144  26.460  1.00  0.00    -0.462 OA
BRANCH   2   3
ATOM      3  C   UNL A   1      31.565  27.945  26.339  1.00  0.00     0.310 C 
ATOM      4  O   UNL A   1      31.033  27.345  27.267  1.00  0.00    -0.252 OA
BRANCH   3   5
ATOM      5  C   UNL A   1      31.496  27.429  24.905  1.00  0.00     0.116 C 
ATOM      6  C   UNL A   1      34.023  28.036  22.006  1.00  0.00     0.039 C 
ATOM      7  C   UNL A   1      32.948  27.309  22.780  1.00  0.00    -0.073 C 
ATOM      8  C   UNL A   1      32.248  26.241  22.341  1.00  0.00    -0.074 C 
ATOM      9  C   UNL A   1      32.755  27.868  24.168  1.00  0.00     0.046 C 
ATOM     10  C   UNL A   1      32.453  25.577  21.003  1.00  0.00     0.039 C 
ATOM     11  C   UNL A   1      31.209  25.545  23.201  1.00  0.00     0.045 C 
ATOM     12  C   UNL A   1      31.129  25.960  24.679  1.00  0.00     0.099 C 
BRANCH  12  13
ATOM     13  C   UNL A   1      31.701  24.933  25.657  1.00  0.00     0.242 C 
ATOM     14  O   UNL A   1      30.982  24.528  26.583  1.00  0.00    -0.273 OA
ATOM     15  N   UNL A   1      32.968  24.443  25.601  1.00  0.00    -0.267 N 
ATOM     16  H   UNL A   1      33.259  23.914  26.378  1.00  0.00     0.191 HD
BRANCH  15  17
ATOM     17  N   UNL A   1      33.904  24.593  24.588  1.00  0.00    -0.263 N 
ATOM     18  C   UNL A   1      34.518  23.545  23.909  1.00  0.00     0.280 C 
ATOM     19  H   UNL A   1      34.152  25.511  24.329  1.00  0.00     0.191 HD
ATOM     20  O   UNL A   1      35.434  23.828  23.133  1.00  0.00    -0.266 OA
BRANCH  18  21
ATOM     21  C   UNL A   1      34.046  22.181  24.129  1.00  0.00     0.096 A 
ATOM     22  S   UNL A   1      35.060  21.119  25.023  1.00  0.00    -0.138 S 
ATOM     23  C   UNL A   1      32.899  21.534  23.682  1.00  0.00    -0.027 A 
ATOM     24  C   UNL A   1      33.884  19.886  25.024  1.00  0.00     0.066 A 
ATOM     25  C   UNL A   1      32.796  20.219  24.253  1.00  0.00     0.016 A 
ATOM     26  C   UNL A   1      31.884  22.092  22.738  1.00  0.00     0.046 C 
ENDBRANCH  18  21
ENDBRANCH  15  17
ENDBRANCH  12  13
ENDBRANCH   3   5
ENDBRANCH   2   3
ENDBRANCH   1   2
BRANCH   1  27
ATOM     27  C   UNL A   1      32.021  31.546  26.874  1.00  0.00     0.275 C 
BRANCH  27  28
ATOM     28  O   UNL A   1      33.458  31.470  26.820  1.00  0.00    -0.458 OA
BRANCH  28  29
ATOM     29  C   UNL A   1      34.076  32.365  27.621  1.00  0.00     0.338 C 
ATOM     30  O   UNL A   1      33.643  33.445  27.975  1.00  0.00    -0.246 OA
BRANCH  29  31
ATOM     31  C   UNL A   1      35.331  31.829  28.149  1.00  0.00     0.060 A 
ATOM     32  C   UNL A   1      35.349  30.502  28.573  1.00  0.00     0.016 A 
ATOM     33  C   UNL A   1      36.404  32.680  28.407  1.00  0.00     0.016 A 
ATOM     34  C   UNL A   1      36.417  30.043  29.334  1.00  0.00     0.010 A 
ATOM     35  C   UNL A   1      37.525  32.181  29.075  1.00  0.00     0.010 A 
ATOM     36  C   UNL A   1      37.536  30.862  29.562  1.00  0.00    -0.014 A 
BRANCH  36  37
ATOM     37  C   UNL A   1      38.739  30.304  30.235  1.00  0.00     0.031 A 
ATOM     38  C   UNL A   1      39.646  29.324  29.543  1.00  0.00     0.074 A 
ATOM     39  C   UNL A   1      38.995  30.680  31.505  1.00  0.00     0.049 A 
ATOM     40  N   UNL A   1      40.672  28.673  30.029  1.00  0.00    -0.248 NA
ATOM     41  C   UNL A   1      39.363  29.024  28.130  1.00  0.00     0.031 C 
ATOM     42  C   UNL A   1      38.176  31.609  32.287  1.00  0.00     0.029 A 
ATOM     43  N   UNL A   1      40.010  30.334  32.362  1.00  0.00    -0.354 N 
ATOM     44  C   UNL A   1      41.118  27.842  29.009  1.00  0.00     0.074 A 
ATOM     45  C   UNL A   1      40.261  28.083  27.867  1.00  0.00     0.031 C 
ATOM     46  C   UNL A   1      38.744  31.800  33.484  1.00  0.00     0.029 A 
ATOM     47  C   UNL A   1      39.922  30.948  33.590  1.00  0.00     0.049 A 
ATOM     48  H   UNL A   1      40.731  29.708  32.121  1.00  0.00     0.167 HD
ATOM     49  C   UNL A   1      42.152  26.967  29.023  1.00  0.00     0.034 A 
ATOM     50  C   UNL A   1      40.684  30.826  34.691  1.00  0.00     0.034 A 
ATOM     51  C   UNL A   1      43.042  26.781  30.142  1.00  0.00     0.049 A 
ATOM     52  C   UNL A   1      41.843  29.875  34.666  1.00  0.00     0.074 A 
ATOM     53  C   UNL A   1      44.144  25.949  30.237  1.00  0.00     0.029 A 
ATOM     54  N   UNL A   1      42.940  27.448  31.354  1.00  0.00    -0.354 N 
ATOM     55  N   UNL A   1      42.281  29.141  33.672  1.00  0.00    -0.248 NA
ATOM     56  C   UNL A   1      42.613  29.735  35.909  1.00  0.00     0.031 C 
ATOM     57  C   UNL A   1      44.711  26.114  31.507  1.00  0.00     0.029 A 
ATOM     58  C   UNL A   1      43.959  27.046  32.203  1.00  0.00     0.049 A 
ATOM     59  H   UNL A   1      42.246  28.107  31.579  1.00  0.00     0.167 HD
ATOM     60  C   UNL A   1      43.378  28.451  34.167  1.00  0.00     0.074 A 
ATOM     61  C   UNL A   1      43.561  28.882  35.539  1.00  0.00     0.031 C 
ATOM     62  C   UNL A   1      44.146  27.519  33.551  1.00  0.00     0.034 A 
BRANCH  49  63
ATOM     63  C   UNL A   1      42.414  26.166  27.775  1.00  0.00     0.023 A 
ATOM     64  C   UNL A   1      43.165  26.738  26.730  1.00  0.00     0.012 A 
ATOM     65  C   UNL A   1      41.981  24.830  27.663  1.00  0.00     0.148 A 
ATOM     66  C   UNL A   1      43.466  25.999  25.586  1.00  0.00     0.002 A 
ATOM     67  C   UNL A   1      42.310  24.089  26.531  1.00  0.00     0.091 A 
ATOM     68  F   UNL A   1      41.242  24.307  28.653  1.00  0.00    -0.205 F 
ATOM     69  C   UNL A   1      43.049  24.674  25.490  1.00  0.00     0.022 A 
BRANCH  67  70
ATOM     70  S   UNL A   1      41.864  22.355  26.373  1.00  0.00     0.127 S 
ATOM     71  O   UNL A   1      42.526  21.988  25.124  1.00  0.00    -0.237 OA
ATOM     72  O   UNL A   1      42.456  21.760  27.573  1.00  0.00    -0.237 OA
ATOM     73  O   UNL A   1      40.407  22.335  26.355  1.00  0.00    -0.744 OA
ENDBRANCH  67  70
ENDBRANCH  49  63
BRANCH  50  74
ATOM     74  C   UNL A   1      40.389  31.672  35.880  1.00  0.00     0.023 A 
ATOM     75  C   UNL A   1      41.232  32.759  36.172  1.00  0.00     0.012 A 
ATOM     76  C   UNL A   1      39.226  31.480  36.651  1.00  0.00     0.148 A 
ATOM     77  C   UNL A   1      40.922  33.641  37.209  1.00  0.00     0.002 A 
ATOM     78  C   UNL A   1      38.889  32.398  37.639  1.00  0.00     0.091 A 
ATOM     79  F   UNL A   1      38.445  30.422  36.380  1.00  0.00    -0.205 F 
ATOM     80  C   UNL A   1      39.740  33.473  37.929  1.00  0.00     0.022 A 
BRANCH  78  81
ATOM     81  S   UNL A   1      37.294  32.328  38.467  1.00  0.00     0.127 S 
ATOM     82  O   UNL A   1      36.442  33.079  37.551  1.00  0.00    -0.237 OA
ATOM     83  O   UNL A   1      37.026  30.889  38.517  1.00  0.00    -0.237 OA
ATOM     84  O   UNL A   1      37.528  32.929  39.774  1.00  0.00    -0.744 OA
ENDBRANCH  78  81
ENDBRANCH  50  74
BRANCH  62  85
ATOM     85  C   UNL A   1      45.246  26.898  34.365  1.00  0.00     0.023 A 
ATOM     86  C   UNL A   1      46.534  27.470  34.321  1.00  0.00     0.012 A 
ATOM     87  C   UNL A   1      45.005  25.793  35.200  1.00  0.00     0.148 A 
ATOM     88  C   UNL A   1      47.571  26.934  35.081  1.00  0.00     0.002 A 
ATOM     89  C   UNL A   1      46.037  25.283  35.979  1.00  0.00     0.091 A 
ATOM     90  F   UNL A   1      43.781  25.245  35.206  1.00  0.00    -0.205 F 
ATOM     91  C   UNL A   1      47.322  25.847  35.917  1.00  0.00     0.022 A 
BRANCH  89  92
ATOM     92  S   UNL A   1      45.769  23.927  37.126  1.00  0.00     0.127 S 
ATOM     93  O   UNL A   1      45.331  22.858  36.232  1.00  0.00    -0.237 OA
ATOM     94  O   UNL A   1      47.098  23.729  37.706  1.00  0.00    -0.237 OA
ATOM     95  O   UNL A   1      44.774  24.414  38.072  1.00  0.00    -0.744 OA
ENDBRANCH  89  92
ENDBRANCH  62  85
ENDBRANCH  36  37
ENDBRANCH  29  31
ENDBRANCH  28  29
ENDBRANCH  27  28
ENDBRANCH   1  27
TORSDOF 17
ENDMDL
