MODEL 1
REMARK VINA RESULT:     -12.9      0.000      0.000
REMARK SMILES COc1cc(-c2ccc(F)c(C(F)(F)F)c2)ccc1C(=O)OCCOC(=O)c1ccc(-c2c3nc(c(-c4cccc(S(=O)(=O)[O-])c4F)c4ccc([nH]4)c(-c4cccc(S(=O)(=O)[O-])c4F)c4nc(c(-c5cccc(S(=O)(=O)[O-])c5F)c5ccc2[nH]5)C=C4)C=C3)cc1
REMARK SMILES IDX 24 1 23 2 22 3 20 4 21 5 19 6 3 7 4 8 5 9 18 10 17 11 2 12
REMARK SMILES IDX 1 13 6 14 7 15 16 16 8 17 11 18 9 19 10 20 12 21 13 22 14 23
REMARK SMILES IDX 15 24 25 25 26 26 27 27 28 28 29 29 90 30 30 31 89 32 31 33
REMARK SMILES IDX 32 34 33 35 83 36 34 37 88 38 82 39 84 40 35 41 87 42 81 43
REMARK SMILES IDX 80 44 36 46 68 47 48 48 67 49 49 50 52 51 66 52 85 53 50 54
REMARK SMILES IDX 51 55 65 57 86 58 53 59 37 60 38 61 46 62 39 63 41 64 47 65
REMARK SMILES IDX 40 66 42 67 43 68 44 69 45 70 69 71 70 72 78 73 71 74 73 75
REMARK SMILES IDX 79 76 72 77 74 78 75 79 76 80 77 81 54 82 55 83 63 84 56 85
REMARK SMILES IDX 58 86 64 87 57 88 59 89 60 90 61 91 62 92
REMARK H PARENT 84 45 52 56
REMARK Flexibility Score: inf
ROOT
ATOM      1  C   UNL A   1      36.649  20.275  25.000  1.00  0.00     0.275 C 
ENDROOT
BRANCH   1   2
ATOM      2  C   UNL A   1      35.283  20.958  24.966  1.00  0.00     0.275 C 
BRANCH   2   3
ATOM      3  O   UNL A   1      35.309  22.192  25.718  1.00  0.00    -0.458 OA
BRANCH   3   4
ATOM      4  C   UNL A   1      34.309  22.376  26.611  1.00  0.00     0.342 C 
ATOM      5  O   UNL A   1      34.026  21.635  27.542  1.00  0.00    -0.246 OA
BRANCH   4   6
ATOM      6  C   UNL A   1      33.627  23.672  26.400  1.00  0.00     0.102 A 
ATOM      7  C   UNL A   1      32.311  23.992  26.747  1.00  0.00     0.134 A 
ATOM      8  C   UNL A   1      31.841  25.290  26.451  1.00  0.00     0.056 A 
ATOM      9  C   UNL A   1      32.636  26.269  25.831  1.00  0.00    -0.015 A 
ATOM     10  C   UNL A   1      34.447  24.674  25.839  1.00  0.00     0.020 A 
ATOM     11  C   UNL A   1      33.954  25.940  25.525  1.00  0.00     0.010 A 
BRANCH   7  12
ATOM     12  O   UNL A   1      31.349  23.268  27.393  1.00  0.00    -0.496 OA
ATOM     13  C   UNL A   1      30.345  22.576  26.677  1.00  0.00     0.278 C 
ENDBRANCH   7  12
BRANCH   9  14
ATOM     14  C   UNL A   1      32.112  27.610  25.555  1.00  0.00    -0.017 A 
ATOM     15  C   UNL A   1      32.484  28.699  26.361  1.00  0.00     0.012 A 
ATOM     16  C   UNL A   1      31.231  27.838  24.483  1.00  0.00     0.025 A 
ATOM     17  C   UNL A   1      31.979  29.974  26.113  1.00  0.00     0.040 A 
ATOM     18  C   UNL A   1      30.713  29.120  24.229  1.00  0.00     0.092 A 
ATOM     19  C   UNL A   1      31.094  30.171  25.057  1.00  0.00     0.135 A 
ATOM     20  F   UNL A   1      30.601  31.400  24.854  1.00  0.00    -0.206 F 
BRANCH  18  21
ATOM     21  C   UNL A   1      29.736  29.379  23.121  1.00  0.00     0.419 C 
ATOM     22  F   UNL A   1      29.251  28.226  22.580  1.00  0.00    -0.166 F 
ATOM     23  F   UNL A   1      28.652  30.098  23.517  1.00  0.00    -0.166 F 
ATOM     24  F   UNL A   1      30.279  30.070  22.080  1.00  0.00    -0.166 F 
ENDBRANCH  18  21
ENDBRANCH   9  14
ENDBRANCH   4   6
ENDBRANCH   3   4
ENDBRANCH   2   3
ENDBRANCH   1   2
BRANCH   1  25
ATOM     25  O   UNL A   1      37.686  21.270  24.998  1.00  0.00    -0.458 OA
BRANCH  25  26
ATOM     26  C   UNL A   1      38.780  20.934  25.716  1.00  0.00     0.338 C 
ATOM     27  O   UNL A   1      39.388  19.878  25.697  1.00  0.00    -0.246 OA
BRANCH  26  28
ATOM     28  C   UNL A   1      39.264  22.104  26.455  1.00  0.00     0.060 A 
ATOM     29  C   UNL A   1      38.715  23.336  26.116  1.00  0.00     0.016 A 
ATOM     30  C   UNL A   1      40.364  22.029  27.301  1.00  0.00     0.016 A 
ATOM     31  C   UNL A   1      39.349  24.512  26.499  1.00  0.00     0.010 A 
ATOM     32  C   UNL A   1      40.938  23.215  27.774  1.00  0.00     0.010 A 
ATOM     33  C   UNL A   1      40.481  24.472  27.325  1.00  0.00    -0.014 A 
BRANCH  33  34
ATOM     34  C   UNL A   1      41.231  25.724  27.652  1.00  0.00     0.031 A 
ATOM     35  C   UNL A   1      40.577  26.799  28.491  1.00  0.00     0.074 A 
ATOM     36  C   UNL A   1      42.492  25.908  27.210  1.00  0.00     0.049 A 
ATOM     37  N   UNL A   1      40.985  28.017  28.742  1.00  0.00    -0.248 NA
ATOM     38  C   UNL A   1      39.281  26.470  29.112  1.00  0.00     0.031 C 
ATOM     39  C   UNL A   1      43.262  24.954  26.409  1.00  0.00     0.029 A 
ATOM     40  N   UNL A   1      43.351  26.970  27.367  1.00  0.00    -0.354 N 
ATOM     41  C   UNL A   1      39.958  28.626  29.458  1.00  0.00     0.074 A 
ATOM     42  C   UNL A   1      38.914  27.638  29.618  1.00  0.00     0.031 C 
ATOM     43  C   UNL A   1      44.481  25.459  26.168  1.00  0.00     0.029 A 
ATOM     44  C   UNL A   1      44.555  26.806  26.719  1.00  0.00     0.049 A 
ATOM     45  H   UNL A   1      43.127  27.772  27.892  1.00  0.00     0.167 HD
ATOM     46  C   UNL A   1      39.891  29.891  29.940  1.00  0.00     0.034 A 
ATOM     47  C   UNL A   1      45.588  27.656  26.548  1.00  0.00     0.034 A 
ATOM     48  C   UNL A   1      40.971  30.839  29.871  1.00  0.00     0.049 A 
ATOM     49  C   UNL A   1      45.500  29.038  27.132  1.00  0.00     0.074 A 
ATOM     50  C   UNL A   1      41.024  32.121  30.390  1.00  0.00     0.029 A 
ATOM     51  N   UNL A   1      42.193  30.605  29.262  1.00  0.00    -0.354 N 
ATOM     52  N   UNL A   1      44.540  29.576  27.843  1.00  0.00    -0.248 NA
ATOM     53  C   UNL A   1      46.650  29.926  26.904  1.00  0.00     0.031 C 
ATOM     54  C   UNL A   1      42.272  32.670  30.075  1.00  0.00     0.029 A 
ATOM     55  C   UNL A   1      43.007  31.718  29.390  1.00  0.00     0.049 A 
ATOM     56  H   UNL A   1      42.445  29.771  28.803  1.00  0.00     0.167 HD
ATOM     57  C   UNL A   1      44.986  30.848  28.182  1.00  0.00     0.074 A 
ATOM     58  C   UNL A   1      46.312  30.991  27.619  1.00  0.00     0.031 C 
ATOM     59  C   UNL A   1      44.350  31.819  28.884  1.00  0.00     0.034 A 
BRANCH  46  60
ATOM     60  C   UNL A   1      38.609  30.335  30.602  1.00  0.00     0.023 A 
ATOM     61  C   UNL A   1      38.415  30.138  31.983  1.00  0.00     0.012 A 
ATOM     62  C   UNL A   1      37.628  31.023  29.858  1.00  0.00     0.148 A 
ATOM     63  C   UNL A   1      37.251  30.591  32.607  1.00  0.00     0.002 A 
ATOM     64  C   UNL A   1      36.494  31.514  30.496  1.00  0.00     0.091 A 
ATOM     65  F   UNL A   1      37.822  31.185  28.542  1.00  0.00    -0.205 F 
ATOM     66  C   UNL A   1      36.299  31.288  31.868  1.00  0.00     0.022 A 
BRANCH  64  67
ATOM     67  S   UNL A   1      35.254  32.498  29.648  1.00  0.00     0.127 S 
ATOM     68  O   UNL A   1      34.379  32.887  30.753  1.00  0.00    -0.237 OA
ATOM     69  O   UNL A   1      36.054  33.591  29.092  1.00  0.00    -0.237 OA
ATOM     70  O   UNL A   1      34.651  31.621  28.655  1.00  0.00    -0.744 OA
ENDBRANCH  64  67
ENDBRANCH  46  60
BRANCH  47  71
ATOM     71  C   UNL A   1      46.807  27.222  25.803  1.00  0.00     0.023 A 
ATOM     72  C   UNL A   1      47.735  26.371  26.434  1.00  0.00     0.012 A 
ATOM     73  C   UNL A   1      47.051  27.643  24.481  1.00  0.00     0.148 A 
ATOM     74  C   UNL A   1      48.903  25.979  25.776  1.00  0.00     0.002 A 
ATOM     75  C   UNL A   1      48.182  27.195  23.810  1.00  0.00     0.091 A 
ATOM     76  F   UNL A   1      46.169  28.470  23.904  1.00  0.00    -0.205 F 
ATOM     77  C   UNL A   1      49.119  26.380  24.461  1.00  0.00     0.022 A 
BRANCH  75  78
ATOM     78  S   UNL A   1      48.461  27.547  22.071  1.00  0.00     0.127 S 
ATOM     79  O   UNL A   1      48.652  26.208  21.520  1.00  0.00    -0.237 OA
ATOM     80  O   UNL A   1      47.209  28.199  21.686  1.00  0.00    -0.237 OA
ATOM     81  O   UNL A   1      49.625  28.424  22.034  1.00  0.00    -0.744 OA
ENDBRANCH  75  78
ENDBRANCH  47  71
BRANCH  59  82
ATOM     82  C   UNL A   1      45.106  33.096  29.144  1.00  0.00     0.023 A 
ATOM     83  C   UNL A   1      45.940  33.207  30.273  1.00  0.00     0.012 A 
ATOM     84  C   UNL A   1      45.017  34.172  28.239  1.00  0.00     0.148 A 
ATOM     85  C   UNL A   1      46.638  34.389  30.524  1.00  0.00     0.002 A 
ATOM     86  C   UNL A   1      45.757  35.326  28.468  1.00  0.00     0.091 A 
ATOM     87  F   UNL A   1      44.202  34.056  27.181  1.00  0.00    -0.205 F 
ATOM     88  C   UNL A   1      46.554  35.443  29.617  1.00  0.00     0.022 A 
BRANCH  86  89
ATOM     89  S   UNL A   1      45.783  36.687  27.297  1.00  0.00     0.127 S 
ATOM     90  O   UNL A   1      46.576  36.125  26.204  1.00  0.00    -0.237 OA
ATOM     91  O   UNL A   1      44.364  36.865  26.990  1.00  0.00    -0.237 OA
ATOM     92  O   UNL A   1      46.390  37.807  28.004  1.00  0.00    -0.744 OA
ENDBRANCH  86  89
ENDBRANCH  59  82
ENDBRANCH  33  34
ENDBRANCH  26  28
ENDBRANCH  25  26
ENDBRANCH   1  25
TORSDOF 17
ENDMDL
MODEL 2
REMARK VINA RESULT:     -12.7      1.381      7.601
REMARK SMILES COc1cc(-c2ccc(F)c(C(F)(F)F)c2)ccc1C(=O)OCCOC(=O)c1ccc(-c2c3nc(c(-c4cccc(S(=O)(=O)[O-])c4F)c4ccc([nH]4)c(-c4cccc(S(=O)(=O)[O-])c4F)c4nc(c(-c5cccc(S(=O)(=O)[O-])c5F)c5ccc2[nH]5)C=C4)C=C3)cc1
REMARK SMILES IDX 24 1 23 2 22 3 20 4 21 5 19 6 3 7 4 8 5 9 18 10 17 11 2 12
REMARK SMILES IDX 1 13 6 14 7 15 16 16 8 17 11 18 9 19 10 20 12 21 13 22 14 23
REMARK SMILES IDX 15 24 25 25 26 26 27 27 28 28 29 29 90 30 30 31 89 32 31 33
REMARK SMILES IDX 32 34 33 35 83 36 34 37 88 38 82 39 84 40 35 41 87 42 81 43
REMARK SMILES IDX 80 44 36 46 68 47 48 48 67 49 49 50 52 51 66 52 85 53 50 54
REMARK SMILES IDX 51 55 65 57 86 58 53 59 37 60 38 61 46 62 39 63 41 64 47 65
REMARK SMILES IDX 40 66 42 67 43 68 44 69 45 70 69 71 70 72 78 73 71 74 73 75
REMARK SMILES IDX 79 76 72 77 74 78 75 79 76 80 77 81 54 82 55 83 63 84 56 85
REMARK SMILES IDX 58 86 64 87 57 88 59 89 60 90 61 91 62 92
REMARK H PARENT 84 45 52 56
REMARK Flexibility Score: inf
ROOT
ATOM      1  C   UNL A   1      37.137  20.075  25.007  1.00  0.00     0.275 C 
ENDROOT
BRANCH   1   2
ATOM      2  C   UNL A   1      35.634  20.327  24.908  1.00  0.00     0.275 C 
BRANCH   2   3
ATOM      3  O   UNL A   1      35.335  21.727  25.106  1.00  0.00    -0.458 OA
BRANCH   3   4
ATOM      4  C   UNL A   1      34.643  22.044  26.225  1.00  0.00     0.342 C 
ATOM      5  O   UNL A   1      34.654  21.427  27.281  1.00  0.00    -0.246 OA
BRANCH   4   6
ATOM      6  C   UNL A   1      33.920  23.326  26.068  1.00  0.00     0.102 A 
ATOM      7  C   UNL A   1      32.554  23.546  26.271  1.00  0.00     0.134 A 
ATOM      8  C   UNL A   1      32.052  24.848  26.059  1.00  0.00     0.056 A 
ATOM      9  C   UNL A   1      32.862  25.926  25.661  1.00  0.00    -0.015 A 
ATOM     10  C   UNL A   1      34.745  24.420  25.734  1.00  0.00     0.020 A 
ATOM     11  C   UNL A   1      34.225  25.692  25.498  1.00  0.00     0.010 A 
BRANCH   7  12
ATOM     12  O   UNL A   1      31.562  22.712  26.701  1.00  0.00    -0.496 OA
ATOM     13  C   UNL A   1      30.237  23.174  26.875  1.00  0.00     0.278 C 
ENDBRANCH   7  12
BRANCH   9  14
ATOM     14  C   UNL A   1      32.301  27.267  25.466  1.00  0.00    -0.017 A 
ATOM     15  C   UNL A   1      32.613  28.305  26.358  1.00  0.00     0.012 A 
ATOM     16  C   UNL A   1      31.441  27.544  24.388  1.00  0.00     0.025 A 
ATOM     17  C   UNL A   1      32.072  29.578  26.187  1.00  0.00     0.040 A 
ATOM     18  C   UNL A   1      30.887  28.823  24.211  1.00  0.00     0.092 A 
ATOM     19  C   UNL A   1      31.210  29.823  25.123  1.00  0.00     0.135 A 
ATOM     20  F   UNL A   1      30.682  31.047  24.993  1.00  0.00    -0.206 F 
BRANCH  18  21
ATOM     21  C   UNL A   1      29.933  29.131  23.096  1.00  0.00     0.419 C 
ATOM     22  F   UNL A   1      29.424  28.003  22.526  1.00  0.00    -0.166 F 
ATOM     23  F   UNL A   1      28.864  29.872  23.492  1.00  0.00    -0.166 F 
ATOM     24  F   UNL A   1      30.509  29.826  22.076  1.00  0.00    -0.166 F 
ENDBRANCH  18  21
ENDBRANCH   9  14
ENDBRANCH   4   6
ENDBRANCH   3   4
ENDBRANCH   2   3
ENDBRANCH   1   2
BRANCH   1  25
ATOM     25  O   UNL A   1      37.810  21.299  25.344  1.00  0.00    -0.458 OA
BRANCH  25  26
ATOM     26  C   UNL A   1      38.991  21.128  25.977  1.00  0.00     0.338 C 
ATOM     27  O   UNL A   1      39.726  20.157  25.935  1.00  0.00    -0.246 OA
BRANCH  26  28
ATOM     28  C   UNL A   1      39.378  22.376  26.643  1.00  0.00     0.060 A 
ATOM     29  C   UNL A   1      38.648  23.515  26.324  1.00  0.00     0.016 A 
ATOM     30  C   UNL A   1      40.546  22.471  27.391  1.00  0.00     0.016 A 
ATOM     31  C   UNL A   1      39.153  24.775  26.623  1.00  0.00     0.010 A 
ATOM     32  C   UNL A   1      40.998  23.737  27.783  1.00  0.00     0.010 A 
ATOM     33  C   UNL A   1      40.346  24.909  27.347  1.00  0.00    -0.014 A 
BRANCH  33  34
ATOM     34  C   UNL A   1      40.951  26.256  27.578  1.00  0.00     0.031 A 
ATOM     35  C   UNL A   1      42.315  26.580  27.010  1.00  0.00     0.074 A 
ATOM     36  C   UNL A   1      40.291  27.196  28.286  1.00  0.00     0.049 A 
ATOM     37  N   UNL A   1      43.082  27.616  27.237  1.00  0.00    -0.248 NA
ATOM     38  C   UNL A   1      42.906  25.599  26.083  1.00  0.00     0.031 C 
ATOM     39  C   UNL A   1      38.962  27.039  28.878  1.00  0.00     0.029 A 
ATOM     40  N   UNL A   1      40.656  28.475  28.638  1.00  0.00    -0.354 N 
ATOM     41  C   UNL A   1      44.276  27.364  26.568  1.00  0.00     0.074 A 
ATOM     42  C   UNL A   1      44.127  26.084  25.910  1.00  0.00     0.031 C 
ATOM     43  C   UNL A   1      38.611  28.179  29.493  1.00  0.00     0.029 A 
ATOM     44  C   UNL A   1      39.722  29.120  29.418  1.00  0.00     0.049 A 
ATOM     45  H   UNL A   1      41.504  28.889  28.358  1.00  0.00     0.167 HD
ATOM     46  C   UNL A   1      45.394  28.127  26.503  1.00  0.00     0.034 A 
ATOM     47  C   UNL A   1      39.767  30.315  30.040  1.00  0.00     0.034 A 
ATOM     48  C   UNL A   1      45.504  29.445  27.071  1.00  0.00     0.049 A 
ATOM     49  C   UNL A   1      41.005  31.157  29.914  1.00  0.00     0.074 A 
ATOM     50  C   UNL A   1      46.571  30.325  27.000  1.00  0.00     0.029 A 
ATOM     51  N   UNL A   1      44.510  30.081  27.797  1.00  0.00    -0.354 N 
ATOM     52  N   UNL A   1      42.103  30.919  29.239  1.00  0.00    -0.248 NA
ATOM     53  C   UNL A   1      41.004  32.445  30.624  1.00  0.00     0.031 C 
ATOM     54  C   UNL A   1      46.229  31.485  27.703  1.00  0.00     0.029 A 
ATOM     55  C   UNL A   1      44.937  31.341  28.181  1.00  0.00     0.049 A 
ATOM     56  H   UNL A   1      43.630  29.693  28.010  1.00  0.00     0.167 HD
ATOM     57  C   UNL A   1      42.904  32.043  29.408  1.00  0.00     0.074 A 
ATOM     58  C   UNL A   1      42.155  32.971  30.230  1.00  0.00     0.031 C 
ATOM     59  C   UNL A   1      44.154  32.280  28.940  1.00  0.00     0.034 A 
BRANCH  46  60
ATOM     60  C   UNL A   1      46.598  27.571  25.783  1.00  0.00     0.023 A 
ATOM     61  C   UNL A   1      46.771  27.796  24.403  1.00  0.00     0.012 A 
ATOM     62  C   UNL A   1      47.601  26.887  26.502  1.00  0.00     0.148 A 
ATOM     63  C   UNL A   1      47.907  27.324  23.745  1.00  0.00     0.002 A 
ATOM     64  C   UNL A   1      48.752  26.463  25.849  1.00  0.00     0.091 A 
ATOM     65  F   UNL A   1      47.411  26.666  27.810  1.00  0.00    -0.205 F 
ATOM     66  C   UNL A   1      48.902  26.669  24.468  1.00  0.00     0.022 A 
BRANCH  64  67
ATOM     67  S   UNL A   1      50.127  25.689  26.709  1.00  0.00     0.127 S 
ATOM     68  O   UNL A   1      51.088  25.502  25.622  1.00  0.00    -0.237 OA
ATOM     69  O   UNL A   1      50.500  26.717  27.681  1.00  0.00    -0.237 OA
ATOM     70  O   UNL A   1      49.601  24.464  27.292  1.00  0.00    -0.744 OA
ENDBRANCH  64  67
ENDBRANCH  46  60
BRANCH  47  71
ATOM     71  C   UNL A   1      38.596  30.800  30.829  1.00  0.00     0.023 A 
ATOM     72  C   UNL A   1      38.591  30.638  32.227  1.00  0.00     0.012 A 
ATOM     73  C   UNL A   1      37.493  31.417  30.206  1.00  0.00     0.148 A 
ATOM     74  C   UNL A   1      37.494  31.048  32.988  1.00  0.00     0.002 A 
ATOM     75  C   UNL A   1      36.434  31.882  30.977  1.00  0.00     0.091 A 
ATOM     76  F   UNL A   1      37.503  31.543  28.872  1.00  0.00    -0.205 F 
ATOM     77  C   UNL A   1      36.422  31.680  32.364  1.00  0.00     0.022 A 
BRANCH  75  78
ATOM     78  S   UNL A   1      35.085  32.834  30.269  1.00  0.00     0.127 S 
ATOM     79  O   UNL A   1      34.213  33.023  31.424  1.00  0.00    -0.237 OA
ATOM     80  O   UNL A   1      35.772  34.043  29.811  1.00  0.00    -0.237 OA
ATOM     81  O   UNL A   1      34.550  32.009  29.193  1.00  0.00    -0.744 OA
ENDBRANCH  75  78
ENDBRANCH  47  71
BRANCH  59  82
ATOM     82  C   UNL A   1      44.765  33.623  29.243  1.00  0.00     0.023 A 
ATOM     83  C   UNL A   1      45.496  33.817  30.431  1.00  0.00     0.012 A 
ATOM     84  C   UNL A   1      44.645  34.683  28.323  1.00  0.00     0.148 A 
ATOM     85  C   UNL A   1      46.058  35.061  30.722  1.00  0.00     0.002 A 
ATOM     86  C   UNL A   1      45.253  35.903  28.595  1.00  0.00     0.091 A 
ATOM     87  F   UNL A   1      43.927  34.487  27.207  1.00  0.00    -0.205 F 
ATOM     88  C   UNL A   1      45.945  36.098  29.800  1.00  0.00     0.022 A 
BRANCH  86  89
ATOM     89  S   UNL A   1      45.241  37.256  27.414  1.00  0.00     0.127 S 
ATOM     90  O   UNL A   1      45.935  38.307  28.157  1.00  0.00    -0.237 OA
ATOM     91  O   UNL A   1      46.000  36.701  26.293  1.00  0.00    -0.237 OA
ATOM     92  O   UNL A   1      43.838  37.514  27.120  1.00  0.00    -0.744 OA
ENDBRANCH  86  89
ENDBRANCH  59  82
ENDBRANCH  33  34
ENDBRANCH  26  28
ENDBRANCH  25  26
ENDBRANCH   1  25
TORSDOF 17
ENDMDL
MODEL 3
REMARK VINA RESULT:     -12.7      0.604      7.472
REMARK SMILES COc1cc(-c2ccc(F)c(C(F)(F)F)c2)ccc1C(=O)OCCOC(=O)c1ccc(-c2c3nc(c(-c4cccc(S(=O)(=O)[O-])c4F)c4ccc([nH]4)c(-c4cccc(S(=O)(=O)[O-])c4F)c4nc(c(-c5cccc(S(=O)(=O)[O-])c5F)c5ccc2[nH]5)C=C4)C=C3)cc1
REMARK SMILES IDX 24 1 23 2 22 3 20 4 21 5 19 6 3 7 4 8 5 9 18 10 17 11 2 12
REMARK SMILES IDX 1 13 6 14 7 15 16 16 8 17 11 18 9 19 10 20 12 21 13 22 14 23
REMARK SMILES IDX 15 24 25 25 26 26 27 27 28 28 29 29 90 30 30 31 89 32 31 33
REMARK SMILES IDX 32 34 33 35 83 36 34 37 88 38 82 39 84 40 35 41 87 42 81 43
REMARK SMILES IDX 80 44 36 46 68 47 48 48 67 49 49 50 52 51 66 52 85 53 50 54
REMARK SMILES IDX 51 55 65 57 86 58 53 59 37 60 38 61 46 62 39 63 41 64 47 65
REMARK SMILES IDX 40 66 42 67 43 68 44 69 45 70 69 71 70 72 78 73 71 74 73 75
REMARK SMILES IDX 79 76 72 77 74 78 75 79 76 80 77 81 54 82 55 83 63 84 56 85
REMARK SMILES IDX 58 86 64 87 57 88 59 89 60 90 61 91 62 92
REMARK H PARENT 84 45 52 56
REMARK Flexibility Score: inf
ROOT
ATOM      1  C   UNL A   1      37.164  20.209  25.165  1.00  0.00     0.275 C 
ENDROOT
BRANCH   1   2
ATOM      2  C   UNL A   1      35.731  20.687  24.940  1.00  0.00     0.275 C 
BRANCH   2   3
ATOM      3  O   UNL A   1      35.499  21.945  25.613  1.00  0.00    -0.458 OA
BRANCH   3   4
ATOM      4  C   UNL A   1      34.380  22.026  26.371  1.00  0.00     0.342 C 
ATOM      5  O   UNL A   1      33.969  21.175  27.146  1.00  0.00    -0.246 OA
BRANCH   4   6
ATOM      6  C   UNL A   1      33.732  23.350  26.236  1.00  0.00     0.102 A 
ATOM      7  C   UNL A   1      32.446  23.699  26.661  1.00  0.00     0.134 A 
ATOM      8  C   UNL A   1      32.006  25.021  26.431  1.00  0.00     0.056 A 
ATOM      9  C   UNL A   1      32.801  25.995  25.803  1.00  0.00    -0.015 A 
ATOM     10  C   UNL A   1      34.556  24.343  25.666  1.00  0.00     0.020 A 
ATOM     11  C   UNL A   1      34.090  25.635  25.419  1.00  0.00     0.010 A 
BRANCH   7  12
ATOM     12  O   UNL A   1      31.495  22.985  27.331  1.00  0.00    -0.496 OA
ATOM     13  C   UNL A   1      30.273  22.627  26.715  1.00  0.00     0.278 C 
ENDBRANCH   7  12
BRANCH   9  14
ATOM     14  C   UNL A   1      32.309  27.361  25.597  1.00  0.00    -0.017 A 
ATOM     15  C   UNL A   1      32.710  28.398  26.455  1.00  0.00     0.012 A 
ATOM     16  C   UNL A   1      31.430  27.663  24.542  1.00  0.00     0.025 A 
ATOM     17  C   UNL A   1      32.235  29.696  26.274  1.00  0.00     0.040 A 
ATOM     18  C   UNL A   1      30.942  28.968  24.355  1.00  0.00     0.092 A 
ATOM     19  C   UNL A   1      31.352  29.967  25.234  1.00  0.00     0.135 A 
ATOM     20  F   UNL A   1      30.888  31.216  25.095  1.00  0.00    -0.206 F 
BRANCH  18  21
ATOM     21  C   UNL A   1      29.968  29.306  23.267  1.00  0.00     0.419 C 
ATOM     22  F   UNL A   1      29.422  28.195  22.698  1.00  0.00    -0.166 F 
ATOM     23  F   UNL A   1      28.924  30.065  23.695  1.00  0.00    -0.166 F 
ATOM     24  F   UNL A   1      30.534  30.000  22.239  1.00  0.00    -0.166 F 
ENDBRANCH  18  21
ENDBRANCH   9  14
ENDBRANCH   4   6
ENDBRANCH   3   4
ENDBRANCH   2   3
ENDBRANCH   1   2
BRANCH   1  25
ATOM     25  O   UNL A   1      38.041  21.344  25.260  1.00  0.00    -0.458 OA
BRANCH  25  26
ATOM     26  C   UNL A   1      39.134  21.140  26.028  1.00  0.00     0.338 C 
ATOM     27  O   UNL A   1      39.833  20.143  26.079  1.00  0.00    -0.246 OA
BRANCH  26  28
ATOM     28  C   UNL A   1      39.485  22.381  26.725  1.00  0.00     0.060 A 
ATOM     29  C   UNL A   1      38.813  23.535  26.337  1.00  0.00     0.016 A 
ATOM     30  C   UNL A   1      40.579  22.453  27.579  1.00  0.00     0.016 A 
ATOM     31  C   UNL A   1      39.316  24.785  26.680  1.00  0.00     0.010 A 
ATOM     32  C   UNL A   1      41.020  23.709  28.011  1.00  0.00     0.010 A 
ATOM     33  C   UNL A   1      40.439  24.894  27.513  1.00  0.00    -0.014 A 
BRANCH  33  34
ATOM     34  C   UNL A   1      41.049  26.228  27.798  1.00  0.00     0.031 A 
ATOM     35  C   UNL A   1      42.436  26.551  27.285  1.00  0.00     0.074 A 
ATOM     36  C   UNL A   1      40.376  27.158  28.507  1.00  0.00     0.049 A 
ATOM     37  N   UNL A   1      43.205  27.572  27.563  1.00  0.00    -0.248 NA
ATOM     38  C   UNL A   1      43.047  25.586  26.354  1.00  0.00     0.031 C 
ATOM     39  C   UNL A   1      39.025  27.001  29.050  1.00  0.00     0.029 A 
ATOM     40  N   UNL A   1      40.742  28.423  28.903  1.00  0.00    -0.354 N 
ATOM     41  C   UNL A   1      44.419  27.323  26.928  1.00  0.00     0.074 A 
ATOM     42  C   UNL A   1      44.278  26.061  26.234  1.00  0.00     0.031 C 
ATOM     43  C   UNL A   1      38.667  28.130  29.681  1.00  0.00     0.029 A 
ATOM     44  C   UNL A   1      39.789  29.059  29.667  1.00  0.00     0.049 A 
ATOM     45  H   UNL A   1      41.603  28.835  28.663  1.00  0.00     0.167 HD
ATOM     46  C   UNL A   1      45.546  28.075  26.920  1.00  0.00     0.034 A 
ATOM     47  C   UNL A   1      39.825  30.238  30.320  1.00  0.00     0.034 A 
ATOM     48  C   UNL A   1      45.650  29.377  27.525  1.00  0.00     0.049 A 
ATOM     49  C   UNL A   1      41.076  31.069  30.257  1.00  0.00     0.074 A 
ATOM     50  C   UNL A   1      46.728  30.246  27.512  1.00  0.00     0.029 A 
ATOM     51  N   UNL A   1      44.639  30.006  28.232  1.00  0.00    -0.354 N 
ATOM     52  N   UNL A   1      42.193  30.836  29.613  1.00  0.00    -0.248 NA
ATOM     53  C   UNL A   1      41.064  32.339  30.998  1.00  0.00     0.031 C 
ATOM     54  C   UNL A   1      46.375  31.393  28.232  1.00  0.00     0.029 A 
ATOM     55  C   UNL A   1      45.066  31.251  28.662  1.00  0.00     0.049 A 
ATOM     56  H   UNL A   1      43.749  29.623  28.406  1.00  0.00     0.167 HD
ATOM     57  C   UNL A   1      43.000  31.945  29.837  1.00  0.00     0.074 A 
ATOM     58  C   UNL A   1      42.233  32.861  30.656  1.00  0.00     0.031 C 
ATOM     59  C   UNL A   1      44.267  32.180  29.417  1.00  0.00     0.034 A 
BRANCH  46  60
ATOM     60  C   UNL A   1      46.767  27.523  26.228  1.00  0.00     0.023 A 
ATOM     61  C   UNL A   1      47.615  26.615  26.893  1.00  0.00     0.012 A 
ATOM     62  C   UNL A   1      47.028  27.849  24.880  1.00  0.00     0.148 A 
ATOM     63  C   UNL A   1      48.719  26.065  26.239  1.00  0.00     0.002 A 
ATOM     64  C   UNL A   1      48.100  27.259  24.221  1.00  0.00     0.091 A 
ATOM     65  F   UNL A   1      46.221  28.727  24.269  1.00  0.00    -0.205 F 
ATOM     66  C   UNL A   1      48.954  26.377  24.902  1.00  0.00     0.022 A 
BRANCH  64  67
ATOM     67  S   UNL A   1      48.433  27.529  22.476  1.00  0.00     0.127 S 
ATOM     68  O   UNL A   1      49.610  28.396  22.531  1.00  0.00    -0.237 OA
ATOM     69  O   UNL A   1      48.699  26.172  21.999  1.00  0.00    -0.237 OA
ATOM     70  O   UNL A   1      47.233  28.143  21.926  1.00  0.00    -0.744 OA
ENDBRANCH  64  67
ENDBRANCH  46  60
BRANCH  47  71
ATOM     71  C   UNL A   1      38.633  30.716  31.080  1.00  0.00     0.023 A 
ATOM     72  C   UNL A   1      38.574  30.512  32.472  1.00  0.00     0.012 A 
ATOM     73  C   UNL A   1      37.564  31.371  30.438  1.00  0.00     0.148 A 
ATOM     74  C   UNL A   1      37.456  30.914  33.205  1.00  0.00     0.002 A 
ATOM     75  C   UNL A   1      36.483  31.828  31.184  1.00  0.00     0.091 A 
ATOM     76  F   UNL A   1      37.624  31.538  29.111  1.00  0.00    -0.205 F 
ATOM     77  C   UNL A   1      36.418  31.583  32.563  1.00  0.00     0.022 A 
BRANCH  75  78
ATOM     78  S   UNL A   1      35.176  32.823  30.459  1.00  0.00     0.127 S 
ATOM     79  O   UNL A   1      34.227  32.923  31.564  1.00  0.00    -0.237 OA
ATOM     80  O   UNL A   1      35.880  34.065  30.137  1.00  0.00    -0.237 OA
ATOM     81  O   UNL A   1      34.721  32.076  29.293  1.00  0.00    -0.744 OA
ENDBRANCH  75  78
ENDBRANCH  47  71
BRANCH  59  82
ATOM     82  C   UNL A   1      44.882  33.508  29.774  1.00  0.00     0.023 A 
ATOM     83  C   UNL A   1      45.606  33.654  30.973  1.00  0.00     0.012 A 
ATOM     84  C   UNL A   1      44.771  34.603  28.894  1.00  0.00     0.148 A 
ATOM     85  C   UNL A   1      46.171  34.884  31.314  1.00  0.00     0.002 A 
ATOM     86  C   UNL A   1      45.382  35.809  29.215  1.00  0.00     0.091 A 
ATOM     87  F   UNL A   1      44.059  34.451  27.768  1.00  0.00    -0.205 F 
ATOM     88  C   UNL A   1      46.068  35.956  30.431  1.00  0.00     0.022 A 
BRANCH  86  89
ATOM     89  S   UNL A   1      45.383  37.206  28.087  1.00  0.00     0.127 S 
ATOM     90  O   UNL A   1      46.055  36.644  26.916  1.00  0.00    -0.237 OA
ATOM     91  O   UNL A   1      43.954  37.462  27.903  1.00  0.00    -0.237 OA
ATOM     92  O   UNL A   1      46.099  38.271  28.774  1.00  0.00    -0.744 OA
ENDBRANCH  86  89
ENDBRANCH  59  82
ENDBRANCH  33  34
ENDBRANCH  26  28
ENDBRANCH  25  26
ENDBRANCH   1  25
TORSDOF 17
ENDMDL
