MODEL 1
REMARK VINA RESULT:     -12.1      0.000      0.000
REMARK SMILES Cc1cc(F)c([C@H](O)[C@H]2CCCC[C@@H]2C(=O)OCCOC(=O)c2ccc(-c3c4nc(c(-c5cccc(S(=O)(=O)[O-])c5F)c5ccc([nH]5)c(-c5cccc(S(=O)(=O)[O-])c5F)c5nc(c(-c6cccc(S(=O)(=O)[O-])c6F)c6ccc3[nH]6)C=C5)C=C4)cc2)cc1F
REMARK SMILES IDX 19 1 18 2 17 3 15 4 16 5 14 6 9 7 10 8 11 9 13 10 12 11 7 12
REMARK SMILES IDX 6 13 1 14 2 15 3 16 87 17 4 18 86 19 88 20 5 21 8 22 20 24
REMARK SMILES IDX 21 25 22 26 23 27 24 28 85 29 25 30 84 31 26 32 27 33 28 34
REMARK SMILES IDX 78 35 29 36 83 37 77 38 79 39 30 40 82 41 76 42 75 43 31 45
REMARK SMILES IDX 63 46 43 47 62 48 44 49 47 50 61 51 80 52 45 53 46 54 60 56
REMARK SMILES IDX 81 57 48 58 32 59 33 60 41 61 34 62 36 63 42 64 35 65 37 66
REMARK SMILES IDX 38 67 39 68 40 69 64 70 65 71 73 72 66 73 68 74 74 75 67 76
REMARK SMILES IDX 69 77 70 78 71 79 72 80 49 81 50 82 58 83 51 84 53 85 59 86
REMARK SMILES IDX 52 87 54 88 55 89 56 90 57 91
REMARK H PARENT 8 23 79 44 47 55
REMARK Flexibility Score: inf
ROOT
ATOM      1  C   UNL A   1      31.793  30.407  26.690  1.00  0.00     0.275 C 
ENDROOT
BRANCH   1   2
ATOM      2  C   UNL A   1      31.780  29.011  27.309  1.00  0.00     0.274 C 
BRANCH   2   3
ATOM      3  O   UNL A   1      31.365  28.059  26.312  1.00  0.00    -0.462 OA
BRANCH   3   4
ATOM      4  C   UNL A   1      32.346  27.376  25.673  1.00  0.00     0.309 C 
ATOM      5  O   UNL A   1      33.541  27.467  25.928  1.00  0.00    -0.252 OA
BRANCH   4   6
ATOM      6  C   UNL A   1      31.807  26.464  24.578  1.00  0.00     0.105 C 
ATOM      7  C   UNL A   1      32.622  26.606  23.278  1.00  0.00     0.037 C 
ATOM      8  C   UNL A   1      32.189  27.896  22.542  1.00  0.00     0.007 C 
ATOM      9  C   UNL A   1      30.687  27.954  22.265  1.00  0.00     0.000 C 
ATOM     10  C   UNL A   1      30.290  26.569  24.354  1.00  0.00     0.016 C 
ATOM     11  C   UNL A   1      29.852  27.772  23.525  1.00  0.00     0.001 C 
BRANCH   7  12
ATOM     12  C   UNL A   1      32.500  25.349  22.365  1.00  0.00     0.151 C 
BRANCH  12  13
ATOM     13  C   UNL A   1      32.920  24.042  23.011  1.00  0.00     0.019 A 
ATOM     14  C   UNL A   1      34.002  20.262  24.837  1.00  0.00     0.047 C 
ATOM     15  C   UNL A   1      33.636  21.575  24.213  1.00  0.00    -0.012 A 
ATOM     16  C   UNL A   1      32.294  21.881  23.969  1.00  0.00     0.046 A 
ATOM     17  C   UNL A   1      34.608  22.512  23.850  1.00  0.00     0.126 A 
ATOM     18  C   UNL A   1      31.954  23.092  23.367  1.00  0.00     0.129 A 
ATOM     19  C   UNL A   1      34.262  23.737  23.272  1.00  0.00     0.049 A 
ATOM     20  F   UNL A   1      35.906  22.240  24.038  1.00  0.00    -0.207 F 
ATOM     21  F   UNL A   1      30.658  23.344  23.137  1.00  0.00    -0.207 F 
ENDBRANCH  12  13
BRANCH  12  22
ATOM     22  O   UNL A   1      33.294  25.559  21.190  1.00  0.00    -0.388 OA
ATOM     23  H   UNL A   1      33.618  24.705  20.862  1.00  0.00     0.211 HD
ENDBRANCH  12  22
ENDBRANCH   7  12
ENDBRANCH   4   6
ENDBRANCH   3   4
ENDBRANCH   2   3
ENDBRANCH   1   2
BRANCH   1  24
ATOM     24  O   UNL A   1      33.154  30.831  26.504  1.00  0.00    -0.458 OA
BRANCH  24  25
ATOM     25  C   UNL A   1      33.605  31.796  27.340  1.00  0.00     0.338 C 
ATOM     26  O   UNL A   1      33.087  32.861  27.606  1.00  0.00    -0.246 OA
BRANCH  25  27
ATOM     27  C   UNL A   1      34.887  31.330  27.889  1.00  0.00     0.060 A 
ATOM     28  C   UNL A   1      35.017  29.997  28.267  1.00  0.00     0.016 A 
ATOM     29  C   UNL A   1      35.949  32.225  28.044  1.00  0.00     0.016 A 
ATOM     30  C   UNL A   1      36.204  29.572  28.864  1.00  0.00     0.010 A 
ATOM     31  C   UNL A   1      37.148  31.791  28.604  1.00  0.00     0.010 A 
ATOM     32  C   UNL A   1      37.271  30.469  29.051  1.00  0.00    -0.014 A 
BRANCH  32  33
ATOM     33  C   UNL A   1      38.510  30.021  29.727  1.00  0.00     0.031 A 
ATOM     34  C   UNL A   1      38.842  30.510  31.110  1.00  0.00     0.074 A 
ATOM     35  C   UNL A   1      39.338  29.172  29.092  1.00  0.00     0.049 A 
ATOM     36  N   UNL A   1      39.839  30.164  31.883  1.00  0.00    -0.248 NA
ATOM     37  C   UNL A   1      37.950  31.522  31.700  1.00  0.00     0.031 C 
ATOM     38  C   UNL A   1      39.155  28.683  27.724  1.00  0.00     0.029 A 
ATOM     39  N   UNL A   1      40.498  28.573  29.510  1.00  0.00    -0.354 N 
ATOM     40  C   UNL A   1      39.703  30.919  33.041  1.00  0.00     0.074 A 
ATOM     41  C   UNL A   1      38.542  31.764  32.861  1.00  0.00     0.031 C 
ATOM     42  C   UNL A   1      40.156  27.841  27.424  1.00  0.00     0.029 A 
ATOM     43  C   UNL A   1      41.055  27.740  28.570  1.00  0.00     0.049 A 
ATOM     44  H   UNL A   1      40.894  28.725  30.398  1.00  0.00     0.167 HD
ATOM     45  C   UNL A   1      40.458  30.888  34.164  1.00  0.00     0.034 A 
ATOM     46  C   UNL A   1      42.158  26.970  28.629  1.00  0.00     0.034 A 
ATOM     47  C   UNL A   1      41.584  30.016  34.358  1.00  0.00     0.049 A 
ATOM     48  C   UNL A   1      42.959  26.928  29.900  1.00  0.00     0.074 A 
ATOM     49  C   UNL A   1      42.361  29.856  35.492  1.00  0.00     0.029 A 
ATOM     50  N   UNL A   1      42.098  29.162  33.396  1.00  0.00    -0.354 N 
ATOM     51  N   UNL A   1      42.733  27.544  31.034  1.00  0.00    -0.248 NA
ATOM     52  C   UNL A   1      44.151  26.067  29.908  1.00  0.00     0.031 C 
ATOM     53  C   UNL A   1      43.351  28.909  35.212  1.00  0.00     0.029 A 
ATOM     54  C   UNL A   1      43.188  28.478  33.905  1.00  0.00     0.049 A 
ATOM     55  H   UNL A   1      41.741  29.058  32.484  1.00  0.00     0.167 HD
ATOM     56  C   UNL A   1      43.747  27.141  31.894  1.00  0.00     0.074 A 
ATOM     57  C   UNL A   1      44.574  26.207  31.158  1.00  0.00     0.031 C 
ATOM     58  C   UNL A   1      43.983  27.529  33.171  1.00  0.00     0.034 A 
BRANCH  45  59
ATOM     59  C   UNL A   1      40.047  31.768  35.312  1.00  0.00     0.023 A 
ATOM     60  C   UNL A   1      40.564  33.077  35.387  1.00  0.00     0.012 A 
ATOM     61  C   UNL A   1      39.089  31.342  36.253  1.00  0.00     0.148 A 
ATOM     62  C   UNL A   1      40.142  33.947  36.390  1.00  0.00     0.002 A 
ATOM     63  C   UNL A   1      38.653  32.226  37.233  1.00  0.00     0.091 A 
ATOM     64  F   UNL A   1      38.623  30.088  36.165  1.00  0.00    -0.205 F 
ATOM     65  C   UNL A   1      39.181  33.526  37.305  1.00  0.00     0.022 A 
BRANCH  63  66
ATOM     66  S   UNL A   1      37.383  31.805  38.430  1.00  0.00     0.127 S 
ATOM     67  O   UNL A   1      38.079  32.044  39.695  1.00  0.00    -0.237 OA
ATOM     68  O   UNL A   1      36.336  32.779  38.119  1.00  0.00    -0.237 OA
ATOM     69  O   UNL A   1      37.027  30.418  38.173  1.00  0.00    -0.744 OA
ENDBRANCH  63  66
ENDBRANCH  45  59
BRANCH  46  70
ATOM     70  C   UNL A   1      42.512  26.119  27.464  1.00  0.00     0.023 A 
ATOM     71  C   UNL A   1      43.372  26.632  26.475  1.00  0.00     0.012 A 
ATOM     72  C   UNL A   1      42.065  24.787  27.371  1.00  0.00     0.148 A 
ATOM     73  C   UNL A   1      43.778  25.832  25.407  1.00  0.00     0.002 A 
ATOM     74  C   UNL A   1      42.504  23.985  26.327  1.00  0.00     0.091 A 
ATOM     75  F   UNL A   1      41.243  24.328  28.325  1.00  0.00    -0.205 F 
ATOM     76  C   UNL A   1      43.354  24.508  25.338  1.00  0.00     0.022 A 
BRANCH  74  77
ATOM     77  S   UNL A   1      42.097  22.239  26.206  1.00  0.00     0.127 S 
ATOM     78  O   UNL A   1      42.825  21.845  25.002  1.00  0.00    -0.237 OA
ATOM     79  O   UNL A   1      42.647  21.718  27.458  1.00  0.00    -0.237 OA
ATOM     80  O   UNL A   1      40.646  22.176  26.108  1.00  0.00    -0.744 OA
ENDBRANCH  74  77
ENDBRANCH  46  70
BRANCH  58  81
ATOM     81  C   UNL A   1      45.195  26.967  33.858  1.00  0.00     0.023 A 
ATOM     82  C   UNL A   1      46.395  27.703  33.837  1.00  0.00     0.012 A 
ATOM     83  C   UNL A   1      45.125  25.773  34.601  1.00  0.00     0.148 A 
ATOM     84  C   UNL A   1      47.515  27.252  34.535  1.00  0.00     0.002 A 
ATOM     85  C   UNL A   1      46.234  25.347  35.321  1.00  0.00     0.091 A 
ATOM     86  F   UNL A   1      43.975  25.082  34.594  1.00  0.00    -0.205 F 
ATOM     87  C   UNL A   1      47.430  26.082  35.285  1.00  0.00     0.022 A 
BRANCH  85  88
ATOM     88  S   UNL A   1      46.200  23.890  36.374  1.00  0.00     0.127 S 
ATOM     89  O   UNL A   1      45.912  22.832  35.407  1.00  0.00    -0.237 OA
ATOM     90  O   UNL A   1      47.559  23.868  36.918  1.00  0.00    -0.237 OA
ATOM     91  O   UNL A   1      45.159  24.134  37.362  1.00  0.00    -0.744 OA
ENDBRANCH  85  88
ENDBRANCH  58  81
ENDBRANCH  32  33
ENDBRANCH  25  27
ENDBRANCH  24  25
ENDBRANCH   1  24
TORSDOF 17
ENDMDL
MODEL 2
REMARK VINA RESULT:     -12.1      1.706      3.184
REMARK SMILES Cc1cc(F)c([C@H](O)[C@H]2CCCC[C@@H]2C(=O)OCCOC(=O)c2ccc(-c3c4nc(c(-c5cccc(S(=O)(=O)[O-])c5F)c5ccc([nH]5)c(-c5cccc(S(=O)(=O)[O-])c5F)c5nc(c(-c6cccc(S(=O)(=O)[O-])c6F)c6ccc3[nH]6)C=C5)C=C4)cc2)cc1F
REMARK SMILES IDX 19 1 18 2 17 3 15 4 16 5 14 6 9 7 10 8 11 9 13 10 12 11 7 12
REMARK SMILES IDX 6 13 1 14 2 15 3 16 87 17 4 18 86 19 88 20 5 21 8 22 20 24
REMARK SMILES IDX 21 25 22 26 23 27 24 28 85 29 25 30 84 31 26 32 27 33 28 34
REMARK SMILES IDX 78 35 29 36 83 37 77 38 79 39 30 40 82 41 76 42 75 43 31 45
REMARK SMILES IDX 63 46 43 47 62 48 44 49 47 50 61 51 80 52 45 53 46 54 60 56
REMARK SMILES IDX 81 57 48 58 32 59 33 60 41 61 34 62 36 63 42 64 35 65 37 66
REMARK SMILES IDX 38 67 39 68 40 69 64 70 65 71 73 72 66 73 68 74 74 75 67 76
REMARK SMILES IDX 69 77 70 78 71 79 72 80 49 81 50 82 58 83 51 84 53 85 59 86
REMARK SMILES IDX 52 87 54 88 55 89 56 90 57 91
REMARK H PARENT 8 23 79 44 47 55
REMARK Flexibility Score: inf
ROOT
ATOM      1  C   UNL A   1      32.118  32.138  26.916  1.00  0.00     0.275 C 
ENDROOT
BRANCH   1   2
ATOM      2  C   UNL A   1      31.600  30.758  26.518  1.00  0.00     0.274 C 
BRANCH   2   3
ATOM      3  O   UNL A   1      32.400  29.752  27.165  1.00  0.00    -0.462 OA
BRANCH   3   4
ATOM      4  C   UNL A   1      31.928  28.481  27.132  1.00  0.00     0.309 C 
ATOM      5  O   UNL A   1      31.482  27.877  28.099  1.00  0.00    -0.252 OA
BRANCH   4   6
ATOM      6  C   UNL A   1      32.009  27.861  25.742  1.00  0.00     0.105 C 
ATOM      7  C   UNL A   1      30.997  26.713  25.580  1.00  0.00     0.037 C 
ATOM      8  C   UNL A   1      31.545  25.445  26.277  1.00  0.00     0.007 C 
ATOM      9  C   UNL A   1      32.931  25.037  25.778  1.00  0.00     0.000 C 
ATOM     10  C   UNL A   1      33.432  27.479  25.301  1.00  0.00     0.016 C 
ATOM     11  C   UNL A   1      33.947  26.167  25.883  1.00  0.00     0.001 C 
BRANCH   7  12
ATOM     12  C   UNL A   1      30.642  26.445  24.087  1.00  0.00     0.151 C 
BRANCH  12  13
ATOM     13  C   UNL A   1      29.937  27.586  23.379  1.00  0.00     0.019 A 
ATOM     14  C   UNL A   1      28.024  30.867  21.287  1.00  0.00     0.047 C 
ATOM     15  C   UNL A   1      28.678  29.735  22.021  1.00  0.00    -0.012 A 
ATOM     16  C   UNL A   1      30.057  29.534  21.906  1.00  0.00     0.046 A 
ATOM     17  C   UNL A   1      27.943  28.853  22.817  1.00  0.00     0.126 A 
ATOM     18  C   UNL A   1      30.663  28.468  22.568  1.00  0.00     0.129 A 
ATOM     19  C   UNL A   1      28.557  27.802  23.503  1.00  0.00     0.049 A 
ATOM     20  F   UNL A   1      26.615  28.994  22.925  1.00  0.00    -0.207 F 
ATOM     21  F   UNL A   1      31.985  28.300  22.423  1.00  0.00    -0.207 F 
ENDBRANCH  12  13
BRANCH  12  22
ATOM     22  O   UNL A   1      29.815  25.277  24.015  1.00  0.00    -0.388 OA
ATOM     23  H   UNL A   1      28.944  25.472  24.396  1.00  0.00     0.211 HD
ENDBRANCH  12  22
ENDBRANCH   7  12
ENDBRANCH   4   6
ENDBRANCH   3   4
ENDBRANCH   2   3
ENDBRANCH   1   2
BRANCH   1  24
ATOM     24  O   UNL A   1      33.195  31.988  27.857  1.00  0.00    -0.458 OA
BRANCH  24  25
ATOM     25  C   UNL A   1      34.175  32.921  27.807  1.00  0.00     0.338 C 
ATOM     26  O   UNL A   1      34.100  34.068  27.415  1.00  0.00    -0.246 OA
BRANCH  25  27
ATOM     27  C   UNL A   1      35.401  32.291  28.314  1.00  0.00     0.060 A 
ATOM     28  C   UNL A   1      35.364  30.955  28.706  1.00  0.00     0.016 A 
ATOM     29  C   UNL A   1      36.580  33.034  28.418  1.00  0.00     0.016 A 
ATOM     30  C   UNL A   1      36.504  30.378  29.265  1.00  0.00     0.010 A 
ATOM     31  C   UNL A   1      37.729  32.446  28.941  1.00  0.00     0.010 A 
ATOM     32  C   UNL A   1      37.690  31.124  29.400  1.00  0.00    -0.014 A 
BRANCH  32  33
ATOM     33  C   UNL A   1      38.881  30.517  30.037  1.00  0.00     0.031 A 
ATOM     34  C   UNL A   1      39.288  30.918  31.428  1.00  0.00     0.074 A 
ATOM     35  C   UNL A   1      39.597  29.602  29.359  1.00  0.00     0.049 A 
ATOM     36  N   UNL A   1      40.253  30.437  32.169  1.00  0.00    -0.248 NA
ATOM     37  C   UNL A   1      38.526  32.004  32.067  1.00  0.00     0.031 C 
ATOM     38  C   UNL A   1      39.337  29.183  27.980  1.00  0.00     0.029 A 
ATOM     39  N   UNL A   1      40.690  28.864  29.734  1.00  0.00    -0.354 N 
ATOM     40  C   UNL A   1      40.222  31.164  33.352  1.00  0.00     0.074 A 
ATOM     41  C   UNL A   1      39.161  32.139  33.223  1.00  0.00     0.031 C 
ATOM     42  C   UNL A   1      40.232  28.245  27.634  1.00  0.00     0.029 A 
ATOM     43  C   UNL A   1      41.133  28.005  28.758  1.00  0.00     0.049 A 
ATOM     44  H   UNL A   1      41.115  28.940  30.619  1.00  0.00     0.167 HD
ATOM     45  C   UNL A   1      40.987  31.010  34.458  1.00  0.00     0.034 A 
ATOM     46  C   UNL A   1      42.143  27.115  28.770  1.00  0.00     0.034 A 
ATOM     47  C   UNL A   1      42.011  30.012  34.603  1.00  0.00     0.049 A 
ATOM     48  C   UNL A   1      42.955  26.941  30.022  1.00  0.00     0.074 A 
ATOM     49  C   UNL A   1      42.783  29.728  35.715  1.00  0.00     0.029 A 
ATOM     50  N   UNL A   1      42.409  29.138  33.603  1.00  0.00    -0.354 N 
ATOM     51  N   UNL A   1      42.819  27.540  31.180  1.00  0.00    -0.248 NA
ATOM     52  C   UNL A   1      44.042  25.952  29.979  1.00  0.00     0.031 C 
ATOM     53  C   UNL A   1      43.655  28.686  35.385  1.00  0.00     0.029 A 
ATOM     54  C   UNL A   1      43.424  28.320  34.069  1.00  0.00     0.049 A 
ATOM     55  H   UNL A   1      42.028  29.106  32.696  1.00  0.00     0.167 HD
ATOM     56  C   UNL A   1      43.795  26.997  32.005  1.00  0.00     0.074 A 
ATOM     57  C   UNL A   1      44.500  26.002  31.224  1.00  0.00     0.031 C 
ATOM     58  C   UNL A   1      44.094  27.313  33.289  1.00  0.00     0.034 A 
BRANCH  45  59
ATOM     59  C   UNL A   1      40.697  31.892  35.642  1.00  0.00     0.023 A 
ATOM     60  C   UNL A   1      41.572  32.958  35.929  1.00  0.00     0.012 A 
ATOM     61  C   UNL A   1      39.524  31.728  36.404  1.00  0.00     0.148 A 
ATOM     62  C   UNL A   1      41.291  33.844  36.967  1.00  0.00     0.002 A 
ATOM     63  C   UNL A   1      39.237  32.633  37.419  1.00  0.00     0.091 A 
ATOM     64  F   UNL A   1      38.715  30.699  36.117  1.00  0.00    -0.205 F 
ATOM     65  C   UNL A   1      40.121  33.689  37.704  1.00  0.00     0.022 A 
BRANCH  63  66
ATOM     66  S   UNL A   1      37.733  32.557  38.398  1.00  0.00     0.127 S 
ATOM     67  O   UNL A   1      36.724  32.971  37.422  1.00  0.00    -0.237 OA
ATOM     68  O   UNL A   1      37.680  31.142  38.766  1.00  0.00    -0.237 OA
ATOM     69  O   UNL A   1      37.928  33.474  39.511  1.00  0.00    -0.744 OA
ENDBRANCH  63  66
ENDBRANCH  45  59
BRANCH  46  70
ATOM     70  C   UNL A   1      42.379  26.269  27.572  1.00  0.00     0.023 A 
ATOM     71  C   UNL A   1      43.129  26.791  26.500  1.00  0.00     0.012 A 
ATOM     72  C   UNL A   1      41.934  24.934  27.522  1.00  0.00     0.148 A 
ATOM     73  C   UNL A   1      43.427  25.996  25.393  1.00  0.00     0.002 A 
ATOM     74  C   UNL A   1      42.268  24.138  26.434  1.00  0.00     0.091 A 
ATOM     75  F   UNL A   1      41.219  24.468  28.554  1.00  0.00    -0.205 F 
ATOM     76  C   UNL A   1      43.007  24.669  25.364  1.00  0.00     0.022 A 
BRANCH  74  77
ATOM     77  S   UNL A   1      41.862  22.390  26.351  1.00  0.00     0.127 S 
ATOM     78  O   UNL A   1      40.407  22.426  26.225  1.00  0.00    -0.237 OA
ATOM     79  O   UNL A   1      42.577  21.975  25.144  1.00  0.00    -0.237 OA
ATOM     80  O   UNL A   1      42.368  21.806  27.586  1.00  0.00    -0.744 OA
ENDBRANCH  74  77
ENDBRANCH  46  70
BRANCH  58  81
ATOM     81  C   UNL A   1      45.247  26.596  33.934  1.00  0.00     0.023 A 
ATOM     82  C   UNL A   1      46.529  27.175  33.878  1.00  0.00     0.012 A 
ATOM     83  C   UNL A   1      45.049  25.413  34.672  1.00  0.00     0.148 A 
ATOM     84  C   UNL A   1      47.604  26.580  34.536  1.00  0.00     0.002 A 
ATOM     85  C   UNL A   1      46.118  24.843  35.353  1.00  0.00     0.091 A 
ATOM     86  F   UNL A   1      43.822  24.873  34.698  1.00  0.00    -0.205 F 
ATOM     87  C   UNL A   1      47.396  25.423  35.283  1.00  0.00     0.022 A 
BRANCH  85  88
ATOM     88  S   UNL A   1      45.933  23.393  36.398  1.00  0.00     0.127 S 
ATOM     89  O   UNL A   1      45.131  22.515  35.548  1.00  0.00    -0.237 OA
ATOM     90  O   UNL A   1      47.320  22.964  36.583  1.00  0.00    -0.237 OA
ATOM     91  O   UNL A   1      45.278  23.855  37.613  1.00  0.00    -0.744 OA
ENDBRANCH  85  88
ENDBRANCH  58  81
ENDBRANCH  32  33
ENDBRANCH  25  27
ENDBRANCH  24  25
ENDBRANCH   1  24
TORSDOF 17
ENDMDL
MODEL 3
REMARK VINA RESULT:     -12.1      5.149     10.240
REMARK SMILES Cc1cc(F)c([C@H](O)[C@H]2CCCC[C@@H]2C(=O)OCCOC(=O)c2ccc(-c3c4nc(c(-c5cccc(S(=O)(=O)[O-])c5F)c5ccc([nH]5)c(-c5cccc(S(=O)(=O)[O-])c5F)c5nc(c(-c6cccc(S(=O)(=O)[O-])c6F)c6ccc3[nH]6)C=C5)C=C4)cc2)cc1F
REMARK SMILES IDX 19 1 18 2 17 3 15 4 16 5 14 6 9 7 10 8 11 9 13 10 12 11 7 12
REMARK SMILES IDX 6 13 1 14 2 15 3 16 87 17 4 18 86 19 88 20 5 21 8 22 20 24
REMARK SMILES IDX 21 25 22 26 23 27 24 28 85 29 25 30 84 31 26 32 27 33 28 34
REMARK SMILES IDX 78 35 29 36 83 37 77 38 79 39 30 40 82 41 76 42 75 43 31 45
REMARK SMILES IDX 63 46 43 47 62 48 44 49 47 50 61 51 80 52 45 53 46 54 60 56
REMARK SMILES IDX 81 57 48 58 32 59 33 60 41 61 34 62 36 63 42 64 35 65 37 66
REMARK SMILES IDX 38 67 39 68 40 69 64 70 65 71 73 72 66 73 68 74 74 75 67 76
REMARK SMILES IDX 69 77 70 78 71 79 72 80 49 81 50 82 58 83 51 84 53 85 59 86
REMARK SMILES IDX 52 87 54 88 55 89 56 90 57 91
REMARK H PARENT 8 23 79 44 47 55
REMARK Flexibility Score: inf
ROOT
ATOM      1  C   UNL A   1      37.018  21.079  24.592  1.00  0.00     0.275 C 
ENDROOT
BRANCH   1   2
ATOM      2  C   UNL A   1      36.895  22.318  23.708  1.00  0.00     0.274 C 
BRANCH   2   3
ATOM      3  O   UNL A   1      35.501  22.615  23.509  1.00  0.00    -0.462 OA
BRANCH   3   4
ATOM      4  C   UNL A   1      34.921  23.455  24.401  1.00  0.00     0.309 C 
ATOM      5  O   UNL A   1      35.531  24.205  25.153  1.00  0.00    -0.252 OA
BRANCH   4   6
ATOM      6  C   UNL A   1      33.399  23.372  24.380  1.00  0.00     0.105 C 
ATOM      7  C   UNL A   1      32.824  23.274  25.805  1.00  0.00     0.037 C 
ATOM      8  C   UNL A   1      32.986  21.825  26.323  1.00  0.00     0.007 C 
ATOM      9  C   UNL A   1      32.359  20.783  25.398  1.00  0.00     0.000 C 
ATOM     10  C   UNL A   1      32.835  22.307  23.426  1.00  0.00     0.016 C 
ATOM     11  C   UNL A   1      32.874  20.882  23.969  1.00  0.00     0.001 C 
BRANCH   7  12
ATOM     12  C   UNL A   1      31.343  23.752  25.878  1.00  0.00     0.151 C 
BRANCH  12  13
ATOM     13  C   UNL A   1      31.081  25.125  25.288  1.00  0.00     0.019 A 
ATOM     14  C   UNL A   1      30.259  28.996  23.516  1.00  0.00     0.047 C 
ATOM     15  C   UNL A   1      30.555  27.662  24.132  1.00  0.00    -0.012 A 
ATOM     16  C   UNL A   1      30.209  26.489  23.455  1.00  0.00     0.046 A 
ATOM     17  C   UNL A   1      31.163  27.550  25.386  1.00  0.00     0.126 A 
ATOM     18  C   UNL A   1      30.461  25.247  24.038  1.00  0.00     0.129 A 
ATOM     19  C   UNL A   1      31.441  26.304  25.955  1.00  0.00     0.049 A 
ATOM     20  F   UNL A   1      31.479  28.652  26.079  1.00  0.00    -0.207 F 
ATOM     21  F   UNL A   1      30.102  24.146  23.364  1.00  0.00    -0.207 F 
ENDBRANCH  12  13
BRANCH  12  22
ATOM     22  O   UNL A   1      30.929  23.754  27.250  1.00  0.00    -0.388 OA
ATOM     23  H   UNL A   1      30.457  24.578  27.445  1.00  0.00     0.211 HD
ENDBRANCH  12  22
ENDBRANCH   7  12
ENDBRANCH   4   6
ENDBRANCH   3   4
ENDBRANCH   2   3
ENDBRANCH   1   2
BRANCH   1  24
ATOM     24  O   UNL A   1      37.559  21.459  25.869  1.00  0.00    -0.458 OA
BRANCH  24  25
ATOM     25  C   UNL A   1      38.883  21.240  26.054  1.00  0.00     0.338 C 
ATOM     26  O   UNL A   1      39.509  20.219  25.858  1.00  0.00    -0.246 OA
BRANCH  25  27
ATOM     27  C   UNL A   1      39.463  22.491  26.563  1.00  0.00     0.060 A 
ATOM     28  C   UNL A   1      38.956  23.706  26.109  1.00  0.00     0.016 A 
ATOM     29  C   UNL A   1      40.521  22.453  27.474  1.00  0.00     0.016 A 
ATOM     30  C   UNL A   1      39.559  24.893  26.527  1.00  0.00     0.010 A 
ATOM     31  C   UNL A   1      41.097  23.640  27.921  1.00  0.00     0.010 A 
ATOM     32  C   UNL A   1      40.642  24.867  27.423  1.00  0.00    -0.014 A 
BRANCH  32  33
ATOM     33  C   UNL A   1      41.305  26.129  27.825  1.00  0.00     0.031 A 
ATOM     34  C   UNL A   1      42.721  26.412  27.406  1.00  0.00     0.074 A 
ATOM     35  C   UNL A   1      40.628  27.021  28.571  1.00  0.00     0.049 A 
ATOM     36  N   UNL A   1      43.431  27.494  27.599  1.00  0.00    -0.248 NA
ATOM     37  C   UNL A   1      43.438  25.345  26.687  1.00  0.00     0.031 C 
ATOM     38  C   UNL A   1      39.274  26.827  29.092  1.00  0.00     0.029 A 
ATOM     39  N   UNL A   1      40.986  28.266  29.020  1.00  0.00    -0.354 N 
ATOM     40  C   UNL A   1      44.676  27.237  27.040  1.00  0.00     0.074 A 
ATOM     41  C   UNL A   1      44.637  25.886  26.522  1.00  0.00     0.031 C 
ATOM     42  C   UNL A   1      38.907  27.924  29.773  1.00  0.00     0.029 A 
ATOM     43  C   UNL A   1      40.000  28.891  29.745  1.00  0.00     0.049 A 
ATOM     44  H   UNL A   1      41.864  28.673  28.841  1.00  0.00     0.167 HD
ATOM     45  C   UNL A   1      45.744  28.063  26.938  1.00  0.00     0.034 A 
ATOM     46  C   UNL A   1      39.975  30.112  30.313  1.00  0.00     0.034 A 
ATOM     47  C   UNL A   1      45.766  29.419  27.413  1.00  0.00     0.049 A 
ATOM     48  C   UNL A   1      41.160  31.021  30.156  1.00  0.00     0.074 A 
ATOM     49  C   UNL A   1      46.774  30.358  27.284  1.00  0.00     0.029 A 
ATOM     50  N   UNL A   1      44.737  30.029  28.113  1.00  0.00    -0.354 N 
ATOM     51  N   UNL A   1      42.276  30.811  29.501  1.00  0.00    -0.248 NA
ATOM     52  C   UNL A   1      41.074  32.344  30.793  1.00  0.00     0.031 C 
ATOM     53  C   UNL A   1      46.357  31.535  27.913  1.00  0.00     0.029 A 
ATOM     54  C   UNL A   1      45.088  31.329  28.432  1.00  0.00     0.049 A 
ATOM     55  H   UNL A   1      43.883  29.600  28.350  1.00  0.00     0.167 HD
ATOM     56  C   UNL A   1      43.022  31.975  29.640  1.00  0.00     0.074 A 
ATOM     57  C   UNL A   1      42.221  32.897  30.418  1.00  0.00     0.031 C 
ATOM     58  C   UNL A   1      44.269  32.245  29.181  1.00  0.00     0.034 A 
BRANCH  45  59
ATOM     59  C   UNL A   1      46.960  27.554  26.214  1.00  0.00     0.023 A 
ATOM     60  C   UNL A   1      47.858  26.711  26.898  1.00  0.00     0.012 A 
ATOM     61  C   UNL A   1      47.165  27.828  24.848  1.00  0.00     0.148 A 
ATOM     62  C   UNL A   1      48.950  26.154  26.236  1.00  0.00     0.002 A 
ATOM     63  C   UNL A   1      48.241  27.247  24.188  1.00  0.00     0.091 A 
ATOM     64  F   UNL A   1      46.302  28.644  24.224  1.00  0.00    -0.205 F 
ATOM     65  C   UNL A   1      49.136  26.414  24.881  1.00  0.00     0.022 A 
BRANCH  63  66
ATOM     66  S   UNL A   1      48.546  27.472  22.432  1.00  0.00     0.127 S 
ATOM     67  O   UNL A   1      49.809  28.211  22.444  1.00  0.00    -0.237 OA
ATOM     68  O   UNL A   1      48.653  26.091  21.962  1.00  0.00    -0.237 OA
ATOM     69  O   UNL A   1      47.403  28.210  21.914  1.00  0.00    -0.744 OA
ENDBRANCH  63  66
ENDBRANCH  45  59
BRANCH  46  70
ATOM     70  C   UNL A   1      38.743  30.561  31.012  1.00  0.00     0.023 A 
ATOM     71  C   UNL A   1      38.653  30.410  32.409  1.00  0.00     0.012 A 
ATOM     72  C   UNL A   1      37.701  31.201  30.315  1.00  0.00     0.148 A 
ATOM     73  C   UNL A   1      37.540  30.887  33.102  1.00  0.00     0.002 A 
ATOM     74  C   UNL A   1      36.614  31.708  31.016  1.00  0.00     0.091 A 
ATOM     75  F   UNL A   1      37.813  31.326  28.986  1.00  0.00    -0.205 F 
ATOM     76  C   UNL A   1      36.527  31.544  32.408  1.00  0.00     0.022 A 
BRANCH  74  77
ATOM     77  S   UNL A   1      35.310  32.659  30.228  1.00  0.00     0.127 S 
ATOM     78  O   UNL A   1      34.303  32.717  31.285  1.00  0.00    -0.237 OA
ATOM     79  O   UNL A   1      35.989  33.925  29.953  1.00  0.00    -0.237 OA
ATOM     80  O   UNL A   1      34.929  31.904  29.043  1.00  0.00    -0.744 OA
ENDBRANCH  74  77
ENDBRANCH  46  70
BRANCH  58  81
ATOM     81  C   UNL A   1      44.864  33.581  29.522  1.00  0.00     0.023 A 
ATOM     82  C   UNL A   1      45.663  33.699  30.675  1.00  0.00     0.012 A 
ATOM     83  C   UNL A   1      44.717  34.687  28.662  1.00  0.00     0.148 A 
ATOM     84  C   UNL A   1      46.300  34.902  30.977  1.00  0.00     0.002 A 
ATOM     85  C   UNL A   1      45.381  35.873  28.951  1.00  0.00     0.091 A 
ATOM     86  F   UNL A   1      43.938  34.554  27.578  1.00  0.00    -0.205 F 
ATOM     87  C   UNL A   1      46.168  35.983  30.110  1.00  0.00     0.022 A 
BRANCH  85  88
ATOM     88  S   UNL A   1      45.329  37.299  27.857  1.00  0.00     0.127 S 
ATOM     89  O   UNL A   1      46.230  38.228  28.537  1.00  0.00    -0.237 OA
ATOM     90  O   UNL A   1      45.850  36.748  26.605  1.00  0.00    -0.237 OA
ATOM     91  O   UNL A   1      43.933  37.710  27.802  1.00  0.00    -0.744 OA
ENDBRANCH  85  88
ENDBRANCH  58  81
ENDBRANCH  32  33
ENDBRANCH  25  27
ENDBRANCH  24  25
ENDBRANCH   1  24
TORSDOF 17
ENDMDL
