MODEL 1
REMARK VINA RESULT:     -11.3      0.000      0.000
REMARK SMILES CC[NH2+][C@@]1(C(=O)OCCOC(=O)c2ccc(-c3c4nc(c(-c5cccc(S(=O)(=O)[O-])c5F)c5ccc([nH]5)c(-c5cccc(S(=O)(=O)[O-])c5F)c5nc(c(-c6cccc(S(=O)(=O)[O-])c6F)c6ccc3[nH]6)C=C5)C=C4)cc2)CC[C@@H](Oc2cccc(OC)c2)C1
REMARK SMILES IDX 8 1 7 2 5 3 6 4 4 5 76 6 88 7 77 8 78 9 3 10 2 13 1 14 79 15
REMARK SMILES IDX 80 16 81 17 87 18 82 19 84 20 83 21 85 22 86 23 9 24 10 25
REMARK SMILES IDX 11 26 12 27 13 28 14 29 75 30 15 31 74 32 16 33 17 34 18 35
REMARK SMILES IDX 68 36 19 37 73 38 67 39 69 40 20 41 72 42 66 43 65 44 21 46
REMARK SMILES IDX 53 47 33 48 52 49 34 50 37 51 51 52 70 53 35 54 36 55 50 57
REMARK SMILES IDX 71 58 38 59 22 60 23 61 31 62 24 63 26 64 32 65 25 66 27 67
REMARK SMILES IDX 28 68 29 69 30 70 54 71 55 72 63 73 56 74 58 75 64 76 57 77
REMARK SMILES IDX 59 78 60 79 61 80 62 81 39 82 40 83 48 84 41 85 43 86 49 87
REMARK SMILES IDX 42 88 44 89 45 90 46 91 47 92
REMARK H PARENT 3 11 3 12 69 45 37 56
REMARK Flexibility Score: inf
ROOT
ATOM      1  C   UNL A   1      35.197  20.370  25.082  1.00  0.00     0.274 C 
ENDROOT
BRANCH   1   2
ATOM      2  O   UNL A   1      34.882  21.712  25.505  1.00  0.00    -0.457 OA
BRANCH   2   3
ATOM      3  C   UNL A   1      33.790  21.852  26.307  1.00  0.00     0.368 C 
ATOM      4  O   UNL A   1      33.757  21.490  27.479  1.00  0.00    -0.245 OA
BRANCH   3   5
ATOM      5  C   UNL A   1      32.579  22.544  25.578  1.00  0.00     0.198 C 
ATOM      6  C   UNL A   1      33.168  23.772  24.854  1.00  0.00     0.085 C 
ATOM      7  C   UNL A   1      31.534  23.151  26.536  1.00  0.00     0.126 C 
ATOM      8  C   UNL A   1      33.262  24.815  25.962  1.00  0.00     0.052 C 
ATOM      9  C   UNL A   1      31.984  24.601  26.784  1.00  0.00     0.180 C 
BRANCH   5  10
ATOM     10  N   UNL A   1      31.996  21.502  24.706  1.00  0.00    -0.332 N 
ATOM     11  H   UNL A   1      32.414  20.611  24.974  1.00  0.00     0.347 HD
ATOM     12  H   UNL A   1      30.990  21.577  24.854  1.00  0.00     0.347 HD
BRANCH  10  13
ATOM     13  C   UNL A   1      32.169  21.648  23.268  1.00  0.00     0.257 C 
ATOM     14  C   UNL A   1      32.157  20.279  22.603  1.00  0.00     0.071 C 
ENDBRANCH  10  13
ENDBRANCH   5  10
BRANCH   9  15
ATOM     15  O   UNL A   1      30.909  25.543  26.605  1.00  0.00    -0.490 OA
BRANCH  15  16
ATOM     16  C   UNL A   1      31.235  26.825  26.256  1.00  0.00     0.123 A 
ATOM     17  C   UNL A   1      31.617  27.715  27.260  1.00  0.00     0.047 A 
ATOM     18  C   UNL A   1      31.014  27.287  24.956  1.00  0.00     0.092 A 
ATOM     19  C   UNL A   1      31.857  29.052  26.952  1.00  0.00     0.008 A 
ATOM     20  C   UNL A   1      31.252  28.628  24.645  1.00  0.00     0.122 A 
ATOM     21  C   UNL A   1      31.674  29.505  25.647  1.00  0.00     0.046 A 
BRANCH  20  22
ATOM     22  O   UNL A   1      31.021  29.211  23.428  1.00  0.00    -0.497 OA
ATOM     23  C   UNL A   1      29.701  29.065  22.917  1.00  0.00     0.278 C 
ENDBRANCH  20  22
ENDBRANCH  15  16
ENDBRANCH   9  15
ENDBRANCH   3   5
ENDBRANCH   2   3
ENDBRANCH   1   2
BRANCH   1  24
ATOM     24  C   UNL A   1      36.705  20.214  24.894  1.00  0.00     0.275 C 
BRANCH  24  25
ATOM     25  O   UNL A   1      37.392  21.367  25.407  1.00  0.00    -0.458 OA
BRANCH  25  26
ATOM     26  C   UNL A   1      38.657  21.145  25.834  1.00  0.00     0.338 C 
ATOM     27  O   UNL A   1      39.319  20.131  25.692  1.00  0.00    -0.246 OA
BRANCH  26  28
ATOM     28  C   UNL A   1      39.189  22.352  26.485  1.00  0.00     0.060 A 
ATOM     29  C   UNL A   1      38.711  23.601  26.100  1.00  0.00     0.016 A 
ATOM     30  C   UNL A   1      40.281  22.250  27.346  1.00  0.00     0.016 A 
ATOM     31  C   UNL A   1      39.405  24.748  26.480  1.00  0.00     0.010 A 
ATOM     32  C   UNL A   1      40.903  23.414  27.815  1.00  0.00     0.010 A 
ATOM     33  C   UNL A   1      40.508  24.680  27.348  1.00  0.00    -0.014 A 
BRANCH  33  34
ATOM     34  C   UNL A   1      41.260  25.913  27.734  1.00  0.00     0.031 A 
ATOM     35  C   UNL A   1      40.617  26.969  28.600  1.00  0.00     0.074 A 
ATOM     36  C   UNL A   1      42.527  26.105  27.312  1.00  0.00     0.049 A 
ATOM     37  N   UNL A   1      41.028  28.185  28.863  1.00  0.00    -0.248 NA
ATOM     38  C   UNL A   1      39.338  26.625  29.244  1.00  0.00     0.031 C 
ATOM     39  C   UNL A   1      43.294  25.174  26.483  1.00  0.00     0.029 A 
ATOM     40  N   UNL A   1      43.399  27.148  27.524  1.00  0.00    -0.354 N 
ATOM     41  C   UNL A   1      40.018  28.780  29.611  1.00  0.00     0.074 A 
ATOM     42  C   UNL A   1      38.986  27.781  29.792  1.00  0.00     0.031 C 
ATOM     43  C   UNL A   1      44.531  25.657  26.301  1.00  0.00     0.029 A 
ATOM     44  C   UNL A   1      44.621  26.977  26.915  1.00  0.00     0.049 A 
ATOM     45  H   UNL A   1      43.169  27.941  28.060  1.00  0.00     0.167 HD
ATOM     46  C   UNL A   1      39.957  30.038  30.109  1.00  0.00     0.034 A 
ATOM     47  C   UNL A   1      45.687  27.797  26.821  1.00  0.00     0.034 A 
ATOM     48  C   UNL A   1      41.027  30.998  30.030  1.00  0.00     0.049 A 
ATOM     49  C   UNL A   1      45.620  29.164  27.436  1.00  0.00     0.074 A 
ATOM     50  C   UNL A   1      41.061  32.290  30.525  1.00  0.00     0.029 A 
ATOM     51  N   UNL A   1      42.263  30.758  29.452  1.00  0.00    -0.354 N 
ATOM     52  N   UNL A   1      44.651  29.709  28.129  1.00  0.00    -0.248 NA
ATOM     53  C   UNL A   1      46.790  30.036  27.249  1.00  0.00     0.031 C 
ATOM     54  C   UNL A   1      42.327  32.827  30.261  1.00  0.00     0.029 A 
ATOM     55  C   UNL A   1      43.075  31.871  29.595  1.00  0.00     0.049 A 
ATOM     56  H   UNL A   1      42.525  29.921  29.006  1.00  0.00     0.167 HD
ATOM     57  C   UNL A   1      45.089  30.985  28.457  1.00  0.00     0.074 A 
ATOM     58  C   UNL A   1      46.429  31.120  27.923  1.00  0.00     0.031 C 
ATOM     59  C   UNL A   1      44.424  31.972  29.105  1.00  0.00     0.034 A 
BRANCH  46  60
ATOM     60  C   UNL A   1      38.700  30.453  30.825  1.00  0.00     0.023 A 
ATOM     61  C   UNL A   1      38.563  30.187  32.200  1.00  0.00     0.012 A 
ATOM     62  C   UNL A   1      37.694  31.179  30.156  1.00  0.00     0.148 A 
ATOM     63  C   UNL A   1      37.435  30.623  32.896  1.00  0.00     0.002 A 
ATOM     64  C   UNL A   1      36.588  31.638  30.864  1.00  0.00     0.091 A 
ATOM     65  F   UNL A   1      37.828  31.399  28.840  1.00  0.00    -0.205 F 
ATOM     66  C   UNL A   1      36.454  31.357  32.233  1.00  0.00     0.022 A 
BRANCH  64  67
ATOM     67  S   UNL A   1      35.322  32.651  30.090  1.00  0.00     0.127 S 
ATOM     68  O   UNL A   1      34.998  31.866  28.899  1.00  0.00    -0.237 OA
ATOM     69  O   UNL A   1      34.267  32.677  31.106  1.00  0.00    -0.237 OA
ATOM     70  O   UNL A   1      35.952  33.943  29.850  1.00  0.00    -0.744 OA
ENDBRANCH  64  67
ENDBRANCH  46  60
BRANCH  47  71
ATOM     71  C   UNL A   1      46.916  27.320  26.127  1.00  0.00     0.023 A 
ATOM     72  C   UNL A   1      47.143  27.704  24.791  1.00  0.00     0.012 A 
ATOM     73  C   UNL A   1      47.900  26.574  26.801  1.00  0.00     0.148 A 
ATOM     74  C   UNL A   1      48.328  27.351  24.143  1.00  0.00     0.002 A 
ATOM     75  C   UNL A   1      49.106  26.285  26.172  1.00  0.00     0.091 A 
ATOM     76  F   UNL A   1      47.659  26.184  28.062  1.00  0.00    -0.205 F 
ATOM     77  C   UNL A   1      49.318  26.660  24.839  1.00  0.00     0.022 A 
BRANCH  75  78
ATOM     78  S   UNL A   1      50.469  25.564  27.093  1.00  0.00     0.127 S 
ATOM     79  O   UNL A   1      49.872  24.340  27.618  1.00  0.00    -0.237 OA
ATOM     80  O   UNL A   1      51.484  25.357  26.056  1.00  0.00    -0.237 OA
ATOM     81  O   UNL A   1      50.828  26.585  28.070  1.00  0.00    -0.744 OA
ENDBRANCH  75  78
ENDBRANCH  47  71
BRANCH  59  82
ATOM     82  C   UNL A   1      45.129  33.291  29.265  1.00  0.00     0.023 A 
ATOM     83  C   UNL A   1      45.931  33.500  30.403  1.00  0.00     0.012 A 
ATOM     84  C   UNL A   1      45.055  34.287  28.274  1.00  0.00     0.148 A 
ATOM     85  C   UNL A   1      46.638  34.690  30.562  1.00  0.00     0.002 A 
ATOM     86  C   UNL A   1      45.786  35.461  28.426  1.00  0.00     0.091 A 
ATOM     87  F   UNL A   1      44.266  34.080  27.210  1.00  0.00    -0.205 F 
ATOM     88  C   UNL A   1      46.575  35.666  29.570  1.00  0.00     0.022 A 
BRANCH  86  89
ATOM     89  S   UNL A   1      45.805  36.732  27.157  1.00  0.00     0.127 S 
ATOM     90  O   UNL A   1      46.278  35.986  25.991  1.00  0.00    -0.237 OA
ATOM     91  O   UNL A   1      44.399  37.138  27.089  1.00  0.00    -0.237 OA
ATOM     92  O   UNL A   1      46.702  37.767  27.656  1.00  0.00    -0.744 OA
ENDBRANCH  86  89
ENDBRANCH  59  82
ENDBRANCH  33  34
ENDBRANCH  26  28
ENDBRANCH  25  26
ENDBRANCH  24  25
ENDBRANCH   1  24
TORSDOF 19
ENDMDL
MODEL 2
REMARK VINA RESULT:     -10.9      1.366      1.782
REMARK SMILES CC[NH2+][C@@]1(C(=O)OCCOC(=O)c2ccc(-c3c4nc(c(-c5cccc(S(=O)(=O)[O-])c5F)c5ccc([nH]5)c(-c5cccc(S(=O)(=O)[O-])c5F)c5nc(c(-c6cccc(S(=O)(=O)[O-])c6F)c6ccc3[nH]6)C=C5)C=C4)cc2)CC[C@@H](Oc2cccc(OC)c2)C1
REMARK SMILES IDX 8 1 7 2 5 3 6 4 4 5 76 6 88 7 77 8 78 9 3 10 2 13 1 14 79 15
REMARK SMILES IDX 80 16 81 17 87 18 82 19 84 20 83 21 85 22 86 23 9 24 10 25
REMARK SMILES IDX 11 26 12 27 13 28 14 29 75 30 15 31 74 32 16 33 17 34 18 35
REMARK SMILES IDX 68 36 19 37 73 38 67 39 69 40 20 41 72 42 66 43 65 44 21 46
REMARK SMILES IDX 53 47 33 48 52 49 34 50 37 51 51 52 70 53 35 54 36 55 50 57
REMARK SMILES IDX 71 58 38 59 22 60 23 61 31 62 24 63 26 64 32 65 25 66 27 67
REMARK SMILES IDX 28 68 29 69 30 70 54 71 55 72 63 73 56 74 58 75 64 76 57 77
REMARK SMILES IDX 59 78 60 79 61 80 62 81 39 82 40 83 48 84 41 85 43 86 49 87
REMARK SMILES IDX 42 88 44 89 45 90 46 91 47 92
REMARK H PARENT 3 11 3 12 69 45 37 56
REMARK Flexibility Score: inf
ROOT
ATOM      1  C   UNL A   1      35.908  20.487  25.045  1.00  0.00     0.274 C 
ENDROOT
BRANCH   1   2
ATOM      2  O   UNL A   1      35.349  21.808  25.196  1.00  0.00    -0.457 OA
BRANCH   2   3
ATOM      3  C   UNL A   1      34.332  21.935  26.093  1.00  0.00     0.368 C 
ATOM      4  O   UNL A   1      34.435  21.648  27.282  1.00  0.00    -0.245 OA
BRANCH   3   5
ATOM      5  C   UNL A   1      33.014  22.505  25.449  1.00  0.00     0.198 C 
ATOM      6  C   UNL A   1      33.377  23.906  24.918  1.00  0.00     0.085 C 
ATOM      7  C   UNL A   1      31.888  22.780  26.467  1.00  0.00     0.126 C 
ATOM      8  C   UNL A   1      33.297  24.781  26.163  1.00  0.00     0.052 C 
ATOM      9  C   UNL A   1      32.082  24.236  26.925  1.00  0.00     0.180 C 
BRANCH   5  10
ATOM     10  N   UNL A   1      32.612  21.514  24.429  1.00  0.00    -0.332 N 
ATOM     11  H   UNL A   1      33.443  20.976  24.182  1.00  0.00     0.347 HD
ATOM     12  H   UNL A   1      31.860  20.984  24.868  1.00  0.00     0.347 HD
BRANCH  10  13
ATOM     13  C   UNL A   1      32.036  22.014  23.189  1.00  0.00     0.257 C 
ATOM     14  C   UNL A   1      32.007  20.906  22.146  1.00  0.00     0.071 C 
ENDBRANCH  10  13
ENDBRANCH   5  10
BRANCH   9  15
ATOM     15  O   UNL A   1      30.860  24.995  26.864  1.00  0.00    -0.490 OA
BRANCH  15  16
ATOM     16  C   UNL A   1      30.840  26.110  26.072  1.00  0.00     0.123 A 
ATOM     17  C   UNL A   1      30.191  26.043  24.839  1.00  0.00     0.047 A 
ATOM     18  C   UNL A   1      31.606  27.232  26.402  1.00  0.00     0.092 A 
ATOM     19  C   UNL A   1      30.239  27.128  23.967  1.00  0.00     0.008 A 
ATOM     20  C   UNL A   1      31.656  28.320  25.527  1.00  0.00     0.122 A 
ATOM     21  C   UNL A   1      30.971  28.263  24.312  1.00  0.00     0.046 A 
BRANCH  20  22
ATOM     22  O   UNL A   1      32.411  29.447  25.711  1.00  0.00    -0.497 OA
ATOM     23  C   UNL A   1      31.966  30.326  26.737  1.00  0.00     0.278 C 
ENDBRANCH  20  22
ENDBRANCH  15  16
ENDBRANCH   9  15
ENDBRANCH   3   5
ENDBRANCH   2   3
ENDBRANCH   1   2
BRANCH   1  24
ATOM     24  C   UNL A   1      37.426  20.568  24.900  1.00  0.00     0.275 C 
BRANCH  24  25
ATOM     25  O   UNL A   1      37.937  21.688  25.641  1.00  0.00    -0.458 OA
BRANCH  25  26
ATOM     26  C   UNL A   1      39.179  21.524  26.155  1.00  0.00     0.338 C 
ATOM     27  O   UNL A   1      39.892  20.538  26.070  1.00  0.00    -0.246 OA
BRANCH  26  28
ATOM     28  C   UNL A   1      39.614  22.758  26.828  1.00  0.00     0.060 A 
ATOM     29  C   UNL A   1      39.043  23.972  26.460  1.00  0.00     0.016 A 
ATOM     30  C   UNL A   1      40.707  22.726  27.693  1.00  0.00     0.016 A 
ATOM     31  C   UNL A   1      39.646  25.163  26.862  1.00  0.00     0.010 A 
ATOM     32  C   UNL A   1      41.236  23.927  28.184  1.00  0.00     0.010 A 
ATOM     33  C   UNL A   1      40.747  25.165  27.734  1.00  0.00    -0.014 A 
BRANCH  33  34
ATOM     34  C   UNL A   1      41.400  26.447  28.144  1.00  0.00     0.031 A 
ATOM     35  C   UNL A   1      40.631  27.492  28.916  1.00  0.00     0.074 A 
ATOM     36  C   UNL A   1      42.688  26.692  27.826  1.00  0.00     0.049 A 
ATOM     37  N   UNL A   1      40.957  28.735  29.173  1.00  0.00    -0.248 NA
ATOM     38  C   UNL A   1      39.319  27.100  29.457  1.00  0.00     0.031 C 
ATOM     39  C   UNL A   1      43.570  25.779  27.098  1.00  0.00     0.029 A 
ATOM     40  N   UNL A   1      43.486  27.784  28.079  1.00  0.00    -0.354 N 
ATOM     41  C   UNL A   1      39.857  29.297  29.811  1.00  0.00     0.074 A 
ATOM     42  C   UNL A   1      38.864  28.251  29.934  1.00  0.00     0.031 C 
ATOM     43  C   UNL A   1      44.793  26.320  27.008  1.00  0.00     0.029 A 
ATOM     44  C   UNL A   1      44.763  27.660  27.584  1.00  0.00     0.049 A 
ATOM     45  H   UNL A   1      43.170  28.579  28.567  1.00  0.00     0.167 HD
ATOM     46  C   UNL A   1      39.691  30.563  30.261  1.00  0.00     0.034 A 
ATOM     47  C   UNL A   1      45.792  28.531  27.556  1.00  0.00     0.034 A 
ATOM     48  C   UNL A   1      40.715  31.575  30.243  1.00  0.00     0.049 A 
ATOM     49  C   UNL A   1      45.604  29.910  28.118  1.00  0.00     0.074 A 
ATOM     50  C   UNL A   1      40.642  32.881  30.697  1.00  0.00     0.029 A 
ATOM     51  N   UNL A   1      42.008  31.384  29.782  1.00  0.00    -0.354 N 
ATOM     52  N   UNL A   1      44.552  30.423  28.707  1.00  0.00    -0.248 NA
ATOM     53  C   UNL A   1      46.741  30.835  28.005  1.00  0.00     0.031 C 
ATOM     54  C   UNL A   1      41.898  33.475  30.527  1.00  0.00     0.029 A 
ATOM     55  C   UNL A   1      42.748  32.541  29.959  1.00  0.00     0.049 A 
ATOM     56  H   UNL A   1      42.349  30.549  29.388  1.00  0.00     0.167 HD
ATOM     57  C   UNL A   1      44.896  31.729  29.029  1.00  0.00     0.074 A 
ATOM     58  C   UNL A   1      46.269  31.918  28.610  1.00  0.00     0.031 C 
ATOM     59  C   UNL A   1      44.128  32.698  29.584  1.00  0.00     0.034 A 
BRANCH  46  60
ATOM     60  C   UNL A   1      38.357  30.933  30.851  1.00  0.00     0.023 A 
ATOM     61  C   UNL A   1      38.111  30.697  32.217  1.00  0.00     0.012 A 
ATOM     62  C   UNL A   1      37.380  31.589  30.075  1.00  0.00     0.148 A 
ATOM     63  C   UNL A   1      36.906  31.093  32.798  1.00  0.00     0.002 A 
ATOM     64  C   UNL A   1      36.195  32.010  30.669  1.00  0.00     0.091 A 
ATOM     65  F   UNL A   1      37.619  31.780  28.769  1.00  0.00    -0.205 F 
ATOM     66  C   UNL A   1      35.954  31.759  32.029  1.00  0.00     0.022 A 
BRANCH  64  67
ATOM     67  S   UNL A   1      34.955  32.935  29.757  1.00  0.00     0.127 S 
ATOM     68  O   UNL A   1      34.424  31.914  28.854  1.00  0.00    -0.237 OA
ATOM     69  O   UNL A   1      34.028  33.355  30.811  1.00  0.00    -0.237 OA
ATOM     70  O   UNL A   1      35.676  34.032  29.125  1.00  0.00    -0.744 OA
ENDBRANCH  64  67
ENDBRANCH  46  60
BRANCH  47  71
ATOM     71  C   UNL A   1      47.099  28.100  26.987  1.00  0.00     0.023 A 
ATOM     72  C   UNL A   1      48.113  27.654  27.855  1.00  0.00     0.012 A 
ATOM     73  C   UNL A   1      47.313  28.038  25.597  1.00  0.00     0.148 A 
ATOM     74  C   UNL A   1      49.314  27.156  27.348  1.00  0.00     0.002 A 
ATOM     75  C   UNL A   1      48.483  27.478  25.097  1.00  0.00     0.091 A 
ATOM     76  F   UNL A   1      46.354  28.497  24.779  1.00  0.00    -0.205 F 
ATOM     77  C   UNL A   1      49.492  27.049  25.970  1.00  0.00     0.022 A 
BRANCH  75  78
ATOM     78  S   UNL A   1      48.666  27.154  23.340  1.00  0.00     0.127 S 
ATOM     79  O   UNL A   1      50.117  27.129  23.183  1.00  0.00    -0.237 OA
ATOM     80  O   UNL A   1      48.008  25.854  23.182  1.00  0.00    -0.237 OA
ATOM     81  O   UNL A   1      47.959  28.253  22.693  1.00  0.00    -0.744 OA
ENDBRANCH  75  78
ENDBRANCH  47  71
BRANCH  59  82
ATOM     82  C   UNL A   1      44.750  34.055  29.762  1.00  0.00     0.023 A 
ATOM     83  C   UNL A   1      45.376  34.363  30.986  1.00  0.00     0.012 A 
ATOM     84  C   UNL A   1      44.778  34.992  28.712  1.00  0.00     0.148 A 
ATOM     85  C   UNL A   1      46.005  35.592  31.170  1.00  0.00     0.002 A 
ATOM     86  C   UNL A   1      45.433  36.206  28.894  1.00  0.00     0.091 A 
ATOM     87  F   UNL A   1      44.156  34.691  27.564  1.00  0.00    -0.205 F 
ATOM     88  C   UNL A   1      46.044  36.509  30.122  1.00  0.00     0.022 A 
BRANCH  86  89
ATOM     89  S   UNL A   1      45.580  37.407  27.567  1.00  0.00     0.127 S 
ATOM     90  O   UNL A   1      46.363  38.465  28.204  1.00  0.00    -0.237 OA
ATOM     91  O   UNL A   1      46.297  36.657  26.533  1.00  0.00    -0.237 OA
ATOM     92  O   UNL A   1      44.212  37.758  27.207  1.00  0.00    -0.744 OA
ENDBRANCH  86  89
ENDBRANCH  59  82
ENDBRANCH  33  34
ENDBRANCH  26  28
ENDBRANCH  25  26
ENDBRANCH  24  25
ENDBRANCH   1  24
TORSDOF 19
ENDMDL
MODEL 3
REMARK VINA RESULT:     -10.9      5.071     10.205
REMARK SMILES CC[NH2+][C@@]1(C(=O)OCCOC(=O)c2ccc(-c3c4nc(c(-c5cccc(S(=O)(=O)[O-])c5F)c5ccc([nH]5)c(-c5cccc(S(=O)(=O)[O-])c5F)c5nc(c(-c6cccc(S(=O)(=O)[O-])c6F)c6ccc3[nH]6)C=C5)C=C4)cc2)CC[C@@H](Oc2cccc(OC)c2)C1
REMARK SMILES IDX 8 1 7 2 5 3 6 4 4 5 76 6 88 7 77 8 78 9 3 10 2 13 1 14 79 15
REMARK SMILES IDX 80 16 81 17 87 18 82 19 84 20 83 21 85 22 86 23 9 24 10 25
REMARK SMILES IDX 11 26 12 27 13 28 14 29 75 30 15 31 74 32 16 33 17 34 18 35
REMARK SMILES IDX 68 36 19 37 73 38 67 39 69 40 20 41 72 42 66 43 65 44 21 46
REMARK SMILES IDX 53 47 33 48 52 49 34 50 37 51 51 52 70 53 35 54 36 55 50 57
REMARK SMILES IDX 71 58 38 59 22 60 23 61 31 62 24 63 26 64 32 65 25 66 27 67
REMARK SMILES IDX 28 68 29 69 30 70 54 71 55 72 63 73 56 74 58 75 64 76 57 77
REMARK SMILES IDX 59 78 60 79 61 80 62 81 39 82 40 83 48 84 41 85 43 86 49 87
REMARK SMILES IDX 42 88 44 89 45 90 46 91 47 92
REMARK H PARENT 3 11 3 12 69 45 37 56
REMARK Flexibility Score: inf
ROOT
ATOM      1  C   UNL A   1      31.473  30.009  25.278  1.00  0.00     0.274 C 
ENDROOT
BRANCH   1   2
ATOM      2  O   UNL A   1      31.639  28.653  25.740  1.00  0.00    -0.457 OA
BRANCH   2   3
ATOM      3  C   UNL A   1      32.182  27.774  24.852  1.00  0.00     0.368 C 
ATOM      4  O   UNL A   1      33.325  27.869  24.416  1.00  0.00    -0.245 OA
BRANCH   3   5
ATOM      5  C   UNL A   1      31.196  26.613  24.457  1.00  0.00     0.198 C 
ATOM      6  C   UNL A   1      30.933  25.824  25.755  1.00  0.00     0.085 C 
ATOM      7  C   UNL A   1      31.811  25.564  23.509  1.00  0.00     0.126 C 
ATOM      8  C   UNL A   1      32.155  24.920  25.865  1.00  0.00     0.052 C 
ATOM      9  C   UNL A   1      32.431  24.489  24.418  1.00  0.00     0.180 C 
BRANCH   5  10
ATOM     10  N   UNL A   1      30.020  27.281  23.861  1.00  0.00    -0.332 N 
ATOM     11  H   UNL A   1      29.280  26.582  23.782  1.00  0.00     0.347 HD
ATOM     12  H   UNL A   1      29.822  28.061  24.486  1.00  0.00     0.347 HD
BRANCH  10  13
ATOM     13  C   UNL A   1      30.181  27.891  22.549  1.00  0.00     0.257 C 
ATOM     14  C   UNL A   1      29.292  29.121  22.436  1.00  0.00     0.071 C 
ENDBRANCH  10  13
ENDBRANCH   5  10
BRANCH   9  15
ATOM     15  O   UNL A   1      32.040  23.157  24.032  1.00  0.00    -0.490 OA
BRANCH  15  16
ATOM     16  C   UNL A   1      32.932  22.143  24.248  1.00  0.00     0.123 A 
ATOM     17  C   UNL A   1      32.469  20.828  24.214  1.00  0.00     0.047 A 
ATOM     18  C   UNL A   1      34.233  22.417  24.677  1.00  0.00     0.092 A 
ATOM     19  C   UNL A   1      33.328  19.777  24.529  1.00  0.00     0.008 A 
ATOM     20  C   UNL A   1      35.096  21.365  24.995  1.00  0.00     0.122 A 
ATOM     21  C   UNL A   1      34.638  20.048  24.920  1.00  0.00     0.046 A 
BRANCH  20  22
ATOM     22  O   UNL A   1      36.369  21.506  25.478  1.00  0.00    -0.497 OA
ATOM     23  C   UNL A   1      37.367  20.734  24.819  1.00  0.00     0.278 C 
ENDBRANCH  20  22
ENDBRANCH  15  16
ENDBRANCH   9  15
ENDBRANCH   3   5
ENDBRANCH   2   3
ENDBRANCH   1   2
BRANCH   1  24
ATOM     24  C   UNL A   1      31.752  30.992  26.412  1.00  0.00     0.275 C 
BRANCH  24  25
ATOM     25  O   UNL A   1      32.987  30.660  27.067  1.00  0.00    -0.458 OA
BRANCH  25  26
ATOM     26  C   UNL A   1      33.709  31.715  27.513  1.00  0.00     0.338 C 
ATOM     27  O   UNL A   1      33.333  32.868  27.640  1.00  0.00    -0.246 OA
BRANCH  26  28
ATOM     28  C   UNL A   1      35.061  31.277  27.893  1.00  0.00     0.060 A 
ATOM     29  C   UNL A   1      35.290  29.932  28.166  1.00  0.00     0.016 A 
ATOM     30  C   UNL A   1      36.050  32.226  28.146  1.00  0.00     0.016 A 
ATOM     31  C   UNL A   1      36.467  29.553  28.809  1.00  0.00     0.010 A 
ATOM     32  C   UNL A   1      37.276  31.820  28.688  1.00  0.00     0.010 A 
ATOM     33  C   UNL A   1      37.484  30.485  29.076  1.00  0.00    -0.014 A 
BRANCH  33  34
ATOM     34  C   UNL A   1      38.736  30.075  29.785  1.00  0.00     0.031 A 
ATOM     35  C   UNL A   1      39.711  29.121  29.138  1.00  0.00     0.074 A 
ATOM     36  C   UNL A   1      39.012  30.548  31.018  1.00  0.00     0.049 A 
ATOM     37  N   UNL A   1      40.729  28.493  29.672  1.00  0.00    -0.248 NA
ATOM     38  C   UNL A   1      39.510  28.817  27.711  1.00  0.00     0.031 C 
ATOM     39  C   UNL A   1      38.180  31.486  31.772  1.00  0.00     0.029 A 
ATOM     40  N   UNL A   1      40.075  30.306  31.857  1.00  0.00    -0.354 N 
ATOM     41  C   UNL A   1      41.224  27.651  28.682  1.00  0.00     0.074 A 
ATOM     42  C   UNL A   1      40.416  27.870  27.501  1.00  0.00     0.031 C 
ATOM     43  C   UNL A   1      38.784  31.782  32.931  1.00  0.00     0.029 A 
ATOM     44  C   UNL A   1      39.998  30.982  33.053  1.00  0.00     0.049 A 
ATOM     45  H   UNL A   1      40.820  29.706  31.623  1.00  0.00     0.167 HD
ATOM     46  C   UNL A   1      42.260  26.781  28.745  1.00  0.00     0.034 A 
ATOM     47  C   UNL A   1      40.786  30.943  34.146  1.00  0.00     0.034 A 
ATOM     48  C   UNL A   1      43.137  26.640  29.878  1.00  0.00     0.049 A 
ATOM     49  C   UNL A   1      41.966  30.017  34.169  1.00  0.00     0.074 A 
ATOM     50  C   UNL A   1      44.226  25.798  30.023  1.00  0.00     0.029 A 
ATOM     51  N   UNL A   1      43.050  27.386  31.043  1.00  0.00    -0.354 N 
ATOM     52  N   UNL A   1      42.408  29.222  33.226  1.00  0.00    -0.248 NA
ATOM     53  C   UNL A   1      42.754  29.974  35.411  1.00  0.00     0.031 C 
ATOM     54  C   UNL A   1      44.810  26.047  31.272  1.00  0.00     0.029 A 
ATOM     55  C   UNL A   1      44.078  27.037  31.904  1.00  0.00     0.049 A 
ATOM     56  H   UNL A   1      42.361  28.063  31.230  1.00  0.00     0.167 HD
ATOM     57  C   UNL A   1      43.519  28.581  33.759  1.00  0.00     0.074 A 
ATOM     58  C   UNL A   1      43.710  29.110  35.094  1.00  0.00     0.031 C 
ATOM     59  C   UNL A   1      44.286  27.610  33.208  1.00  0.00     0.034 A 
BRANCH  46  60
ATOM     60  C   UNL A   1      42.537  25.924  27.539  1.00  0.00     0.023 A 
ATOM     61  C   UNL A   1      43.333  26.432  26.495  1.00  0.00     0.012 A 
ATOM     62  C   UNL A   1      42.082  24.593  27.478  1.00  0.00     0.148 A 
ATOM     63  C   UNL A   1      43.657  25.632  25.399  1.00  0.00     0.002 A 
ATOM     64  C   UNL A   1      42.436  23.790  26.399  1.00  0.00     0.091 A 
ATOM     65  F   UNL A   1      41.302  24.135  28.469  1.00  0.00    -0.205 F 
ATOM     66  C   UNL A   1      43.219  24.309  25.356  1.00  0.00     0.022 A 
BRANCH  64  67
ATOM     67  S   UNL A   1      41.968  22.058  26.311  1.00  0.00     0.127 S 
ATOM     68  O   UNL A   1      42.770  21.589  25.182  1.00  0.00    -0.237 OA
ATOM     69  O   UNL A   1      42.396  21.545  27.615  1.00  0.00    -0.237 OA
ATOM     70  O   UNL A   1      40.525  22.056  26.113  1.00  0.00    -0.744 OA
ENDBRANCH  64  67
ENDBRANCH  46  60
BRANCH  47  71
ATOM     71  C   UNL A   1      40.480  31.836  35.298  1.00  0.00     0.023 A 
ATOM     72  C   UNL A   1      41.221  33.022  35.465  1.00  0.00     0.012 A 
ATOM     73  C   UNL A   1      39.409  31.570  36.172  1.00  0.00     0.148 A 
ATOM     74  C   UNL A   1      40.897  33.924  36.480  1.00  0.00     0.002 A 
ATOM     75  C   UNL A   1      39.049  32.505  37.136  1.00  0.00     0.091 A 
ATOM     76  F   UNL A   1      38.732  30.422  36.026  1.00  0.00    -0.205 F 
ATOM     77  C   UNL A   1      39.800  33.677  37.302  1.00  0.00     0.022 A 
BRANCH  75  78
ATOM     78  S   UNL A   1      37.537  32.308  38.084  1.00  0.00     0.127 S 
ATOM     79  O   UNL A   1      37.376  30.858  38.107  1.00  0.00    -0.237 OA
ATOM     80  O   UNL A   1      37.885  32.908  39.374  1.00  0.00    -0.237 OA
ATOM     81  O   UNL A   1      36.538  33.063  37.335  1.00  0.00    -0.744 OA
ENDBRANCH  75  78
ENDBRANCH  47  71
BRANCH  59  82
ATOM     82  C   UNL A   1      45.397  27.046  34.049  1.00  0.00     0.023 A 
ATOM     83  C   UNL A   1      46.664  27.660  34.004  1.00  0.00     0.012 A 
ATOM     84  C   UNL A   1      45.180  25.966  34.924  1.00  0.00     0.148 A 
ATOM     85  C   UNL A   1      47.705  27.196  34.805  1.00  0.00     0.002 A 
ATOM     86  C   UNL A   1      46.216  25.526  35.742  1.00  0.00     0.091 A 
ATOM     87  F   UNL A   1      43.975  25.378  34.934  1.00  0.00    -0.205 F 
ATOM     88  C   UNL A   1      47.479  26.137  35.682  1.00  0.00     0.022 A 
BRANCH  86  89
ATOM     89  S   UNL A   1      45.977  24.211  36.942  1.00  0.00     0.127 S 
ATOM     90  O   UNL A   1      47.282  24.165  37.600  1.00  0.00    -0.237 OA
ATOM     91  O   UNL A   1      44.892  24.731  37.777  1.00  0.00    -0.237 OA
ATOM     92  O   UNL A   1      45.617  23.033  36.161  1.00  0.00    -0.744 OA
ENDBRANCH  86  89
ENDBRANCH  59  82
ENDBRANCH  33  34
ENDBRANCH  26  28
ENDBRANCH  25  26
ENDBRANCH  24  25
ENDBRANCH   1  24
TORSDOF 19
ENDMDL
