MODEL 1
REMARK VINA RESULT:     -11.8      0.000      0.000
REMARK SMILES CSc1nc2nnc(C(=O)OCCOC(=O)c3ccc(-c4c5nc(c(-c6cccc(S(=O)(=O)[O-])c6F)c6ccc([nH]6)c(-c6cccc(S(=O)(=O)[O-])c6F)c6nc(c(-c7cccc(S(=O)(=O)[O-])c7F)c7ccc4[nH]7)C=C6)C=C5)cc3)c(O)n2n1
REMARK SMILES IDX 13 1 12 2 11 3 9 4 10 5 8 6 3 7 4 8 83 9 5 10 82 11 6 12
REMARK SMILES IDX 80 13 7 14 2 15 1 16 81 17 14 19 15 20 16 21 17 22 18 23
REMARK SMILES IDX 79 24 19 25 78 26 20 27 21 28 22 29 72 30 23 31 77 32 71 33
REMARK SMILES IDX 73 34 24 35 76 36 70 37 69 38 25 40 57 41 37 42 56 43 38 44
REMARK SMILES IDX 41 45 55 46 74 47 39 48 40 49 54 51 75 52 42 53 26 54 27 55
REMARK SMILES IDX 35 56 28 57 30 58 36 59 29 60 31 61 32 62 33 63 34 64 58 65
REMARK SMILES IDX 59 66 67 67 60 68 62 69 68 70 61 71 63 72 64 73 65 74 66 75
REMARK SMILES IDX 43 76 44 77 52 78 45 79 47 80 53 81 46 82 48 83 49 84 50 85
REMARK SMILES IDX 51 86
REMARK H PARENT 81 18 73 39 41 50
REMARK Flexibility Score: inf
ROOT
ATOM      1  C   UNL A   1      34.656  34.339  27.655  1.00  0.00     0.275 C 
ENDROOT
BRANCH   1   2
ATOM      2  C   UNL A   1      34.208  35.540  28.485  1.00  0.00     0.275 C 
BRANCH   2   3
ATOM      3  O   UNL A   1      33.033  35.257  29.267  1.00  0.00    -0.457 OA
BRANCH   3   4
ATOM      4  C   UNL A   1      33.078  35.712  30.543  1.00  0.00     0.364 C 
ATOM      5  O   UNL A   1      32.444  36.669  30.980  1.00  0.00    -0.244 OA
BRANCH   4   6
ATOM      6  C   UNL A   1      33.908  34.848  31.421  1.00  0.00     0.232 A 
ATOM      7  C   UNL A   1      36.882  33.753  34.388  1.00  0.00     0.210 A 
ATOM      8  N   UNL A   1      36.360  32.693  33.701  1.00  0.00    -0.182 NA
ATOM      9  N   UNL A   1      36.362  34.939  34.090  1.00  0.00    -0.134 NA
ATOM     10  C   UNL A   1      35.458  33.255  32.920  1.00  0.00     0.275 A 
ATOM     11  N   UNL A   1      35.456  34.627  33.137  1.00  0.00    -0.159 N 
ATOM     12  N   UNL A   1      34.631  32.721  31.971  1.00  0.00    -0.108 NA
ATOM     13  C   UNL A   1      34.656  35.463  32.364  1.00  0.00     0.251 A 
ATOM     14  N   UNL A   1      33.899  33.472  31.260  1.00  0.00    -0.134 NA
BRANCH   7  15
ATOM     15  S   UNL A   1      38.179  33.578  35.541  1.00  0.00    -0.088 SA
ATOM     16  C   UNL A   1      38.091  31.804  35.880  1.00  0.00     0.094 C 
ENDBRANCH   7  15
BRANCH  13  17
ATOM     17  O   UNL A   1      34.706  36.831  32.598  1.00  0.00    -0.491 OA
ATOM     18  H   UNL A   1      34.969  37.153  33.437  1.00  0.00     0.295 HD
ENDBRANCH  13  17
ENDBRANCH   4   6
ENDBRANCH   3   4
ENDBRANCH   2   3
ENDBRANCH   1   2
BRANCH   1  19
ATOM     19  O   UNL A   1      35.579  33.481  28.334  1.00  0.00    -0.458 OA
BRANCH  19  20
ATOM     20  C   UNL A   1      35.216  32.176  28.343  1.00  0.00     0.338 C 
ATOM     21  O   UNL A   1      34.079  31.742  28.279  1.00  0.00    -0.246 OA
BRANCH  20  22
ATOM     22  C   UNL A   1      36.375  31.322  28.628  1.00  0.00     0.060 A 
ATOM     23  C   UNL A   1      37.438  31.903  29.322  1.00  0.00     0.016 A 
ATOM     24  C   UNL A   1      36.493  30.052  28.043  1.00  0.00     0.016 A 
ATOM     25  C   UNL A   1      38.651  31.245  29.349  1.00  0.00     0.010 A 
ATOM     26  C   UNL A   1      37.708  29.391  28.080  1.00  0.00     0.010 A 
ATOM     27  C   UNL A   1      38.792  30.008  28.697  1.00  0.00    -0.014 A 
BRANCH  27  28
ATOM     28  C   UNL A   1      40.056  29.304  28.871  1.00  0.00     0.031 A 
ATOM     29  C   UNL A   1      40.434  29.196  30.300  1.00  0.00     0.074 A 
ATOM     30  C   UNL A   1      40.784  28.740  27.888  1.00  0.00     0.049 A 
ATOM     31  N   UNL A   1      41.353  29.870  30.907  1.00  0.00    -0.248 NA
ATOM     32  C   UNL A   1      39.566  28.421  31.197  1.00  0.00     0.031 C 
ATOM     33  C   UNL A   1      40.387  28.542  26.492  1.00  0.00     0.029 A 
ATOM     34  N   UNL A   1      42.000  28.117  27.955  1.00  0.00    -0.354 N 
ATOM     35  C   UNL A   1      41.363  29.376  32.209  1.00  0.00     0.074 A 
ATOM     36  C   UNL A   1      40.115  28.686  32.384  1.00  0.00     0.031 C 
ATOM     37  C   UNL A   1      41.218  27.643  25.916  1.00  0.00     0.029 A 
ATOM     38  C   UNL A   1      42.288  27.327  26.845  1.00  0.00     0.049 A 
ATOM     39  H   UNL A   1      42.614  28.218  28.718  1.00  0.00     0.167 HD
ATOM     40  C   UNL A   1      42.539  29.284  32.885  1.00  0.00     0.034 A 
ATOM     41  C   UNL A   1      43.314  26.449  26.722  1.00  0.00     0.034 A 
ATOM     42  C   UNL A   1      43.565  30.054  32.230  1.00  0.00     0.049 A 
ATOM     43  C   UNL A   1      44.374  26.864  27.662  1.00  0.00     0.074 A 
ATOM     44  C   UNL A   1      43.929  31.374  32.094  1.00  0.00     0.029 A 
ATOM     45  N   UNL A   1      44.221  29.344  31.264  1.00  0.00    -0.354 N 
ATOM     46  N   UNL A   1      45.087  27.944  27.505  1.00  0.00    -0.248 NA
ATOM     47  C   UNL A   1      44.490  26.210  28.961  1.00  0.00     0.031 C 
ATOM     48  C   UNL A   1      44.756  31.441  30.934  1.00  0.00     0.029 A 
ATOM     49  C   UNL A   1      44.896  30.160  30.406  1.00  0.00     0.049 A 
ATOM     50  H   UNL A   1      44.208  28.361  31.195  1.00  0.00     0.167 HD
ATOM     51  C   UNL A   1      45.359  28.340  28.798  1.00  0.00     0.074 A 
ATOM     52  C   UNL A   1      45.156  27.158  29.623  1.00  0.00     0.031 C 
ATOM     53  C   UNL A   1      45.360  29.659  29.131  1.00  0.00     0.034 A 
BRANCH  40  54
ATOM     54  C   UNL A   1      42.954  28.117  33.772  1.00  0.00     0.023 A 
ATOM     55  C   UNL A   1      43.755  27.120  33.161  1.00  0.00     0.012 A 
ATOM     56  C   UNL A   1      42.358  27.776  35.007  1.00  0.00     0.148 A 
ATOM     57  C   UNL A   1      43.883  25.837  33.702  1.00  0.00     0.002 A 
ATOM     58  C   UNL A   1      42.540  26.519  35.575  1.00  0.00     0.091 A 
ATOM     59  F   UNL A   1      41.503  28.611  35.597  1.00  0.00    -0.205 F 
ATOM     60  C   UNL A   1      43.273  25.534  34.909  1.00  0.00     0.022 A 
BRANCH  58  61
ATOM     61  S   UNL A   1      41.793  26.075  37.150  1.00  0.00     0.127 S 
ATOM     62  O   UNL A   1      41.452  24.674  36.927  1.00  0.00    -0.237 OA
ATOM     63  O   UNL A   1      42.903  26.306  38.076  1.00  0.00    -0.237 OA
ATOM     64  O   UNL A   1      40.668  26.983  37.327  1.00  0.00    -0.744 OA
ENDBRANCH  58  61
ENDBRANCH  40  54
BRANCH  41  65
ATOM     65  C   UNL A   1      43.456  25.186  25.962  1.00  0.00     0.023 A 
ATOM     66  C   UNL A   1      44.632  24.970  25.209  1.00  0.00     0.012 A 
ATOM     67  C   UNL A   1      42.633  24.078  26.248  1.00  0.00     0.148 A 
ATOM     68  C   UNL A   1      45.018  23.682  24.824  1.00  0.00     0.002 A 
ATOM     69  C   UNL A   1      43.025  22.797  25.867  1.00  0.00     0.091 A 
ATOM     70  F   UNL A   1      41.525  24.271  26.976  1.00  0.00    -0.205 F 
ATOM     71  C   UNL A   1      44.226  22.594  25.171  1.00  0.00     0.022 A 
BRANCH  69  72
ATOM     72  S   UNL A   1      42.088  21.330  26.318  1.00  0.00     0.127 S 
ATOM     73  O   UNL A   1      42.735  20.296  25.510  1.00  0.00    -0.237 OA
ATOM     74  O   UNL A   1      42.345  21.237  27.751  1.00  0.00    -0.237 OA
ATOM     75  O   UNL A   1      40.708  21.610  25.938  1.00  0.00    -0.744 OA
ENDBRANCH  69  72
ENDBRANCH  41  65
BRANCH  53  76
ATOM     76  C   UNL A   1      45.674  30.660  28.068  1.00  0.00     0.023 A 
ATOM     77  C   UNL A   1      44.689  31.364  27.352  1.00  0.00     0.012 A 
ATOM     78  C   UNL A   1      47.027  30.998  27.902  1.00  0.00     0.148 A 
ATOM     79  C   UNL A   1      45.057  32.397  26.485  1.00  0.00     0.002 A 
ATOM     80  C   UNL A   1      47.381  32.061  27.090  1.00  0.00     0.091 A 
ATOM     81  F   UNL A   1      47.944  30.287  28.577  1.00  0.00    -0.205 F 
ATOM     82  C   UNL A   1      46.400  32.760  26.370  1.00  0.00     0.022 A 
BRANCH  80  83
ATOM     83  S   UNL A   1      49.070  32.660  27.030  1.00  0.00     0.127 S 
ATOM     84  O   UNL A   1      48.927  33.904  26.277  1.00  0.00    -0.237 OA
ATOM     85  O   UNL A   1      49.388  32.834  28.448  1.00  0.00    -0.237 OA
ATOM     86  O   UNL A   1      49.844  31.614  26.372  1.00  0.00    -0.744 OA
ENDBRANCH  80  83
ENDBRANCH  53  76
ENDBRANCH  27  28
ENDBRANCH  20  22
ENDBRANCH  19  20
ENDBRANCH   1  19
TORSDOF 16
ENDMDL
MODEL 2
REMARK VINA RESULT:     -11.7      3.147     11.664
REMARK SMILES CSc1nc2nnc(C(=O)OCCOC(=O)c3ccc(-c4c5nc(c(-c6cccc(S(=O)(=O)[O-])c6F)c6ccc([nH]6)c(-c6cccc(S(=O)(=O)[O-])c6F)c6nc(c(-c7cccc(S(=O)(=O)[O-])c7F)c7ccc4[nH]7)C=C6)C=C5)cc3)c(O)n2n1
REMARK SMILES IDX 13 1 12 2 11 3 9 4 10 5 8 6 3 7 4 8 83 9 5 10 82 11 6 12
REMARK SMILES IDX 80 13 7 14 2 15 1 16 81 17 14 19 15 20 16 21 17 22 18 23
REMARK SMILES IDX 79 24 19 25 78 26 20 27 21 28 22 29 72 30 23 31 77 32 71 33
REMARK SMILES IDX 73 34 24 35 76 36 70 37 69 38 25 40 57 41 37 42 56 43 38 44
REMARK SMILES IDX 41 45 55 46 74 47 39 48 40 49 54 51 75 52 42 53 26 54 27 55
REMARK SMILES IDX 35 56 28 57 30 58 36 59 29 60 31 61 32 62 33 63 34 64 58 65
REMARK SMILES IDX 59 66 67 67 60 68 62 69 68 70 61 71 63 72 64 73 65 74 66 75
REMARK SMILES IDX 43 76 44 77 52 78 45 79 47 80 53 81 46 82 48 83 49 84 50 85
REMARK SMILES IDX 51 86
REMARK H PARENT 81 18 73 39 41 50
REMARK Flexibility Score: inf
ROOT
ATOM      1  C   UNL A   1      40.444  19.831  26.307  1.00  0.00     0.275 C 
ENDROOT
BRANCH   1   2
ATOM      2  C   UNL A   1      41.834  19.207  26.420  1.00  0.00     0.275 C 
BRANCH   2   3
ATOM      3  O   UNL A   1      42.486  19.094  25.142  1.00  0.00    -0.457 OA
BRANCH   3   4
ATOM      4  C   UNL A   1      43.830  19.280  25.173  1.00  0.00     0.364 C 
ATOM      5  O   UNL A   1      44.672  18.388  25.221  1.00  0.00    -0.244 OA
BRANCH   4   6
ATOM      6  C   UNL A   1      44.203  20.711  25.026  1.00  0.00     0.232 A 
ATOM      7  C   UNL A   1      46.525  24.356  25.433  1.00  0.00     0.210 A 
ATOM      8  N   UNL A   1      45.278  24.543  24.908  1.00  0.00    -0.182 NA
ATOM      9  N   UNL A   1      46.858  23.093  25.681  1.00  0.00    -0.134 NA
ATOM     10  C   UNL A   1      44.799  23.317  24.825  1.00  0.00     0.275 A 
ATOM     11  N   UNL A   1      45.746  22.422  25.305  1.00  0.00    -0.159 N 
ATOM     12  N   UNL A   1      43.580  22.852  24.413  1.00  0.00    -0.108 NA
ATOM     13  C   UNL A   1      45.447  21.068  25.413  1.00  0.00     0.251 A 
ATOM     14  N   UNL A   1      43.295  21.622  24.508  1.00  0.00    -0.134 NA
BRANCH   7  15
ATOM     15  S   UNL A   1      47.595  25.681  25.807  1.00  0.00    -0.088 SA
ATOM     16  C   UNL A   1      48.239  26.068  24.162  1.00  0.00     0.094 C 
ENDBRANCH   7  15
BRANCH  13  17
ATOM     17  O   UNL A   1      46.416  20.213  25.923  1.00  0.00    -0.491 OA
ATOM     18  H   UNL A   1      46.984  19.749  25.341  1.00  0.00     0.295 HD
ENDBRANCH  13  17
ENDBRANCH   4   6
ENDBRANCH   3   4
ENDBRANCH   2   3
ENDBRANCH   1   2
BRANCH   1  19
ATOM     19  O   UNL A   1      40.461  21.212  25.931  1.00  0.00    -0.458 OA
BRANCH  19  20
ATOM     20  C   UNL A   1      39.361  21.903  26.314  1.00  0.00     0.338 C 
ATOM     21  O   UNL A   1      38.207  21.651  26.010  1.00  0.00    -0.246 OA
BRANCH  20  22
ATOM     22  C   UNL A   1      39.745  23.133  27.016  1.00  0.00     0.060 A 
ATOM     23  C   UNL A   1      39.048  24.297  26.686  1.00  0.00     0.016 A 
ATOM     24  C   UNL A   1      40.895  23.173  27.818  1.00  0.00     0.016 A 
ATOM     25  C   UNL A   1      39.563  25.514  27.087  1.00  0.00     0.010 A 
ATOM     26  C   UNL A   1      41.403  24.394  28.226  1.00  0.00     0.010 A 
ATOM     27  C   UNL A   1      40.758  25.560  27.825  1.00  0.00    -0.014 A 
BRANCH  27  28
ATOM     28  C   UNL A   1      41.178  26.861  28.328  1.00  0.00     0.031 A 
ATOM     29  C   UNL A   1      42.508  27.252  27.804  1.00  0.00     0.074 A 
ATOM     30  C   UNL A   1      40.446  27.675  29.113  1.00  0.00     0.049 A 
ATOM     31  N   UNL A   1      43.624  27.249  28.455  1.00  0.00    -0.248 NA
ATOM     32  C   UNL A   1      42.658  27.459  26.356  1.00  0.00     0.031 C 
ATOM     33  C   UNL A   1      39.032  27.529  29.468  1.00  0.00     0.029 A 
ATOM     34  N   UNL A   1      40.783  28.876  29.674  1.00  0.00    -0.354 N 
ATOM     35  C   UNL A   1      44.566  27.742  27.556  1.00  0.00     0.074 A 
ATOM     36  C   UNL A   1      43.978  27.621  26.251  1.00  0.00     0.031 C 
ATOM     37  C   UNL A   1      38.574  28.703  29.962  1.00  0.00     0.029 A 
ATOM     38  C   UNL A   1      39.690  29.622  30.106  1.00  0.00     0.049 A 
ATOM     39  H   UNL A   1      41.714  29.185  29.763  1.00  0.00     0.167 HD
ATOM     40  C   UNL A   1      45.586  28.521  28.009  1.00  0.00     0.034 A 
ATOM     41  C   UNL A   1      39.701  30.914  30.514  1.00  0.00     0.034 A 
ATOM     42  C   UNL A   1      45.704  28.421  29.442  1.00  0.00     0.049 A 
ATOM     43  C   UNL A   1      41.070  31.226  30.974  1.00  0.00     0.074 A 
ATOM     44  C   UNL A   1      46.183  27.528  30.373  1.00  0.00     0.029 A 
ATOM     45  N   UNL A   1      44.908  29.316  30.100  1.00  0.00    -0.354 N 
ATOM     46  N   UNL A   1      41.590  30.725  32.060  1.00  0.00    -0.248 NA
ATOM     47  C   UNL A   1      41.998  31.911  30.081  1.00  0.00     0.031 C 
ATOM     48  C   UNL A   1      45.555  27.866  31.608  1.00  0.00     0.029 A 
ATOM     49  C   UNL A   1      44.728  28.969  31.405  1.00  0.00     0.049 A 
ATOM     50  H   UNL A   1      44.511  30.115  29.681  1.00  0.00     0.167 HD
ATOM     51  C   UNL A   1      42.932  30.632  31.759  1.00  0.00     0.074 A 
ATOM     52  C   UNL A   1      43.152  31.543  30.645  1.00  0.00     0.031 C 
ATOM     53  C   UNL A   1      43.663  29.564  32.181  1.00  0.00     0.034 A 
BRANCH  40  54
ATOM     54  C   UNL A   1      46.112  29.771  27.317  1.00  0.00     0.023 A 
ATOM     55  C   UNL A   1      47.500  30.023  27.448  1.00  0.00     0.012 A 
ATOM     56  C   UNL A   1      45.317  30.846  26.858  1.00  0.00     0.148 A 
ATOM     57  C   UNL A   1      48.050  31.289  27.219  1.00  0.00     0.002 A 
ATOM     58  C   UNL A   1      45.878  32.087  26.569  1.00  0.00     0.091 A 
ATOM     59  F   UNL A   1      43.991  30.733  26.808  1.00  0.00    -0.205 F 
ATOM     60  C   UNL A   1      47.237  32.324  26.781  1.00  0.00     0.022 A 
BRANCH  58  61
ATOM     61  S   UNL A   1      44.879  33.461  25.975  1.00  0.00     0.127 S 
ATOM     62  O   UNL A   1      44.237  32.871  24.806  1.00  0.00    -0.237 OA
ATOM     63  O   UNL A   1      43.996  33.697  27.118  1.00  0.00    -0.237 OA
ATOM     64  O   UNL A   1      45.815  34.546  25.709  1.00  0.00    -0.744 OA
ENDBRANCH  58  61
ENDBRANCH  40  54
BRANCH  41  65
ATOM     65  C   UNL A   1      38.686  31.990  30.443  1.00  0.00     0.023 A 
ATOM     66  C   UNL A   1      38.026  32.227  29.216  1.00  0.00     0.012 A 
ATOM     67  C   UNL A   1      38.125  32.528  31.618  1.00  0.00     0.148 A 
ATOM     68  C   UNL A   1      36.805  32.906  29.171  1.00  0.00     0.002 A 
ATOM     69  C   UNL A   1      36.906  33.200  31.569  1.00  0.00     0.091 A 
ATOM     70  F   UNL A   1      38.735  32.295  32.788  1.00  0.00    -0.205 F 
ATOM     71  C   UNL A   1      36.235  33.374  30.349  1.00  0.00     0.022 A 
BRANCH  69  72
ATOM     72  S   UNL A   1      36.073  33.792  33.048  1.00  0.00     0.127 S 
ATOM     73  O   UNL A   1      36.979  34.845  33.507  1.00  0.00    -0.237 OA
ATOM     74  O   UNL A   1      34.804  34.269  32.508  1.00  0.00    -0.237 OA
ATOM     75  O   UNL A   1      35.989  32.642  33.941  1.00  0.00    -0.744 OA
ENDBRANCH  69  72
ENDBRANCH  41  65
BRANCH  53  76
ATOM     76  C   UNL A   1      43.226  28.849  33.418  1.00  0.00     0.023 A 
ATOM     77  C   UNL A   1      42.350  27.749  33.407  1.00  0.00     0.012 A 
ATOM     78  C   UNL A   1      43.852  29.226  34.617  1.00  0.00     0.148 A 
ATOM     79  C   UNL A   1      42.109  27.033  34.583  1.00  0.00     0.002 A 
ATOM     80  C   UNL A   1      43.658  28.477  35.764  1.00  0.00     0.091 A 
ATOM     81  F   UNL A   1      44.658  30.299  34.600  1.00  0.00    -0.205 F 
ATOM     82  C   UNL A   1      42.779  27.383  35.756  1.00  0.00     0.022 A 
BRANCH  80  83
ATOM     83  S   UNL A   1      44.611  28.794  37.250  1.00  0.00     0.127 S 
ATOM     84  O   UNL A   1      44.224  27.675  38.106  1.00  0.00    -0.237 OA
ATOM     85  O   UNL A   1      45.986  28.741  36.754  1.00  0.00    -0.237 OA
ATOM     86  O   UNL A   1      44.199  30.112  37.718  1.00  0.00    -0.744 OA
ENDBRANCH  80  83
ENDBRANCH  53  76
ENDBRANCH  27  28
ENDBRANCH  20  22
ENDBRANCH  19  20
ENDBRANCH   1  19
TORSDOF 16
ENDMDL
MODEL 3
REMARK VINA RESULT:     -11.6      1.523      1.976
REMARK SMILES CSc1nc2nnc(C(=O)OCCOC(=O)c3ccc(-c4c5nc(c(-c6cccc(S(=O)(=O)[O-])c6F)c6ccc([nH]6)c(-c6cccc(S(=O)(=O)[O-])c6F)c6nc(c(-c7cccc(S(=O)(=O)[O-])c7F)c7ccc4[nH]7)C=C6)C=C5)cc3)c(O)n2n1
REMARK SMILES IDX 13 1 12 2 11 3 9 4 10 5 8 6 3 7 4 8 83 9 5 10 82 11 6 12
REMARK SMILES IDX 80 13 7 14 2 15 1 16 81 17 14 19 15 20 16 21 17 22 18 23
REMARK SMILES IDX 79 24 19 25 78 26 20 27 21 28 22 29 72 30 23 31 77 32 71 33
REMARK SMILES IDX 73 34 24 35 76 36 70 37 69 38 25 40 57 41 37 42 56 43 38 44
REMARK SMILES IDX 41 45 55 46 74 47 39 48 40 49 54 51 75 52 42 53 26 54 27 55
REMARK SMILES IDX 35 56 28 57 30 58 36 59 29 60 31 61 32 62 33 63 34 64 58 65
REMARK SMILES IDX 59 66 67 67 60 68 62 69 68 70 61 71 63 72 64 73 65 74 66 75
REMARK SMILES IDX 43 76 44 77 52 78 45 79 47 80 53 81 46 82 48 83 49 84 50 85
REMARK SMILES IDX 51 86
REMARK H PARENT 81 18 73 39 41 50
REMARK Flexibility Score: inf
ROOT
ATOM      1  C   UNL A   1      34.085  35.446  28.033  1.00  0.00     0.275 C 
ENDROOT
BRANCH   1   2
ATOM      2  C   UNL A   1      33.075  36.160  28.930  1.00  0.00     0.275 C 
BRANCH   2   3
ATOM      3  O   UNL A   1      32.540  35.293  29.947  1.00  0.00    -0.457 OA
BRANCH   3   4
ATOM      4  C   UNL A   1      32.754  35.712  31.219  1.00  0.00     0.364 C 
ATOM      5  O   UNL A   1      32.162  36.635  31.773  1.00  0.00    -0.244 OA
BRANCH   4   6
ATOM      6  C   UNL A   1      33.726  34.851  31.941  1.00  0.00     0.232 A 
ATOM      7  C   UNL A   1      37.208  33.761  34.292  1.00  0.00     0.210 A 
ATOM      8  N   UNL A   1      36.541  32.697  33.754  1.00  0.00    -0.182 NA
ATOM      9  N   UNL A   1      36.662  34.952  34.068  1.00  0.00    -0.134 NA
ATOM     10  C   UNL A   1      35.513  33.260  33.151  1.00  0.00     0.275 A 
ATOM     11  N   UNL A   1      35.579  34.637  33.322  1.00  0.00    -0.159 N 
ATOM     12  N   UNL A   1      34.504  32.722  32.400  1.00  0.00    -0.108 NA
ATOM     13  C   UNL A   1      34.657  35.472  32.698  1.00  0.00     0.251 A 
ATOM     14  N   UNL A   1      33.659  33.472  31.826  1.00  0.00    -0.134 NA
BRANCH   7  15
ATOM     15  S   UNL A   1      38.704  33.585  35.171  1.00  0.00    -0.088 SA
ATOM     16  C   UNL A   1      38.081  33.343  36.852  1.00  0.00     0.094 C 
ENDBRANCH   7  15
BRANCH  13  17
ATOM     17  O   UNL A   1      34.778  36.844  32.877  1.00  0.00    -0.491 OA
ATOM     18  H   UNL A   1      35.478  37.189  33.394  1.00  0.00     0.295 HD
ENDBRANCH  13  17
ENDBRANCH   4   6
ENDBRANCH   3   4
ENDBRANCH   2   3
ENDBRANCH   1   2
BRANCH   1  19
ATOM     19  O   UNL A   1      34.939  34.538  28.736  1.00  0.00    -0.458 OA
BRANCH  19  20
ATOM     20  C   UNL A   1      34.709  33.233  28.455  1.00  0.00     0.338 C 
ATOM     21  O   UNL A   1      33.689  32.766  27.977  1.00  0.00    -0.246 OA
BRANCH  20  22
ATOM     22  C   UNL A   1      35.797  32.396  28.974  1.00  0.00     0.060 A 
ATOM     23  C   UNL A   1      37.024  33.019  29.208  1.00  0.00     0.016 A 
ATOM     24  C   UNL A   1      35.666  31.000  29.027  1.00  0.00     0.016 A 
ATOM     25  C   UNL A   1      38.141  32.232  29.404  1.00  0.00     0.010 A 
ATOM     26  C   UNL A   1      36.786  30.215  29.233  1.00  0.00     0.010 A 
ATOM     27  C   UNL A   1      38.024  30.832  29.380  1.00  0.00    -0.014 A 
BRANCH  27  28
ATOM     28  C   UNL A   1      39.212  30.060  29.722  1.00  0.00     0.031 A 
ATOM     29  C   UNL A   1      39.609  30.257  31.136  1.00  0.00     0.074 A 
ATOM     30  C   UNL A   1      39.854  29.204  28.905  1.00  0.00     0.049 A 
ATOM     31  N   UNL A   1      40.607  30.955  31.567  1.00  0.00    -0.248 NA
ATOM     32  C   UNL A   1      38.685  29.815  32.191  1.00  0.00     0.031 C 
ATOM     33  C   UNL A   1      39.407  28.721  27.596  1.00  0.00     0.029 A 
ATOM     34  N   UNL A   1      41.000  28.489  29.124  1.00  0.00    -0.354 N 
ATOM     35  C   UNL A   1      40.594  30.787  32.949  1.00  0.00     0.074 A 
ATOM     36  C   UNL A   1      39.285  30.297  33.282  1.00  0.00     0.031 C 
ATOM     37  C   UNL A   1      40.127  27.627  27.256  1.00  0.00     0.029 A 
ATOM     38  C   UNL A   1      41.180  27.431  28.237  1.00  0.00     0.049 A 
ATOM     39  H   UNL A   1      41.638  28.704  29.842  1.00  0.00     0.167 HD
ATOM     40  C   UNL A   1      41.769  30.736  33.632  1.00  0.00     0.034 A 
ATOM     41  C   UNL A   1      42.106  26.444  28.330  1.00  0.00     0.034 A 
ATOM     42  C   UNL A   1      42.855  31.213  32.814  1.00  0.00     0.049 A 
ATOM     43  C   UNL A   1      43.224  26.957  29.148  1.00  0.00     0.074 A 
ATOM     44  C   UNL A   1      43.351  32.416  32.367  1.00  0.00     0.029 A 
ATOM     45  N   UNL A   1      43.411  30.227  32.048  1.00  0.00    -0.354 N 
ATOM     46  N   UNL A   1      44.041  27.886  28.738  1.00  0.00    -0.248 NA
ATOM     47  C   UNL A   1      43.300  26.623  30.566  1.00  0.00     0.031 C 
ATOM     48  C   UNL A   1      44.154  32.116  31.227  1.00  0.00     0.029 A 
ATOM     49  C   UNL A   1      44.147  30.738  31.022  1.00  0.00     0.049 A 
ATOM     50  H   UNL A   1      43.294  29.263  32.218  1.00  0.00     0.167 HD
ATOM     51  C   UNL A   1      44.383  28.548  29.899  1.00  0.00     0.074 A 
ATOM     52  C   UNL A   1      44.077  27.626  30.983  1.00  0.00     0.031 C 
ATOM     53  C   UNL A   1      44.528  29.901  29.906  1.00  0.00     0.034 A 
BRANCH  40  54
ATOM     54  C   UNL A   1      42.081  29.777  34.774  1.00  0.00     0.023 A 
ATOM     55  C   UNL A   1      42.907  30.282  35.808  1.00  0.00     0.012 A 
ATOM     56  C   UNL A   1      41.909  28.374  34.733  1.00  0.00     0.148 A 
ATOM     57  C   UNL A   1      43.588  29.439  36.693  1.00  0.00     0.002 A 
ATOM     58  C   UNL A   1      42.537  27.542  35.656  1.00  0.00     0.091 A 
ATOM     59  F   UNL A   1      41.238  27.805  33.733  1.00  0.00    -0.205 F 
ATOM     60  C   UNL A   1      43.404  28.067  36.616  1.00  0.00     0.022 A 
BRANCH  58  61
ATOM     61  S   UNL A   1      42.319  25.757  35.621  1.00  0.00     0.127 S 
ATOM     62  O   UNL A   1      43.055  25.396  34.414  1.00  0.00    -0.237 OA
ATOM     63  O   UNL A   1      42.952  25.360  36.879  1.00  0.00    -0.237 OA
ATOM     64  O   UNL A   1      40.879  25.532  35.579  1.00  0.00    -0.744 OA
ENDBRANCH  58  61
ENDBRANCH  40  54
BRANCH  41  65
ATOM     65  C   UNL A   1      42.099  25.028  27.897  1.00  0.00     0.023 A 
ATOM     66  C   UNL A   1      40.888  24.303  27.951  1.00  0.00     0.012 A 
ATOM     67  C   UNL A   1      43.155  24.508  27.123  1.00  0.00     0.148 A 
ATOM     68  C   UNL A   1      40.706  23.142  27.194  1.00  0.00     0.002 A 
ATOM     69  C   UNL A   1      42.968  23.354  26.367  1.00  0.00     0.091 A 
ATOM     70  F   UNL A   1      44.302  25.198  27.053  1.00  0.00    -0.205 F 
ATOM     71  C   UNL A   1      41.738  22.679  26.386  1.00  0.00     0.022 A 
BRANCH  69  72
ATOM     72  S   UNL A   1      44.229  22.715  25.257  1.00  0.00     0.127 S 
ATOM     73  O   UNL A   1      43.565  21.544  24.684  1.00  0.00    -0.237 OA
ATOM     74  O   UNL A   1      44.410  23.830  24.333  1.00  0.00    -0.237 OA
ATOM     75  O   UNL A   1      45.375  22.398  26.101  1.00  0.00    -0.744 OA
ENDBRANCH  69  72
ENDBRANCH  41  65
BRANCH  53  76
ATOM     76  C   UNL A   1      44.921  30.580  28.635  1.00  0.00     0.023 A 
ATOM     77  C   UNL A   1      43.993  31.138  27.737  1.00  0.00     0.012 A 
ATOM     78  C   UNL A   1      46.295  30.783  28.428  1.00  0.00     0.148 A 
ATOM     79  C   UNL A   1      44.439  31.894  26.649  1.00  0.00     0.002 A 
ATOM     80  C   UNL A   1      46.728  31.582  27.385  1.00  0.00     0.091 A 
ATOM     81  F   UNL A   1      47.155  30.211  29.286  1.00  0.00    -0.205 F 
ATOM     82  C   UNL A   1      45.804  32.134  26.485  1.00  0.00     0.022 A 
BRANCH  80  83
ATOM     83  S   UNL A   1      48.453  32.044  27.225  1.00  0.00     0.127 S 
ATOM     84  O   UNL A   1      49.084  30.766  26.905  1.00  0.00    -0.237 OA
ATOM     85  O   UNL A   1      48.417  33.005  26.122  1.00  0.00    -0.237 OA
ATOM     86  O   UNL A   1      48.833  32.626  28.507  1.00  0.00    -0.744 OA
ENDBRANCH  80  83
ENDBRANCH  53  76
ENDBRANCH  27  28
ENDBRANCH  20  22
ENDBRANCH  19  20
ENDBRANCH   1  19
TORSDOF 16
ENDMDL
