MODEL 1
REMARK VINA RESULT:     -10.5      0.000      0.000
REMARK SMILES O=C(CCc1nc(-c2ccccc2)c(-c2ccccc2)o1)OCCOC(=O)c1ccc(-c2c3nc(c(-c4cccc(S(=O)(=O)[O-])c4F)c4ccc([nH]4)c(-c4cccc(S(=O)(=O)[O-])c4F)c4nc(c(-c5cccc(S(=O)(=O)[O-])c5F)c5ccc2[nH]5)C=C4)C=C3)cc1
REMARK SMILES IDX 23 1 22 2 2 3 1 4 3 5 4 6 5 7 6 8 21 9 7 10 14 11 8 12 9 13
REMARK SMILES IDX 13 14 10 15 12 16 11 17 15 18 16 19 20 20 17 21 19 22 18 23
REMARK SMILES IDX 24 24 25 25 26 26 27 27 28 28 29 29 90 30 30 31 89 32 31 33
REMARK SMILES IDX 32 34 33 35 83 36 34 37 88 38 82 39 84 40 35 41 87 42 81 43
REMARK SMILES IDX 80 44 36 46 68 47 48 48 67 49 49 50 52 51 66 52 85 53 50 54
REMARK SMILES IDX 51 55 65 57 86 58 53 59 37 60 38 61 46 62 39 63 41 64 47 65
REMARK SMILES IDX 40 66 42 67 43 68 44 69 45 70 69 71 70 72 78 73 71 74 73 75
REMARK SMILES IDX 79 76 72 77 74 78 75 79 76 80 77 81 54 82 55 83 63 84 56 85
REMARK SMILES IDX 58 86 64 87 57 88 59 89 60 90 61 91 62 92
REMARK H PARENT 84 45 52 56
REMARK Flexibility Score: inf
ROOT
ATOM      1  C   UNL A   1      33.995  34.733  29.879  1.00  0.00     0.274 C 
ENDROOT
BRANCH   1   2
ATOM      2  O   UNL A   1      32.787  35.379  30.326  1.00  0.00    -0.462 OA
BRANCH   2   3
ATOM      3  C   UNL A   1      32.608  35.800  31.602  1.00  0.00     0.306 C 
ATOM      4  O   UNL A   1      31.690  35.341  32.280  1.00  0.00    -0.252 OA
BRANCH   3   5
ATOM      5  C   UNL A   1      33.479  36.919  32.131  1.00  0.00     0.132 C 
BRANCH   5   6
ATOM      6  C   UNL A   1      33.981  36.641  33.543  1.00  0.00     0.109 C 
BRANCH   6   7
ATOM      7  C   UNL A   1      34.940  35.508  33.533  1.00  0.00     0.196 A 
ATOM      8  N   UNL A   1      35.152  34.604  34.470  1.00  0.00    -0.213 NA
ATOM      9  O   UNL A   1      35.861  35.510  32.525  1.00  0.00    -0.440 OA
ATOM     10  C   UNL A   1      36.319  33.993  34.074  1.00  0.00     0.117 A 
ATOM     11  C   UNL A   1      36.733  34.516  32.866  1.00  0.00     0.162 A 
BRANCH  10  12
ATOM     12  C   UNL A   1      37.045  33.038  34.887  1.00  0.00     0.004 A 
ATOM     13  C   UNL A   1      37.445  31.804  34.348  1.00  0.00     0.010 A 
ATOM     14  C   UNL A   1      37.368  33.341  36.211  1.00  0.00     0.010 A 
ATOM     15  C   UNL A   1      38.121  30.872  35.137  1.00  0.00     0.001 A 
ATOM     16  C   UNL A   1      38.038  32.404  37.002  1.00  0.00     0.001 A 
ATOM     17  C   UNL A   1      38.408  31.168  36.468  1.00  0.00     0.000 A 
ENDBRANCH  10  12
BRANCH  11  18
ATOM     18  C   UNL A   1      37.828  34.283  31.951  1.00  0.00     0.020 A 
ATOM     19  C   UNL A   1      37.582  33.865  30.638  1.00  0.00     0.012 A 
ATOM     20  C   UNL A   1      39.147  34.501  32.367  1.00  0.00     0.012 A 
ATOM     21  C   UNL A   1      38.644  33.679  29.751  1.00  0.00     0.001 A 
ATOM     22  C   UNL A   1      40.207  34.304  31.484  1.00  0.00     0.001 A 
ATOM     23  C   UNL A   1      39.954  33.897  30.175  1.00  0.00     0.000 A 
ENDBRANCH  11  18
ENDBRANCH   6   7
ENDBRANCH   5   6
ENDBRANCH   3   5
ENDBRANCH   2   3
ENDBRANCH   1   2
BRANCH   1  24
ATOM     24  C   UNL A   1      33.740  33.588  28.901  1.00  0.00     0.275 C 
BRANCH  24  25
ATOM     25  O   UNL A   1      34.930  32.810  28.727  1.00  0.00    -0.458 OA
BRANCH  25  26
ATOM     26  C   UNL A   1      34.721  31.556  28.258  1.00  0.00     0.338 C 
ATOM     27  O   UNL A   1      33.777  31.176  27.584  1.00  0.00    -0.246 OA
BRANCH  26  28
ATOM     28  C   UNL A   1      35.913  30.731  28.537  1.00  0.00     0.060 A 
ATOM     29  C   UNL A   1      35.855  29.844  29.621  1.00  0.00     0.016 A 
ATOM     30  C   UNL A   1      37.066  30.818  27.752  1.00  0.00     0.016 A 
ATOM     31  C   UNL A   1      36.971  29.078  29.955  1.00  0.00     0.010 A 
ATOM     32  C   UNL A   1      38.182  30.054  28.089  1.00  0.00     0.010 A 
ATOM     33  C   UNL A   1      38.150  29.211  29.214  1.00  0.00    -0.014 A 
BRANCH  33  34
ATOM     34  C   UNL A   1      39.417  28.622  29.701  1.00  0.00     0.031 A 
ATOM     35  C   UNL A   1      40.129  29.307  30.832  1.00  0.00     0.074 A 
ATOM     36  C   UNL A   1      39.960  27.551  29.100  1.00  0.00     0.049 A 
ATOM     37  N   UNL A   1      41.296  29.045  31.355  1.00  0.00    -0.248 NA
ATOM     38  C   UNL A   1      39.433  30.453  31.444  1.00  0.00     0.031 C 
ATOM     39  C   UNL A   1      39.369  26.820  27.982  1.00  0.00     0.029 A 
ATOM     40  N   UNL A   1      41.161  26.926  29.321  1.00  0.00    -0.354 N 
ATOM     41  C   UNL A   1      41.494  30.014  32.331  1.00  0.00     0.074 A 
ATOM     42  C   UNL A   1      40.331  30.874  32.322  1.00  0.00     0.031 C 
ATOM     43  C   UNL A   1      40.235  25.874  27.578  1.00  0.00     0.029 A 
ATOM     44  C   UNL A   1      41.445  25.950  28.396  1.00  0.00     0.049 A 
ATOM     45  H   UNL A   1      41.760  27.155  30.067  1.00  0.00     0.167 HD
ATOM     46  C   UNL A   1      42.546  30.168  33.168  1.00  0.00     0.034 A 
ATOM     47  C   UNL A   1      42.566  25.224  28.214  1.00  0.00     0.034 A 
ATOM     48  C   UNL A   1      43.692  29.303  33.183  1.00  0.00     0.049 A 
ATOM     49  C   UNL A   1      43.727  25.408  29.157  1.00  0.00     0.074 A 
ATOM     50  C   UNL A   1      44.780  29.332  34.037  1.00  0.00     0.029 A 
ATOM     51  N   UNL A   1      43.908  28.266  32.291  1.00  0.00    -0.354 N 
ATOM     52  N   UNL A   1      43.841  26.230  30.173  1.00  0.00    -0.248 NA
ATOM     53  C   UNL A   1      44.898  24.544  28.953  1.00  0.00     0.031 C 
ATOM     54  C   UNL A   1      45.666  28.324  33.644  1.00  0.00     0.029 A 
ATOM     55  C   UNL A   1      45.118  27.652  32.562  1.00  0.00     0.049 A 
ATOM     56  H   UNL A   1      43.291  28.003  31.569  1.00  0.00     0.167 HD
ATOM     57  C   UNL A   1      45.077  25.958  30.751  1.00  0.00     0.074 A 
ATOM     58  C   UNL A   1      45.671  24.887  29.976  1.00  0.00     0.031 C 
ATOM     59  C   UNL A   1      45.669  26.547  31.820  1.00  0.00     0.034 A 
BRANCH  46  60
ATOM     60  C   UNL A   1      42.483  31.308  34.148  1.00  0.00     0.023 A 
ATOM     61  C   UNL A   1      41.951  31.089  35.436  1.00  0.00     0.012 A 
ATOM     62  C   UNL A   1      42.959  32.586  33.803  1.00  0.00     0.148 A 
ATOM     63  C   UNL A   1      41.857  32.138  36.350  1.00  0.00     0.002 A 
ATOM     64  C   UNL A   1      42.900  33.616  34.735  1.00  0.00     0.091 A 
ATOM     65  F   UNL A   1      43.432  32.783  32.563  1.00  0.00    -0.205 F 
ATOM     66  C   UNL A   1      42.338  33.397  36.003  1.00  0.00     0.022 A 
BRANCH  64  67
ATOM     67  S   UNL A   1      43.564  35.249  34.394  1.00  0.00     0.127 S 
ATOM     68  O   UNL A   1      44.997  34.974  34.307  1.00  0.00    -0.237 OA
ATOM     69  O   UNL A   1      42.929  35.586  33.119  1.00  0.00    -0.237 OA
ATOM     70  O   UNL A   1      43.146  36.083  35.512  1.00  0.00    -0.744 OA
ENDBRANCH  64  67
ENDBRANCH  46  60
BRANCH  47  71
ATOM     71  C   UNL A   1      42.620  24.227  27.109  1.00  0.00     0.023 A 
ATOM     72  C   UNL A   1      43.295  24.550  25.917  1.00  0.00     0.012 A 
ATOM     73  C   UNL A   1      42.058  22.944  27.257  1.00  0.00     0.148 A 
ATOM     74  C   UNL A   1      43.394  23.618  24.882  1.00  0.00     0.002 A 
ATOM     75  C   UNL A   1      42.205  22.003  26.245  1.00  0.00     0.091 A 
ATOM     76  F   UNL A   1      41.414  22.663  28.399  1.00  0.00    -0.205 F 
ATOM     77  C   UNL A   1      42.860  22.343  25.051  1.00  0.00     0.022 A 
BRANCH  75  78
ATOM     78  S   UNL A   1      41.664  20.299  26.419  1.00  0.00     0.127 S 
ATOM     79  O   UNL A   1      42.219  19.941  27.722  1.00  0.00    -0.237 OA
ATOM     80  O   UNL A   1      40.208  20.444  26.388  1.00  0.00    -0.237 OA
ATOM     81  O   UNL A   1      42.224  19.585  25.280  1.00  0.00    -0.744 OA
ENDBRANCH  75  78
ENDBRANCH  47  71
BRANCH  59  82
ATOM     82  C   UNL A   1      47.016  26.033  32.259  1.00  0.00     0.023 A 
ATOM     83  C   UNL A   1      48.189  26.588  31.714  1.00  0.00     0.012 A 
ATOM     84  C   UNL A   1      47.114  25.085  33.297  1.00  0.00     0.148 A 
ATOM     85  C   UNL A   1      49.442  26.196  32.185  1.00  0.00     0.002 A 
ATOM     86  C   UNL A   1      48.364  24.733  33.792  1.00  0.00     0.091 A 
ATOM     87  F   UNL A   1      45.985  24.555  33.789  1.00  0.00    -0.205 F 
ATOM     88  C   UNL A   1      49.529  25.281  33.233  1.00  0.00     0.022 A 
BRANCH  86  89
ATOM     89  S   UNL A   1      48.567  23.640  35.205  1.00  0.00     0.127 S 
ATOM     90  O   UNL A   1      49.308  22.526  34.615  1.00  0.00    -0.237 OA
ATOM     91  O   UNL A   1      49.343  24.467  36.130  1.00  0.00    -0.237 OA
ATOM     92  O   UNL A   1      47.221  23.321  35.663  1.00  0.00    -0.744 OA
ENDBRANCH  86  89
ENDBRANCH  59  82
ENDBRANCH  33  34
ENDBRANCH  26  28
ENDBRANCH  25  26
ENDBRANCH  24  25
ENDBRANCH   1  24
TORSDOF 18
ENDMDL
MODEL 2
REMARK VINA RESULT:     -10.3      5.653     10.260
REMARK SMILES O=C(CCc1nc(-c2ccccc2)c(-c2ccccc2)o1)OCCOC(=O)c1ccc(-c2c3nc(c(-c4cccc(S(=O)(=O)[O-])c4F)c4ccc([nH]4)c(-c4cccc(S(=O)(=O)[O-])c4F)c4nc(c(-c5cccc(S(=O)(=O)[O-])c5F)c5ccc2[nH]5)C=C4)C=C3)cc1
REMARK SMILES IDX 23 1 22 2 2 3 1 4 3 5 4 6 5 7 6 8 21 9 7 10 14 11 8 12 9 13
REMARK SMILES IDX 13 14 10 15 12 16 11 17 15 18 16 19 20 20 17 21 19 22 18 23
REMARK SMILES IDX 24 24 25 25 26 26 27 27 28 28 29 29 90 30 30 31 89 32 31 33
REMARK SMILES IDX 32 34 33 35 83 36 34 37 88 38 82 39 84 40 35 41 87 42 81 43
REMARK SMILES IDX 80 44 36 46 68 47 48 48 67 49 49 50 52 51 66 52 85 53 50 54
REMARK SMILES IDX 51 55 65 57 86 58 53 59 37 60 38 61 46 62 39 63 41 64 47 65
REMARK SMILES IDX 40 66 42 67 43 68 44 69 45 70 69 71 70 72 78 73 71 74 73 75
REMARK SMILES IDX 79 76 72 77 74 78 75 79 76 80 77 81 54 82 55 83 63 84 56 85
REMARK SMILES IDX 58 86 64 87 57 88 59 89 60 90 61 91 62 92
REMARK H PARENT 84 45 52 56
REMARK Flexibility Score: inf
ROOT
ATOM      1  C   UNL A   1      35.741  21.564  25.418  1.00  0.00     0.274 C 
ENDROOT
BRANCH   1   2
ATOM      2  O   UNL A   1      34.846  21.600  24.289  1.00  0.00    -0.462 OA
BRANCH   2   3
ATOM      3  C   UNL A   1      34.789  22.647  23.430  1.00  0.00     0.306 C 
ATOM      4  O   UNL A   1      35.740  23.421  23.338  1.00  0.00    -0.252 OA
BRANCH   3   5
ATOM      5  C   UNL A   1      33.499  22.909  22.683  1.00  0.00     0.132 C 
BRANCH   5   6
ATOM      6  C   UNL A   1      32.270  22.654  23.549  1.00  0.00     0.109 C 
BRANCH   6   7
ATOM      7  C   UNL A   1      31.649  23.941  23.950  1.00  0.00     0.196 A 
ATOM      8  N   UNL A   1      30.609  24.552  23.416  1.00  0.00    -0.213 NA
ATOM      9  O   UNL A   1      32.352  24.692  24.849  1.00  0.00    -0.440 OA
ATOM     10  C   UNL A   1      30.652  25.811  23.970  1.00  0.00     0.117 A 
ATOM     11  C   UNL A   1      31.691  25.887  24.875  1.00  0.00     0.162 A 
BRANCH  10  12
ATOM     12  C   UNL A   1      29.801  26.905  23.550  1.00  0.00     0.004 A 
ATOM     13  C   UNL A   1      28.424  26.884  23.832  1.00  0.00     0.010 A 
ATOM     14  C   UNL A   1      30.342  28.001  22.875  1.00  0.00     0.010 A 
ATOM     15  C   UNL A   1      27.598  27.925  23.405  1.00  0.00     0.001 A 
ATOM     16  C   UNL A   1      29.511  29.038  22.442  1.00  0.00     0.001 A 
ATOM     17  C   UNL A   1      28.140  28.997  22.701  1.00  0.00     0.000 A 
ENDBRANCH  10  12
BRANCH  11  18
ATOM     18  C   UNL A   1      32.220  26.892  25.769  1.00  0.00     0.020 A 
ATOM     19  C   UNL A   1      33.546  27.325  25.649  1.00  0.00     0.012 A 
ATOM     20  C   UNL A   1      31.398  27.463  26.748  1.00  0.00     0.012 A 
ATOM     21  C   UNL A   1      34.037  28.325  26.490  1.00  0.00     0.001 A 
ATOM     22  C   UNL A   1      31.893  28.452  27.597  1.00  0.00     0.001 A 
ATOM     23  C   UNL A   1      33.211  28.885  27.464  1.00  0.00     0.000 A 
ENDBRANCH  11  18
ENDBRANCH   6   7
ENDBRANCH   5   6
ENDBRANCH   3   5
ENDBRANCH   2   3
ENDBRANCH   1   2
BRANCH   1  24
ATOM     24  C   UNL A   1      36.958  20.671  25.195  1.00  0.00     0.275 C 
BRANCH  24  25
ATOM     25  O   UNL A   1      38.144  21.467  25.080  1.00  0.00    -0.458 OA
BRANCH  25  26
ATOM     26  C   UNL A   1      39.150  21.103  25.910  1.00  0.00     0.338 C 
ATOM     27  O   UNL A   1      39.642  19.992  26.020  1.00  0.00    -0.246 OA
BRANCH  26  28
ATOM     28  C   UNL A   1      39.703  22.310  26.559  1.00  0.00     0.060 A 
ATOM     29  C   UNL A   1      39.176  23.553  26.183  1.00  0.00     0.016 A 
ATOM     30  C   UNL A   1      40.715  22.228  27.519  1.00  0.00     0.016 A 
ATOM     31  C   UNL A   1      39.698  24.724  26.729  1.00  0.00     0.010 A 
ATOM     32  C   UNL A   1      41.238  23.400  28.063  1.00  0.00     0.010 A 
ATOM     33  C   UNL A   1      40.757  24.652  27.641  1.00  0.00    -0.014 A 
BRANCH  33  34
ATOM     34  C   UNL A   1      41.502  25.870  28.028  1.00  0.00     0.031 A 
ATOM     35  C   UNL A   1      40.759  26.956  28.753  1.00  0.00     0.074 A 
ATOM     36  C   UNL A   1      42.786  26.041  27.675  1.00  0.00     0.049 A 
ATOM     37  N   UNL A   1      41.163  28.148  29.097  1.00  0.00    -0.248 NA
ATOM     38  C   UNL A   1      39.364  26.658  29.123  1.00  0.00     0.031 C 
ATOM     39  C   UNL A   1      43.600  25.065  26.953  1.00  0.00     0.029 A 
ATOM     40  N   UNL A   1      43.613  27.123  27.836  1.00  0.00    -0.354 N 
ATOM     41  C   UNL A   1      40.065  28.759  29.690  1.00  0.00     0.074 A 
ATOM     42  C   UNL A   1      38.975  27.808  29.652  1.00  0.00     0.031 C 
ATOM     43  C   UNL A   1      44.797  25.613  26.687  1.00  0.00     0.029 A 
ATOM     44  C   UNL A   1      44.824  26.983  27.200  1.00  0.00     0.049 A 
ATOM     45  H   UNL A   1      43.364  27.921  28.354  1.00  0.00     0.167 HD
ATOM     46  C   UNL A   1      39.975  29.997  30.230  1.00  0.00     0.034 A 
ATOM     47  C   UNL A   1      45.824  27.870  27.029  1.00  0.00     0.034 A 
ATOM     48  C   UNL A   1      41.063  30.932  30.279  1.00  0.00     0.049 A 
ATOM     49  C   UNL A   1      45.706  29.243  27.637  1.00  0.00     0.074 A 
ATOM     50  C   UNL A   1      41.095  32.184  30.863  1.00  0.00     0.029 A 
ATOM     51  N   UNL A   1      42.306  30.724  29.704  1.00  0.00    -0.354 N 
ATOM     52  N   UNL A   1      44.716  29.757  28.327  1.00  0.00    -0.248 NA
ATOM     53  C   UNL A   1      46.854  30.147  27.476  1.00  0.00     0.031 C 
ATOM     54  C   UNL A   1      42.354  32.744  30.621  1.00  0.00     0.029 A 
ATOM     55  C   UNL A   1      43.113  31.829  29.908  1.00  0.00     0.049 A 
ATOM     56  H   UNL A   1      42.578  29.908  29.222  1.00  0.00     0.167 HD
ATOM     57  C   UNL A   1      45.133  31.026  28.713  1.00  0.00     0.074 A 
ATOM     58  C   UNL A   1      46.472  31.201  28.187  1.00  0.00     0.031 C 
ATOM     59  C   UNL A   1      44.466  31.965  29.430  1.00  0.00     0.034 A 
BRANCH  46  60
ATOM     60  C   UNL A   1      38.651  30.391  30.827  1.00  0.00     0.023 A 
ATOM     61  C   UNL A   1      38.333  29.987  32.140  1.00  0.00     0.012 A 
ATOM     62  C   UNL A   1      37.731  31.168  30.098  1.00  0.00     0.148 A 
ATOM     63  C   UNL A   1      37.101  30.317  32.703  1.00  0.00     0.002 A 
ATOM     64  C   UNL A   1      36.523  31.528  30.682  1.00  0.00     0.091 A 
ATOM     65  F   UNL A   1      38.038  31.515  28.840  1.00  0.00    -0.205 F 
ATOM     66  C   UNL A   1      36.201  31.093  31.979  1.00  0.00     0.022 A 
BRANCH  64  67
ATOM     67  S   UNL A   1      35.337  32.586  29.846  1.00  0.00     0.127 S 
ATOM     68  O   UNL A   1      34.923  31.740  28.728  1.00  0.00    -0.237 OA
ATOM     69  O   UNL A   1      34.313  32.783  30.873  1.00  0.00    -0.237 OA
ATOM     70  O   UNL A   1      36.071  33.792  29.489  1.00  0.00    -0.744 OA
ENDBRANCH  64  67
ENDBRANCH  46  60
BRANCH  47  71
ATOM     71  C   UNL A   1      47.041  27.462  26.274  1.00  0.00     0.023 A 
ATOM     72  C   UNL A   1      48.023  26.680  26.912  1.00  0.00     0.012 A 
ATOM     73  C   UNL A   1      47.201  27.793  24.914  1.00  0.00     0.148 A 
ATOM     74  C   UNL A   1      49.153  26.251  26.215  1.00  0.00     0.002 A 
ATOM     75  C   UNL A   1      48.302  27.319  24.211  1.00  0.00     0.091 A 
ATOM     76  F   UNL A   1      46.257  28.544  24.331  1.00  0.00    -0.205 F 
ATOM     77  C   UNL A   1      49.286  26.559  24.863  1.00  0.00     0.022 A 
BRANCH  75  78
ATOM     78  S   UNL A   1      48.498  27.556  22.442  1.00  0.00     0.127 S 
ATOM     79  O   UNL A   1      49.772  28.267  22.374  1.00  0.00    -0.237 OA
ATOM     80  O   UNL A   1      48.536  26.176  21.957  1.00  0.00    -0.237 OA
ATOM     81  O   UNL A   1      47.331  28.315  22.011  1.00  0.00    -0.744 OA
ENDBRANCH  75  78
ENDBRANCH  47  71
BRANCH  59  82
ATOM     82  C   UNL A   1      45.171  33.260  29.735  1.00  0.00     0.023 A 
ATOM     83  C   UNL A   1      45.976  33.366  30.885  1.00  0.00     0.012 A 
ATOM     84  C   UNL A   1      45.129  34.330  28.818  1.00  0.00     0.148 A 
ATOM     85  C   UNL A   1      46.717  34.522  31.127  1.00  0.00     0.002 A 
ATOM     86  C   UNL A   1      45.905  35.461  29.042  1.00  0.00     0.091 A 
ATOM     87  F   UNL A   1      44.341  34.216  27.739  1.00  0.00    -0.205 F 
ATOM     88  C   UNL A   1      46.693  35.563  30.200  1.00  0.00     0.022 A 
BRANCH  86  89
ATOM     89  S   UNL A   1      46.014  36.805  27.853  1.00  0.00     0.127 S 
ATOM     90  O   UNL A   1      45.965  36.083  26.583  1.00  0.00    -0.237 OA
ATOM     91  O   UNL A   1      44.814  37.587  28.157  1.00  0.00    -0.237 OA
ATOM     92  O   UNL A   1      47.268  37.490  28.135  1.00  0.00    -0.744 OA
ENDBRANCH  86  89
ENDBRANCH  59  82
ENDBRANCH  33  34
ENDBRANCH  26  28
ENDBRANCH  25  26
ENDBRANCH  24  25
ENDBRANCH   1  24
TORSDOF 18
ENDMDL
MODEL 3
REMARK VINA RESULT:     -10.3      4.482     10.880
REMARK SMILES O=C(CCc1nc(-c2ccccc2)c(-c2ccccc2)o1)OCCOC(=O)c1ccc(-c2c3nc(c(-c4cccc(S(=O)(=O)[O-])c4F)c4ccc([nH]4)c(-c4cccc(S(=O)(=O)[O-])c4F)c4nc(c(-c5cccc(S(=O)(=O)[O-])c5F)c5ccc2[nH]5)C=C4)C=C3)cc1
REMARK SMILES IDX 23 1 22 2 2 3 1 4 3 5 4 6 5 7 6 8 21 9 7 10 14 11 8 12 9 13
REMARK SMILES IDX 13 14 10 15 12 16 11 17 15 18 16 19 20 20 17 21 19 22 18 23
REMARK SMILES IDX 24 24 25 25 26 26 27 27 28 28 29 29 90 30 30 31 89 32 31 33
REMARK SMILES IDX 32 34 33 35 83 36 34 37 88 38 82 39 84 40 35 41 87 42 81 43
REMARK SMILES IDX 80 44 36 46 68 47 48 48 67 49 49 50 52 51 66 52 85 53 50 54
REMARK SMILES IDX 51 55 65 57 86 58 53 59 37 60 38 61 46 62 39 63 41 64 47 65
REMARK SMILES IDX 40 66 42 67 43 68 44 69 45 70 69 71 70 72 78 73 71 74 73 75
REMARK SMILES IDX 79 76 72 77 74 78 75 79 76 80 77 81 54 82 55 83 63 84 56 85
REMARK SMILES IDX 58 86 64 87 57 88 59 89 60 90 61 91 62 92
REMARK H PARENT 84 45 52 56
REMARK Flexibility Score: inf
ROOT
ATOM      1  C   UNL A   1      31.504  29.273  25.028  1.00  0.00     0.274 C 
ENDROOT
BRANCH   1   2
ATOM      2  O   UNL A   1      31.621  27.836  25.031  1.00  0.00    -0.462 OA
BRANCH   2   3
ATOM      3  C   UNL A   1      30.961  27.048  25.915  1.00  0.00     0.306 C 
ATOM      4  O   UNL A   1      31.106  27.221  27.124  1.00  0.00    -0.252 OA
BRANCH   3   5
ATOM      5  C   UNL A   1      30.143  25.888  25.390  1.00  0.00     0.132 C 
BRANCH   5   6
ATOM      6  C   UNL A   1      30.334  24.624  26.221  1.00  0.00     0.109 C 
BRANCH   6   7
ATOM      7  C   UNL A   1      31.240  23.681  25.520  1.00  0.00     0.196 A 
ATOM      8  N   UNL A   1      30.976  22.468  25.074  1.00  0.00    -0.213 NA
ATOM      9  O   UNL A   1      32.564  24.017  25.507  1.00  0.00    -0.440 OA
ATOM     10  C   UNL A   1      32.217  21.950  24.786  1.00  0.00     0.117 A 
ATOM     11  C   UNL A   1      33.186  22.907  25.010  1.00  0.00     0.162 A 
BRANCH  10  12
ATOM     12  C   UNL A   1      32.449  20.567  24.424  1.00  0.00     0.004 A 
ATOM     13  C   UNL A   1      32.900  19.646  25.384  1.00  0.00     0.010 A 
ATOM     14  C   UNL A   1      32.212  20.129  23.119  1.00  0.00     0.010 A 
ATOM     15  C   UNL A   1      33.151  18.319  25.031  1.00  0.00     0.001 A 
ATOM     16  C   UNL A   1      32.470  18.802  22.766  1.00  0.00     0.001 A 
ATOM     17  C   UNL A   1      32.945  17.900  23.719  1.00  0.00     0.000 A 
ENDBRANCH  10  12
BRANCH  11  18
ATOM     18  C   UNL A   1      34.623  22.986  24.873  1.00  0.00     0.020 A 
ATOM     19  C   UNL A   1      35.227  22.855  23.617  1.00  0.00     0.012 A 
ATOM     20  C   UNL A   1      35.422  23.222  25.999  1.00  0.00     0.012 A 
ATOM     21  C   UNL A   1      36.612  22.971  23.489  1.00  0.00     0.001 A 
ATOM     22  C   UNL A   1      36.806  23.325  25.872  1.00  0.00     0.001 A 
ATOM     23  C   UNL A   1      37.400  23.203  24.616  1.00  0.00     0.000 A 
ENDBRANCH  11  18
ENDBRANCH   6   7
ENDBRANCH   5   6
ENDBRANCH   3   5
ENDBRANCH   2   3
ENDBRANCH   1   2
BRANCH   1  24
ATOM     24  C   UNL A   1      32.726  29.978  25.612  1.00  0.00     0.275 C 
BRANCH  24  25
ATOM     25  O   UNL A   1      32.430  30.479  26.921  1.00  0.00    -0.458 OA
BRANCH  25  26
ATOM     26  C   UNL A   1      33.063  31.634  27.239  1.00  0.00     0.338 C 
ATOM     27  O   UNL A   1      32.580  32.754  27.251  1.00  0.00    -0.246 OA
BRANCH  26  28
ATOM     28  C   UNL A   1      34.412  31.320  27.752  1.00  0.00     0.060 A 
ATOM     29  C   UNL A   1      34.706  29.981  28.042  1.00  0.00     0.016 A 
ATOM     30  C   UNL A   1      35.374  32.316  27.942  1.00  0.00     0.016 A 
ATOM     31  C   UNL A   1      35.948  29.640  28.575  1.00  0.00     0.010 A 
ATOM     32  C   UNL A   1      36.615  31.973  28.477  1.00  0.00     0.010 A 
ATOM     33  C   UNL A   1      36.891  30.641  28.831  1.00  0.00    -0.014 A 
BRANCH  33  34
ATOM     34  C   UNL A   1      38.099  30.350  29.634  1.00  0.00     0.031 A 
ATOM     35  C   UNL A   1      39.081  29.347  29.101  1.00  0.00     0.074 A 
ATOM     36  C   UNL A   1      38.278  30.905  30.844  1.00  0.00     0.049 A 
ATOM     37  N   UNL A   1      40.147  28.851  29.668  1.00  0.00    -0.248 NA
ATOM     38  C   UNL A   1      38.811  28.820  27.752  1.00  0.00     0.031 C 
ATOM     39  C   UNL A   1      37.381  31.874  31.469  1.00  0.00     0.029 A 
ATOM     40  N   UNL A   1      39.256  30.690  31.781  1.00  0.00    -0.354 N 
ATOM     41  C   UNL A   1      40.656  27.928  28.763  1.00  0.00     0.074 A 
ATOM     42  C   UNL A   1      39.777  27.926  27.614  1.00  0.00     0.031 C 
ATOM     43  C   UNL A   1      37.822  32.133  32.712  1.00  0.00     0.029 A 
ATOM     44  C   UNL A   1      39.018  31.332  32.973  1.00  0.00     0.049 A 
ATOM     45  H   UNL A   1      40.048  30.131  31.617  1.00  0.00     0.167 HD
ATOM     46  C   UNL A   1      41.764  27.158  28.873  1.00  0.00     0.034 A 
ATOM     47  C   UNL A   1      39.675  31.256  34.148  1.00  0.00     0.034 A 
ATOM     48  C   UNL A   1      42.641  27.173  30.009  1.00  0.00     0.049 A 
ATOM     49  C   UNL A   1      40.906  30.394  34.252  1.00  0.00     0.074 A 
ATOM     50  C   UNL A   1      43.825  26.482  30.190  1.00  0.00     0.029 A 
ATOM     51  N   UNL A   1      42.420  27.903  31.166  1.00  0.00    -0.354 N 
ATOM     52  N   UNL A   1      41.462  29.637  33.336  1.00  0.00    -0.248 NA
ATOM     53  C   UNL A   1      41.621  30.400  35.537  1.00  0.00     0.031 C 
ATOM     54  C   UNL A   1      44.309  26.778  31.469  1.00  0.00     0.029 A 
ATOM     55  C   UNL A   1      43.439  27.672  32.074  1.00  0.00     0.049 A 
ATOM     56  H   UNL A   1      41.652  28.500  31.319  1.00  0.00     0.167 HD
ATOM     57  C   UNL A   1      42.609  29.108  33.918  1.00  0.00     0.074 A 
ATOM     58  C   UNL A   1      42.673  29.638  35.266  1.00  0.00     0.031 C 
ATOM     59  C   UNL A   1      43.521  28.254  33.389  1.00  0.00     0.034 A 
BRANCH  46  60
ATOM     60  C   UNL A   1      42.088  26.252  27.717  1.00  0.00     0.023 A 
ATOM     61  C   UNL A   1      42.816  26.757  26.620  1.00  0.00     0.012 A 
ATOM     62  C   UNL A   1      41.687  24.903  27.719  1.00  0.00     0.148 A 
ATOM     63  C   UNL A   1      43.104  25.944  25.525  1.00  0.00     0.002 A 
ATOM     64  C   UNL A   1      42.014  24.087  26.643  1.00  0.00     0.091 A 
ATOM     65  F   UNL A   1      40.968  24.448  28.756  1.00  0.00    -0.205 F 
ATOM     66  C   UNL A   1      42.711  24.608  25.540  1.00  0.00     0.022 A 
BRANCH  64  67
ATOM     67  S   UNL A   1      41.609  22.338  26.614  1.00  0.00     0.127 S 
ATOM     68  O   UNL A   1      42.251  21.905  25.375  1.00  0.00    -0.237 OA
ATOM     69  O   UNL A   1      42.248  21.847  27.835  1.00  0.00    -0.237 OA
ATOM     70  O   UNL A   1      40.154  22.272  26.629  1.00  0.00    -0.744 OA
ENDBRANCH  64  67
ENDBRANCH  46  60
BRANCH  47  71
ATOM     71  C   UNL A   1      39.192  32.056  35.308  1.00  0.00     0.023 A 
ATOM     72  C   UNL A   1      38.283  31.481  36.215  1.00  0.00     0.012 A 
ATOM     73  C   UNL A   1      39.675  33.357  35.547  1.00  0.00     0.148 A 
ATOM     74  C   UNL A   1      37.847  32.196  37.333  1.00  0.00     0.002 A 
ATOM     75  C   UNL A   1      39.278  34.044  36.688  1.00  0.00     0.091 A 
ATOM     76  F   UNL A   1      40.534  33.885  34.664  1.00  0.00    -0.205 F 
ATOM     77  C   UNL A   1      38.353  33.470  37.575  1.00  0.00     0.022 A 
BRANCH  75  78
ATOM     78  S   UNL A   1      39.970  35.635  37.152  1.00  0.00     0.127 S 
ATOM     79  O   UNL A   1      41.385  35.312  37.308  1.00  0.00    -0.237 OA
ATOM     80  O   UNL A   1      39.650  36.452  35.980  1.00  0.00    -0.237 OA
ATOM     81  O   UNL A   1      39.277  36.030  38.371  1.00  0.00    -0.744 OA
ENDBRANCH  75  78
ENDBRANCH  47  71
BRANCH  59  82
ATOM     82  C   UNL A   1      44.700  27.857  34.239  1.00  0.00     0.023 A 
ATOM     83  C   UNL A   1      45.857  28.659  34.249  1.00  0.00     0.012 A 
ATOM     84  C   UNL A   1      44.611  26.757  35.114  1.00  0.00     0.148 A 
ATOM     85  C   UNL A   1      46.916  28.362  35.108  1.00  0.00     0.002 A 
ATOM     86  C   UNL A   1      45.651  26.494  35.999  1.00  0.00     0.091 A 
ATOM     87  F   UNL A   1      43.508  25.995  35.075  1.00  0.00    -0.205 F 
ATOM     88  C   UNL A   1      46.807  27.290  35.992  1.00  0.00     0.022 A 
BRANCH  86  89
ATOM     89  S   UNL A   1      45.554  25.197  37.240  1.00  0.00     0.127 S 
ATOM     90  O   UNL A   1      44.358  25.588  37.986  1.00  0.00    -0.237 OA
ATOM     91  O   UNL A   1      45.395  23.994  36.421  1.00  0.00    -0.237 OA
ATOM     92  O   UNL A   1      46.803  25.259  37.986  1.00  0.00    -0.744 OA
ENDBRANCH  86  89
ENDBRANCH  59  82
ENDBRANCH  33  34
ENDBRANCH  26  28
ENDBRANCH  25  26
ENDBRANCH  24  25
ENDBRANCH   1  24
TORSDOF 18
ENDMDL
