MODEL 1
REMARK VINA RESULT:     -11.7      0.000      0.000
REMARK SMILES C[C@@H]1[C@@H](C(=O)OCCOC(=O)c2ccc(-c3c4nc(c(-c5cccc(S(=O)(=O)[O-])c5F)c5ccc([nH]5)c(-c5cccc(S(=O)(=O)[O-])c5F)c5nc(c(-c6cccc(S(=O)(=O)[O-])c6F)c6ccc3[nH]6)C=C5)C=C4)cc2)CCN1c1nc2sccn2c1[N+](=O)[O-]
REMARK SMILES IDX 8 1 7 2 6 3 4 4 5 5 3 6 1 7 2 8 77 9 75 10 76 11 78 12 79 13
REMARK SMILES IDX 85 14 80 15 84 16 81 17 83 18 82 19 86 20 87 21 88 22 9 23
REMARK SMILES IDX 10 24 11 25 12 26 13 27 74 28 14 29 73 30 15 31 16 32 17 33
REMARK SMILES IDX 67 34 18 35 72 36 66 37 68 38 19 39 71 40 65 41 64 42 20 44
REMARK SMILES IDX 52 45 32 46 51 47 33 48 36 49 50 50 69 51 34 52 35 53 49 55
REMARK SMILES IDX 70 56 37 57 21 58 22 59 30 60 23 61 25 62 31 63 24 64 26 65
REMARK SMILES IDX 27 66 28 67 29 68 53 69 54 70 62 71 55 72 57 73 63 74 56 75
REMARK SMILES IDX 58 76 59 77 60 78 61 79 38 80 39 81 47 82 40 83 42 84 48 85
REMARK SMILES IDX 41 86 43 87 44 88 45 89 46 90
REMARK H PARENT 68 43 36 54
REMARK Flexibility Score: inf
ROOT
ATOM      1  C   UNL A   1      36.054  20.826  25.236  1.00  0.00     0.275 C 
ENDROOT
BRANCH   1   2
ATOM      2  C   UNL A   1      34.786  21.677  25.303  1.00  0.00     0.274 C 
BRANCH   2   3
ATOM      3  O   UNL A   1      34.293  21.993  23.985  1.00  0.00    -0.462 OA
BRANCH   3   4
ATOM      4  C   UNL A   1      34.384  23.306  23.620  1.00  0.00     0.311 C 
ATOM      5  O   UNL A   1      35.182  24.099  24.096  1.00  0.00    -0.252 OA
BRANCH   4   6
ATOM      6  C   UNL A   1      33.339  23.640  22.564  1.00  0.00     0.123 C 
ATOM      7  C   UNL A   1      32.651  25.581  21.066  1.00  0.00     0.032 C 
ATOM      8  C   UNL A   1      33.130  25.159  22.455  1.00  0.00     0.095 C 
ATOM      9  N   UNL A   1      32.104  25.463  23.474  1.00  0.00    -0.346 N 
ATOM     10  C   UNL A   1      31.963  23.150  22.992  1.00  0.00     0.039 C 
ATOM     11  C   UNL A   1      31.506  24.233  23.977  1.00  0.00     0.119 C 
BRANCH   9  12
ATOM     12  C   UNL A   1      32.186  26.646  24.140  1.00  0.00     0.229 A 
ATOM     13  N   UNL A   1      33.132  26.729  25.151  1.00  0.00    -0.173 NA
ATOM     14  C   UNL A   1      31.501  27.845  24.035  1.00  0.00     0.373 A 
ATOM     15  C   UNL A   1      32.951  27.911  25.662  1.00  0.00     0.286 A 
ATOM     16  N   UNL A   1      31.965  28.628  25.056  1.00  0.00    -0.166 N 
ATOM     17  S   UNL A   1      33.652  28.777  26.991  1.00  0.00    -0.078 S 
ATOM     18  C   UNL A   1      31.709  29.859  25.631  1.00  0.00     0.220 A 
ATOM     19  C   UNL A   1      32.513  30.095  26.683  1.00  0.00     0.114 A 
BRANCH  14  20
ATOM     20  N   UNL A   1      30.504  28.329  23.167  1.00  0.00    -0.023 N 
ATOM     21  O   UNL A   1      29.348  27.924  23.318  1.00  0.00    -0.358 OA
ATOM     22  O   UNL A   1      30.862  29.154  22.316  1.00  0.00    -0.358 OA
ENDBRANCH  14  20
ENDBRANCH   9  12
ENDBRANCH   4   6
ENDBRANCH   3   4
ENDBRANCH   2   3
ENDBRANCH   1   2
BRANCH   1  23
ATOM     23  O   UNL A   1      37.214  21.659  25.066  1.00  0.00    -0.458 OA
BRANCH  23  24
ATOM     24  C   UNL A   1      38.343  21.225  25.668  1.00  0.00     0.338 C 
ATOM     25  O   UNL A   1      38.814  20.097  25.644  1.00  0.00    -0.246 OA
BRANCH  24  26
ATOM     26  C   UNL A   1      39.031  22.367  26.283  1.00  0.00     0.060 A 
ATOM     27  C   UNL A   1      38.512  23.637  26.046  1.00  0.00     0.016 A 
ATOM     28  C   UNL A   1      40.222  22.214  26.986  1.00  0.00     0.016 A 
ATOM     29  C   UNL A   1      39.184  24.774  26.485  1.00  0.00     0.010 A 
ATOM     30  C   UNL A   1      40.885  23.355  27.458  1.00  0.00     0.010 A 
ATOM     31  C   UNL A   1      40.385  24.645  27.191  1.00  0.00    -0.014 A 
BRANCH  31  32
ATOM     32  C   UNL A   1      41.154  25.856  27.586  1.00  0.00     0.031 A 
ATOM     33  C   UNL A   1      40.499  26.911  28.435  1.00  0.00     0.074 A 
ATOM     34  C   UNL A   1      42.435  26.012  27.197  1.00  0.00     0.049 A 
ATOM     35  N   UNL A   1      40.937  28.098  28.765  1.00  0.00    -0.248 NA
ATOM     36  C   UNL A   1      39.168  26.589  28.978  1.00  0.00     0.031 C 
ATOM     37  C   UNL A   1      43.205  25.048  26.411  1.00  0.00     0.029 A 
ATOM     38  N   UNL A   1      43.313  27.049  27.406  1.00  0.00    -0.354 N 
ATOM     39  C   UNL A   1      39.914  28.690  29.498  1.00  0.00     0.074 A 
ATOM     40  C   UNL A   1      38.836  27.728  29.574  1.00  0.00     0.031 C 
ATOM     41  C   UNL A   1      44.441  25.533  26.211  1.00  0.00     0.029 A 
ATOM     42  C   UNL A   1      44.537  26.863  26.806  1.00  0.00     0.049 A 
ATOM     43  H   UNL A   1      43.087  27.848  27.934  1.00  0.00     0.167 HD
ATOM     44  C   UNL A   1      39.880  29.919  30.064  1.00  0.00     0.034 A 
ATOM     45  C   UNL A   1      45.606  27.679  26.725  1.00  0.00     0.034 A 
ATOM     46  C   UNL A   1      40.976  30.849  30.048  1.00  0.00     0.049 A 
ATOM     47  C   UNL A   1      45.541  29.039  27.367  1.00  0.00     0.074 A 
ATOM     48  C   UNL A   1      41.039  32.116  30.604  1.00  0.00     0.029 A 
ATOM     49  N   UNL A   1      42.211  30.607  29.466  1.00  0.00    -0.354 N 
ATOM     50  N   UNL A   1      44.579  29.573  28.079  1.00  0.00    -0.248 NA
ATOM     51  C   UNL A   1      46.715  29.910  27.200  1.00  0.00     0.031 C 
ATOM     52  C   UNL A   1      42.312  32.639  30.356  1.00  0.00     0.029 A 
ATOM     53  C   UNL A   1      43.044  31.697  29.652  1.00  0.00     0.049 A 
ATOM     54  H   UNL A   1      42.458  29.782  28.990  1.00  0.00     0.167 HD
ATOM     55  C   UNL A   1      45.037  30.827  28.464  1.00  0.00     0.074 A 
ATOM     56  C   UNL A   1      46.377  30.965  27.930  1.00  0.00     0.031 C 
ATOM     57  C   UNL A   1      44.397  31.792  29.170  1.00  0.00     0.034 A 
BRANCH  44  58
ATOM     58  C   UNL A   1      38.618  30.323  30.777  1.00  0.00     0.023 A 
ATOM     59  C   UNL A   1      38.455  30.004  32.139  1.00  0.00     0.012 A 
ATOM     60  C   UNL A   1      37.618  31.063  30.113  1.00  0.00     0.148 A 
ATOM     61  C   UNL A   1      37.305  30.393  32.825  1.00  0.00     0.002 A 
ATOM     62  C   UNL A   1      36.491  31.478  30.813  1.00  0.00     0.091 A 
ATOM     63  F   UNL A   1      37.780  31.332  28.810  1.00  0.00    -0.205 F 
ATOM     64  C   UNL A   1      36.330  31.137  32.166  1.00  0.00     0.022 A 
BRANCH  62  65
ATOM     65  S   UNL A   1      35.215  32.498  30.066  1.00  0.00     0.127 S 
ATOM     66  O   UNL A   1      34.303  32.703  31.190  1.00  0.00    -0.237 OA
ATOM     67  O   UNL A   1      35.963  33.689  29.663  1.00  0.00    -0.237 OA
ATOM     68  O   UNL A   1      34.681  31.717  28.957  1.00  0.00    -0.744 OA
ENDBRANCH  62  65
ENDBRANCH  44  58
BRANCH  45  69
ATOM     69  C   UNL A   1      46.848  27.218  26.038  1.00  0.00     0.023 A 
ATOM     70  C   UNL A   1      47.011  27.482  24.664  1.00  0.00     0.012 A 
ATOM     71  C   UNL A   1      47.874  26.549  26.733  1.00  0.00     0.148 A 
ATOM     72  C   UNL A   1      48.159  27.067  23.990  1.00  0.00     0.002 A 
ATOM     73  C   UNL A   1      49.044  26.195  26.068  1.00  0.00     0.091 A 
ATOM     74  F   UNL A   1      47.693  26.275  28.033  1.00  0.00    -0.205 F 
ATOM     75  C   UNL A   1      49.181  26.437  24.694  1.00  0.00     0.022 A 
BRANCH  73  76
ATOM     76  S   UNL A   1      50.465  25.524  26.939  1.00  0.00     0.127 S 
ATOM     77  O   UNL A   1      51.425  25.342  25.855  1.00  0.00    -0.237 OA
ATOM     78  O   UNL A   1      50.788  26.602  27.876  1.00  0.00    -0.237 OA
ATOM     79  O   UNL A   1      49.982  24.308  27.581  1.00  0.00    -0.744 OA
ENDBRANCH  73  76
ENDBRANCH  45  69
BRANCH  57  80
ATOM     80  C   UNL A   1      45.139  33.076  29.427  1.00  0.00     0.023 A 
ATOM     81  C   UNL A   1      45.926  33.197  30.589  1.00  0.00     0.012 A 
ATOM     82  C   UNL A   1      45.123  34.125  28.489  1.00  0.00     0.148 A 
ATOM     83  C   UNL A   1      46.668  34.353  30.826  1.00  0.00     0.002 A 
ATOM     84  C   UNL A   1      45.896  35.260  28.711  1.00  0.00     0.091 A 
ATOM     85  F   UNL A   1      44.352  33.999  27.399  1.00  0.00    -0.205 F 
ATOM     86  C   UNL A   1      46.662  35.379  29.882  1.00  0.00     0.022 A 
BRANCH  84  87
ATOM     87  S   UNL A   1      46.013  36.590  27.509  1.00  0.00     0.127 S 
ATOM     88  O   UNL A   1      44.650  37.119  27.516  1.00  0.00    -0.237 OA
ATOM     89  O   UNL A   1      47.011  37.473  28.113  1.00  0.00    -0.237 OA
ATOM     90  O   UNL A   1      46.440  35.964  26.265  1.00  0.00    -0.744 OA
ENDBRANCH  84  87
ENDBRANCH  57  80
ENDBRANCH  31  32
ENDBRANCH  24  26
ENDBRANCH  23  24
ENDBRANCH   1  23
TORSDOF 16
ENDMDL
MODEL 2
REMARK VINA RESULT:     -11.7      1.545      1.976
REMARK SMILES C[C@@H]1[C@@H](C(=O)OCCOC(=O)c2ccc(-c3c4nc(c(-c5cccc(S(=O)(=O)[O-])c5F)c5ccc([nH]5)c(-c5cccc(S(=O)(=O)[O-])c5F)c5nc(c(-c6cccc(S(=O)(=O)[O-])c6F)c6ccc3[nH]6)C=C5)C=C4)cc2)CCN1c1nc2sccn2c1[N+](=O)[O-]
REMARK SMILES IDX 8 1 7 2 6 3 4 4 5 5 3 6 1 7 2 8 77 9 75 10 76 11 78 12 79 13
REMARK SMILES IDX 85 14 80 15 84 16 81 17 83 18 82 19 86 20 87 21 88 22 9 23
REMARK SMILES IDX 10 24 11 25 12 26 13 27 74 28 14 29 73 30 15 31 16 32 17 33
REMARK SMILES IDX 67 34 18 35 72 36 66 37 68 38 19 39 71 40 65 41 64 42 20 44
REMARK SMILES IDX 52 45 32 46 51 47 33 48 36 49 50 50 69 51 34 52 35 53 49 55
REMARK SMILES IDX 70 56 37 57 21 58 22 59 30 60 23 61 25 62 31 63 24 64 26 65
REMARK SMILES IDX 27 66 28 67 29 68 53 69 54 70 62 71 55 72 57 73 63 74 56 75
REMARK SMILES IDX 58 76 59 77 60 78 61 79 38 80 39 81 47 82 40 83 42 84 48 85
REMARK SMILES IDX 41 86 43 87 44 88 45 89 46 90
REMARK H PARENT 68 43 36 54
REMARK Flexibility Score: inf
ROOT
ATOM      1  C   UNL A   1      37.323  20.150  25.010  1.00  0.00     0.275 C 
ENDROOT
BRANCH   1   2
ATOM      2  C   UNL A   1      35.823  20.430  24.955  1.00  0.00     0.274 C 
BRANCH   2   3
ATOM      3  O   UNL A   1      35.466  21.556  25.785  1.00  0.00    -0.462 OA
BRANCH   3   4
ATOM      4  C   UNL A   1      34.155  21.618  26.162  1.00  0.00     0.311 C 
ATOM      5  O   UNL A   1      33.774  21.667  27.323  1.00  0.00    -0.252 OA
BRANCH   4   6
ATOM      6  C   UNL A   1      33.246  21.592  24.941  1.00  0.00     0.123 C 
ATOM      7  C   UNL A   1      33.057  22.673  22.644  1.00  0.00     0.032 C 
ATOM      8  C   UNL A   1      33.384  22.885  24.121  1.00  0.00     0.095 C 
ATOM      9  N   UNL A   1      32.418  23.817  24.739  1.00  0.00    -0.346 N 
ATOM     10  C   UNL A   1      31.782  21.623  25.358  1.00  0.00     0.039 C 
ATOM     11  C   UNL A   1      31.546  23.106  25.665  1.00  0.00     0.119 C 
BRANCH   9  12
ATOM     12  C   UNL A   1      32.740  25.137  24.793  1.00  0.00     0.229 A 
ATOM     13  N   UNL A   1      33.014  25.663  26.047  1.00  0.00    -0.173 NA
ATOM     14  C   UNL A   1      32.856  26.126  23.831  1.00  0.00     0.373 A 
ATOM     15  C   UNL A   1      33.211  26.929  25.828  1.00  0.00     0.286 A 
ATOM     16  N   UNL A   1      33.105  27.283  24.517  1.00  0.00    -0.166 N 
ATOM     17  S   UNL A   1      33.532  28.300  26.841  1.00  0.00    -0.078 S 
ATOM     18  C   UNL A   1      33.240  28.637  24.273  1.00  0.00     0.220 A 
ATOM     19  C   UNL A   1      33.463  29.329  25.404  1.00  0.00     0.114 A 
BRANCH  14  20
ATOM     20  N   UNL A   1      32.752  26.143  22.428  1.00  0.00    -0.023 N 
ATOM     21  O   UNL A   1      31.630  26.249  21.925  1.00  0.00    -0.358 OA
ATOM     22  O   UNL A   1      33.811  26.070  21.791  1.00  0.00    -0.358 OA
ENDBRANCH  14  20
ENDBRANCH   9  12
ENDBRANCH   4   6
ENDBRANCH   3   4
ENDBRANCH   2   3
ENDBRANCH   1   2
BRANCH   1  23
ATOM     23  O   UNL A   1      38.032  21.287  25.532  1.00  0.00    -0.458 OA
BRANCH  23  24
ATOM     24  C   UNL A   1      39.226  21.023  26.106  1.00  0.00     0.338 C 
ATOM     25  O   UNL A   1      39.846  19.969  26.087  1.00  0.00    -0.246 OA
BRANCH  24  26
ATOM     26  C   UNL A   1      39.769  22.260  26.681  1.00  0.00     0.060 A 
ATOM     27  C   UNL A   1      39.296  23.468  26.176  1.00  0.00     0.016 A 
ATOM     28  C   UNL A   1      40.800  22.245  27.617  1.00  0.00     0.016 A 
ATOM     29  C   UNL A   1      39.858  24.677  26.577  1.00  0.00     0.010 A 
ATOM     30  C   UNL A   1      41.346  23.461  28.047  1.00  0.00     0.010 A 
ATOM     31  C   UNL A   1      40.897  24.686  27.514  1.00  0.00    -0.014 A 
BRANCH  31  32
ATOM     32  C   UNL A   1      41.562  25.965  27.881  1.00  0.00     0.031 A 
ATOM     33  C   UNL A   1      40.790  27.018  28.630  1.00  0.00     0.074 A 
ATOM     34  C   UNL A   1      42.851  26.185  27.556  1.00  0.00     0.049 A 
ATOM     35  N   UNL A   1      41.131  28.247  28.915  1.00  0.00    -0.248 NA
ATOM     36  C   UNL A   1      39.453  26.637  29.115  1.00  0.00     0.031 C 
ATOM     37  C   UNL A   1      43.727  25.235  26.872  1.00  0.00     0.029 A 
ATOM     38  N   UNL A   1      43.647  27.288  27.755  1.00  0.00    -0.354 N 
ATOM     39  C   UNL A   1      40.031  28.807  29.554  1.00  0.00     0.074 A 
ATOM     40  C   UNL A   1      39.014  27.781  29.624  1.00  0.00     0.031 C 
ATOM     41  C   UNL A   1      44.939  25.790  26.714  1.00  0.00     0.029 A 
ATOM     42  C   UNL A   1      44.914  27.153  27.237  1.00  0.00     0.049 A 
ATOM     43  H   UNL A   1      43.339  28.098  28.222  1.00  0.00     0.167 HD
ATOM     44  C   UNL A   1      39.884  30.061  30.045  1.00  0.00     0.034 A 
ATOM     45  C   UNL A   1      45.932  28.034  27.169  1.00  0.00     0.034 A 
ATOM     46  C   UNL A   1      40.917  31.060  30.038  1.00  0.00     0.049 A 
ATOM     47  C   UNL A   1      45.742  29.419  27.727  1.00  0.00     0.074 A 
ATOM     48  C   UNL A   1      40.866  32.356  30.522  1.00  0.00     0.029 A 
ATOM     49  N   UNL A   1      42.198  30.870  29.541  1.00  0.00    -0.354 N 
ATOM     50  N   UNL A   1      44.706  29.924  28.352  1.00  0.00    -0.248 NA
ATOM     51  C   UNL A   1      46.866  30.356  27.577  1.00  0.00     0.031 C 
ATOM     52  C   UNL A   1      42.115  32.950  30.317  1.00  0.00     0.029 A 
ATOM     53  C   UNL A   1      42.947  32.022  29.711  1.00  0.00     0.049 A 
ATOM     54  H   UNL A   1      42.525  30.039  29.128  1.00  0.00     0.167 HD
ATOM     55  C   UNL A   1      45.059  31.226  28.689  1.00  0.00     0.074 A 
ATOM     56  C   UNL A   1      46.417  31.424  28.224  1.00  0.00     0.031 C 
ATOM     57  C   UNL A   1      44.317  32.182  29.301  1.00  0.00     0.034 A 
BRANCH  44  58
ATOM     58  C   UNL A   1      38.558  30.416  30.661  1.00  0.00     0.023 A 
ATOM     59  C   UNL A   1      38.308  30.095  32.010  1.00  0.00     0.012 A 
ATOM     60  C   UNL A   1      37.582  31.114  29.922  1.00  0.00     0.148 A 
ATOM     61  C   UNL A   1      37.097  30.441  32.608  1.00  0.00     0.002 A 
ATOM     62  C   UNL A   1      36.390  31.486  30.535  1.00  0.00     0.091 A 
ATOM     63  F   UNL A   1      37.828  31.385  28.633  1.00  0.00    -0.205 F 
ATOM     64  C   UNL A   1      36.144  31.144  31.874  1.00  0.00     0.022 A 
BRANCH  62  65
ATOM     65  S   UNL A   1      35.134  32.452  29.690  1.00  0.00     0.127 S 
ATOM     66  O   UNL A   1      34.177  32.703  30.767  1.00  0.00    -0.237 OA
ATOM     67  O   UNL A   1      35.885  33.631  29.257  1.00  0.00    -0.237 OA
ATOM     68  O   UNL A   1      34.651  31.612  28.602  1.00  0.00    -0.744 OA
ENDBRANCH  62  65
ENDBRANCH  44  58
BRANCH  45  69
ATOM     69  C   UNL A   1      47.240  27.621  26.581  1.00  0.00     0.023 A 
ATOM     70  C   UNL A   1      48.239  27.100  27.425  1.00  0.00     0.012 A 
ATOM     71  C   UNL A   1      47.492  27.714  25.198  1.00  0.00     0.148 A 
ATOM     72  C   UNL A   1      49.472  26.703  26.910  1.00  0.00     0.002 A 
ATOM     73  C   UNL A   1      48.701  27.256  24.683  1.00  0.00     0.091 A 
ATOM     74  F   UNL A   1      46.546  28.241  24.409  1.00  0.00    -0.205 F 
ATOM     75  C   UNL A   1      49.698  26.768  25.538  1.00  0.00     0.022 A 
BRANCH  73  76
ATOM     76  S   UNL A   1      49.004  27.162  22.914  1.00  0.00     0.127 S 
ATOM     77  O   UNL A   1      50.460  27.083  22.861  1.00  0.00    -0.237 OA
ATOM     78  O   UNL A   1      48.305  25.928  22.549  1.00  0.00    -0.237 OA
ATOM     79  O   UNL A   1      48.405  28.368  22.357  1.00  0.00    -0.744 OA
ENDBRANCH  73  76
ENDBRANCH  45  69
BRANCH  57  80
ATOM     80  C   UNL A   1      44.959  33.525  29.525  1.00  0.00     0.023 A 
ATOM     81  C   UNL A   1      45.692  33.750  30.707  1.00  0.00     0.012 A 
ATOM     82  C   UNL A   1      44.905  34.530  28.540  1.00  0.00     0.148 A 
ATOM     83  C   UNL A   1      46.344  34.965  30.916  1.00  0.00     0.002 A 
ATOM     84  C   UNL A   1      45.590  35.724  28.737  1.00  0.00     0.091 A 
ATOM     85  F   UNL A   1      44.186  34.303  27.432  1.00  0.00    -0.205 F 
ATOM     86  C   UNL A   1      46.302  35.947  29.928  1.00  0.00     0.022 A 
BRANCH  84  87
ATOM     87  S   UNL A   1      45.658  37.007  27.482  1.00  0.00     0.127 S 
ATOM     88  O   UNL A   1      46.303  36.306  26.373  1.00  0.00    -0.237 OA
ATOM     89  O   UNL A   1      44.243  37.314  27.268  1.00  0.00    -0.237 OA
ATOM     90  O   UNL A   1      46.426  38.097  28.070  1.00  0.00    -0.744 OA
ENDBRANCH  84  87
ENDBRANCH  57  80
ENDBRANCH  31  32
ENDBRANCH  24  26
ENDBRANCH  23  24
ENDBRANCH   1  23
TORSDOF 16
ENDMDL
MODEL 3
REMARK VINA RESULT:     -11.4      4.816      9.925
REMARK SMILES C[C@@H]1[C@@H](C(=O)OCCOC(=O)c2ccc(-c3c4nc(c(-c5cccc(S(=O)(=O)[O-])c5F)c5ccc([nH]5)c(-c5cccc(S(=O)(=O)[O-])c5F)c5nc(c(-c6cccc(S(=O)(=O)[O-])c6F)c6ccc3[nH]6)C=C5)C=C4)cc2)CCN1c1nc2sccn2c1[N+](=O)[O-]
REMARK SMILES IDX 8 1 7 2 6 3 4 4 5 5 3 6 1 7 2 8 77 9 75 10 76 11 78 12 79 13
REMARK SMILES IDX 85 14 80 15 84 16 81 17 83 18 82 19 86 20 87 21 88 22 9 23
REMARK SMILES IDX 10 24 11 25 12 26 13 27 74 28 14 29 73 30 15 31 16 32 17 33
REMARK SMILES IDX 67 34 18 35 72 36 66 37 68 38 19 39 71 40 65 41 64 42 20 44
REMARK SMILES IDX 52 45 32 46 51 47 33 48 36 49 50 50 69 51 34 52 35 53 49 55
REMARK SMILES IDX 70 56 37 57 21 58 22 59 30 60 23 61 25 62 31 63 24 64 26 65
REMARK SMILES IDX 27 66 28 67 29 68 53 69 54 70 62 71 55 72 57 73 63 74 56 75
REMARK SMILES IDX 58 76 59 77 60 78 61 79 38 80 39 81 47 82 40 83 42 84 48 85
REMARK SMILES IDX 41 86 43 87 44 88 45 89 46 90
REMARK H PARENT 68 43 36 54
REMARK Flexibility Score: inf
ROOT
ATOM      1  C   UNL A   1      31.609  29.806  25.757  1.00  0.00     0.275 C 
ENDROOT
BRANCH   1   2
ATOM      2  C   UNL A   1      31.423  29.067  24.433  1.00  0.00     0.274 C 
BRANCH   2   3
ATOM      3  O   UNL A   1      32.226  27.869  24.381  1.00  0.00    -0.462 OA
BRANCH   3   4
ATOM      4  C   UNL A   1      31.754  26.877  23.570  1.00  0.00     0.311 C 
ATOM      5  O   UNL A   1      32.096  26.717  22.407  1.00  0.00    -0.252 OA
BRANCH   4   6
ATOM      6  C   UNL A   1      30.730  26.025  24.307  1.00  0.00     0.123 C 
ATOM      7  C   UNL A   1      30.514  24.692  26.466  1.00  0.00     0.032 C 
ATOM      8  C   UNL A   1      31.417  25.063  25.290  1.00  0.00     0.095 C 
ATOM      9  N   UNL A   1      31.728  23.868  24.477  1.00  0.00    -0.346 N 
ATOM     10  C   UNL A   1      30.030  25.071  23.349  1.00  0.00     0.039 C 
ATOM     11  C   UNL A   1      31.052  23.939  23.188  1.00  0.00     0.119 C 
BRANCH   9  12
ATOM     12  C   UNL A   1      32.874  23.186  24.745  1.00  0.00     0.229 A 
ATOM     13  N   UNL A   1      33.957  23.932  25.183  1.00  0.00    -0.173 NA
ATOM     14  C   UNL A   1      33.221  21.848  24.671  1.00  0.00     0.373 A 
ATOM     15  C   UNL A   1      34.921  23.066  25.290  1.00  0.00     0.286 A 
ATOM     16  N   UNL A   1      34.555  21.794  24.970  1.00  0.00    -0.166 N 
ATOM     17  S   UNL A   1      36.603  23.167  25.701  1.00  0.00    -0.078 S 
ATOM     18  C   UNL A   1      35.584  20.871  25.008  1.00  0.00     0.220 A 
ATOM     19  C   UNL A   1      36.749  21.436  25.370  1.00  0.00     0.114 A 
BRANCH  14  20
ATOM     20  N   UNL A   1      32.518  20.671  24.353  1.00  0.00    -0.023 N 
ATOM     21  O   UNL A   1      32.157  19.936  25.277  1.00  0.00    -0.358 OA
ATOM     22  O   UNL A   1      32.292  20.465  23.154  1.00  0.00    -0.358 OA
ENDBRANCH  14  20
ENDBRANCH   9  12
ENDBRANCH   4   6
ENDBRANCH   3   4
ENDBRANCH   2   3
ENDBRANCH   1   2
BRANCH   1  23
ATOM     23  O   UNL A   1      32.953  30.304  25.874  1.00  0.00    -0.458 OA
BRANCH  23  24
ATOM     24  C   UNL A   1      33.165  31.197  26.866  1.00  0.00     0.338 C 
ATOM     25  O   UNL A   1      32.383  32.032  27.297  1.00  0.00    -0.246 OA
BRANCH  24  26
ATOM     26  C   UNL A   1      34.476  30.939  27.474  1.00  0.00     0.060 A 
ATOM     27  C   UNL A   1      34.773  29.628  27.835  1.00  0.00     0.016 A 
ATOM     28  C   UNL A   1      35.356  31.971  27.788  1.00  0.00     0.016 A 
ATOM     29  C   UNL A   1      35.939  29.328  28.535  1.00  0.00     0.010 A 
ATOM     30  C   UNL A   1      36.546  31.670  28.463  1.00  0.00     0.010 A 
ATOM     31  C   UNL A   1      36.837  30.350  28.864  1.00  0.00    -0.014 A 
BRANCH  31  32
ATOM     32  C   UNL A   1      38.039  30.053  29.687  1.00  0.00     0.031 A 
ATOM     33  C   UNL A   1      39.122  29.167  29.132  1.00  0.00     0.074 A 
ATOM     34  C   UNL A   1      38.172  30.577  30.921  1.00  0.00     0.049 A 
ATOM     35  N   UNL A   1      40.171  28.668  29.732  1.00  0.00    -0.248 NA
ATOM     36  C   UNL A   1      39.001  28.785  27.715  1.00  0.00     0.031 C 
ATOM     37  C   UNL A   1      37.223  31.486  31.563  1.00  0.00     0.029 A 
ATOM     38  N   UNL A   1      39.162  30.412  31.861  1.00  0.00    -0.354 N 
ATOM     39  C   UNL A   1      40.800  27.863  28.789  1.00  0.00     0.074 A 
ATOM     40  C   UNL A   1      40.021  27.948  27.573  1.00  0.00     0.031 C 
ATOM     41  C   UNL A   1      37.677  31.804  32.786  1.00  0.00     0.029 A 
ATOM     42  C   UNL A   1      38.921  31.084  33.038  1.00  0.00     0.049 A 
ATOM     43  H   UNL A   1      39.965  29.865  31.708  1.00  0.00     0.167 HD
ATOM     44  C   UNL A   1      41.930  27.128  28.921  1.00  0.00     0.034 A 
ATOM     45  C   UNL A   1      39.611  31.099  34.195  1.00  0.00     0.034 A 
ATOM     46  C   UNL A   1      42.742  27.098  30.106  1.00  0.00     0.049 A 
ATOM     47  C   UNL A   1      40.865  30.274  34.313  1.00  0.00     0.074 A 
ATOM     48  C   UNL A   1      43.911  26.390  30.331  1.00  0.00     0.029 A 
ATOM     49  N   UNL A   1      42.487  27.822  31.260  1.00  0.00    -0.354 N 
ATOM     50  N   UNL A   1      41.462  29.541  33.404  1.00  0.00    -0.248 NA
ATOM     51  C   UNL A   1      41.548  30.284  35.615  1.00  0.00     0.031 C 
ATOM     52  C   UNL A   1      44.360  26.687  31.622  1.00  0.00     0.029 A 
ATOM     53  C   UNL A   1      43.476  27.584  32.198  1.00  0.00     0.049 A 
ATOM     54  H   UNL A   1      41.714  28.418  31.392  1.00  0.00     0.167 HD
ATOM     55  C   UNL A   1      42.597  29.023  34.014  1.00  0.00     0.074 A 
ATOM     56  C   UNL A   1      42.623  29.548  35.365  1.00  0.00     0.031 C 
ATOM     57  C   UNL A   1      43.521  28.165  33.514  1.00  0.00     0.034 A 
BRANCH  44  58
ATOM     58  C   UNL A   1      42.371  26.312  27.737  1.00  0.00     0.023 A 
ATOM     59  C   UNL A   1      43.248  26.876  26.790  1.00  0.00     0.012 A 
ATOM     60  C   UNL A   1      41.961  24.971  27.590  1.00  0.00     0.148 A 
ATOM     61  C   UNL A   1      43.692  26.127  25.700  1.00  0.00     0.002 A 
ATOM     62  C   UNL A   1      42.436  24.219  26.521  1.00  0.00     0.091 A 
ATOM     63  F   UNL A   1      41.105  24.462  28.487  1.00  0.00    -0.205 F 
ATOM     64  C   UNL A   1      43.294  24.798  25.572  1.00  0.00     0.022 A 
BRANCH  62  65
ATOM     65  S   UNL A   1      42.032  22.482  26.311  1.00  0.00     0.127 S 
ATOM     66  O   UNL A   1      42.504  21.913  27.573  1.00  0.00    -0.237 OA
ATOM     67  O   UNL A   1      40.577  22.516  26.165  1.00  0.00    -0.237 OA
ATOM     68  O   UNL A   1      42.748  22.048  25.118  1.00  0.00    -0.744 OA
ENDBRANCH  62  65
ENDBRANCH  44  58
BRANCH  45  69
ATOM     69  C   UNL A   1      39.151  31.954  35.328  1.00  0.00     0.023 A 
ATOM     70  C   UNL A   1      38.233  31.427  36.257  1.00  0.00     0.012 A 
ATOM     71  C   UNL A   1      39.631  33.265  35.509  1.00  0.00     0.148 A 
ATOM     72  C   UNL A   1      37.783  32.197  37.330  1.00  0.00     0.002 A 
ATOM     73  C   UNL A   1      39.227  34.004  36.616  1.00  0.00     0.091 A 
ATOM     74  F   UNL A   1      40.480  33.767  34.600  1.00  0.00    -0.205 F 
ATOM     75  C   UNL A   1      38.289  33.479  37.517  1.00  0.00     0.022 A 
BRANCH  73  76
ATOM     76  S   UNL A   1      39.954  35.600  37.010  1.00  0.00     0.127 S 
ATOM     77  O   UNL A   1      39.280  35.939  38.259  1.00  0.00    -0.237 OA
ATOM     78  O   UNL A   1      41.373  35.265  37.145  1.00  0.00    -0.237 OA
ATOM     79  O   UNL A   1      39.653  36.451  35.865  1.00  0.00    -0.744 OA
ENDBRANCH  73  76
ENDBRANCH  45  69
BRANCH  57  80
ATOM     80  C   UNL A   1      44.651  27.753  34.419  1.00  0.00     0.023 A 
ATOM     81  C   UNL A   1      45.814  28.546  34.474  1.00  0.00     0.012 A 
ATOM     82  C   UNL A   1      44.533  26.635  35.267  1.00  0.00     0.148 A 
ATOM     83  C   UNL A   1      46.854  28.219  35.344  1.00  0.00     0.002 A 
ATOM     84  C   UNL A   1      45.557  26.338  36.160  1.00  0.00     0.091 A 
ATOM     85  F   UNL A   1      43.427  25.882  35.185  1.00  0.00    -0.205 F 
ATOM     86  C   UNL A   1      46.721  27.123  36.194  1.00  0.00     0.022 A 
BRANCH  84  87
ATOM     87  S   UNL A   1      45.431  24.996  37.348  1.00  0.00     0.127 S 
ATOM     88  O   UNL A   1      45.375  23.826  36.472  1.00  0.00    -0.237 OA
ATOM     89  O   UNL A   1      46.675  25.129  38.107  1.00  0.00    -0.237 OA
ATOM     90  O   UNL A   1      44.226  25.262  38.121  1.00  0.00    -0.744 OA
ENDBRANCH  84  87
ENDBRANCH  57  80
ENDBRANCH  31  32
ENDBRANCH  24  26
ENDBRANCH  23  24
ENDBRANCH   1  23
TORSDOF 16
ENDMDL
