MODEL 1
REMARK VINA RESULT:     -11.8      0.000      0.000
REMARK SMILES O=C1CN(S(=O)(=O)c2ccc(CC(=O)OCCOC(=O)c3ccc(-c4c5nc(c(-c6cccc(S(=O)(=O)[O-])c6F)c6ccc([nH]6)c(-c6cccc(S(=O)(=O)[O-])c6F)c6nc(c(-c7cccc(S(=O)(=O)[O-])c7F)c7ccc4[nH]7)C=C6)C=C5)cc3)cc2)CCN1
REMARK SMILES IDX 16 1 15 2 13 3 14 4 12 5 11 6 8 7 9 8 85 9 10 10 84 11 5 12
REMARK SMILES IDX 6 13 7 14 4 15 1 16 2 17 3 18 88 19 87 20 86 22 17 23 18 24
REMARK SMILES IDX 19 25 20 26 21 27 22 28 83 29 23 30 82 31 24 32 25 33 26 34
REMARK SMILES IDX 76 35 27 36 81 37 75 38 77 39 28 40 80 41 74 42 73 43 29 45
REMARK SMILES IDX 61 46 41 47 60 48 42 49 45 50 59 51 78 52 43 53 44 54 58 56
REMARK SMILES IDX 79 57 46 58 30 59 31 60 39 61 32 62 34 63 40 64 33 65 35 66
REMARK SMILES IDX 36 67 37 68 38 69 62 70 63 71 71 72 64 73 66 74 72 75 65 76
REMARK SMILES IDX 67 77 68 78 69 79 70 80 47 81 48 82 56 83 49 84 51 85 57 86
REMARK SMILES IDX 50 87 52 88 53 89 54 90 55 91
REMARK H PARENT 88 21 77 44 45 55
REMARK Flexibility Score: inf
ROOT
ATOM      1  C   UNL A   1      31.237  29.856  24.581  1.00  0.00     0.274 C 
ENDROOT
BRANCH   1   2
ATOM      2  O   UNL A   1      29.962  29.972  23.917  1.00  0.00    -0.462 OA
BRANCH   2   3
ATOM      3  C   UNL A   1      29.766  29.147  22.855  1.00  0.00     0.310 C 
ATOM      4  O   UNL A   1      29.865  29.494  21.682  1.00  0.00    -0.252 OA
BRANCH   3   5
ATOM      5  C   UNL A   1      29.348  27.742  23.227  1.00  0.00     0.158 C 
BRANCH   5   6
ATOM      6  C   UNL A   1      30.445  26.752  23.534  1.00  0.00    -0.037 A 
ATOM      7  C   UNL A   1      32.491  24.941  24.157  1.00  0.00     0.082 A 
ATOM      8  C   UNL A   1      32.323  25.363  22.837  1.00  0.00     0.022 A 
ATOM      9  C   UNL A   1      31.656  25.432  25.166  1.00  0.00     0.022 A 
ATOM     10  C   UNL A   1      31.299  26.265  22.531  1.00  0.00     0.006 A 
ATOM     11  C   UNL A   1      30.627  26.317  24.853  1.00  0.00     0.006 A 
BRANCH   7  12
ATOM     12  S   UNL A   1      33.892  23.955  24.616  1.00  0.00     0.243 S 
ATOM     13  O   UNL A   1      34.348  24.444  25.903  1.00  0.00    -0.207 OA
ATOM     14  O   UNL A   1      34.806  23.899  23.498  1.00  0.00    -0.207 OA
BRANCH  12  15
ATOM     15  N   UNL A   1      33.289  22.363  24.836  1.00  0.00    -0.187 NA
ATOM     16  O   UNL A   1      32.929  22.334  28.454  1.00  0.00    -0.274 OA
ATOM     17  C   UNL A   1      33.372  22.051  27.342  1.00  0.00     0.235 C 
ATOM     18  C   UNL A   1      32.518  22.108  26.083  1.00  0.00     0.202 C 
ATOM     19  N   UNL A   1      34.644  21.548  27.208  1.00  0.00    -0.354 N 
ATOM     20  C   UNL A   1      35.315  21.368  25.929  1.00  0.00     0.132 C 
ATOM     21  H   UNL A   1      35.129  21.294  28.026  1.00  0.00     0.163 HD
ATOM     22  C   UNL A   1      34.361  21.315  24.724  1.00  0.00     0.124 C 
ENDBRANCH  12  15
ENDBRANCH   7  12
ENDBRANCH   5   6
ENDBRANCH   3   5
ENDBRANCH   2   3
ENDBRANCH   1   2
BRANCH   1  23
ATOM     23  C   UNL A   1      31.327  30.779  25.796  1.00  0.00     0.275 C 
BRANCH  23  24
ATOM     24  O   UNL A   1      32.530  30.532  26.542  1.00  0.00    -0.458 OA
BRANCH  24  25
ATOM     25  C   UNL A   1      33.079  31.626  27.114  1.00  0.00     0.338 C 
ATOM     26  O   UNL A   1      32.570  32.723  27.264  1.00  0.00    -0.246 OA
BRANCH  25  27
ATOM     27  C   UNL A   1      34.421  31.310  27.614  1.00  0.00     0.060 A 
ATOM     28  C   UNL A   1      34.733  29.988  27.936  1.00  0.00     0.016 A 
ATOM     29  C   UNL A   1      35.310  32.342  27.905  1.00  0.00     0.016 A 
ATOM     30  C   UNL A   1      35.916  29.695  28.606  1.00  0.00     0.010 A 
ATOM     31  C   UNL A   1      36.522  32.039  28.526  1.00  0.00     0.010 A 
ATOM     32  C   UNL A   1      36.822  30.718  28.909  1.00  0.00    -0.014 A 
BRANCH  32  33
ATOM     33  C   UNL A   1      38.076  30.427  29.648  1.00  0.00     0.031 A 
ATOM     34  C   UNL A   1      39.087  29.482  29.060  1.00  0.00     0.074 A 
ATOM     35  C   UNL A   1      38.280  30.973  30.861  1.00  0.00     0.049 A 
ATOM     36  N   UNL A   1      40.155  28.968  29.611  1.00  0.00    -0.248 NA
ATOM     37  C   UNL A   1      38.861  29.048  27.671  1.00  0.00     0.031 C 
ATOM     38  C   UNL A   1      37.380  31.918  31.526  1.00  0.00     0.029 A 
ATOM     39  N   UNL A   1      39.295  30.786  31.766  1.00  0.00    -0.354 N 
ATOM     40  C   UNL A   1      40.701  28.113  28.660  1.00  0.00     0.074 A 
ATOM     41  C   UNL A   1      39.843  28.175  27.496  1.00  0.00     0.031 C 
ATOM     42  C   UNL A   1      37.872  32.212  32.740  1.00  0.00     0.029 A 
ATOM     43  C   UNL A   1      39.086  31.435  32.961  1.00  0.00     0.049 A 
ATOM     44  H   UNL A   1      40.094  30.242  31.578  1.00  0.00     0.167 HD
ATOM     45  C   UNL A   1      41.820  27.355  28.746  1.00  0.00     0.034 A 
ATOM     46  C   UNL A   1      39.771  31.374  34.119  1.00  0.00     0.034 A 
ATOM     47  C   UNL A   1      42.683  27.324  29.897  1.00  0.00     0.049 A 
ATOM     48  C   UNL A   1      40.991  30.497  34.198  1.00  0.00     0.074 A 
ATOM     49  C   UNL A   1      43.857  26.614  30.074  1.00  0.00     0.029 A 
ATOM     50  N   UNL A   1      42.466  28.035  31.068  1.00  0.00    -0.354 N 
ATOM     51  N   UNL A   1      41.534  29.751  33.267  1.00  0.00    -0.248 NA
ATOM     52  C   UNL A   1      41.709  30.475  35.480  1.00  0.00     0.031 C 
ATOM     53  C   UNL A   1      44.335  26.876  31.362  1.00  0.00     0.029 A 
ATOM     54  C   UNL A   1      43.480  27.778  31.973  1.00  0.00     0.049 A 
ATOM     55  H   UNL A   1      41.702  28.635  31.232  1.00  0.00     0.167 HD
ATOM     56  C   UNL A   1      42.680  29.207  33.834  1.00  0.00     0.074 A 
ATOM     57  C   UNL A   1      42.761  29.721  35.186  1.00  0.00     0.031 C 
ATOM     58  C   UNL A   1      43.580  28.351  33.291  1.00  0.00     0.034 A 
BRANCH  45  59
ATOM     59  C   UNL A   1      42.192  26.509  27.555  1.00  0.00     0.023 A 
ATOM     60  C   UNL A   1      42.947  27.074  26.506  1.00  0.00     0.012 A 
ATOM     61  C   UNL A   1      41.853  25.143  27.502  1.00  0.00     0.148 A 
ATOM     62  C   UNL A   1      43.328  26.301  25.409  1.00  0.00     0.002 A 
ATOM     63  C   UNL A   1      42.275  24.368  26.428  1.00  0.00     0.091 A 
ATOM     64  F   UNL A   1      41.120  24.628  28.500  1.00  0.00    -0.205 F 
ATOM     65  C   UNL A   1      43.002  24.947  25.376  1.00  0.00     0.022 A 
BRANCH  63  66
ATOM     66  S   UNL A   1      41.977  22.599  26.329  1.00  0.00     0.127 S 
ATOM     67  O   UNL A   1      40.516  22.543  26.364  1.00  0.00    -0.237 OA
ATOM     68  O   UNL A   1      42.569  22.260  25.035  1.00  0.00    -0.237 OA
ATOM     69  O   UNL A   1      42.650  22.011  27.480  1.00  0.00    -0.744 OA
ENDBRANCH  63  66
ENDBRANCH  45  59
BRANCH  46  70
ATOM     70  C   UNL A   1      39.334  32.183  35.292  1.00  0.00     0.023 A 
ATOM     71  C   UNL A   1      38.443  31.618  36.226  1.00  0.00     0.012 A 
ATOM     72  C   UNL A   1      39.796  33.498  35.495  1.00  0.00     0.148 A 
ATOM     73  C   UNL A   1      37.990  32.359  37.316  1.00  0.00     0.002 A 
ATOM     74  C   UNL A   1      39.386  34.211  36.614  1.00  0.00     0.091 A 
ATOM     75  F   UNL A   1      40.633  34.024  34.589  1.00  0.00    -0.205 F 
ATOM     76  C   UNL A   1      38.467  33.651  37.517  1.00  0.00     0.022 A 
BRANCH  74  77
ATOM     77  S   UNL A   1      40.045  35.832  37.020  1.00  0.00     0.127 S 
ATOM     78  O   UNL A   1      41.472  35.548  37.157  1.00  0.00    -0.237 OA
ATOM     79  O   UNL A   1      39.683  36.611  35.835  1.00  0.00    -0.237 OA
ATOM     80  O   UNL A   1      39.361  36.241  38.239  1.00  0.00    -0.744 OA
ENDBRANCH  74  77
ENDBRANCH  46  70
BRANCH  58  81
ATOM     81  C   UNL A   1      44.770  27.964  34.129  1.00  0.00     0.023 A 
ATOM     82  C   UNL A   1      45.932  28.761  34.119  1.00  0.00     0.012 A 
ATOM     83  C   UNL A   1      44.704  26.847  34.985  1.00  0.00     0.148 A 
ATOM     84  C   UNL A   1      47.022  28.432  34.924  1.00  0.00     0.002 A 
ATOM     85  C   UNL A   1      45.773  26.557  35.823  1.00  0.00     0.091 A 
ATOM     86  F   UNL A   1      43.596  26.092  34.965  1.00  0.00    -0.205 F 
ATOM     87  C   UNL A   1      46.938  27.340  35.785  1.00  0.00     0.022 A 
BRANCH  85  88
ATOM     88  S   UNL A   1      45.715  25.231  37.034  1.00  0.00     0.127 S 
ATOM     89  O   UNL A   1      44.560  25.617  37.844  1.00  0.00    -0.237 OA
ATOM     90  O   UNL A   1      45.503  24.053  36.192  1.00  0.00    -0.237 OA
ATOM     91  O   UNL A   1      46.998  25.258  37.724  1.00  0.00    -0.744 OA
ENDBRANCH  85  88
ENDBRANCH  58  81
ENDBRANCH  32  33
ENDBRANCH  25  27
ENDBRANCH  24  25
ENDBRANCH  23  24
ENDBRANCH   1  23
TORSDOF 17
ENDMDL
MODEL 2
REMARK VINA RESULT:     -11.8      4.877     10.085
REMARK SMILES O=C1CN(S(=O)(=O)c2ccc(CC(=O)OCCOC(=O)c3ccc(-c4c5nc(c(-c6cccc(S(=O)(=O)[O-])c6F)c6ccc([nH]6)c(-c6cccc(S(=O)(=O)[O-])c6F)c6nc(c(-c7cccc(S(=O)(=O)[O-])c7F)c7ccc4[nH]7)C=C6)C=C5)cc3)cc2)CCN1
REMARK SMILES IDX 16 1 15 2 13 3 14 4 12 5 11 6 8 7 9 8 85 9 10 10 84 11 5 12
REMARK SMILES IDX 6 13 7 14 4 15 1 16 2 17 3 18 88 19 87 20 86 22 17 23 18 24
REMARK SMILES IDX 19 25 20 26 21 27 22 28 83 29 23 30 82 31 24 32 25 33 26 34
REMARK SMILES IDX 76 35 27 36 81 37 75 38 77 39 28 40 80 41 74 42 73 43 29 45
REMARK SMILES IDX 61 46 41 47 60 48 42 49 45 50 59 51 78 52 43 53 44 54 58 56
REMARK SMILES IDX 79 57 46 58 30 59 31 60 39 61 32 62 34 63 40 64 33 65 35 66
REMARK SMILES IDX 36 67 37 68 38 69 62 70 63 71 71 72 64 73 66 74 72 75 65 76
REMARK SMILES IDX 67 77 68 78 69 79 70 80 47 81 48 82 56 83 49 84 51 85 57 86
REMARK SMILES IDX 50 87 52 88 53 89 54 90 55 91
REMARK H PARENT 88 21 77 44 45 55
REMARK Flexibility Score: inf
ROOT
ATOM      1  C   UNL A   1      35.337  20.776  24.660  1.00  0.00     0.274 C 
ENDROOT
BRANCH   1   2
ATOM      2  O   UNL A   1      34.419  19.704  24.956  1.00  0.00    -0.462 OA
BRANCH   2   3
ATOM      3  C   UNL A   1      33.224  20.074  25.489  1.00  0.00     0.310 C 
ATOM      4  O   UNL A   1      32.133  19.731  25.044  1.00  0.00    -0.252 OA
BRANCH   3   5
ATOM      5  C   UNL A   1      33.333  21.013  26.670  1.00  0.00     0.158 C 
BRANCH   5   6
ATOM      6  C   UNL A   1      32.774  22.405  26.500  1.00  0.00    -0.037 A 
ATOM      7  C   UNL A   1      31.696  24.967  26.149  1.00  0.00     0.082 A 
ATOM      8  C   UNL A   1      33.076  24.814  26.282  1.00  0.00     0.022 A 
ATOM      9  C   UNL A   1      30.856  23.849  26.173  1.00  0.00     0.022 A 
ATOM     10  C   UNL A   1      33.610  23.533  26.459  1.00  0.00     0.006 A 
ATOM     11  C   UNL A   1      31.391  22.577  26.366  1.00  0.00     0.006 A 
BRANCH   7  12
ATOM     12  S   UNL A   1      31.000  26.544  25.729  1.00  0.00     0.243 S 
ATOM     13  O   UNL A   1      31.138  27.390  26.899  1.00  0.00    -0.207 OA
ATOM     14  O   UNL A   1      29.698  26.334  25.139  1.00  0.00    -0.207 OA
BRANCH  12  15
ATOM     15  N   UNL A   1      32.001  27.181  24.490  1.00  0.00    -0.187 NA
ATOM     16  O   UNL A   1      33.269  30.140  26.182  1.00  0.00    -0.274 OA
ATOM     17  C   UNL A   1      32.638  29.462  25.373  1.00  0.00     0.235 C 
ATOM     18  C   UNL A   1      33.104  28.084  24.922  1.00  0.00     0.202 C 
ATOM     19  N   UNL A   1      31.533  29.982  24.743  1.00  0.00    -0.354 N 
ATOM     20  C   UNL A   1      30.621  29.197  23.924  1.00  0.00     0.132 C 
ATOM     21  H   UNL A   1      31.347  30.942  24.852  1.00  0.00     0.163 HD
ATOM     22  C   UNL A   1      31.220  27.876  23.411  1.00  0.00     0.124 C 
ENDBRANCH  12  15
ENDBRANCH   7  12
ENDBRANCH   5   6
ENDBRANCH   3   5
ENDBRANCH   2   3
ENDBRANCH   1   2
BRANCH   1  23
ATOM     23  C   UNL A   1      36.774  20.405  25.026  1.00  0.00     0.275 C 
BRANCH  23  24
ATOM     24  O   UNL A   1      37.435  21.498  25.685  1.00  0.00    -0.458 OA
BRANCH  24  25
ATOM     25  C   UNL A   1      38.732  21.274  25.995  1.00  0.00     0.338 C 
ATOM     26  O   UNL A   1      39.386  20.269  25.780  1.00  0.00    -0.246 OA
BRANCH  25  27
ATOM     27  C   UNL A   1      39.313  22.471  26.610  1.00  0.00     0.060 A 
ATOM     28  C   UNL A   1      38.832  23.728  26.240  1.00  0.00     0.016 A 
ATOM     29  C   UNL A   1      40.432  22.351  27.432  1.00  0.00     0.016 A 
ATOM     30  C   UNL A   1      39.503  24.878  26.644  1.00  0.00     0.010 A 
ATOM     31  C   UNL A   1      41.069  23.507  27.883  1.00  0.00     0.010 A 
ATOM     32  C   UNL A   1      40.630  24.778  27.469  1.00  0.00    -0.014 A 
BRANCH  32  33
ATOM     33  C   UNL A   1      41.373  25.993  27.886  1.00  0.00     0.031 A 
ATOM     34  C   UNL A   1      40.666  27.077  28.651  1.00  0.00     0.074 A 
ATOM     35  C   UNL A   1      42.666  26.139  27.538  1.00  0.00     0.049 A 
ATOM     36  N   UNL A   1      41.081  28.277  28.960  1.00  0.00    -0.248 NA
ATOM     37  C   UNL A   1      39.303  26.775  29.122  1.00  0.00     0.031 C 
ATOM     38  C   UNL A   1      43.464  25.149  26.813  1.00  0.00     0.029 A 
ATOM     39  N   UNL A   1      43.526  27.193  27.718  1.00  0.00    -0.354 N 
ATOM     40  C   UNL A   1      40.020  28.892  29.613  1.00  0.00     0.074 A 
ATOM     41  C   UNL A   1      38.937  27.933  29.654  1.00  0.00     0.031 C 
ATOM     42  C   UNL A   1      44.690  25.649  26.592  1.00  0.00     0.029 A 
ATOM     43  C   UNL A   1      44.745  27.013  27.107  1.00  0.00     0.049 A 
ATOM     44  H   UNL A   1      43.294  27.998  28.235  1.00  0.00     0.167 HD
ATOM     45  C   UNL A   1      39.958  30.138  30.140  1.00  0.00     0.034 A 
ATOM     46  C   UNL A   1      45.774  27.866  26.940  1.00  0.00     0.034 A 
ATOM     47  C   UNL A   1      41.052  31.074  30.121  1.00  0.00     0.049 A 
ATOM     48  C   UNL A   1      45.665  29.256  27.506  1.00  0.00     0.074 A 
ATOM     49  C   UNL A   1      41.102  32.350  30.653  1.00  0.00     0.029 A 
ATOM     50  N   UNL A   1      42.287  30.835  29.538  1.00  0.00    -0.354 N 
ATOM     51  N   UNL A   1      44.682  29.798  28.183  1.00  0.00    -0.248 NA
ATOM     52  C   UNL A   1      46.819  30.145  27.306  1.00  0.00     0.031 C 
ATOM     53  C   UNL A   1      42.360  32.891  30.370  1.00  0.00     0.029 A 
ATOM     54  C   UNL A   1      43.105  31.940  29.694  1.00  0.00     0.049 A 
ATOM     55  H   UNL A   1      42.544  30.002  29.081  1.00  0.00     0.167 HD
ATOM     56  C   UNL A   1      45.116  31.072  28.531  1.00  0.00     0.074 A 
ATOM     57  C   UNL A   1      46.456  31.216  28.001  1.00  0.00     0.031 C 
ATOM     58  C   UNL A   1      44.461  32.041  29.217  1.00  0.00     0.034 A 
BRANCH  45  59
ATOM     59  C   UNL A   1      38.672  30.560  30.804  1.00  0.00     0.023 A 
ATOM     60  C   UNL A   1      38.498  30.348  32.187  1.00  0.00     0.012 A 
ATOM     61  C   UNL A   1      37.664  31.223  30.075  1.00  0.00     0.148 A 
ATOM     62  C   UNL A   1      37.328  30.759  32.827  1.00  0.00     0.002 A 
ATOM     63  C   UNL A   1      36.522  31.670  30.728  1.00  0.00     0.091 A 
ATOM     64  F   UNL A   1      37.840  31.400  28.758  1.00  0.00    -0.205 F 
ATOM     65  C   UNL A   1      36.346  31.428  32.100  1.00  0.00     0.022 A 
BRANCH  63  66
ATOM     66  S   UNL A   1      35.235  32.613  29.902  1.00  0.00     0.127 S 
ATOM     67  O   UNL A   1      34.285  32.835  30.991  1.00  0.00    -0.237 OA
ATOM     68  O   UNL A   1      35.960  33.809  29.471  1.00  0.00    -0.237 OA
ATOM     69  O   UNL A   1      34.752  31.770  28.816  1.00  0.00    -0.744 OA
ENDBRANCH  63  66
ENDBRANCH  45  59
BRANCH  46  70
ATOM     70  C   UNL A   1      47.005  27.426  26.226  1.00  0.00     0.023 A 
ATOM     71  C   UNL A   1      47.138  27.698  24.850  1.00  0.00     0.012 A 
ATOM     72  C   UNL A   1      48.044  26.750  26.894  1.00  0.00     0.148 A 
ATOM     73  C   UNL A   1      48.263  27.272  24.145  1.00  0.00     0.002 A 
ATOM     74  C   UNL A   1      49.188  26.378  26.199  1.00  0.00     0.091 A 
ATOM     75  F   UNL A   1      47.894  26.488  28.200  1.00  0.00    -0.205 F 
ATOM     76  C   UNL A   1      49.292  26.621  24.820  1.00  0.00     0.022 A 
BRANCH  74  77
ATOM     77  S   UNL A   1      50.615  25.649  27.010  1.00  0.00     0.127 S 
ATOM     78  O   UNL A   1      51.562  25.534  25.903  1.00  0.00    -0.237 OA
ATOM     79  O   UNL A   1      50.951  26.667  28.006  1.00  0.00    -0.237 OA
ATOM     80  O   UNL A   1      50.146  24.390  27.574  1.00  0.00    -0.744 OA
ENDBRANCH  74  77
ENDBRANCH  46  70
BRANCH  58  81
ATOM     81  C   UNL A   1      45.203  33.320  29.499  1.00  0.00     0.023 A 
ATOM     82  C   UNL A   1      46.002  33.438  30.653  1.00  0.00     0.012 A 
ATOM     83  C   UNL A   1      45.166  34.382  28.572  1.00  0.00     0.148 A 
ATOM     84  C   UNL A   1      46.725  34.604  30.898  1.00  0.00     0.002 A 
ATOM     85  C   UNL A   1      45.931  35.519  28.796  1.00  0.00     0.091 A 
ATOM     86  F   UNL A   1      44.386  34.257  27.489  1.00  0.00    -0.205 F 
ATOM     87  C   UNL A   1      46.700  35.638  29.965  1.00  0.00     0.022 A 
BRANCH  85  88
ATOM     88  S   UNL A   1      46.039  36.857  27.603  1.00  0.00     0.127 S 
ATOM     89  O   UNL A   1      46.552  36.164  26.422  1.00  0.00    -0.237 OA
ATOM     90  O   UNL A   1      44.645  37.291  27.498  1.00  0.00    -0.237 OA
ATOM     91  O   UNL A   1      46.937  37.846  28.185  1.00  0.00    -0.744 OA
ENDBRANCH  85  88
ENDBRANCH  58  81
ENDBRANCH  32  33
ENDBRANCH  25  27
ENDBRANCH  24  25
ENDBRANCH  23  24
ENDBRANCH   1  23
TORSDOF 17
ENDMDL
MODEL 3
REMARK VINA RESULT:     -11.4      5.174      8.401
REMARK SMILES O=C1CN(S(=O)(=O)c2ccc(CC(=O)OCCOC(=O)c3ccc(-c4c5nc(c(-c6cccc(S(=O)(=O)[O-])c6F)c6ccc([nH]6)c(-c6cccc(S(=O)(=O)[O-])c6F)c6nc(c(-c7cccc(S(=O)(=O)[O-])c7F)c7ccc4[nH]7)C=C6)C=C5)cc3)cc2)CCN1
REMARK SMILES IDX 16 1 15 2 13 3 14 4 12 5 11 6 8 7 9 8 85 9 10 10 84 11 5 12
REMARK SMILES IDX 6 13 7 14 4 15 1 16 2 17 3 18 88 19 87 20 86 22 17 23 18 24
REMARK SMILES IDX 19 25 20 26 21 27 22 28 83 29 23 30 82 31 24 32 25 33 26 34
REMARK SMILES IDX 76 35 27 36 81 37 75 38 77 39 28 40 80 41 74 42 73 43 29 45
REMARK SMILES IDX 61 46 41 47 60 48 42 49 45 50 59 51 78 52 43 53 44 54 58 56
REMARK SMILES IDX 79 57 46 58 30 59 31 60 39 61 32 62 34 63 40 64 33 65 35 66
REMARK SMILES IDX 36 67 37 68 38 69 62 70 63 71 71 72 64 73 66 74 72 75 65 76
REMARK SMILES IDX 67 77 68 78 69 79 70 80 47 81 48 82 56 83 49 84 51 85 57 86
REMARK SMILES IDX 50 87 52 88 53 89 54 90 55 91
REMARK H PARENT 88 21 77 44 45 55
REMARK Flexibility Score: inf
ROOT
ATOM      1  C   UNL A   1      37.969  19.871  24.944  1.00  0.00     0.274 C 
ENDROOT
BRANCH   1   2
ATOM      2  O   UNL A   1      37.777  21.277  25.200  1.00  0.00    -0.462 OA
BRANCH   2   3
ATOM      3  C   UNL A   1      36.525  21.757  24.975  1.00  0.00     0.310 C 
ATOM      4  O   UNL A   1      36.024  21.886  23.862  1.00  0.00    -0.252 OA
BRANCH   3   5
ATOM      5  C   UNL A   1      35.790  22.191  26.224  1.00  0.00     0.158 C 
BRANCH   5   6
ATOM      6  C   UNL A   1      34.754  23.278  26.075  1.00  0.00    -0.037 A 
ATOM      7  C   UNL A   1      32.791  25.255  25.781  1.00  0.00     0.082 A 
ATOM      8  C   UNL A   1      34.117  25.551  25.465  1.00  0.00     0.022 A 
ATOM      9  C   UNL A   1      32.439  23.977  26.225  1.00  0.00     0.022 A 
ATOM     10  C   UNL A   1      35.095  24.561  25.615  1.00  0.00     0.006 A 
ATOM     11  C   UNL A   1      33.418  23.000  26.388  1.00  0.00     0.006 A 
BRANCH   7  12
ATOM     12  S   UNL A   1      31.499  26.417  25.421  1.00  0.00     0.243 S 
ATOM     13  O   UNL A   1      32.142  27.640  24.982  1.00  0.00    -0.207 OA
ATOM     14  O   UNL A   1      30.577  26.443  26.534  1.00  0.00    -0.207 OA
BRANCH  12  15
ATOM     15  N   UNL A   1      30.639  25.759  24.090  1.00  0.00    -0.187 NA
ATOM     16  O   UNL A   1      33.079  26.308  21.450  1.00  0.00    -0.274 OA
ATOM     17  C   UNL A   1      32.044  26.436  22.100  1.00  0.00     0.235 C 
ATOM     18  C   UNL A   1      31.454  25.304  22.929  1.00  0.00     0.202 C 
ATOM     19  N   UNL A   1      31.302  27.590  22.006  1.00  0.00    -0.354 N 
ATOM     20  C   UNL A   1      30.178  27.904  22.875  1.00  0.00     0.132 C 
ATOM     21  H   UNL A   1      31.545  28.240  21.309  1.00  0.00     0.163 HD
ATOM     22  C   UNL A   1      29.567  26.680  23.578  1.00  0.00     0.124 C 
ENDBRANCH  12  15
ENDBRANCH   7  12
ENDBRANCH   5   6
ENDBRANCH   3   5
ENDBRANCH   2   3
ENDBRANCH   1   2
BRANCH   1  23
ATOM     23  C   UNL A   1      39.264  19.356  25.571  1.00  0.00     0.275 C 
BRANCH  23  24
ATOM     24  O   UNL A   1      39.534  20.021  26.816  1.00  0.00    -0.458 OA
BRANCH  24  25
ATOM     25  C   UNL A   1      40.838  20.295  27.044  1.00  0.00     0.338 C 
ATOM     26  O   UNL A   1      41.781  19.526  26.988  1.00  0.00    -0.246 OA
BRANCH  25  27
ATOM     27  C   UNL A   1      41.006  21.723  27.332  1.00  0.00     0.060 A 
ATOM     28  C   UNL A   1      40.502  22.663  26.431  1.00  0.00     0.016 A 
ATOM     29  C   UNL A   1      41.793  22.121  28.410  1.00  0.00     0.016 A 
ATOM     30  C   UNL A   1      40.830  24.008  26.570  1.00  0.00     0.010 A 
ATOM     31  C   UNL A   1      42.074  23.478  28.581  1.00  0.00     0.010 A 
ATOM     32  C   UNL A   1      41.621  24.428  27.647  1.00  0.00    -0.014 A 
BRANCH  32  33
ATOM     33  C   UNL A   1      42.004  25.854  27.795  1.00  0.00     0.031 A 
ATOM     34  C   UNL A   1      43.380  26.305  27.390  1.00  0.00     0.074 A 
ATOM     35  C   UNL A   1      41.133  26.728  28.334  1.00  0.00     0.049 A 
ATOM     36  N   UNL A   1      43.965  27.456  27.591  1.00  0.00    -0.248 NA
ATOM     37  C   UNL A   1      44.214  25.326  26.672  1.00  0.00     0.031 C 
ATOM     38  C   UNL A   1      39.765  26.413  28.749  1.00  0.00     0.029 A 
ATOM     39  N   UNL A   1      41.282  28.053  28.658  1.00  0.00    -0.354 N 
ATOM     40  C   UNL A   1      45.249  27.327  27.073  1.00  0.00     0.074 A 
ATOM     41  C   UNL A   1      45.360  25.983  26.551  1.00  0.00     0.031 C 
ATOM     42  C   UNL A   1      39.207  27.507  29.290  1.00  0.00     0.029 A 
ATOM     43  C   UNL A   1      40.194  28.580  29.314  1.00  0.00     0.049 A 
ATOM     44  H   UNL A   1      42.089  28.575  28.442  1.00  0.00     0.167 HD
ATOM     45  C   UNL A   1      46.240  28.249  27.029  1.00  0.00     0.034 A 
ATOM     46  C   UNL A   1      40.027  29.778  29.907  1.00  0.00     0.034 A 
ATOM     47  C   UNL A   1      46.109  29.595  27.524  1.00  0.00     0.049 A 
ATOM     48  C   UNL A   1      41.156  30.771  29.873  1.00  0.00     0.074 A 
ATOM     49  C   UNL A   1      47.042  30.615  27.499  1.00  0.00     0.029 A 
ATOM     50  N   UNL A   1      44.973  30.106  28.134  1.00  0.00    -0.354 N 
ATOM     51  N   UNL A   1      42.339  30.658  29.317  1.00  0.00    -0.248 NA
ATOM     52  C   UNL A   1      40.920  32.067  30.525  1.00  0.00     0.031 C 
ATOM     53  C   UNL A   1      46.479  31.736  28.117  1.00  0.00     0.029 A 
ATOM     54  C   UNL A   1      45.183  31.425  28.493  1.00  0.00     0.049 A 
ATOM     55  H   UNL A   1      44.140  29.604  28.288  1.00  0.00     0.167 HD
ATOM     56  C   UNL A   1      42.969  31.882  29.511  1.00  0.00     0.074 A 
ATOM     57  C   UNL A   1      42.031  32.726  30.224  1.00  0.00     0.031 C 
ATOM     58  C   UNL A   1      44.214  32.271  29.143  1.00  0.00     0.034 A 
BRANCH  45  59
ATOM     59  C   UNL A   1      47.551  27.846  26.404  1.00  0.00     0.023 A 
ATOM     60  C   UNL A   1      48.619  27.433  27.226  1.00  0.00     0.012 A 
ATOM     61  C   UNL A   1      47.707  27.814  25.004  1.00  0.00     0.148 A 
ATOM     62  C   UNL A   1      49.831  27.027  26.667  1.00  0.00     0.002 A 
ATOM     63  C   UNL A   1      48.901  27.366  24.453  1.00  0.00     0.091 A 
ATOM     64  F   UNL A   1      46.687  28.228  24.239  1.00  0.00    -0.205 F 
ATOM     65  C   UNL A   1      49.968  26.983  25.282  1.00  0.00     0.022 A 
BRANCH  63  66
ATOM     66  S   UNL A   1      49.151  27.194  22.682  1.00  0.00     0.127 S 
ATOM     67  O   UNL A   1      50.599  27.006  22.605  1.00  0.00    -0.237 OA
ATOM     68  O   UNL A   1      48.364  26.000  22.375  1.00  0.00    -0.237 OA
ATOM     69  O   UNL A   1      48.650  28.424  22.083  1.00  0.00    -0.744 OA
ENDBRANCH  63  66
ENDBRANCH  45  59
BRANCH  46  70
ATOM     70  C   UNL A   1      38.733  30.115  30.566  1.00  0.00     0.023 A 
ATOM     71  C   UNL A   1      38.486  29.657  31.875  1.00  0.00     0.012 A 
ATOM     72  C   UNL A   1      37.752  30.887  29.913  1.00  0.00     0.148 A 
ATOM     73  C   UNL A   1      37.273  29.928  32.507  1.00  0.00     0.002 A 
ATOM     74  C   UNL A   1      36.569  31.201  30.569  1.00  0.00     0.091 A 
ATOM     75  F   UNL A   1      37.999  31.303  28.663  1.00  0.00    -0.205 F 
ATOM     76  C   UNL A   1      36.318  30.707  31.859  1.00  0.00     0.022 A 
BRANCH  74  77
ATOM     77  S   UNL A   1      35.338  32.302  29.863  1.00  0.00     0.127 S 
ATOM     78  O   UNL A   1      36.146  33.470  29.516  1.00  0.00    -0.237 OA
ATOM     79  O   UNL A   1      34.856  31.525  28.721  1.00  0.00    -0.237 OA
ATOM     80  O   UNL A   1      34.347  32.507  30.911  1.00  0.00    -0.744 OA
ENDBRANCH  74  77
ENDBRANCH  46  70
BRANCH  58  81
ATOM     81  C   UNL A   1      44.619  33.691  29.440  1.00  0.00     0.023 A 
ATOM     82  C   UNL A   1      45.252  34.007  30.659  1.00  0.00     0.012 A 
ATOM     83  C   UNL A   1      44.438  34.699  28.472  1.00  0.00     0.148 A 
ATOM     84  C   UNL A   1      45.668  35.311  30.923  1.00  0.00     0.002 A 
ATOM     85  C   UNL A   1      44.903  35.984  28.720  1.00  0.00     0.091 A 
ATOM     86  F   UNL A   1      43.818  34.381  27.327  1.00  0.00    -0.205 F 
ATOM     87  C   UNL A   1      45.506  36.295  29.950  1.00  0.00     0.022 A 
BRANCH  85  88
ATOM     88  S   UNL A   1      44.828  37.290  27.490  1.00  0.00     0.127 S 
ATOM     89  O   UNL A   1      43.455  37.164  27.005  1.00  0.00    -0.237 OA
ATOM     90  O   UNL A   1      45.084  38.486  28.293  1.00  0.00    -0.237 OA
ATOM     91  O   UNL A   1      45.865  36.985  26.514  1.00  0.00    -0.744 OA
ENDBRANCH  85  88
ENDBRANCH  58  81
ENDBRANCH  32  33
ENDBRANCH  25  27
ENDBRANCH  24  25
ENDBRANCH  23  24
ENDBRANCH   1  23
TORSDOF 17
ENDMDL
