MODEL 1
REMARK VINA RESULT:     -10.8      0.000      0.000
REMARK SMILES CC[N@@H+](Cc1cccc(C)n1)[C@H](C(=O)OCCOC(=O)c1ccc(-c2c3nc(c(-c4cccc(S(=O)(=O)[O-])c4F)c4ccc([nH]4)c(-c4cccc(S(=O)(=O)[O-])c4F)c4nc(c(-c5cccc(S(=O)(=O)[O-])c5F)c5ccc2[nH]5)C=C4)C=C3)cc1)C(C)C
REMARK SMILES IDX 16 1 15 2 13 3 14 4 12 5 3 6 2 8 1 9 4 10 5 11 6 12 11 13
REMARK SMILES IDX 7 14 9 15 8 16 10 17 84 18 85 19 86 20 17 21 18 22 19 23
REMARK SMILES IDX 20 24 21 25 22 26 83 27 23 28 82 29 24 30 25 31 26 32 76 33
REMARK SMILES IDX 27 34 81 35 75 36 77 37 28 38 80 39 74 40 73 41 29 43 61 44
REMARK SMILES IDX 41 45 60 46 42 47 45 48 59 49 78 50 43 51 44 52 58 54 79 55
REMARK SMILES IDX 46 56 30 57 31 58 39 59 32 60 34 61 40 62 33 63 35 64 36 65
REMARK SMILES IDX 37 66 38 67 62 68 63 69 71 70 64 71 66 72 72 73 65 74 67 75
REMARK SMILES IDX 68 76 69 77 70 78 47 79 48 80 56 81 49 82 51 83 57 84 50 85
REMARK SMILES IDX 52 86 53 87 54 88 55 89
REMARK H PARENT 3 7 77 42 45 53
REMARK Flexibility Score: inf
ROOT
ATOM      1  C   UNL A   1      31.234  28.674  24.743  1.00  0.00     0.274 C 
ENDROOT
BRANCH   1   2
ATOM      2  O   UNL A   1      31.824  27.391  24.459  1.00  0.00    -0.458 OA
BRANCH   2   3
ATOM      3  C   UNL A   1      31.573  26.465  25.424  1.00  0.00     0.365 C 
ATOM      4  O   UNL A   1      30.766  26.635  26.339  1.00  0.00    -0.245 OA
BRANCH   3   5
ATOM      5  C   UNL A   1      32.510  25.256  25.426  1.00  0.00     0.297 C 
BRANCH   5   6
ATOM      6  N   UNL A   1      32.026  24.106  24.624  1.00  0.00    -0.318 N 
ATOM      7  H   UNL A   1      32.128  25.075  24.323  1.00  0.00     0.349 HD
BRANCH   6   8
ATOM      8  C   UNL A   1      31.771  24.160  23.195  1.00  0.00     0.259 C 
ATOM      9  C   UNL A   1      32.927  23.881  22.243  1.00  0.00     0.071 C 
ENDBRANCH   6   8
BRANCH   6  10
ATOM     10  C   UNL A   1      31.793  22.814  25.307  1.00  0.00     0.320 C 
BRANCH  10  11
ATOM     11  C   UNL A   1      32.711  21.609  25.039  1.00  0.00     0.095 A 
ATOM     12  C   UNL A   1      34.102  21.693  25.049  1.00  0.00     0.030 A 
ATOM     13  N   UNL A   1      32.094  20.398  24.880  1.00  0.00    -0.252 NA
ATOM     14  C   UNL A   1      34.875  20.541  24.931  1.00  0.00     0.004 A 
ATOM     15  C   UNL A   1      32.867  19.287  24.701  1.00  0.00     0.038 A 
ATOM     16  C   UNL A   1      34.252  19.321  24.745  1.00  0.00     0.023 A 
ATOM     17  C   UNL A   1      32.216  17.971  24.377  1.00  0.00     0.067 C 
ENDBRANCH  10  11
ENDBRANCH   6  10
ENDBRANCH   5   6
BRANCH   5  18
ATOM     18  C   UNL A   1      33.968  25.761  25.175  1.00  0.00     0.053 C 
ATOM     19  C   UNL A   1      34.388  27.003  25.987  1.00  0.00     0.014 C 
ATOM     20  C   UNL A   1      34.983  24.656  25.499  1.00  0.00     0.014 C 
ENDBRANCH   5  18
ENDBRANCH   3   5
ENDBRANCH   2   3
ENDBRANCH   1   2
BRANCH   1  21
ATOM     21  C   UNL A   1      32.265  29.755  25.069  1.00  0.00     0.275 C 
BRANCH  21  22
ATOM     22  O   UNL A   1      32.693  29.668  26.438  1.00  0.00    -0.458 OA
BRANCH  22  23
ATOM     23  C   UNL A   1      32.945  30.861  27.026  1.00  0.00     0.338 C 
ATOM     24  O   UNL A   1      32.211  31.835  26.994  1.00  0.00    -0.246 OA
BRANCH  23  25
ATOM     25  C   UNL A   1      34.253  30.881  27.719  1.00  0.00     0.060 A 
ATOM     26  C   UNL A   1      35.112  31.987  27.714  1.00  0.00     0.016 A 
ATOM     27  C   UNL A   1      34.690  29.673  28.260  1.00  0.00     0.016 A 
ATOM     28  C   UNL A   1      36.440  31.851  28.134  1.00  0.00     0.010 A 
ATOM     29  C   UNL A   1      35.998  29.550  28.726  1.00  0.00     0.010 A 
ATOM     30  C   UNL A   1      36.896  30.622  28.625  1.00  0.00    -0.014 A 
BRANCH  30  31
ATOM     31  C   UNL A   1      38.243  30.460  29.216  1.00  0.00     0.031 A 
ATOM     32  C   UNL A   1      39.238  29.482  28.668  1.00  0.00     0.074 A 
ATOM     33  C   UNL A   1      38.458  31.078  30.389  1.00  0.00     0.049 A 
ATOM     34  N   UNL A   1      40.267  28.935  29.260  1.00  0.00    -0.248 NA
ATOM     35  C   UNL A   1      39.047  29.050  27.278  1.00  0.00     0.031 C 
ATOM     36  C   UNL A   1      37.538  32.034  31.005  1.00  0.00     0.029 A 
ATOM     37  N   UNL A   1      39.462  30.925  31.309  1.00  0.00    -0.354 N 
ATOM     38  C   UNL A   1      40.810  28.042  28.341  1.00  0.00     0.074 A 
ATOM     39  C   UNL A   1      39.991  28.123  27.149  1.00  0.00     0.031 C 
ATOM     40  C   UNL A   1      37.970  32.318  32.240  1.00  0.00     0.029 A 
ATOM     41  C   UNL A   1      39.168  31.531  32.507  1.00  0.00     0.049 A 
ATOM     42  H   UNL A   1      40.299  30.437  31.131  1.00  0.00     0.167 HD
ATOM     43  C   UNL A   1      41.906  27.256  28.484  1.00  0.00     0.034 A 
ATOM     44  C   UNL A   1      39.755  31.416  33.712  1.00  0.00     0.034 A 
ATOM     45  C   UNL A   1      42.763  27.286  29.645  1.00  0.00     0.049 A 
ATOM     46  C   UNL A   1      40.980  30.569  33.840  1.00  0.00     0.074 A 
ATOM     47  C   UNL A   1      43.978  26.649  29.837  1.00  0.00     0.029 A 
ATOM     48  N   UNL A   1      42.505  28.005  30.803  1.00  0.00    -0.354 N 
ATOM     49  N   UNL A   1      41.539  29.800  32.937  1.00  0.00    -0.248 NA
ATOM     50  C   UNL A   1      41.681  30.607  35.127  1.00  0.00     0.031 C 
ATOM     51  C   UNL A   1      44.452  26.981  31.113  1.00  0.00     0.029 A 
ATOM     52  C   UNL A   1      43.534  27.827  31.714  1.00  0.00     0.049 A 
ATOM     53  H   UNL A   1      41.706  28.561  30.956  1.00  0.00     0.167 HD
ATOM     54  C   UNL A   1      42.675  29.277  33.538  1.00  0.00     0.074 A 
ATOM     55  C   UNL A   1      42.730  29.833  34.877  1.00  0.00     0.031 C 
ATOM     56  C   UNL A   1      43.584  28.408  33.031  1.00  0.00     0.034 A 
BRANCH  43  57
ATOM     57  C   UNL A   1      42.319  26.357  27.341  1.00  0.00     0.023 A 
ATOM     58  C   UNL A   1      43.215  26.841  26.368  1.00  0.00     0.012 A 
ATOM     59  C   UNL A   1      41.943  24.997  27.312  1.00  0.00     0.148 A 
ATOM     60  C   UNL A   1      43.723  25.995  25.381  1.00  0.00     0.002 A 
ATOM     61  C   UNL A   1      42.482  24.150  26.346  1.00  0.00     0.091 A 
ATOM     62  F   UNL A   1      41.074  24.551  28.230  1.00  0.00    -0.205 F 
ATOM     63  C   UNL A   1      43.369  24.648  25.379  1.00  0.00     0.022 A 
BRANCH  61  64
ATOM     64  S   UNL A   1      42.157  22.380  26.321  1.00  0.00     0.127 S 
ATOM     65  O   UNL A   1      40.709  22.347  26.117  1.00  0.00    -0.237 OA
ATOM     66  O   UNL A   1      42.942  21.932  25.170  1.00  0.00    -0.237 OA
ATOM     67  O   UNL A   1      42.624  21.872  27.603  1.00  0.00    -0.744 OA
ENDBRANCH  61  64
ENDBRANCH  43  57
BRANCH  44  68
ATOM     68  C   UNL A   1      39.173  32.181  34.844  1.00  0.00     0.023 A 
ATOM     69  C   UNL A   1      38.332  31.516  35.754  1.00  0.00     0.012 A 
ATOM     70  C   UNL A   1      39.606  33.492  35.127  1.00  0.00     0.148 A 
ATOM     71  C   UNL A   1      37.941  32.143  36.937  1.00  0.00     0.002 A 
ATOM     72  C   UNL A   1      39.259  34.086  36.334  1.00  0.00     0.091 A 
ATOM     73  F   UNL A   1      40.398  34.109  34.239  1.00  0.00    -0.205 F 
ATOM     74  C   UNL A   1      38.421  33.416  37.237  1.00  0.00     0.022 A 
BRANCH  72  75
ATOM     75  S   UNL A   1      39.993  35.642  36.861  1.00  0.00     0.127 S 
ATOM     76  O   UNL A   1      39.343  35.860  38.149  1.00  0.00    -0.237 OA
ATOM     77  O   UNL A   1      41.417  35.307  36.939  1.00  0.00    -0.237 OA
ATOM     78  O   UNL A   1      39.667  36.592  35.805  1.00  0.00    -0.744 OA
ENDBRANCH  72  75
ENDBRANCH  44  68
BRANCH  56  79
ATOM     79  C   UNL A   1      44.711  28.007  33.937  1.00  0.00     0.023 A 
ATOM     80  C   UNL A   1      45.876  28.797  33.973  1.00  0.00     0.012 A 
ATOM     81  C   UNL A   1      44.615  26.871  34.763  1.00  0.00     0.148 A 
ATOM     82  C   UNL A   1      46.946  28.444  34.794  1.00  0.00     0.002 A 
ATOM     83  C   UNL A   1      45.674  26.543  35.603  1.00  0.00     0.091 A 
ATOM     84  F   UNL A   1      43.508  26.119  34.696  1.00  0.00    -0.205 F 
ATOM     85  C   UNL A   1      46.843  27.322  35.613  1.00  0.00     0.022 A 
BRANCH  83  86
ATOM     86  S   UNL A   1      45.591  25.146  36.729  1.00  0.00     0.127 S 
ATOM     87  O   UNL A   1      45.506  24.018  35.803  1.00  0.00    -0.237 OA
ATOM     88  O   UNL A   1      46.860  25.244  37.453  1.00  0.00    -0.237 OA
ATOM     89  O   UNL A   1      44.414  25.379  37.555  1.00  0.00    -0.744 OA
ENDBRANCH  83  86
ENDBRANCH  56  79
ENDBRANCH  30  31
ENDBRANCH  23  25
ENDBRANCH  22  23
ENDBRANCH  21  22
ENDBRANCH   1  21
TORSDOF 19
ENDMDL
MODEL 2
REMARK VINA RESULT:     -10.8      1.671      3.307
REMARK SMILES CC[N@@H+](Cc1cccc(C)n1)[C@H](C(=O)OCCOC(=O)c1ccc(-c2c3nc(c(-c4cccc(S(=O)(=O)[O-])c4F)c4ccc([nH]4)c(-c4cccc(S(=O)(=O)[O-])c4F)c4nc(c(-c5cccc(S(=O)(=O)[O-])c5F)c5ccc2[nH]5)C=C4)C=C3)cc1)C(C)C
REMARK SMILES IDX 16 1 15 2 13 3 14 4 12 5 3 6 2 8 1 9 4 10 5 11 6 12 11 13
REMARK SMILES IDX 7 14 9 15 8 16 10 17 84 18 85 19 86 20 17 21 18 22 19 23
REMARK SMILES IDX 20 24 21 25 22 26 83 27 23 28 82 29 24 30 25 31 26 32 76 33
REMARK SMILES IDX 27 34 81 35 75 36 77 37 28 38 80 39 74 40 73 41 29 43 61 44
REMARK SMILES IDX 41 45 60 46 42 47 45 48 59 49 78 50 43 51 44 52 58 54 79 55
REMARK SMILES IDX 46 56 30 57 31 58 39 59 32 60 34 61 40 62 33 63 35 64 36 65
REMARK SMILES IDX 37 66 38 67 62 68 63 69 71 70 64 71 66 72 72 73 65 74 67 75
REMARK SMILES IDX 68 76 69 77 70 78 47 79 48 80 56 81 49 82 51 83 57 84 50 85
REMARK SMILES IDX 52 86 53 87 54 88 55 89
REMARK H PARENT 3 7 77 42 45 53
REMARK Flexibility Score: inf
ROOT
ATOM      1  C   UNL A   1      33.540  29.125  24.671  1.00  0.00     0.274 C 
ENDROOT
BRANCH   1   2
ATOM      2  O   UNL A   1      33.421  29.011  23.239  1.00  0.00    -0.458 OA
BRANCH   2   3
ATOM      3  C   UNL A   1      33.685  27.757  22.783  1.00  0.00     0.365 C 
ATOM      4  O   UNL A   1      34.128  27.519  21.659  1.00  0.00    -0.245 OA
BRANCH   3   5
ATOM      5  C   UNL A   1      33.205  26.621  23.689  1.00  0.00     0.297 C 
BRANCH   5   6
ATOM      6  N   UNL A   1      31.734  26.444  23.722  1.00  0.00    -0.318 N 
ATOM      7  H   UNL A   1      32.417  26.100  24.397  1.00  0.00     0.349 HD
BRANCH   6   8
ATOM      8  C   UNL A   1      31.008  25.874  24.844  1.00  0.00     0.259 C 
ATOM      9  C   UNL A   1      31.196  26.499  26.220  1.00  0.00     0.071 C 
ENDBRANCH   6   8
BRANCH   6  10
ATOM     10  C   UNL A   1      30.941  26.878  22.551  1.00  0.00     0.320 C 
BRANCH  10  11
ATOM     11  C   UNL A   1      29.908  28.011  22.680  1.00  0.00     0.095 A 
ATOM     12  C   UNL A   1      30.184  29.336  22.349  1.00  0.00     0.030 A 
ATOM     13  N   UNL A   1      28.644  27.642  23.053  1.00  0.00    -0.252 NA
ATOM     14  C   UNL A   1      29.169  30.288  22.363  1.00  0.00     0.004 A 
ATOM     15  C   UNL A   1      27.675  28.600  23.122  1.00  0.00     0.038 A 
ATOM     16  C   UNL A   1      27.898  29.921  22.763  1.00  0.00     0.023 A 
ATOM     17  C   UNL A   1      26.319  28.250  23.669  1.00  0.00     0.067 C 
ENDBRANCH  10  11
ENDBRANCH   6  10
ENDBRANCH   5   6
BRANCH   5  18
ATOM     18  C   UNL A   1      34.089  25.361  23.410  1.00  0.00     0.053 C 
ATOM     19  C   UNL A   1      34.743  24.722  24.651  1.00  0.00     0.014 C 
ATOM     20  C   UNL A   1      33.260  24.263  22.730  1.00  0.00     0.014 C 
ENDBRANCH   5  18
ENDBRANCH   3   5
ENDBRANCH   2   3
ENDBRANCH   1   2
BRANCH   1  21
ATOM     21  C   UNL A   1      32.352  29.835  25.321  1.00  0.00     0.275 C 
BRANCH  21  22
ATOM     22  O   UNL A   1      32.547  29.978  26.739  1.00  0.00    -0.458 OA
BRANCH  22  23
ATOM     23  C   UNL A   1      32.965  31.204  27.129  1.00  0.00     0.338 C 
ATOM     24  O   UNL A   1      32.374  32.252  26.925  1.00  0.00    -0.246 OA
BRANCH  23  25
ATOM     25  C   UNL A   1      34.266  31.157  27.833  1.00  0.00     0.060 A 
ATOM     26  C   UNL A   1      35.140  32.247  27.913  1.00  0.00     0.016 A 
ATOM     27  C   UNL A   1      34.681  29.908  28.293  1.00  0.00     0.016 A 
ATOM     28  C   UNL A   1      36.463  32.062  28.334  1.00  0.00     0.010 A 
ATOM     29  C   UNL A   1      35.982  29.733  28.761  1.00  0.00     0.010 A 
ATOM     30  C   UNL A   1      36.896  30.796  28.743  1.00  0.00    -0.014 A 
BRANCH  30  31
ATOM     31  C   UNL A   1      38.234  30.573  29.333  1.00  0.00     0.031 A 
ATOM     32  C   UNL A   1      39.195  29.571  28.767  1.00  0.00     0.074 A 
ATOM     33  C   UNL A   1      38.468  31.159  30.519  1.00  0.00     0.049 A 
ATOM     34  N   UNL A   1      40.202  28.974  29.350  1.00  0.00    -0.248 NA
ATOM     35  C   UNL A   1      38.991  29.173  27.369  1.00  0.00     0.031 C 
ATOM     36  C   UNL A   1      37.582  32.137  31.152  1.00  0.00     0.029 A 
ATOM     37  N   UNL A   1      39.464  30.952  31.437  1.00  0.00    -0.354 N 
ATOM     38  C   UNL A   1      40.714  28.080  28.415  1.00  0.00     0.074 A 
ATOM     39  C   UNL A   1      39.902  28.216  27.223  1.00  0.00     0.031 C 
ATOM     40  C   UNL A   1      38.021  32.380  32.392  1.00  0.00     0.029 A 
ATOM     41  C   UNL A   1      39.189  31.544  32.646  1.00  0.00     0.049 A 
ATOM     42  H   UNL A   1      40.283  30.437  31.251  1.00  0.00     0.167 HD
ATOM     43  C   UNL A   1      41.780  27.252  28.544  1.00  0.00     0.034 A 
ATOM     44  C   UNL A   1      39.768  31.384  33.850  1.00  0.00     0.034 A 
ATOM     45  C   UNL A   1      42.635  27.228  29.707  1.00  0.00     0.049 A 
ATOM     46  C   UNL A   1      40.961  30.491  33.963  1.00  0.00     0.074 A 
ATOM     47  C   UNL A   1      43.825  26.544  29.889  1.00  0.00     0.029 A 
ATOM     48  N   UNL A   1      42.400  27.933  30.879  1.00  0.00    -0.354 N 
ATOM     49  N   UNL A   1      41.494  29.719  33.047  1.00  0.00    -0.248 NA
ATOM     50  C   UNL A   1      41.660  30.478  35.253  1.00  0.00     0.031 C 
ATOM     51  C   UNL A   1      44.307  26.833  31.172  1.00  0.00     0.029 A 
ATOM     52  C   UNL A   1      43.419  27.699  31.789  1.00  0.00     0.049 A 
ATOM     53  H   UNL A   1      41.621  28.514  31.041  1.00  0.00     0.167 HD
ATOM     54  C   UNL A   1      42.608  29.144  33.639  1.00  0.00     0.074 A 
ATOM     55  C   UNL A   1      42.680  29.670  34.989  1.00  0.00     0.031 C 
ATOM     56  C   UNL A   1      43.486  28.252  33.116  1.00  0.00     0.034 A 
BRANCH  43  57
ATOM     57  C   UNL A   1      42.163  26.361  27.385  1.00  0.00     0.023 A 
ATOM     58  C   UNL A   1      43.024  26.857  26.386  1.00  0.00     0.012 A 
ATOM     59  C   UNL A   1      41.797  24.999  27.361  1.00  0.00     0.148 A 
ATOM     60  C   UNL A   1      43.507  26.019  25.380  1.00  0.00     0.002 A 
ATOM     61  C   UNL A   1      42.311  24.160  26.374  1.00  0.00     0.091 A 
ATOM     62  F   UNL A   1      40.961  24.542  28.305  1.00  0.00    -0.205 F 
ATOM     63  C   UNL A   1      43.163  24.670  25.382  1.00  0.00     0.022 A 
BRANCH  61  64
ATOM     64  S   UNL A   1      41.998  22.388  26.351  1.00  0.00     0.127 S 
ATOM     65  O   UNL A   1      40.540  22.345  26.248  1.00  0.00    -0.237 OA
ATOM     66  O   UNL A   1      42.705  21.960  25.144  1.00  0.00    -0.237 OA
ATOM     67  O   UNL A   1      42.558  21.870  27.592  1.00  0.00    -0.744 OA
ENDBRANCH  61  64
ENDBRANCH  43  57
BRANCH  44  68
ATOM     68  C   UNL A   1      39.212  32.147  34.996  1.00  0.00     0.023 A 
ATOM     69  C   UNL A   1      38.404  31.477  35.931  1.00  0.00     0.012 A 
ATOM     70  C   UNL A   1      39.639  33.463  35.263  1.00  0.00     0.148 A 
ATOM     71  C   UNL A   1      38.041  32.104  37.124  1.00  0.00     0.002 A 
ATOM     72  C   UNL A   1      39.322  34.058  36.477  1.00  0.00     0.091 A 
ATOM     73  F   UNL A   1      40.400  34.085  34.350  1.00  0.00    -0.205 F 
ATOM     74  C   UNL A   1      38.516  33.382  37.406  1.00  0.00     0.022 A 
BRANCH  72  75
ATOM     75  S   UNL A   1      40.055  35.623  36.977  1.00  0.00     0.127 S 
ATOM     76  O   UNL A   1      39.623  36.514  35.906  1.00  0.00    -0.237 OA
ATOM     77  O   UNL A   1      39.420  35.867  38.274  1.00  0.00    -0.237 OA
ATOM     78  O   UNL A   1      41.486  35.361  37.060  1.00  0.00    -0.744 OA
ENDBRANCH  72  75
ENDBRANCH  44  68
BRANCH  56  79
ATOM     79  C   UNL A   1      44.596  27.793  34.017  1.00  0.00     0.023 A 
ATOM     80  C   UNL A   1      45.801  28.520  34.047  1.00  0.00     0.012 A 
ATOM     81  C   UNL A   1      44.445  26.662  34.843  1.00  0.00     0.148 A 
ATOM     82  C   UNL A   1      46.855  28.111  34.862  1.00  0.00     0.002 A 
ATOM     83  C   UNL A   1      45.489  26.279  35.677  1.00  0.00     0.091 A 
ATOM     84  F   UNL A   1      43.300  25.969  34.782  1.00  0.00    -0.205 F 
ATOM     85  C   UNL A   1      46.698  26.996  35.682  1.00  0.00     0.022 A 
BRANCH  83  86
ATOM     86  S   UNL A   1      45.339  24.887  36.804  1.00  0.00     0.127 S 
ATOM     87  O   UNL A   1      44.185  25.277  37.610  1.00  0.00    -0.237 OA
ATOM     88  O   UNL A   1      45.096  23.766  35.894  1.00  0.00    -0.237 OA
ATOM     89  O   UNL A   1      46.612  24.817  37.510  1.00  0.00    -0.744 OA
ENDBRANCH  83  86
ENDBRANCH  56  79
ENDBRANCH  30  31
ENDBRANCH  23  25
ENDBRANCH  22  23
ENDBRANCH  21  22
ENDBRANCH   1  21
TORSDOF 19
ENDMDL
MODEL 3
REMARK VINA RESULT:     -10.2      4.143      6.457
REMARK SMILES CC[N@@H+](Cc1cccc(C)n1)[C@H](C(=O)OCCOC(=O)c1ccc(-c2c3nc(c(-c4cccc(S(=O)(=O)[O-])c4F)c4ccc([nH]4)c(-c4cccc(S(=O)(=O)[O-])c4F)c4nc(c(-c5cccc(S(=O)(=O)[O-])c5F)c5ccc2[nH]5)C=C4)C=C3)cc1)C(C)C
REMARK SMILES IDX 16 1 15 2 13 3 14 4 12 5 3 6 2 8 1 9 4 10 5 11 6 12 11 13
REMARK SMILES IDX 7 14 9 15 8 16 10 17 84 18 85 19 86 20 17 21 18 22 19 23
REMARK SMILES IDX 20 24 21 25 22 26 83 27 23 28 82 29 24 30 25 31 26 32 76 33
REMARK SMILES IDX 27 34 81 35 75 36 77 37 28 38 80 39 74 40 73 41 29 43 61 44
REMARK SMILES IDX 41 45 60 46 42 47 45 48 59 49 78 50 43 51 44 52 58 54 79 55
REMARK SMILES IDX 46 56 30 57 31 58 39 59 32 60 34 61 40 62 33 63 35 64 36 65
REMARK SMILES IDX 37 66 38 67 62 68 63 69 71 70 64 71 66 72 72 73 65 74 67 75
REMARK SMILES IDX 68 76 69 77 70 78 47 79 48 80 56 81 49 82 51 83 57 84 50 85
REMARK SMILES IDX 52 86 53 87 54 88 55 89
REMARK H PARENT 3 7 77 42 45 53
REMARK Flexibility Score: inf
ROOT
ATOM      1  C   UNL A   1      32.925  33.896  27.913  1.00  0.00     0.274 C 
ENDROOT
BRANCH   1   2
ATOM      2  O   UNL A   1      32.848  33.965  29.350  1.00  0.00    -0.458 OA
BRANCH   2   3
ATOM      3  C   UNL A   1      33.717  34.864  29.886  1.00  0.00     0.365 C 
ATOM      4  O   UNL A   1      34.198  35.807  29.257  1.00  0.00    -0.245 OA
BRANCH   3   5
ATOM      5  C   UNL A   1      34.230  34.518  31.285  1.00  0.00     0.297 C 
BRANCH   5   6
ATOM      6  N   UNL A   1      35.381  33.583  31.302  1.00  0.00    -0.318 N 
ATOM      7  H   UNL A   1      35.310  34.474  30.811  1.00  0.00     0.349 HD
BRANCH   6   8
ATOM      8  C   UNL A   1      36.683  33.885  30.734  1.00  0.00     0.259 C 
ATOM      9  C   UNL A   1      37.067  33.228  29.414  1.00  0.00     0.071 C 
ENDBRANCH   6   8
BRANCH   6  10
ATOM     10  C   UNL A   1      35.210  32.260  31.944  1.00  0.00     0.320 C 
BRANCH  10  11
ATOM     11  C   UNL A   1      36.328  31.661  32.814  1.00  0.00     0.095 A 
ATOM     12  C   UNL A   1      36.867  32.315  33.920  1.00  0.00     0.030 A 
ATOM     13  N   UNL A   1      36.717  30.386  32.509  1.00  0.00    -0.252 NA
ATOM     14  C   UNL A   1      37.781  31.664  34.742  1.00  0.00     0.004 A 
ATOM     15  C   UNL A   1      37.663  29.784  33.289  1.00  0.00     0.038 A 
ATOM     16  C   UNL A   1      38.194  30.384  34.421  1.00  0.00     0.023 A 
ATOM     17  C   UNL A   1      38.215  28.444  32.891  1.00  0.00     0.067 C 
ENDBRANCH  10  11
ENDBRANCH   6  10
ENDBRANCH   5   6
BRANCH   5  18
ATOM     18  C   UNL A   1      34.351  35.843  32.108  1.00  0.00     0.053 C 
ATOM     19  C   UNL A   1      33.101  36.745  32.099  1.00  0.00     0.014 C 
ATOM     20  C   UNL A   1      34.666  35.536  33.579  1.00  0.00     0.014 C 
ENDBRANCH   5  18
ENDBRANCH   3   5
ENDBRANCH   2   3
ENDBRANCH   1   2
BRANCH   1  21
ATOM     21  C   UNL A   1      33.082  32.469  27.384  1.00  0.00     0.275 C 
BRANCH  21  22
ATOM     22  O   UNL A   1      34.250  31.837  27.934  1.00  0.00    -0.458 OA
BRANCH  22  23
ATOM     23  C   UNL A   1      34.385  30.529  27.617  1.00  0.00     0.338 C 
ATOM     24  O   UNL A   1      33.522  29.831  27.108  1.00  0.00    -0.246 OA
BRANCH  23  25
ATOM     25  C   UNL A   1      35.718  29.997  27.976  1.00  0.00     0.060 A 
ATOM     26  C   UNL A   1      35.990  29.349  29.187  1.00  0.00     0.016 A 
ATOM     27  C   UNL A   1      36.768  30.313  27.115  1.00  0.00     0.016 A 
ATOM     28  C   UNL A   1      37.313  29.129  29.589  1.00  0.00     0.010 A 
ATOM     29  C   UNL A   1      38.084  30.049  27.491  1.00  0.00     0.010 A 
ATOM     30  C   UNL A   1      38.370  29.498  28.748  1.00  0.00    -0.014 A 
BRANCH  30  31
ATOM     31  C   UNL A   1      39.777  29.159  29.056  1.00  0.00     0.031 A 
ATOM     32  C   UNL A   1      40.452  27.958  28.465  1.00  0.00     0.074 A 
ATOM     33  C   UNL A   1      40.355  29.857  30.048  1.00  0.00     0.049 A 
ATOM     34  N   UNL A   1      41.495  27.302  28.901  1.00  0.00    -0.248 NA
ATOM     35  C   UNL A   1      39.873  27.413  27.231  1.00  0.00     0.031 C 
ATOM     36  C   UNL A   1      39.765  31.031  30.691  1.00  0.00     0.029 A 
ATOM     37  N   UNL A   1      41.513  29.628  30.744  1.00  0.00    -0.354 N 
ATOM     38  C   UNL A   1      41.661  26.225  28.035  1.00  0.00     0.074 A 
ATOM     39  C   UNL A   1      40.606  26.319  27.047  1.00  0.00     0.031 C 
ATOM     40  C   UNL A   1      40.516  31.369  31.747  1.00  0.00     0.029 A 
ATOM     41  C   UNL A   1      41.608  30.411  31.870  1.00  0.00     0.049 A 
ATOM     42  H   UNL A   1      42.198  28.977  30.469  1.00  0.00     0.167 HD
ATOM     43  C   UNL A   1      42.626  25.272  28.060  1.00  0.00     0.034 A 
ATOM     44  C   UNL A   1      42.438  30.328  32.925  1.00  0.00     0.034 A 
ATOM     45  C   UNL A   1      43.727  25.276  28.992  1.00  0.00     0.049 A 
ATOM     46  C   UNL A   1      43.513  29.290  32.917  1.00  0.00     0.074 A 
ATOM     47  C   UNL A   1      44.840  24.452  29.016  1.00  0.00     0.029 A 
ATOM     48  N   UNL A   1      43.864  26.158  30.055  1.00  0.00    -0.354 N 
ATOM     49  N   UNL A   1      43.718  28.332  32.045  1.00  0.00    -0.248 NA
ATOM     50  C   UNL A   1      44.496  29.345  34.004  1.00  0.00     0.031 C 
ATOM     51  C   UNL A   1      45.647  24.835  30.095  1.00  0.00     0.029 A 
ATOM     52  C   UNL A   1      45.039  25.898  30.742  1.00  0.00     0.049 A 
ATOM     53  H   UNL A   1      43.219  26.865  30.287  1.00  0.00     0.167 HD
ATOM     54  C   UNL A   1      44.869  27.681  32.462  1.00  0.00     0.074 A 
ATOM     55  C   UNL A   1      45.324  28.367  33.658  1.00  0.00     0.031 C 
ATOM     56  C   UNL A   1      45.487  26.607  31.912  1.00  0.00     0.034 A 
BRANCH  43  57
ATOM     57  C   UNL A   1      42.613  24.187  27.007  1.00  0.00     0.023 A 
ATOM     58  C   UNL A   1      43.347  24.368  25.818  1.00  0.00     0.012 A 
ATOM     59  C   UNL A   1      42.006  22.938  27.255  1.00  0.00     0.148 A 
ATOM     60  C   UNL A   1      43.469  23.333  24.890  1.00  0.00     0.002 A 
ATOM     61  C   UNL A   1      42.162  21.897  26.342  1.00  0.00     0.091 A 
ATOM     62  F   UNL A   1      41.293  22.783  28.381  1.00  0.00    -0.205 F 
ATOM     63  C   UNL A   1      42.890  22.095  25.158  1.00  0.00     0.022 A 
BRANCH  61  64
ATOM     64  S   UNL A   1      41.531  20.240  26.646  1.00  0.00     0.127 S 
ATOM     65  O   UNL A   1      41.897  19.551  25.409  1.00  0.00    -0.237 OA
ATOM     66  O   UNL A   1      42.296  19.823  27.822  1.00  0.00    -0.237 OA
ATOM     67  O   UNL A   1      40.103  20.396  26.882  1.00  0.00    -0.744 OA
ENDBRANCH  61  64
ENDBRANCH  43  57
BRANCH  44  68
ATOM     68  C   UNL A   1      42.265  31.311  34.024  1.00  0.00     0.023 A 
ATOM     69  C   UNL A   1      41.589  30.916  35.191  1.00  0.00     0.012 A 
ATOM     70  C   UNL A   1      42.933  32.552  33.994  1.00  0.00     0.148 A 
ATOM     71  C   UNL A   1      41.592  31.737  36.319  1.00  0.00     0.002 A 
ATOM     72  C   UNL A   1      42.980  33.337  35.140  1.00  0.00     0.091 A 
ATOM     73  F   UNL A   1      43.561  32.912  32.865  1.00  0.00    -0.205 F 
ATOM     74  C   UNL A   1      42.304  32.934  36.301  1.00  0.00     0.022 A 
BRANCH  72  75
ATOM     75  S   UNL A   1      44.031  34.793  35.238  1.00  0.00     0.127 S 
ATOM     76  O   UNL A   1      45.267  34.314  34.626  1.00  0.00    -0.237 OA
ATOM     77  O   UNL A   1      43.289  35.771  34.440  1.00  0.00    -0.237 OA
ATOM     78  O   UNL A   1      44.099  35.117  36.657  1.00  0.00    -0.744 OA
ENDBRANCH  72  75
ENDBRANCH  44  68
BRANCH  56  79
ATOM     79  C   UNL A   1      46.722  26.111  32.608  1.00  0.00     0.023 A 
ATOM     80  C   UNL A   1      47.963  26.706  32.310  1.00  0.00     0.012 A 
ATOM     81  C   UNL A   1      46.657  25.079  33.564  1.00  0.00     0.148 A 
ATOM     82  C   UNL A   1      49.129  26.259  32.929  1.00  0.00     0.002 A 
ATOM     83  C   UNL A   1      47.820  24.660  34.200  1.00  0.00     0.091 A 
ATOM     84  F   UNL A   1      45.470  24.510  33.815  1.00  0.00    -0.205 F 
ATOM     85  C   UNL A   1      49.057  25.242  33.878  1.00  0.00     0.022 A 
BRANCH  83  86
ATOM     86  S   UNL A   1      47.798  23.395  35.476  1.00  0.00     0.127 S 
ATOM     87  O   UNL A   1      46.846  23.952  36.434  1.00  0.00    -0.237 OA
ATOM     88  O   UNL A   1      47.315  22.219  34.750  1.00  0.00    -0.237 OA
ATOM     89  O   UNL A   1      49.175  23.285  35.940  1.00  0.00    -0.744 OA
ENDBRANCH  83  86
ENDBRANCH  56  79
ENDBRANCH  30  31
ENDBRANCH  23  25
ENDBRANCH  22  23
ENDBRANCH  21  22
ENDBRANCH   1  21
TORSDOF 19
ENDMDL
