MODEL 1
REMARK VINA RESULT:     -10.0      0.000      0.000
REMARK SMILES [NH3+][C@@H](CSCc1nccs1)C(=O)OCCOC(=O)c1ccc(-c2c3nc(c(-c4cccc(S(=O)(=O)[O-])c4F)c4ccc([nH]4)c(-c4cccc(S(=O)(=O)[O-])c4F)c4nc(c(-c5cccc(S(=O)(=O)[O-])c5F)c5ccc2[nH]5)C=C4)C=C3)cc1
REMARK SMILES IDX 14 1 13 2 11 3 12 4 2 5 1 6 3 10 4 11 5 12 6 13 7 14 10 15
REMARK SMILES IDX 8 16 9 17 15 18 16 19 17 20 18 21 19 22 20 23 81 24 21 25
REMARK SMILES IDX 80 26 22 27 23 28 24 29 74 30 25 31 79 32 73 33 75 34 26 35
REMARK SMILES IDX 78 36 72 37 71 38 27 40 59 41 39 42 58 43 40 44 43 45 57 46
REMARK SMILES IDX 76 47 41 48 42 49 56 51 77 52 44 53 28 54 29 55 37 56 30 57
REMARK SMILES IDX 32 58 38 59 31 60 33 61 34 62 35 63 36 64 60 65 61 66 69 67
REMARK SMILES IDX 62 68 64 69 70 70 63 71 65 72 66 73 67 74 68 75 45 76 46 77
REMARK SMILES IDX 54 78 47 79 49 80 55 81 48 82 50 83 51 84 52 85 53 86
REMARK H PARENT 1 7 1 8 1 9 75 39 43 50
REMARK Flexibility Score: inf
ROOT
ATOM      1  C   UNL A   1      37.657  19.868  25.076  1.00  0.00     0.274 C 
ENDROOT
BRANCH   1   2
ATOM      2  O   UNL A   1      37.555  21.251  24.691  1.00  0.00    -0.458 OA
BRANCH   2   3
ATOM      3  C   UNL A   1      36.577  21.978  25.311  1.00  0.00     0.365 C 
ATOM      4  O   UNL A   1      36.767  22.993  25.969  1.00  0.00    -0.245 OA
BRANCH   3   5
ATOM      5  C   UNL A   1      35.194  21.336  25.141  1.00  0.00     0.301 C 
BRANCH   5   6
ATOM      6  N   UNL A   1      34.553  21.012  26.430  1.00  0.00    -0.345 N 
ATOM      7  H   UNL A   1      35.221  20.524  27.028  1.00  0.00     0.345 HD
ATOM      8  H   UNL A   1      33.744  20.414  26.266  1.00  0.00     0.345 HD
ATOM      9  H   UNL A   1      34.254  21.873  26.887  1.00  0.00     0.345 HD
ENDBRANCH   5   6
BRANCH   5  10
ATOM     10  C   UNL A   1      34.344  22.131  24.140  1.00  0.00     0.147 C 
BRANCH  10  11
ATOM     11  S   UNL A   1      32.520  21.911  24.174  1.00  0.00    -0.148 SA
BRANCH  11  12
ATOM     12  C   UNL A   1      32.300  20.385  23.208  1.00  0.00     0.137 C 
BRANCH  12  13
ATOM     13  C   UNL A   1      32.528  19.117  23.971  1.00  0.00     0.102 A 
ATOM     14  N   UNL A   1      32.341  19.008  25.272  1.00  0.00    -0.249 NA
ATOM     15  S   UNL A   1      33.049  17.675  23.183  1.00  0.00    -0.126 S 
ATOM     16  C   UNL A   1      32.619  17.718  25.681  1.00  0.00     0.123 A 
ATOM     17  C   UNL A   1      33.048  16.863  24.692  1.00  0.00     0.087 A 
ENDBRANCH  12  13
ENDBRANCH  11  12
ENDBRANCH  10  11
ENDBRANCH   5  10
ENDBRANCH   3   5
ENDBRANCH   2   3
ENDBRANCH   1   2
BRANCH   1  18
ATOM     18  C   UNL A   1      39.086  19.524  25.500  1.00  0.00     0.275 C 
BRANCH  18  19
ATOM     19  O   UNL A   1      39.840  20.712  25.793  1.00  0.00    -0.458 OA
BRANCH  19  20
ATOM     20  C   UNL A   1      40.463  20.708  26.998  1.00  0.00     0.338 C 
ATOM     21  O   UNL A   1      40.802  19.733  27.645  1.00  0.00    -0.246 OA
BRANCH  20  22
ATOM     22  C   UNL A   1      40.786  22.095  27.375  1.00  0.00     0.060 A 
ATOM     23  C   UNL A   1      40.199  23.133  26.649  1.00  0.00     0.016 A 
ATOM     24  C   UNL A   1      41.701  22.369  28.393  1.00  0.00     0.016 A 
ATOM     25  C   UNL A   1      40.526  24.457  26.935  1.00  0.00     0.010 A 
ATOM     26  C   UNL A   1      42.034  23.699  28.675  1.00  0.00     0.010 A 
ATOM     27  C   UNL A   1      41.460  24.748  27.937  1.00  0.00    -0.014 A 
BRANCH  27  28
ATOM     28  C   UNL A   1      41.884  26.151  28.162  1.00  0.00     0.031 A 
ATOM     29  C   UNL A   1      43.269  26.582  27.767  1.00  0.00     0.074 A 
ATOM     30  C   UNL A   1      41.032  27.034  28.715  1.00  0.00     0.049 A 
ATOM     31  N   UNL A   1      43.846  27.746  27.911  1.00  0.00    -0.248 NA
ATOM     32  C   UNL A   1      44.118  25.566  27.124  1.00  0.00     0.031 C 
ATOM     33  C   UNL A   1      39.663  26.735  29.135  1.00  0.00     0.029 A 
ATOM     34  N   UNL A   1      41.200  28.359  29.033  1.00  0.00    -0.354 N 
ATOM     35  C   UNL A   1      45.131  27.599  27.405  1.00  0.00     0.074 A 
ATOM     36  C   UNL A   1      45.255  26.227  26.959  1.00  0.00     0.031 C 
ATOM     37  C   UNL A   1      39.122  27.839  29.676  1.00  0.00     0.029 A 
ATOM     38  C   UNL A   1      40.110  28.914  29.662  1.00  0.00     0.049 A 
ATOM     39  H   UNL A   1      42.020  28.862  28.830  1.00  0.00     0.167 HD
ATOM     40  C   UNL A   1      46.113  28.526  27.301  1.00  0.00     0.034 A 
ATOM     41  C   UNL A   1      39.939  30.146  30.184  1.00  0.00     0.034 A 
ATOM     42  C   UNL A   1      45.978  29.895  27.721  1.00  0.00     0.049 A 
ATOM     43  C   UNL A   1      41.052  31.153  30.066  1.00  0.00     0.074 A 
ATOM     44  C   UNL A   1      46.907  30.918  27.634  1.00  0.00     0.029 A 
ATOM     45  N   UNL A   1      44.843  30.436  28.307  1.00  0.00    -0.354 N 
ATOM     46  N   UNL A   1      42.224  31.027  29.491  1.00  0.00    -0.248 NA
ATOM     47  C   UNL A   1      40.806  32.485  30.640  1.00  0.00     0.031 C 
ATOM     48  C   UNL A   1      46.336  32.075  28.177  1.00  0.00     0.029 A 
ATOM     49  C   UNL A   1      45.047  31.776  28.588  1.00  0.00     0.049 A 
ATOM     50  H   UNL A   1      44.015  29.940  28.494  1.00  0.00     0.167 HD
ATOM     51  C   UNL A   1      42.842  32.267  29.608  1.00  0.00     0.074 A 
ATOM     52  C   UNL A   1      41.904  33.139  30.285  1.00  0.00     0.031 C 
ATOM     53  C   UNL A   1      44.081  32.646  29.209  1.00  0.00     0.034 A 
BRANCH  40  54
ATOM     54  C   UNL A   1      47.411  28.098  26.670  1.00  0.00     0.023 A 
ATOM     55  C   UNL A   1      48.506  27.774  27.496  1.00  0.00     0.012 A 
ATOM     56  C   UNL A   1      47.534  27.966  25.273  1.00  0.00     0.148 A 
ATOM     57  C   UNL A   1      49.713  27.351  26.941  1.00  0.00     0.002 A 
ATOM     58  C   UNL A   1      48.729  27.507  24.729  1.00  0.00     0.091 A 
ATOM     59  F   UNL A   1      46.489  28.301  24.504  1.00  0.00    -0.205 F 
ATOM     60  C   UNL A   1      49.821  27.209  25.561  1.00  0.00     0.022 A 
BRANCH  58  61
ATOM     61  S   UNL A   1      48.944  27.224  22.968  1.00  0.00     0.127 S 
ATOM     62  O   UNL A   1      48.326  28.422  22.400  1.00  0.00    -0.237 OA
ATOM     63  O   UNL A   1      50.400  27.170  22.838  1.00  0.00    -0.237 OA
ATOM     64  O   UNL A   1      48.264  25.969  22.679  1.00  0.00    -0.744 OA
ENDBRANCH  58  61
ENDBRANCH  40  54
BRANCH  41  65
ATOM     65  C   UNL A   1      38.644  30.508  30.828  1.00  0.00     0.023 A 
ATOM     66  C   UNL A   1      38.428  30.183  32.181  1.00  0.00     0.012 A 
ATOM     67  C   UNL A   1      37.635  31.184  30.116  1.00  0.00     0.148 A 
ATOM     68  C   UNL A   1      37.221  30.499  32.805  1.00  0.00     0.002 A 
ATOM     69  C   UNL A   1      36.456  31.546  30.758  1.00  0.00     0.091 A 
ATOM     70  F   UNL A   1      37.847  31.464  28.821  1.00  0.00    -0.205 F 
ATOM     71  C   UNL A   1      36.240  31.190  32.098  1.00  0.00     0.022 A 
BRANCH  69  72
ATOM     72  S   UNL A   1      35.200  32.546  29.954  1.00  0.00     0.127 S 
ATOM     73  O   UNL A   1      35.972  33.706  29.521  1.00  0.00    -0.237 OA
ATOM     74  O   UNL A   1      34.750  31.668  28.873  1.00  0.00    -0.237 OA
ATOM     75  O   UNL A   1      34.192  32.795  30.976  1.00  0.00    -0.744 OA
ENDBRANCH  69  72
ENDBRANCH  41  65
BRANCH  53  76
ATOM     76  C   UNL A   1      44.491  34.073  29.466  1.00  0.00     0.023 A 
ATOM     77  C   UNL A   1      45.161  34.400  30.660  1.00  0.00     0.012 A 
ATOM     78  C   UNL A   1      44.273  35.073  28.497  1.00  0.00     0.148 A 
ATOM     79  C   UNL A   1      45.584  35.707  30.901  1.00  0.00     0.002 A 
ATOM     80  C   UNL A   1      44.735  36.365  28.726  1.00  0.00     0.091 A 
ATOM     81  F   UNL A   1      43.614  34.748  27.376  1.00  0.00    -0.205 F 
ATOM     82  C   UNL A   1      45.381  36.685  29.931  1.00  0.00     0.022 A 
BRANCH  80  83
ATOM     83  S   UNL A   1      44.597  37.663  27.492  1.00  0.00     0.127 S 
ATOM     84  O   UNL A   1      45.804  37.448  26.696  1.00  0.00    -0.237 OA
ATOM     85  O   UNL A   1      43.348  37.316  26.810  1.00  0.00    -0.237 OA
ATOM     86  O   UNL A   1      44.547  38.914  28.235  1.00  0.00    -0.744 OA
ENDBRANCH  80  83
ENDBRANCH  53  76
ENDBRANCH  27  28
ENDBRANCH  20  22
ENDBRANCH  19  20
ENDBRANCH  18  19
ENDBRANCH   1  18
TORSDOF 19
ENDMDL
MODEL 2
REMARK VINA RESULT:      -9.7      1.642      2.028
REMARK SMILES [NH3+][C@@H](CSCc1nccs1)C(=O)OCCOC(=O)c1ccc(-c2c3nc(c(-c4cccc(S(=O)(=O)[O-])c4F)c4ccc([nH]4)c(-c4cccc(S(=O)(=O)[O-])c4F)c4nc(c(-c5cccc(S(=O)(=O)[O-])c5F)c5ccc2[nH]5)C=C4)C=C3)cc1
REMARK SMILES IDX 14 1 13 2 11 3 12 4 2 5 1 6 3 10 4 11 5 12 6 13 7 14 10 15
REMARK SMILES IDX 8 16 9 17 15 18 16 19 17 20 18 21 19 22 20 23 81 24 21 25
REMARK SMILES IDX 80 26 22 27 23 28 24 29 74 30 25 31 79 32 73 33 75 34 26 35
REMARK SMILES IDX 78 36 72 37 71 38 27 40 59 41 39 42 58 43 40 44 43 45 57 46
REMARK SMILES IDX 76 47 41 48 42 49 56 51 77 52 44 53 28 54 29 55 37 56 30 57
REMARK SMILES IDX 32 58 38 59 31 60 33 61 34 62 35 63 36 64 60 65 61 66 69 67
REMARK SMILES IDX 62 68 64 69 70 70 63 71 65 72 66 73 67 74 68 75 45 76 46 77
REMARK SMILES IDX 54 78 47 79 49 80 55 81 48 82 50 83 51 84 52 85 53 86
REMARK H PARENT 1 7 1 8 1 9 75 39 43 50
REMARK Flexibility Score: inf
ROOT
ATOM      1  C   UNL A   1      36.658  22.201  23.743  1.00  0.00     0.274 C 
ENDROOT
BRANCH   1   2
ATOM      2  O   UNL A   1      35.596  22.916  24.401  1.00  0.00    -0.458 OA
BRANCH   2   3
ATOM      3  C   UNL A   1      34.572  23.341  23.602  1.00  0.00     0.365 C 
ATOM      4  O   UNL A   1      34.603  23.374  22.378  1.00  0.00    -0.245 OA
BRANCH   3   5
ATOM      5  C   UNL A   1      33.376  23.841  24.423  1.00  0.00     0.301 C 
BRANCH   5   6
ATOM      6  N   UNL A   1      32.455  24.683  23.636  1.00  0.00    -0.345 N 
ATOM      7  H   UNL A   1      32.788  24.743  22.674  1.00  0.00     0.345 HD
ATOM      8  H   UNL A   1      32.419  25.617  24.042  1.00  0.00     0.345 HD
ATOM      9  H   UNL A   1      31.523  24.270  23.648  1.00  0.00     0.345 HD
ENDBRANCH   5   6
BRANCH   5  10
ATOM     10  C   UNL A   1      32.739  22.689  25.213  1.00  0.00     0.147 C 
BRANCH  10  11
ATOM     11  S   UNL A   1      32.480  21.083  24.359  1.00  0.00    -0.148 SA
BRANCH  11  12
ATOM     12  C   UNL A   1      33.646  19.992  25.231  1.00  0.00     0.137 C 
BRANCH  12  13
ATOM     13  C   UNL A   1      33.379  18.527  25.070  1.00  0.00     0.102 A 
ATOM     14  N   UNL A   1      32.443  17.881  25.737  1.00  0.00    -0.249 NA
ATOM     15  S   UNL A   1      34.287  17.565  23.965  1.00  0.00    -0.126 S 
ATOM     16  C   UNL A   1      32.431  16.552  25.363  1.00  0.00     0.123 A 
ATOM     17  C   UNL A   1      33.382  16.189  24.436  1.00  0.00     0.087 A 
ENDBRANCH  12  13
ENDBRANCH  11  12
ENDBRANCH  10  11
ENDBRANCH   5  10
ENDBRANCH   3   5
ENDBRANCH   2   3
ENDBRANCH   1   2
BRANCH   1  18
ATOM     18  C   UNL A   1      37.090  20.986  24.566  1.00  0.00     0.275 C 
BRANCH  18  19
ATOM     19  O   UNL A   1      37.536  21.379  25.875  1.00  0.00    -0.458 OA
BRANCH  19  20
ATOM     20  C   UNL A   1      38.867  21.230  26.091  1.00  0.00     0.338 C 
ATOM     21  O   UNL A   1      39.546  20.250  25.835  1.00  0.00    -0.246 OA
BRANCH  20  22
ATOM     22  C   UNL A   1      39.418  22.501  26.590  1.00  0.00     0.060 A 
ATOM     23  C   UNL A   1      38.873  23.694  26.108  1.00  0.00     0.016 A 
ATOM     24  C   UNL A   1      40.496  22.520  27.475  1.00  0.00     0.016 A 
ATOM     25  C   UNL A   1      39.407  24.916  26.508  1.00  0.00     0.010 A 
ATOM     26  C   UNL A   1      41.037  23.749  27.871  1.00  0.00     0.010 A 
ATOM     27  C   UNL A   1      40.504  24.953  27.378  1.00  0.00    -0.014 A 
BRANCH  27  28
ATOM     28  C   UNL A   1      41.136  26.252  27.713  1.00  0.00     0.031 A 
ATOM     29  C   UNL A   1      42.552  26.522  27.288  1.00  0.00     0.074 A 
ATOM     30  C   UNL A   1      40.441  27.185  28.391  1.00  0.00     0.049 A 
ATOM     31  N   UNL A   1      43.296  27.573  27.512  1.00  0.00    -0.248 NA
ATOM     32  C   UNL A   1      43.219  25.468  26.507  1.00  0.00     0.031 C 
ATOM     33  C   UNL A   1      39.061  27.039  28.852  1.00  0.00     0.029 A 
ATOM     34  N   UNL A   1      40.811  28.433  28.825  1.00  0.00    -0.354 N 
ATOM     35  C   UNL A   1      44.526  27.300  26.927  1.00  0.00     0.074 A 
ATOM     36  C   UNL A   1      44.433  25.978  26.347  1.00  0.00     0.031 C 
ATOM     37  C   UNL A   1      38.706  28.147  29.523  1.00  0.00     0.029 A 
ATOM     38  C   UNL A   1      39.838  29.069  29.560  1.00  0.00     0.049 A 
ATOM     39  H   UNL A   1      41.687  28.835  28.628  1.00  0.00     0.167 HD
ATOM     40  C   UNL A   1      45.627  28.087  26.861  1.00  0.00     0.034 A 
ATOM     41  C   UNL A   1      39.866  30.252  30.205  1.00  0.00     0.034 A 
ATOM     42  C   UNL A   1      45.707  29.411  27.416  1.00  0.00     0.049 A 
ATOM     43  C   UNL A   1      41.108  31.101  30.126  1.00  0.00     0.074 A 
ATOM     44  C   UNL A   1      46.771  30.298  27.379  1.00  0.00     0.029 A 
ATOM     45  N   UNL A   1      44.686  30.043  28.109  1.00  0.00    -0.354 N 
ATOM     46  N   UNL A   1      42.227  30.871  29.481  1.00  0.00    -0.248 NA
ATOM     47  C   UNL A   1      41.080  32.388  30.836  1.00  0.00     0.031 C 
ATOM     48  C   UNL A   1      46.394  31.462  28.059  1.00  0.00     0.029 A 
ATOM     49  C   UNL A   1      45.092  31.306  28.507  1.00  0.00     0.049 A 
ATOM     50  H   UNL A   1      43.802  29.651  28.292  1.00  0.00     0.167 HD
ATOM     51  C   UNL A   1      43.021  31.994  29.682  1.00  0.00     0.074 A 
ATOM     52  C   UNL A   1      42.246  32.915  30.488  1.00  0.00     0.031 C 
ATOM     53  C   UNL A   1      44.286  32.234  29.257  1.00  0.00     0.034 A 
BRANCH  40  54
ATOM     54  C   UNL A   1      46.825  27.548  26.125  1.00  0.00     0.023 A 
ATOM     55  C   UNL A   1      46.938  27.767  24.738  1.00  0.00     0.012 A 
ATOM     56  C   UNL A   1      47.858  26.876  26.808  1.00  0.00     0.148 A 
ATOM     57  C   UNL A   1      48.048  27.301  24.034  1.00  0.00     0.002 A 
ATOM     58  C   UNL A   1      48.979  26.447  26.105  1.00  0.00     0.091 A 
ATOM     59  F   UNL A   1      47.720  26.657  28.123  1.00  0.00    -0.205 F 
ATOM     60  C   UNL A   1      49.071  26.650  24.718  1.00  0.00     0.022 A 
BRANCH  58  61
ATOM     61  S   UNL A   1      50.381  25.662  26.909  1.00  0.00     0.127 S 
ATOM     62  O   UNL A   1      49.767  24.455  27.461  1.00  0.00    -0.237 OA
ATOM     63  O   UNL A   1      51.289  25.424  25.787  1.00  0.00    -0.237 OA
ATOM     64  O   UNL A   1      50.869  26.622  27.889  1.00  0.00    -0.744 OA
ENDBRANCH  58  61
ENDBRANCH  40  54
BRANCH  41  65
ATOM     65  C   UNL A   1      38.664  30.725  30.948  1.00  0.00     0.023 A 
ATOM     66  C   UNL A   1      38.585  30.526  32.340  1.00  0.00     0.012 A 
ATOM     67  C   UNL A   1      37.606  31.382  30.289  1.00  0.00     0.148 A 
ATOM     68  C   UNL A   1      37.465  30.947  33.057  1.00  0.00     0.002 A 
ATOM     69  C   UNL A   1      36.518  31.848  31.017  1.00  0.00     0.091 A 
ATOM     70  F   UNL A   1      37.685  31.541  28.960  1.00  0.00    -0.205 F 
ATOM     71  C   UNL A   1      36.437  31.618  32.400  1.00  0.00     0.022 A 
BRANCH  69  72
ATOM     72  S   UNL A   1      35.217  32.832  30.266  1.00  0.00     0.127 S 
ATOM     73  O   UNL A   1      35.954  34.007  29.811  1.00  0.00    -0.237 OA
ATOM     74  O   UNL A   1      34.743  31.951  29.197  1.00  0.00    -0.237 OA
ATOM     75  O   UNL A   1      34.243  33.058  31.325  1.00  0.00    -0.744 OA
ENDBRANCH  69  72
ENDBRANCH  41  65
BRANCH  53  76
ATOM     76  C   UNL A   1      44.907  33.556  29.627  1.00  0.00     0.023 A 
ATOM     77  C   UNL A   1      45.625  33.674  30.833  1.00  0.00     0.012 A 
ATOM     78  C   UNL A   1      44.838  34.658  28.751  1.00  0.00     0.148 A 
ATOM     79  C   UNL A   1      46.240  34.878  31.177  1.00  0.00     0.002 A 
ATOM     80  C   UNL A   1      45.492  35.841  29.081  1.00  0.00     0.091 A 
ATOM     81  F   UNL A   1      44.134  34.533  27.618  1.00  0.00    -0.205 F 
ATOM     82  C   UNL A   1      46.183  35.956  30.296  1.00  0.00     0.022 A 
BRANCH  80  83
ATOM     83  S   UNL A   1      45.545  37.247  27.963  1.00  0.00     0.127 S 
ATOM     84  O   UNL A   1      44.125  37.550  27.798  1.00  0.00    -0.237 OA
ATOM     85  O   UNL A   1      46.293  38.237  28.740  1.00  0.00    -0.237 OA
ATOM     86  O   UNL A   1      46.233  36.779  26.768  1.00  0.00    -0.744 OA
ENDBRANCH  80  83
ENDBRANCH  53  76
ENDBRANCH  27  28
ENDBRANCH  20  22
ENDBRANCH  19  20
ENDBRANCH  18  19
ENDBRANCH   1  18
TORSDOF 19
ENDMDL
MODEL 3
REMARK VINA RESULT:      -9.6      6.297     11.714
REMARK SMILES [NH3+][C@@H](CSCc1nccs1)C(=O)OCCOC(=O)c1ccc(-c2c3nc(c(-c4cccc(S(=O)(=O)[O-])c4F)c4ccc([nH]4)c(-c4cccc(S(=O)(=O)[O-])c4F)c4nc(c(-c5cccc(S(=O)(=O)[O-])c5F)c5ccc2[nH]5)C=C4)C=C3)cc1
REMARK SMILES IDX 14 1 13 2 11 3 12 4 2 5 1 6 3 10 4 11 5 12 6 13 7 14 10 15
REMARK SMILES IDX 8 16 9 17 15 18 16 19 17 20 18 21 19 22 20 23 81 24 21 25
REMARK SMILES IDX 80 26 22 27 23 28 24 29 74 30 25 31 79 32 73 33 75 34 26 35
REMARK SMILES IDX 78 36 72 37 71 38 27 40 59 41 39 42 58 43 40 44 43 45 57 46
REMARK SMILES IDX 76 47 41 48 42 49 56 51 77 52 44 53 28 54 29 55 37 56 30 57
REMARK SMILES IDX 32 58 38 59 31 60 33 61 34 62 35 63 36 64 60 65 61 66 69 67
REMARK SMILES IDX 62 68 64 69 70 70 63 71 65 72 66 73 67 74 68 75 45 76 46 77
REMARK SMILES IDX 54 78 47 79 49 80 55 81 48 82 50 83 51 84 52 85 53 86
REMARK H PARENT 1 7 1 8 1 9 75 39 43 50
REMARK Flexibility Score: inf
ROOT
ATOM      1  C   UNL A   1      31.665  31.096  26.145  1.00  0.00     0.274 C 
ENDROOT
BRANCH   1   2
ATOM      2  O   UNL A   1      32.267  29.873  26.606  1.00  0.00    -0.458 OA
BRANCH   2   3
ATOM      3  C   UNL A   1      31.770  28.717  26.071  1.00  0.00     0.365 C 
ATOM      4  O   UNL A   1      31.263  27.807  26.715  1.00  0.00    -0.245 OA
BRANCH   3   5
ATOM      5  C   UNL A   1      31.975  28.657  24.552  1.00  0.00     0.301 C 
BRANCH   5   6
ATOM      6  N   UNL A   1      32.683  27.437  24.120  1.00  0.00    -0.345 N 
ATOM      7  H   UNL A   1      33.023  26.933  24.939  1.00  0.00     0.345 HD
ATOM      8  H   UNL A   1      33.472  27.693  23.527  1.00  0.00     0.345 HD
ATOM      9  H   UNL A   1      32.043  26.841  23.596  1.00  0.00     0.345 HD
ENDBRANCH   5   6
BRANCH   5  10
ATOM     10  C   UNL A   1      30.670  28.986  23.813  1.00  0.00     0.147 C 
BRANCH  10  11
ATOM     11  S   UNL A   1      29.559  27.599  23.346  1.00  0.00    -0.148 SA
BRANCH  11  12
ATOM     12  C   UNL A   1      27.974  28.452  23.078  1.00  0.00     0.137 C 
BRANCH  12  13
ATOM     13  C   UNL A   1      28.089  29.832  22.507  1.00  0.00     0.102 A 
ATOM     14  N   UNL A   1      28.428  30.075  21.256  1.00  0.00    -0.249 NA
ATOM     15  S   UNL A   1      27.763  31.229  23.462  1.00  0.00    -0.126 S 
ATOM     16  C   UNL A   1      28.434  31.437  21.026  1.00  0.00     0.123 A 
ATOM     17  C   UNL A   1      28.130  32.223  22.115  1.00  0.00     0.087 A 
ENDBRANCH  12  13
ENDBRANCH  11  12
ENDBRANCH  10  11
ENDBRANCH   5  10
ENDBRANCH   3   5
ENDBRANCH   2   3
ENDBRANCH   1   2
BRANCH   1  18
ATOM     18  C   UNL A   1      31.784  32.196  27.201  1.00  0.00     0.275 C 
BRANCH  18  19
ATOM     19  O   UNL A   1      32.888  33.072  26.914  1.00  0.00    -0.458 OA
BRANCH  19  20
ATOM     20  C   UNL A   1      33.373  33.746  27.986  1.00  0.00     0.338 C 
ATOM     21  O   UNL A   1      32.876  34.719  28.527  1.00  0.00    -0.246 OA
BRANCH  20  22
ATOM     22  C   UNL A   1      34.565  33.046  28.494  1.00  0.00     0.060 A 
ATOM     23  C   UNL A   1      34.404  31.764  29.025  1.00  0.00     0.016 A 
ATOM     24  C   UNL A   1      35.815  33.666  28.502  1.00  0.00     0.016 A 
ATOM     25  C   UNL A   1      35.496  31.093  29.571  1.00  0.00     0.010 A 
ATOM     26  C   UNL A   1      36.910  32.994  29.058  1.00  0.00     0.010 A 
ATOM     27  C   UNL A   1      36.753  31.710  29.609  1.00  0.00    -0.014 A 
BRANCH  27  28
ATOM     28  C   UNL A   1      37.885  31.035  30.289  1.00  0.00     0.031 A 
ATOM     29  C   UNL A   1      38.175  31.343  31.731  1.00  0.00     0.074 A 
ATOM     30  C   UNL A   1      38.644  30.150  29.618  1.00  0.00     0.049 A 
ATOM     31  N   UNL A   1      39.135  30.892  32.495  1.00  0.00    -0.248 NA
ATOM     32  C   UNL A   1      37.264  32.284  32.402  1.00  0.00     0.031 C 
ATOM     33  C   UNL A   1      38.457  29.768  28.219  1.00  0.00     0.029 A 
ATOM     34  N   UNL A   1      39.738  29.426  30.021  1.00  0.00    -0.354 N 
ATOM     35  C   UNL A   1      38.964  31.512  33.727  1.00  0.00     0.074 A 
ATOM     36  C   UNL A   1      37.813  32.382  33.605  1.00  0.00     0.031 C 
ATOM     37  C   UNL A   1      39.416  28.894  27.873  1.00  0.00     0.029 A 
ATOM     38  C   UNL A   1      40.299  28.673  29.016  1.00  0.00     0.049 A 
ATOM     39  H   UNL A   1      40.087  29.442  30.941  1.00  0.00     0.167 HD
ATOM     40  C   UNL A   1      39.686  31.356  34.862  1.00  0.00     0.034 A 
ATOM     41  C   UNL A   1      41.409  27.908  29.014  1.00  0.00     0.034 A 
ATOM     42  C   UNL A   1      40.813  30.471  34.987  1.00  0.00     0.049 A 
ATOM     43  C   UNL A   1      42.200  27.763  30.288  1.00  0.00     0.074 A 
ATOM     44  C   UNL A   1      41.594  30.225  36.104  1.00  0.00     0.029 A 
ATOM     45  N   UNL A   1      41.321  29.686  33.964  1.00  0.00    -0.354 N 
ATOM     46  N   UNL A   1      41.964  28.277  31.471  1.00  0.00    -0.248 NA
ATOM     47  C   UNL A   1      43.395  26.907  30.234  1.00  0.00     0.031 C 
ATOM     48  C   UNL A   1      42.581  29.297  35.751  1.00  0.00     0.029 A 
ATOM     49  C   UNL A   1      42.406  28.956  34.419  1.00  0.00     0.049 A 
ATOM     50  H   UNL A   1      40.963  29.653  33.048  1.00  0.00     0.167 HD
ATOM     51  C   UNL A   1      42.959  27.783  32.307  1.00  0.00     0.074 A 
ATOM     52  C   UNL A   1      43.787  26.909  31.501  1.00  0.00     0.031 C 
ATOM     53  C   UNL A   1      43.182  28.044  33.619  1.00  0.00     0.034 A 
BRANCH  40  54
ATOM     54  C   UNL A   1      39.251  32.134  36.076  1.00  0.00     0.023 A 
ATOM     55  C   UNL A   1      39.767  33.428  36.288  1.00  0.00     0.012 A 
ATOM     56  C   UNL A   1      38.299  31.612  36.973  1.00  0.00     0.148 A 
ATOM     57  C   UNL A   1      39.365  34.181  37.390  1.00  0.00     0.002 A 
ATOM     58  C   UNL A   1      37.874  32.384  38.049  1.00  0.00     0.091 A 
ATOM     59  F   UNL A   1      37.837  30.371  36.767  1.00  0.00    -0.205 F 
ATOM     60  C   UNL A   1      38.413  33.664  38.264  1.00  0.00     0.022 A 
BRANCH  58  61
ATOM     61  S   UNL A   1      36.600  31.834  39.191  1.00  0.00     0.127 S 
ATOM     62  O   UNL A   1      37.230  32.097  40.484  1.00  0.00    -0.237 OA
ATOM     63  O   UNL A   1      35.486  32.723  38.864  1.00  0.00    -0.237 OA
ATOM     64  O   UNL A   1      36.365  30.431  38.881  1.00  0.00    -0.744 OA
ENDBRANCH  58  61
ENDBRANCH  40  54
BRANCH  41  65
ATOM     65  C   UNL A   1      41.814  27.186  27.775  1.00  0.00     0.023 A 
ATOM     66  C   UNL A   1      42.410  27.901  26.719  1.00  0.00     0.012 A 
ATOM     67  C   UNL A   1      41.629  25.795  27.644  1.00  0.00     0.148 A 
ATOM     68  C   UNL A   1      42.787  27.251  25.543  1.00  0.00     0.002 A 
ATOM     69  C   UNL A   1      42.056  25.145  26.493  1.00  0.00     0.091 A 
ATOM     70  F   UNL A   1      41.037  25.134  28.649  1.00  0.00    -0.205 F 
ATOM     71  C   UNL A   1      42.622  25.872  25.434  1.00  0.00     0.022 A 
BRANCH  69  72
ATOM     72  S   UNL A   1      41.995  23.357  26.328  1.00  0.00     0.127 S 
ATOM     73  O   UNL A   1      40.558  23.102  26.367  1.00  0.00    -0.237 OA
ATOM     74  O   UNL A   1      42.622  23.146  25.022  1.00  0.00    -0.237 OA
ATOM     75  O   UNL A   1      42.767  22.840  27.449  1.00  0.00    -0.744 OA
ENDBRANCH  69  72
ENDBRANCH  41  65
BRANCH  53  76
ATOM     76  C   UNL A   1      44.349  27.357  34.279  1.00  0.00     0.023 A 
ATOM     77  C   UNL A   1      45.595  28.009  34.342  1.00  0.00     0.012 A 
ATOM     78  C   UNL A   1      44.194  26.098  34.894  1.00  0.00     0.148 A 
ATOM     79  C   UNL A   1      46.679  27.407  34.981  1.00  0.00     0.002 A 
ATOM     80  C   UNL A   1      45.267  25.525  35.568  1.00  0.00     0.091 A 
ATOM     81  F   UNL A   1      43.006  25.484  34.806  1.00  0.00    -0.205 F 
ATOM     82  C   UNL A   1      46.512  26.173  35.604  1.00  0.00     0.022 A 
BRANCH  80  83
ATOM     83  S   UNL A   1      45.113  23.980  36.473  1.00  0.00     0.127 S 
ATOM     84  O   UNL A   1      46.495  23.506  36.490  1.00  0.00    -0.237 OA
ATOM     85  O   UNL A   1      44.606  24.426  37.772  1.00  0.00    -0.237 OA
ATOM     86  O   UNL A   1      44.176  23.165  35.711  1.00  0.00    -0.744 OA
ENDBRANCH  80  83
ENDBRANCH  53  76
ENDBRANCH  27  28
ENDBRANCH  20  22
ENDBRANCH  19  20
ENDBRANCH  18  19
ENDBRANCH   1  18
TORSDOF 19
ENDMDL
