MODEL 1
REMARK VINA RESULT:     -10.8      0.000      0.000
REMARK SMILES O=C(C[C@@H]([NH2+][C@@H]1CC[NH2+]C1)c1cccs1)OCCOC(=O)c1ccc(-c2c3nc(c(-c4cccc(S(=O)(=O)[O-])c4F)c4ccc([nH]4)c(-c4cccc(S(=O)(=O)[O-])c4F)c4nc(c(-c5cccc(S(=O)(=O)[O-])c5F)c5ccc2[nH]5)C=C4)C=C3)cc1
REMARK SMILES IDX 17 1 16 2 2 3 1 4 3 5 4 6 5 7 6 10 7 11 10 12 8 13 9 14
REMARK SMILES IDX 11 17 12 18 15 19 13 20 14 21 18 22 19 23 20 24 21 25 22 26
REMARK SMILES IDX 23 27 84 28 24 29 83 30 25 31 26 32 27 33 77 34 28 35 82 36
REMARK SMILES IDX 76 37 78 38 29 39 81 40 75 41 74 42 30 44 62 45 42 46 61 47
REMARK SMILES IDX 43 48 46 49 60 50 79 51 44 52 45 53 59 55 80 56 47 57 31 58
REMARK SMILES IDX 32 59 40 60 33 61 35 62 41 63 34 64 36 65 37 66 38 67 39 68
REMARK SMILES IDX 63 69 64 70 72 71 65 72 67 73 73 74 66 75 68 76 69 77 70 78
REMARK SMILES IDX 71 79 48 80 49 81 57 82 50 83 52 84 58 85 51 86 53 87 54 88
REMARK SMILES IDX 55 89 56 90
REMARK H PARENT 5 8 5 9 9 15 9 16 78 43 46 54
REMARK Flexibility Score: inf
ROOT
ATOM      1  C   UNL A   1      37.716  20.233  25.023  1.00  0.00     0.274 C 
ENDROOT
BRANCH   1   2
ATOM      2  O   UNL A   1      37.362  21.451  25.721  1.00  0.00    -0.462 OA
BRANCH   2   3
ATOM      3  C   UNL A   1      36.130  22.019  25.630  1.00  0.00     0.312 C 
ATOM      4  O   UNL A   1      36.002  23.239  25.605  1.00  0.00    -0.252 OA
BRANCH   3   5
ATOM      5  C   UNL A   1      34.942  21.100  25.628  1.00  0.00     0.193 C 
BRANCH   5   6
ATOM      6  C   UNL A   1      33.993  21.235  24.418  1.00  0.00     0.235 C 
BRANCH   6   7
ATOM      7  N   UNL A   1      33.593  19.915  23.908  1.00  0.00    -0.332 N 
ATOM      8  H   UNL A   1      34.073  19.781  23.018  1.00  0.00     0.347 HD
ATOM      9  H   UNL A   1      32.574  19.967  23.879  1.00  0.00     0.347 HD
BRANCH   7  10
ATOM     10  C   UNL A   1      33.855  18.718  24.719  1.00  0.00     0.244 C 
ATOM     11  C   UNL A   1      34.735  17.577  24.218  1.00  0.00     0.132 C 
ATOM     12  C   UNL A   1      32.482  18.008  24.908  1.00  0.00     0.326 C 
ATOM     13  C   UNL A   1      33.764  16.599  23.591  1.00  0.00     0.267 C 
ATOM     14  N   UNL A   1      32.655  16.588  24.559  1.00  0.00    -0.341 N 
ATOM     15  H   UNL A   1      32.896  16.037  25.383  1.00  0.00     0.346 HD
ATOM     16  H   UNL A   1      31.805  16.166  24.182  1.00  0.00     0.346 HD
ENDBRANCH   7  10
ENDBRANCH   6   7
BRANCH   6  17
ATOM     17  C   UNL A   1      32.806  22.064  24.894  1.00  0.00     0.062 A 
ATOM     18  C   UNL A   1      31.732  21.650  25.664  1.00  0.00     0.021 A 
ATOM     19  S   UNL A   1      32.636  23.726  24.458  1.00  0.00    -0.143 S 
ATOM     20  C   UNL A   1      30.816  22.707  25.944  1.00  0.00     0.012 A 
ATOM     21  C   UNL A   1      31.189  23.887  25.347  1.00  0.00     0.065 A 
ENDBRANCH   6  17
ENDBRANCH   5   6
ENDBRANCH   3   5
ENDBRANCH   2   3
ENDBRANCH   1   2
BRANCH   1  22
ATOM     22  C   UNL A   1      38.986  19.582  25.571  1.00  0.00     0.275 C 
BRANCH  22  23
ATOM     23  O   UNL A   1      40.027  20.562  25.707  1.00  0.00    -0.458 OA
BRANCH  23  24
ATOM     24  C   UNL A   1      40.678  20.559  26.900  1.00  0.00     0.338 C 
ATOM     25  O   UNL A   1      41.099  19.587  27.487  1.00  0.00    -0.246 OA
BRANCH  24  26
ATOM     26  C   UNL A   1      40.978  21.960  27.300  1.00  0.00     0.060 A 
ATOM     27  C   UNL A   1      40.366  22.983  26.566  1.00  0.00     0.016 A 
ATOM     28  C   UNL A   1      41.796  22.275  28.391  1.00  0.00     0.016 A 
ATOM     29  C   UNL A   1      40.592  24.319  26.900  1.00  0.00     0.010 A 
ATOM     30  C   UNL A   1      42.019  23.614  28.726  1.00  0.00     0.010 A 
ATOM     31  C   UNL A   1      41.441  24.644  27.966  1.00  0.00    -0.014 A 
BRANCH  31  32
ATOM     32  C   UNL A   1      41.832  26.054  28.198  1.00  0.00     0.031 A 
ATOM     33  C   UNL A   1      43.210  26.500  27.796  1.00  0.00     0.074 A 
ATOM     34  C   UNL A   1      40.983  26.929  28.767  1.00  0.00     0.049 A 
ATOM     35  N   UNL A   1      43.748  27.687  27.873  1.00  0.00    -0.248 NA
ATOM     36  C   UNL A   1      44.098  25.470  27.230  1.00  0.00     0.031 C 
ATOM     37  C   UNL A   1      39.628  26.622  29.214  1.00  0.00     0.029 A 
ATOM     38  N   UNL A   1      41.153  28.252  29.092  1.00  0.00    -0.354 N 
ATOM     39  C   UNL A   1      45.035  27.552  27.369  1.00  0.00     0.074 A 
ATOM     40  C   UNL A   1      45.208  26.159  27.015  1.00  0.00     0.031 C 
ATOM     41  C   UNL A   1      39.102  27.714  29.797  1.00  0.00     0.029 A 
ATOM     42  C   UNL A   1      40.082  28.798  29.758  1.00  0.00     0.049 A 
ATOM     43  H   UNL A   1      41.965  28.762  28.868  1.00  0.00     0.167 HD
ATOM     44  C   UNL A   1      45.978  28.504  27.187  1.00  0.00     0.034 A 
ATOM     45  C   UNL A   1      39.916  30.030  30.283  1.00  0.00     0.034 A 
ATOM     46  C   UNL A   1      45.808  29.890  27.524  1.00  0.00     0.049 A 
ATOM     47  C   UNL A   1      40.999  31.063  30.099  1.00  0.00     0.074 A 
ATOM     48  C   UNL A   1      46.686  30.938  27.318  1.00  0.00     0.029 A 
ATOM     49  N   UNL A   1      44.692  30.418  28.153  1.00  0.00    -0.354 N 
ATOM     50  N   UNL A   1      42.139  30.962  29.459  1.00  0.00    -0.248 NA
ATOM     51  C   UNL A   1      40.753  32.397  30.672  1.00  0.00     0.031 C 
ATOM     52  C   UNL A   1      46.109  32.100  27.842  1.00  0.00     0.029 A 
ATOM     53  C   UNL A   1      44.866  31.776  28.360  1.00  0.00     0.049 A 
ATOM     54  H   UNL A   1      43.895  29.904  28.414  1.00  0.00     0.167 HD
ATOM     55  C   UNL A   1      42.722  32.224  29.514  1.00  0.00     0.074 A 
ATOM     56  C   UNL A   1      41.805  33.079  30.237  1.00  0.00     0.031 C 
ATOM     57  C   UNL A   1      43.917  32.634  29.020  1.00  0.00     0.034 A 
BRANCH  44  58
ATOM     58  C   UNL A   1      47.269  28.085  26.543  1.00  0.00     0.023 A 
ATOM     59  C   UNL A   1      48.383  27.802  27.359  1.00  0.00     0.012 A 
ATOM     60  C   UNL A   1      47.366  27.914  25.149  1.00  0.00     0.148 A 
ATOM     61  C   UNL A   1      49.584  27.375  26.795  1.00  0.00     0.002 A 
ATOM     62  C   UNL A   1      48.556  27.453  24.598  1.00  0.00     0.091 A 
ATOM     63  F   UNL A   1      46.302  28.214  24.392  1.00  0.00    -0.205 F 
ATOM     64  C   UNL A   1      49.667  27.191  25.418  1.00  0.00     0.022 A 
BRANCH  62  65
ATOM     65  S   UNL A   1      48.743  27.124  22.842  1.00  0.00     0.127 S 
ATOM     66  O   UNL A   1      48.265  25.746  22.749  1.00  0.00    -0.237 OA
ATOM     67  O   UNL A   1      47.854  28.120  22.245  1.00  0.00    -0.237 OA
ATOM     68  O   UNL A   1      50.156  27.317  22.547  1.00  0.00    -0.744 OA
ENDBRANCH  62  65
ENDBRANCH  44  58
BRANCH  45  69
ATOM     69  C   UNL A   1      38.652  30.379  30.989  1.00  0.00     0.023 A 
ATOM     70  C   UNL A   1      38.452  29.944  32.313  1.00  0.00     0.012 A 
ATOM     71  C   UNL A   1      37.647  31.134  30.356  1.00  0.00     0.148 A 
ATOM     72  C   UNL A   1      37.259  30.222  32.981  1.00  0.00     0.002 A 
ATOM     73  C   UNL A   1      36.481  31.451  31.045  1.00  0.00     0.091 A 
ATOM     74  F   UNL A   1      37.845  31.523  29.087  1.00  0.00    -0.205 F 
ATOM     75  C   UNL A   1      36.277  30.982  32.351  1.00  0.00     0.022 A 
BRANCH  73  76
ATOM     76  S   UNL A   1      35.230  32.533  30.343  1.00  0.00     0.127 S 
ATOM     77  O   UNL A   1      34.783  31.765  29.185  1.00  0.00    -0.237 OA
ATOM     78  O   UNL A   1      34.258  32.627  31.434  1.00  0.00    -0.237 OA
ATOM     79  O   UNL A   1      35.923  33.782  30.057  1.00  0.00    -0.744 OA
ENDBRANCH  73  76
ENDBRANCH  45  69
BRANCH  57  80
ATOM     80  C   UNL A   1      44.301  34.079  29.207  1.00  0.00     0.023 A 
ATOM     81  C   UNL A   1      45.291  34.420  30.149  1.00  0.00     0.012 A 
ATOM     82  C   UNL A   1      43.749  35.084  28.388  1.00  0.00     0.148 A 
ATOM     83  C   UNL A   1      45.709  35.744  30.290  1.00  0.00     0.002 A 
ATOM     84  C   UNL A   1      44.202  36.393  28.503  1.00  0.00     0.091 A 
ATOM     85  F   UNL A   1      42.793  34.745  27.512  1.00  0.00    -0.205 F 
ATOM     86  C   UNL A   1      45.175  36.726  29.460  1.00  0.00     0.022 A 
BRANCH  84  87
ATOM     87  S   UNL A   1      43.638  37.703  27.409  1.00  0.00     0.127 S 
ATOM     88  O   UNL A   1      44.901  38.217  26.883  1.00  0.00    -0.237 OA
ATOM     89  O   UNL A   1      42.825  36.973  26.436  1.00  0.00    -0.237 OA
ATOM     90  O   UNL A   1      42.885  38.624  28.250  1.00  0.00    -0.744 OA
ENDBRANCH  84  87
ENDBRANCH  57  80
ENDBRANCH  31  32
ENDBRANCH  24  26
ENDBRANCH  23  24
ENDBRANCH  22  23
ENDBRANCH   1  22
TORSDOF 18
ENDMDL
MODEL 2
REMARK VINA RESULT:     -10.7      5.469     11.008
REMARK SMILES O=C(C[C@@H]([NH2+][C@@H]1CC[NH2+]C1)c1cccs1)OCCOC(=O)c1ccc(-c2c3nc(c(-c4cccc(S(=O)(=O)[O-])c4F)c4ccc([nH]4)c(-c4cccc(S(=O)(=O)[O-])c4F)c4nc(c(-c5cccc(S(=O)(=O)[O-])c5F)c5ccc2[nH]5)C=C4)C=C3)cc1
REMARK SMILES IDX 17 1 16 2 2 3 1 4 3 5 4 6 5 7 6 10 7 11 10 12 8 13 9 14
REMARK SMILES IDX 11 17 12 18 15 19 13 20 14 21 18 22 19 23 20 24 21 25 22 26
REMARK SMILES IDX 23 27 84 28 24 29 83 30 25 31 26 32 27 33 77 34 28 35 82 36
REMARK SMILES IDX 76 37 78 38 29 39 81 40 75 41 74 42 30 44 62 45 42 46 61 47
REMARK SMILES IDX 43 48 46 49 60 50 79 51 44 52 45 53 59 55 80 56 47 57 31 58
REMARK SMILES IDX 32 59 40 60 33 61 35 62 41 63 34 64 36 65 37 66 38 67 39 68
REMARK SMILES IDX 63 69 64 70 72 71 65 72 67 73 73 74 66 75 68 76 69 77 70 78
REMARK SMILES IDX 71 79 48 80 49 81 57 82 50 83 52 84 58 85 51 86 53 87 54 88
REMARK SMILES IDX 55 89 56 90
REMARK H PARENT 5 8 5 9 9 15 9 16 78 43 46 54
REMARK Flexibility Score: inf
ROOT
ATOM      1  C   UNL A   1      31.341  30.688  26.018  1.00  0.00     0.274 C 
ENDROOT
BRANCH   1   2
ATOM      2  O   UNL A   1      31.799  29.602  26.858  1.00  0.00    -0.462 OA
BRANCH   2   3
ATOM      3  C   UNL A   1      32.402  28.490  26.358  1.00  0.00     0.312 C 
ATOM      4  O   UNL A   1      33.534  28.548  25.888  1.00  0.00    -0.252 OA
BRANCH   3   5
ATOM      5  C   UNL A   1      31.607  27.216  26.348  1.00  0.00     0.193 C 
BRANCH   5   6
ATOM      6  C   UNL A   1      31.244  26.665  24.952  1.00  0.00     0.235 C 
BRANCH   6   7
ATOM      7  N   UNL A   1      31.634  27.606  23.891  1.00  0.00    -0.332 N 
ATOM      8  H   UNL A   1      32.485  27.238  23.465  1.00  0.00     0.347 HD
ATOM      9  H   UNL A   1      31.711  28.499  24.378  1.00  0.00     0.347 HD
BRANCH   7  10
ATOM     10  C   UNL A   1      30.696  27.888  22.796  1.00  0.00     0.244 C 
ATOM     11  C   UNL A   1      30.471  29.301  22.266  1.00  0.00     0.132 C 
ATOM     12  C   UNL A   1      29.281  27.513  23.326  1.00  0.00     0.326 C 
ATOM     13  C   UNL A   1      29.280  29.812  23.048  1.00  0.00     0.267 C 
ATOM     14  N   UNL A   1      28.380  28.647  23.055  1.00  0.00    -0.341 N 
ATOM     15  H   UNL A   1      27.920  28.537  22.151  1.00  0.00     0.346 HD
ATOM     16  H   UNL A   1      27.630  28.730  23.741  1.00  0.00     0.346 HD
ENDBRANCH   7  10
ENDBRANCH   6   7
BRANCH   6  17
ATOM     17  C   UNL A   1      31.947  25.318  24.828  1.00  0.00     0.062 A 
ATOM     18  C   UNL A   1      31.721  24.322  23.892  1.00  0.00     0.021 A 
ATOM     19  S   UNL A   1      33.164  24.831  25.951  1.00  0.00    -0.143 S 
ATOM     20  C   UNL A   1      32.587  23.202  24.061  1.00  0.00     0.012 A 
ATOM     21  C   UNL A   1      33.420  23.350  25.145  1.00  0.00     0.065 A 
ENDBRANCH   6  17
ENDBRANCH   5   6
ENDBRANCH   3   5
ENDBRANCH   2   3
ENDBRANCH   1   2
BRANCH   1  22
ATOM     22  C   UNL A   1      31.476  32.055  26.689  1.00  0.00     0.275 C 
BRANCH  22  23
ATOM     23  O   UNL A   1      32.827  32.529  26.582  1.00  0.00    -0.458 OA
BRANCH  23  24
ATOM     24  C   UNL A   1      33.269  33.272  27.631  1.00  0.00     0.338 C 
ATOM     25  O   UNL A   1      32.676  34.179  28.171  1.00  0.00    -0.246 OA
BRANCH  24  26
ATOM     26  C   UNL A   1      34.527  32.679  28.158  1.00  0.00     0.060 A 
ATOM     27  C   UNL A   1      34.502  31.322  28.503  1.00  0.00     0.016 A 
ATOM     28  C   UNL A   1      35.716  33.407  28.270  1.00  0.00     0.016 A 
ATOM     29  C   UNL A   1      35.653  30.699  28.988  1.00  0.00     0.010 A 
ATOM     30  C   UNL A   1      36.869  32.781  28.753  1.00  0.00     0.010 A 
ATOM     31  C   UNL A   1      36.837  31.432  29.141  1.00  0.00    -0.014 A 
BRANCH  31  32
ATOM     32  C   UNL A   1      37.999  30.824  29.833  1.00  0.00     0.031 A 
ATOM     33  C   UNL A   1      38.316  31.261  31.236  1.00  0.00     0.074 A 
ATOM     34  C   UNL A   1      38.771  29.905  29.225  1.00  0.00     0.049 A 
ATOM     35  N   UNL A   1      39.257  30.840  32.038  1.00  0.00    -0.248 NA
ATOM     36  C   UNL A   1      37.457  32.310  31.811  1.00  0.00     0.031 C 
ATOM     37  C   UNL A   1      38.580  29.407  27.867  1.00  0.00     0.029 A 
ATOM     38  N   UNL A   1      39.892  29.249  29.670  1.00  0.00    -0.354 N 
ATOM     39  C   UNL A   1      39.108  31.570  33.210  1.00  0.00     0.074 A 
ATOM     40  C   UNL A   1      38.004  32.482  33.005  1.00  0.00     0.031 C 
ATOM     41  C   UNL A   1      39.578  28.556  27.569  1.00  0.00     0.029 A 
ATOM     42  C   UNL A   1      40.473  28.445  28.719  1.00  0.00     0.049 A 
ATOM     43  H   UNL A   1      40.246  29.346  30.584  1.00  0.00     0.167 HD
ATOM     44  C   UNL A   1      39.806  31.470  34.364  1.00  0.00     0.034 A 
ATOM     45  C   UNL A   1      41.602  27.709  28.771  1.00  0.00     0.034 A 
ATOM     46  C   UNL A   1      40.895  30.558  34.578  1.00  0.00     0.049 A 
ATOM     47  C   UNL A   1      42.384  27.644  30.059  1.00  0.00     0.074 A 
ATOM     48  C   UNL A   1      41.621  30.343  35.736  1.00  0.00     0.029 A 
ATOM     49  N   UNL A   1      41.427  29.722  33.609  1.00  0.00    -0.354 N 
ATOM     50  N   UNL A   1      42.122  28.205  31.214  1.00  0.00    -0.248 NA
ATOM     51  C   UNL A   1      43.595  26.806  30.063  1.00  0.00     0.031 C 
ATOM     52  C   UNL A   1      42.607  29.389  35.461  1.00  0.00     0.029 A 
ATOM     53  C   UNL A   1      42.484  29.002  34.137  1.00  0.00     0.049 A 
ATOM     54  H   UNL A   1      41.101  29.652  32.683  1.00  0.00     0.167 HD
ATOM     55  C   UNL A   1      43.105  27.755  32.091  1.00  0.00     0.074 A 
ATOM     56  C   UNL A   1      43.961  26.863  31.337  1.00  0.00     0.031 C 
ATOM     57  C   UNL A   1      43.289  28.063  33.398  1.00  0.00     0.034 A 
BRANCH  44  58
ATOM     58  C   UNL A   1      39.375  32.340  35.511  1.00  0.00     0.023 A 
ATOM     59  C   UNL A   1      38.475  31.821  36.464  1.00  0.00     0.012 A 
ATOM     60  C   UNL A   1      39.898  33.635  35.679  1.00  0.00     0.148 A 
ATOM     61  C   UNL A   1      38.085  32.590  37.560  1.00  0.00     0.002 A 
ATOM     62  C   UNL A   1      39.531  34.381  36.793  1.00  0.00     0.091 A 
ATOM     63  F   UNL A   1      40.731  34.116  34.745  1.00  0.00    -0.205 F 
ATOM     64  C   UNL A   1      38.620  33.863  37.730  1.00  0.00     0.022 A 
BRANCH  62  65
ATOM     65  S   UNL A   1      40.214  36.007  37.134  1.00  0.00     0.127 S 
ATOM     66  O   UNL A   1      39.798  36.754  35.949  1.00  0.00    -0.237 OA
ATOM     67  O   UNL A   1      39.521  36.381  38.367  1.00  0.00    -0.237 OA
ATOM     68  O   UNL A   1      41.651  35.815  37.280  1.00  0.00    -0.744 OA
ENDBRANCH  62  65
ENDBRANCH  44  58
BRANCH  45  69
ATOM     69  C   UNL A   1      42.042  26.926  27.582  1.00  0.00     0.023 A 
ATOM     70  C   UNL A   1      42.702  27.580  26.524  1.00  0.00     0.012 A 
ATOM     71  C   UNL A   1      41.804  25.542  27.491  1.00  0.00     0.148 A 
ATOM     72  C   UNL A   1      43.085  26.877  25.381  1.00  0.00     0.002 A 
ATOM     73  C   UNL A   1      42.233  24.838  26.371  1.00  0.00     0.091 A 
ATOM     74  F   UNL A   1      41.155  24.939  28.498  1.00  0.00    -0.205 F 
ATOM     75  C   UNL A   1      42.859  25.505  25.307  1.00  0.00     0.022 A 
BRANCH  73  76
ATOM     76  S   UNL A   1      42.091  23.050  26.264  1.00  0.00     0.127 S 
ATOM     77  O   UNL A   1      40.646  22.857  26.339  1.00  0.00    -0.237 OA
ATOM     78  O   UNL A   1      42.684  22.772  24.954  1.00  0.00    -0.237 OA
ATOM     79  O   UNL A   1      42.866  22.537  27.385  1.00  0.00    -0.744 OA
ENDBRANCH  73  76
ENDBRANCH  45  69
BRANCH  57  80
ATOM     80  C   UNL A   1      44.437  27.412  34.123  1.00  0.00     0.023 A 
ATOM     81  C   UNL A   1      45.694  28.046  34.150  1.00  0.00     0.012 A 
ATOM     82  C   UNL A   1      44.248  26.222  34.854  1.00  0.00     0.148 A 
ATOM     83  C   UNL A   1      46.753  27.494  34.872  1.00  0.00     0.002 A 
ATOM     84  C   UNL A   1      45.294  25.700  35.607  1.00  0.00     0.091 A 
ATOM     85  F   UNL A   1      43.051  25.620  34.800  1.00  0.00    -0.205 F 
ATOM     86  C   UNL A   1      46.549  26.331  35.609  1.00  0.00     0.022 A 
BRANCH  84  87
ATOM     87  S   UNL A   1      45.092  24.259  36.661  1.00  0.00     0.127 S 
ATOM     88  O   UNL A   1      46.474  23.966  37.034  1.00  0.00    -0.237 OA
ATOM     89  O   UNL A   1      44.264  24.779  37.750  1.00  0.00    -0.237 OA
ATOM     90  O   UNL A   1      44.436  23.253  35.836  1.00  0.00    -0.744 OA
ENDBRANCH  84  87
ENDBRANCH  57  80
ENDBRANCH  31  32
ENDBRANCH  24  26
ENDBRANCH  23  24
ENDBRANCH  22  23
ENDBRANCH   1  22
TORSDOF 18
ENDMDL
MODEL 3
REMARK VINA RESULT:     -10.7      2.483      3.879
REMARK SMILES O=C(C[C@@H]([NH2+][C@@H]1CC[NH2+]C1)c1cccs1)OCCOC(=O)c1ccc(-c2c3nc(c(-c4cccc(S(=O)(=O)[O-])c4F)c4ccc([nH]4)c(-c4cccc(S(=O)(=O)[O-])c4F)c4nc(c(-c5cccc(S(=O)(=O)[O-])c5F)c5ccc2[nH]5)C=C4)C=C3)cc1
REMARK SMILES IDX 17 1 16 2 2 3 1 4 3 5 4 6 5 7 6 10 7 11 10 12 8 13 9 14
REMARK SMILES IDX 11 17 12 18 15 19 13 20 14 21 18 22 19 23 20 24 21 25 22 26
REMARK SMILES IDX 23 27 84 28 24 29 83 30 25 31 26 32 27 33 77 34 28 35 82 36
REMARK SMILES IDX 76 37 78 38 29 39 81 40 75 41 74 42 30 44 62 45 42 46 61 47
REMARK SMILES IDX 43 48 46 49 60 50 79 51 44 52 45 53 59 55 80 56 47 57 31 58
REMARK SMILES IDX 32 59 40 60 33 61 35 62 41 63 34 64 36 65 37 66 38 67 39 68
REMARK SMILES IDX 63 69 64 70 72 71 65 72 67 73 73 74 66 75 68 76 69 77 70 78
REMARK SMILES IDX 71 79 48 80 49 81 57 82 50 83 52 84 58 85 51 86 53 87 54 88
REMARK SMILES IDX 55 89 56 90
REMARK H PARENT 5 8 5 9 9 15 9 16 78 43 46 54
REMARK Flexibility Score: inf
ROOT
ATOM      1  C   UNL A   1      35.383  21.482  25.931  1.00  0.00     0.274 C 
ENDROOT
BRANCH   1   2
ATOM      2  O   UNL A   1      35.358  22.820  25.379  1.00  0.00    -0.462 OA
BRANCH   2   3
ATOM      3  C   UNL A   1      34.452  23.758  25.766  1.00  0.00     0.312 C 
ATOM      4  O   UNL A   1      33.503  23.455  26.482  1.00  0.00    -0.252 OA
BRANCH   3   5
ATOM      5  C   UNL A   1      34.626  25.150  25.232  1.00  0.00     0.193 C 
BRANCH   5   6
ATOM      6  C   UNL A   1      33.480  26.136  25.545  1.00  0.00     0.235 C 
BRANCH   6   7
ATOM      7  N   UNL A   1      34.004  27.424  26.026  1.00  0.00    -0.332 N 
ATOM      8  H   UNL A   1      33.943  28.080  25.247  1.00  0.00     0.347 HD
ATOM      9  H   UNL A   1      34.939  27.193  26.363  1.00  0.00     0.347 HD
BRANCH   7  10
ATOM     10  C   UNL A   1      33.371  28.073  27.183  1.00  0.00     0.244 C 
ATOM     11  C   UNL A   1      31.908  28.506  27.167  1.00  0.00     0.132 C 
ATOM     12  C   UNL A   1      34.107  29.431  27.379  1.00  0.00     0.326 C 
ATOM     13  C   UNL A   1      31.947  29.954  26.728  1.00  0.00     0.267 C 
ATOM     14  N   UNL A   1      33.087  30.488  27.492  1.00  0.00    -0.341 N 
ATOM     15  H   UNL A   1      32.831  30.643  28.467  1.00  0.00     0.346 HD
ATOM     16  H   UNL A   1      33.411  31.390  27.142  1.00  0.00     0.346 HD
ENDBRANCH   7  10
ENDBRANCH   6   7
BRANCH   6  17
ATOM     17  C   UNL A   1      32.672  26.276  24.260  1.00  0.00     0.062 A 
ATOM     18  C   UNL A   1      31.348  26.659  24.124  1.00  0.00     0.021 A 
ATOM     19  S   UNL A   1      33.358  25.903  22.720  1.00  0.00    -0.143 S 
ATOM     20  C   UNL A   1      30.927  26.707  22.762  1.00  0.00     0.012 A 
ATOM     21  C   UNL A   1      31.923  26.319  21.898  1.00  0.00     0.065 A 
ENDBRANCH   6  17
ENDBRANCH   5   6
ENDBRANCH   3   5
ENDBRANCH   2   3
ENDBRANCH   1   2
BRANCH   1  22
ATOM     22  C   UNL A   1      36.438  20.589  25.276  1.00  0.00     0.275 C 
BRANCH  22  23
ATOM     23  O   UNL A   1      37.618  21.352  24.979  1.00  0.00    -0.458 OA
BRANCH  23  24
ATOM     24  C   UNL A   1      38.706  21.060  25.739  1.00  0.00     0.338 C 
ATOM     25  O   UNL A   1      39.237  19.978  25.852  1.00  0.00    -0.246 OA
BRANCH  24  26
ATOM     26  C   UNL A   1      39.283  22.322  26.276  1.00  0.00     0.060 A 
ATOM     27  C   UNL A   1      38.707  23.525  25.849  1.00  0.00     0.016 A 
ATOM     28  C   UNL A   1      40.326  22.339  27.208  1.00  0.00     0.016 A 
ATOM     29  C   UNL A   1      39.189  24.744  26.326  1.00  0.00     0.010 A 
ATOM     30  C   UNL A   1      40.807  23.562  27.688  1.00  0.00     0.010 A 
ATOM     31  C   UNL A   1      40.260  24.771  27.230  1.00  0.00    -0.014 A 
BRANCH  31  32
ATOM     32  C   UNL A   1      40.895  26.062  27.585  1.00  0.00     0.031 A 
ATOM     33  C   UNL A   1      42.331  26.292  27.206  1.00  0.00     0.074 A 
ATOM     34  C   UNL A   1      40.214  27.016  28.247  1.00  0.00     0.049 A 
ATOM     35  N   UNL A   1      43.072  27.353  27.385  1.00  0.00    -0.248 NA
ATOM     36  C   UNL A   1      43.023  25.179  26.532  1.00  0.00     0.031 C 
ATOM     37  C   UNL A   1      38.826  26.912  28.684  1.00  0.00     0.029 A 
ATOM     38  N   UNL A   1      40.616  28.251  28.691  1.00  0.00    -0.354 N 
ATOM     39  C   UNL A   1      44.315  27.040  26.851  1.00  0.00     0.074 A 
ATOM     40  C   UNL A   1      44.238  25.679  26.366  1.00  0.00     0.031 C 
ATOM     41  C   UNL A   1      38.502  28.020  29.374  1.00  0.00     0.029 A 
ATOM     42  C   UNL A   1      39.659  28.912  29.422  1.00  0.00     0.049 A 
ATOM     43  H   UNL A   1      41.507  28.628  28.503  1.00  0.00     0.167 HD
ATOM     44  C   UNL A   1      45.412  27.823  26.744  1.00  0.00     0.034 A 
ATOM     45  C   UNL A   1      39.714  30.098  30.061  1.00  0.00     0.034 A 
ATOM     46  C   UNL A   1      45.490  29.179  27.211  1.00  0.00     0.049 A 
ATOM     47  C   UNL A   1      40.963  30.937  29.958  1.00  0.00     0.074 A 
ATOM     48  C   UNL A   1      46.542  30.070  27.090  1.00  0.00     0.029 A 
ATOM     49  N   UNL A   1      44.486  29.835  27.904  1.00  0.00    -0.354 N 
ATOM     50  N   UNL A   1      42.067  30.696  29.294  1.00  0.00    -0.248 NA
ATOM     51  C   UNL A   1      40.957  32.233  30.657  1.00  0.00     0.031 C 
ATOM     52  C   UNL A   1      46.179  31.261  27.729  1.00  0.00     0.029 A 
ATOM     53  C   UNL A   1      44.897  31.114  28.234  1.00  0.00     0.049 A 
ATOM     54  H   UNL A   1      43.609  29.448  28.128  1.00  0.00     0.167 HD
ATOM     55  C   UNL A   1      42.866  31.824  29.457  1.00  0.00     0.074 A 
ATOM     56  C   UNL A   1      42.114  32.756  30.271  1.00  0.00     0.031 C 
ATOM     57  C   UNL A   1      44.115  32.061  28.986  1.00  0.00     0.034 A 
BRANCH  44  58
ATOM     58  C   UNL A   1      46.609  27.245  26.043  1.00  0.00     0.023 A 
ATOM     59  C   UNL A   1      46.691  27.332  24.639  1.00  0.00     0.012 A 
ATOM     60  C   UNL A   1      47.672  26.673  26.768  1.00  0.00     0.148 A 
ATOM     61  C   UNL A   1      47.806  26.839  23.963  1.00  0.00     0.002 A 
ATOM     62  C   UNL A   1      48.795  26.216  26.090  1.00  0.00     0.091 A 
ATOM     63  F   UNL A   1      47.558  26.577  28.101  1.00  0.00    -0.205 F 
ATOM     64  C   UNL A   1      48.860  26.292  24.688  1.00  0.00     0.022 A 
BRANCH  62  65
ATOM     65  S   UNL A   1      50.232  25.553  26.938  1.00  0.00     0.127 S 
ATOM     66  O   UNL A   1      51.151  25.325  25.825  1.00  0.00    -0.237 OA
ATOM     67  O   UNL A   1      50.605  26.656  27.823  1.00  0.00    -0.237 OA
ATOM     68  O   UNL A   1      49.773  24.353  27.625  1.00  0.00    -0.744 OA
ENDBRANCH  62  65
ENDBRANCH  44  58
BRANCH  45  69
ATOM     69  C   UNL A   1      38.531  30.598  30.817  1.00  0.00     0.023 A 
ATOM     70  C   UNL A   1      38.355  30.222  32.162  1.00  0.00     0.012 A 
ATOM     71  C   UNL A   1      37.578  31.437  30.209  1.00  0.00     0.148 A 
ATOM     72  C   UNL A   1      37.233  30.642  32.878  1.00  0.00     0.002 A 
ATOM     73  C   UNL A   1      36.489  31.894  30.943  1.00  0.00     0.091 A 
ATOM     74  F   UNL A   1      37.750  31.769  28.921  1.00  0.00    -0.205 F 
ATOM     75  C   UNL A   1      36.305  31.484  32.272  1.00  0.00     0.022 A 
BRANCH  73  76
ATOM     76  S   UNL A   1      35.322  33.082  30.269  1.00  0.00     0.127 S 
ATOM     77  O   UNL A   1      36.209  34.031  29.604  1.00  0.00    -0.237 OA
ATOM     78  O   UNL A   1      34.520  32.251  29.370  1.00  0.00    -0.237 OA
ATOM     79  O   UNL A   1      34.587  33.590  31.420  1.00  0.00    -0.744 OA
ENDBRANCH  73  76
ENDBRANCH  45  69
BRANCH  57  80
ATOM     80  C   UNL A   1      44.749  33.391  29.300  1.00  0.00     0.023 A 
ATOM     81  C   UNL A   1      45.541  33.529  30.457  1.00  0.00     0.012 A 
ATOM     82  C   UNL A   1      44.637  34.474  28.406  1.00  0.00     0.148 A 
ATOM     83  C   UNL A   1      46.192  34.731  30.732  1.00  0.00     0.002 A 
ATOM     84  C   UNL A   1      45.324  35.655  28.663  1.00  0.00     0.091 A 
ATOM     85  F   UNL A   1      43.863  34.332  27.320  1.00  0.00    -0.205 F 
ATOM     86  C   UNL A   1      46.094  35.788  29.830  1.00  0.00     0.022 A 
BRANCH  84  87
ATOM     87  S   UNL A   1      45.331  37.032  27.507  1.00  0.00     0.127 S 
ATOM     88  O   UNL A   1      46.222  37.978  28.176  1.00  0.00    -0.237 OA
ATOM     89  O   UNL A   1      45.885  36.424  26.297  1.00  0.00    -0.237 OA
ATOM     90  O   UNL A   1      43.942  37.453  27.385  1.00  0.00    -0.744 OA
ENDBRANCH  84  87
ENDBRANCH  57  80
ENDBRANCH  31  32
ENDBRANCH  24  26
ENDBRANCH  23  24
ENDBRANCH  22  23
ENDBRANCH   1  22
TORSDOF 18
ENDMDL
