MODEL 1
REMARK VINA RESULT:     -10.7      0.000      0.000
REMARK SMILES CC[C@](C)(NC(=O)[C@](C)([NH3+])c1ccccc1)C(=O)OCCOC(=O)c1ccc(-c2c3nc(c(-c4cccc(S(=O)(=O)[O-])c4F)c4ccc([nH]4)c(-c4cccc(S(=O)(=O)[O-])c4F)c4nc(c(-c5cccc(S(=O)(=O)[O-])c5F)c5ccc2[nH]5)C=C4)C=C3)cc1
REMARK SMILES IDX 20 1 19 2 17 3 18 4 3 5 4 6 2 7 1 8 5 9 6 10 7 12 8 13 9 14
REMARK SMILES IDX 10 15 11 19 12 20 16 21 13 22 15 23 14 24 21 25 22 26 23 27
REMARK SMILES IDX 24 28 25 29 26 30 87 31 27 32 86 33 28 34 29 35 30 36 80 37
REMARK SMILES IDX 31 38 85 39 79 40 81 41 32 42 84 43 78 44 77 45 33 47 65 48
REMARK SMILES IDX 45 49 64 50 46 51 49 52 63 53 82 54 47 55 48 56 62 58 83 59
REMARK SMILES IDX 50 60 34 61 35 62 43 63 36 64 38 65 44 66 37 67 39 68 40 69
REMARK SMILES IDX 41 70 42 71 66 72 67 73 75 74 68 75 70 76 76 77 69 78 71 79
REMARK SMILES IDX 72 80 73 81 74 82 51 83 52 84 60 85 53 86 55 87 61 88 54 89
REMARK SMILES IDX 56 90 57 91 58 92 59 93
REMARK H PARENT 5 11 10 16 10 17 10 18 81 46 49 57
REMARK Flexibility Score: inf
ROOT
ATOM      1  C   UNL A   1      35.550  21.041  24.949  1.00  0.00     0.274 C 
ENDROOT
BRANCH   1   2
ATOM      2  O   UNL A   1      35.654  22.486  25.022  1.00  0.00    -0.460 OA
BRANCH   2   3
ATOM      3  C   UNL A   1      35.339  23.172  23.889  1.00  0.00     0.331 C 
ATOM      4  O   UNL A   1      35.872  22.948  22.804  1.00  0.00    -0.249 OA
BRANCH   3   5
ATOM      5  C   UNL A   1      34.317  24.342  24.097  1.00  0.00     0.135 C 
ATOM      6  C   UNL A   1      34.471  24.850  25.546  1.00  0.00     0.047 C 
BRANCH   5   7
ATOM      7  C   UNL A   1      32.931  23.624  23.917  1.00  0.00     0.037 C 
ATOM      8  C   UNL A   1      32.072  23.510  25.173  1.00  0.00     0.007 C 
ENDBRANCH   5   7
BRANCH   5   9
ATOM      9  N   UNL A   1      34.355  25.510  23.145  1.00  0.00    -0.335 N 
ATOM     10  C   UNL A   1      33.252  25.951  22.418  1.00  0.00     0.286 C 
ATOM     11  H   UNL A   1      35.209  25.990  23.031  1.00  0.00     0.164 HD
ATOM     12  O   UNL A   1      33.054  25.406  21.327  1.00  0.00    -0.267 OA
BRANCH  10  13
ATOM     13  C   UNL A   1      32.529  27.291  22.845  1.00  0.00     0.196 C 
ATOM     14  C   UNL A   1      31.082  27.210  22.337  1.00  0.00     0.096 C 
BRANCH  13  15
ATOM     15  N   UNL A   1      33.161  28.419  22.106  1.00  0.00    -0.341 N 
ATOM     16  H   UNL A   1      34.086  28.605  22.494  1.00  0.00     0.345 HD
ATOM     17  H   UNL A   1      32.581  29.253  22.199  1.00  0.00     0.345 HD
ATOM     18  H   UNL A   1      33.249  28.174  21.120  1.00  0.00     0.345 HD
ENDBRANCH  13  15
BRANCH  13  19
ATOM     19  C   UNL A   1      32.502  27.567  24.360  1.00  0.00     0.022 A 
ATOM     20  C   UNL A   1      31.442  27.071  25.151  1.00  0.00     0.011 A 
ATOM     21  C   UNL A   1      33.475  28.349  25.010  1.00  0.00     0.011 A 
ATOM     22  C   UNL A   1      31.321  27.399  26.505  1.00  0.00     0.001 A 
ATOM     23  C   UNL A   1      33.356  28.674  26.366  1.00  0.00     0.001 A 
ATOM     24  C   UNL A   1      32.275  28.209  27.110  1.00  0.00     0.000 A 
ENDBRANCH  13  19
ENDBRANCH  10  13
ENDBRANCH   5   9
ENDBRANCH   3   5
ENDBRANCH   2   3
ENDBRANCH   1   2
BRANCH   1  25
ATOM     25  C   UNL A   1      36.912  20.319  25.010  1.00  0.00     0.275 C 
BRANCH  25  26
ATOM     26  O   UNL A   1      38.051  21.198  24.899  1.00  0.00    -0.458 OA
BRANCH  26  27
ATOM     27  C   UNL A   1      38.867  21.161  25.973  1.00  0.00     0.338 C 
ATOM     28  O   UNL A   1      39.311  20.153  26.492  1.00  0.00    -0.246 OA
BRANCH  27  29
ATOM     29  C   UNL A   1      39.368  22.473  26.372  1.00  0.00     0.060 A 
ATOM     30  C   UNL A   1      40.428  22.476  27.278  1.00  0.00     0.016 A 
ATOM     31  C   UNL A   1      38.726  23.657  26.018  1.00  0.00     0.016 A 
ATOM     32  C   UNL A   1      40.846  23.656  27.862  1.00  0.00     0.010 A 
ATOM     33  C   UNL A   1      39.201  24.864  26.543  1.00  0.00     0.010 A 
ATOM     34  C   UNL A   1      40.273  24.866  27.453  1.00  0.00    -0.014 A 
BRANCH  34  35
ATOM     35  C   UNL A   1      40.960  26.118  27.834  1.00  0.00     0.031 A 
ATOM     36  C   UNL A   1      40.280  27.182  28.631  1.00  0.00     0.074 A 
ATOM     37  C   UNL A   1      42.239  26.251  27.433  1.00  0.00     0.049 A 
ATOM     38  N   UNL A   1      40.746  28.346  28.998  1.00  0.00    -0.248 NA
ATOM     39  C   UNL A   1      38.902  26.916  29.073  1.00  0.00     0.031 C 
ATOM     40  C   UNL A   1      42.978  25.254  26.648  1.00  0.00     0.029 A 
ATOM     41  N   UNL A   1      43.145  27.260  27.618  1.00  0.00    -0.354 N 
ATOM     42  C   UNL A   1      39.711  28.975  29.675  1.00  0.00     0.074 A 
ATOM     43  C   UNL A   1      38.593  28.054  29.685  1.00  0.00     0.031 C 
ATOM     44  C   UNL A   1      44.222  25.695  26.430  1.00  0.00     0.029 A 
ATOM     45  C   UNL A   1      44.351  27.029  27.000  1.00  0.00     0.049 A 
ATOM     46  H   UNL A   1      42.952  28.071  28.143  1.00  0.00     0.167 HD
ATOM     47  C   UNL A   1      39.709  30.208  30.234  1.00  0.00     0.034 A 
ATOM     48  C   UNL A   1      45.433  27.818  26.872  1.00  0.00     0.034 A 
ATOM     49  C   UNL A   1      40.848  31.091  30.235  1.00  0.00     0.049 A 
ATOM     50  C   UNL A   1      45.399  29.170  27.515  1.00  0.00     0.074 A 
ATOM     51  C   UNL A   1      40.963  32.347  30.802  1.00  0.00     0.029 A 
ATOM     52  N   UNL A   1      42.068  30.811  29.635  1.00  0.00    -0.354 N 
ATOM     53  N   UNL A   1      44.441  29.716  28.224  1.00  0.00    -0.248 NA
ATOM     54  C   UNL A   1      46.593  30.008  27.360  1.00  0.00     0.031 C 
ATOM     55  C   UNL A   1      42.249  32.832  30.536  1.00  0.00     0.029 A 
ATOM     56  C   UNL A   1      42.940  31.872  29.812  1.00  0.00     0.049 A 
ATOM     57  H   UNL A   1      42.283  29.979  29.155  1.00  0.00     0.167 HD
ATOM     58  C   UNL A   1      44.917  30.961  28.608  1.00  0.00     0.074 A 
ATOM     59  C   UNL A   1      46.265  31.071  28.082  1.00  0.00     0.031 C 
ATOM     60  C   UNL A   1      44.288  31.936  29.308  1.00  0.00     0.034 A 
BRANCH  47  61
ATOM     61  C   UNL A   1      38.450  30.676  30.912  1.00  0.00     0.023 A 
ATOM     62  C   UNL A   1      38.284  30.462  32.295  1.00  0.00     0.012 A 
ATOM     63  C   UNL A   1      37.472  31.400  30.202  1.00  0.00     0.148 A 
ATOM     64  C   UNL A   1      37.158  30.951  32.958  1.00  0.00     0.002 A 
ATOM     65  C   UNL A   1      36.367  31.911  30.876  1.00  0.00     0.091 A 
ATOM     66  F   UNL A   1      37.636  31.572  28.883  1.00  0.00    -0.205 F 
ATOM     67  C   UNL A   1      36.207  31.683  32.252  1.00  0.00     0.022 A 
BRANCH  65  68
ATOM     68  S   UNL A   1      35.119  32.920  30.066  1.00  0.00     0.127 S 
ATOM     69  O   UNL A   1      34.578  31.985  29.082  1.00  0.00    -0.237 OA
ATOM     70  O   UNL A   1      34.212  33.237  31.169  1.00  0.00    -0.237 OA
ATOM     71  O   UNL A   1      35.828  34.068  29.516  1.00  0.00    -0.744 OA
ENDBRANCH  65  68
ENDBRANCH  47  61
BRANCH  48  72
ATOM     72  C   UNL A   1      46.621  27.317  26.128  1.00  0.00     0.023 A 
ATOM     73  C   UNL A   1      46.771  27.632  24.766  1.00  0.00     0.012 A 
ATOM     74  C   UNL A   1      47.650  26.616  26.788  1.00  0.00     0.148 A 
ATOM     75  C   UNL A   1      47.920  27.248  24.072  1.00  0.00     0.002 A 
ATOM     76  C   UNL A   1      48.818  26.294  26.107  1.00  0.00     0.091 A 
ATOM     77  F   UNL A   1      47.485  26.302  28.081  1.00  0.00    -0.205 F 
ATOM     78  C   UNL A   1      48.950  26.595  24.744  1.00  0.00     0.022 A 
BRANCH  76  79
ATOM     79  S   UNL A   1      50.242  25.613  26.967  1.00  0.00     0.127 S 
ATOM     80  O   UNL A   1      51.217  25.489  25.887  1.00  0.00    -0.237 OA
ATOM     81  O   UNL A   1      50.544  26.651  27.952  1.00  0.00    -0.237 OA
ATOM     82  O   UNL A   1      49.765  24.365  27.553  1.00  0.00    -0.744 OA
ENDBRANCH  76  79
ENDBRANCH  48  72
BRANCH  60  83
ATOM     83  C   UNL A   1      45.059  33.205  29.539  1.00  0.00     0.023 A 
ATOM     84  C   UNL A   1      45.840  33.335  30.705  1.00  0.00     0.012 A 
ATOM     85  C   UNL A   1      45.048  34.243  28.590  1.00  0.00     0.148 A 
ATOM     86  C   UNL A   1      46.579  34.493  30.935  1.00  0.00     0.002 A 
ATOM     87  C   UNL A   1      45.818  35.378  28.806  1.00  0.00     0.091 A 
ATOM     88  F   UNL A   1      44.276  34.108  27.502  1.00  0.00    -0.205 F 
ATOM     89  C   UNL A   1      46.576  35.509  29.982  1.00  0.00     0.022 A 
BRANCH  87  90
ATOM     90  S   UNL A   1      45.931  36.696  27.592  1.00  0.00     0.127 S 
ATOM     91  O   UNL A   1      44.687  37.427  27.826  1.00  0.00    -0.237 OA
ATOM     92  O   UNL A   1      47.143  37.406  28.008  1.00  0.00    -0.237 OA
ATOM     93  O   UNL A   1      46.040  36.033  26.300  1.00  0.00    -0.744 OA
ENDBRANCH  87  90
ENDBRANCH  60  83
ENDBRANCH  34  35
ENDBRANCH  27  29
ENDBRANCH  26  27
ENDBRANCH  25  26
ENDBRANCH   1  25
TORSDOF 19
ENDMDL
MODEL 2
REMARK VINA RESULT:     -10.6      4.751      9.884
REMARK SMILES CC[C@](C)(NC(=O)[C@](C)([NH3+])c1ccccc1)C(=O)OCCOC(=O)c1ccc(-c2c3nc(c(-c4cccc(S(=O)(=O)[O-])c4F)c4ccc([nH]4)c(-c4cccc(S(=O)(=O)[O-])c4F)c4nc(c(-c5cccc(S(=O)(=O)[O-])c5F)c5ccc2[nH]5)C=C4)C=C3)cc1
REMARK SMILES IDX 20 1 19 2 17 3 18 4 3 5 4 6 2 7 1 8 5 9 6 10 7 12 8 13 9 14
REMARK SMILES IDX 10 15 11 19 12 20 16 21 13 22 15 23 14 24 21 25 22 26 23 27
REMARK SMILES IDX 24 28 25 29 26 30 87 31 27 32 86 33 28 34 29 35 30 36 80 37
REMARK SMILES IDX 31 38 85 39 79 40 81 41 32 42 84 43 78 44 77 45 33 47 65 48
REMARK SMILES IDX 45 49 64 50 46 51 49 52 63 53 82 54 47 55 48 56 62 58 83 59
REMARK SMILES IDX 50 60 34 61 35 62 43 63 36 64 38 65 44 66 37 67 39 68 40 69
REMARK SMILES IDX 41 70 42 71 66 72 67 73 75 74 68 75 70 76 76 77 69 78 71 79
REMARK SMILES IDX 72 80 73 81 74 82 51 83 52 84 60 85 53 86 55 87 61 88 54 89
REMARK SMILES IDX 56 90 57 91 58 92 59 93
REMARK H PARENT 5 11 10 16 10 17 10 18 81 46 49 57
REMARK Flexibility Score: inf
ROOT
ATOM      1  C   UNL A   1      31.774  28.881  26.615  1.00  0.00     0.274 C 
ENDROOT
BRANCH   1   2
ATOM      2  O   UNL A   1      31.053  28.372  25.463  1.00  0.00    -0.460 OA
BRANCH   2   3
ATOM      3  C   UNL A   1      31.547  27.239  24.895  1.00  0.00     0.331 C 
ATOM      4  O   UNL A   1      31.990  26.300  25.552  1.00  0.00    -0.249 OA
BRANCH   3   5
ATOM      5  C   UNL A   1      31.605  27.266  23.328  1.00  0.00     0.135 C 
ATOM      6  C   UNL A   1      32.793  28.162  22.917  1.00  0.00     0.047 C 
BRANCH   5   7
ATOM      7  C   UNL A   1      30.246  27.956  22.946  1.00  0.00     0.037 C 
ATOM      8  C   UNL A   1      30.360  29.280  22.194  1.00  0.00     0.007 C 
ENDBRANCH   5   7
BRANCH   5   9
ATOM      9  N   UNL A   1      31.678  25.956  22.586  1.00  0.00    -0.335 N 
ATOM     10  C   UNL A   1      32.860  25.250  22.381  1.00  0.00     0.286 C 
ATOM     11  H   UNL A   1      30.842  25.579  22.225  1.00  0.00     0.164 HD
ATOM     12  O   UNL A   1      33.520  25.552  21.381  1.00  0.00    -0.267 OA
BRANCH  10  13
ATOM     13  C   UNL A   1      33.126  23.930  23.211  1.00  0.00     0.196 C 
ATOM     14  C   UNL A   1      32.910  22.743  22.261  1.00  0.00     0.096 C 
BRANCH  13  15
ATOM     15  N   UNL A   1      32.073  23.815  24.258  1.00  0.00    -0.341 N 
ATOM     16  H   UNL A   1      31.158  23.737  23.813  1.00  0.00     0.345 HD
ATOM     17  H   UNL A   1      32.092  24.645  24.851  1.00  0.00     0.345 HD
ATOM     18  H   UNL A   1      32.247  22.987  24.827  1.00  0.00     0.345 HD
ENDBRANCH  13  15
BRANCH  13  19
ATOM     19  C   UNL A   1      34.534  23.816  23.827  1.00  0.00     0.022 A 
ATOM     20  C   UNL A   1      35.534  23.065  23.170  1.00  0.00     0.011 A 
ATOM     21  C   UNL A   1      34.874  24.392  25.064  1.00  0.00     0.011 A 
ATOM     22  C   UNL A   1      36.785  22.842  23.753  1.00  0.00     0.001 A 
ATOM     23  C   UNL A   1      36.127  24.172  25.646  1.00  0.00     0.001 A 
ATOM     24  C   UNL A   1      37.078  23.389  24.997  1.00  0.00     0.000 A 
ENDBRANCH  13  19
ENDBRANCH  10  13
ENDBRANCH   5   9
ENDBRANCH   3   5
ENDBRANCH   2   3
ENDBRANCH   1   2
BRANCH   1  25
ATOM     25  C   UNL A   1      31.775  30.421  26.712  1.00  0.00     0.275 C 
BRANCH  25  26
ATOM     26  O   UNL A   1      33.017  31.037  26.313  1.00  0.00    -0.458 OA
BRANCH  26  27
ATOM     27  C   UNL A   1      33.536  31.859  27.249  1.00  0.00     0.338 C 
ATOM     28  O   UNL A   1      33.019  32.882  27.660  1.00  0.00    -0.246 OA
BRANCH  27  29
ATOM     29  C   UNL A   1      34.719  31.317  27.910  1.00  0.00     0.060 A 
ATOM     30  C   UNL A   1      35.778  32.205  28.098  1.00  0.00     0.016 A 
ATOM     31  C   UNL A   1      34.867  29.960  28.183  1.00  0.00     0.016 A 
ATOM     32  C   UNL A   1      37.006  31.747  28.537  1.00  0.00     0.010 A 
ATOM     33  C   UNL A   1      36.082  29.507  28.706  1.00  0.00     0.010 A 
ATOM     34  C   UNL A   1      37.148  30.403  28.900  1.00  0.00    -0.014 A 
BRANCH  34  35
ATOM     35  C   UNL A   1      38.348  30.022  29.673  1.00  0.00     0.031 A 
ATOM     36  C   UNL A   1      39.379  29.091  29.126  1.00  0.00     0.074 A 
ATOM     37  C   UNL A   1      38.473  30.563  30.901  1.00  0.00     0.049 A 
ATOM     38  N   UNL A   1      40.456  28.636  29.709  1.00  0.00    -0.248 NA
ATOM     39  C   UNL A   1      39.183  28.601  27.752  1.00  0.00     0.031 C 
ATOM     40  C   UNL A   1      37.506  31.483  31.512  1.00  0.00     0.029 A 
ATOM     41  N   UNL A   1      39.444  30.427  31.855  1.00  0.00    -0.354 N 
ATOM     42  C   UNL A   1      41.047  27.773  28.797  1.00  0.00     0.074 A 
ATOM     43  C   UNL A   1      40.217  27.780  27.611  1.00  0.00     0.031 C 
ATOM     44  C   UNL A   1      37.937  31.836  32.728  1.00  0.00     0.029 A 
ATOM     45  C   UNL A   1      39.173  31.120  33.011  1.00  0.00     0.049 A 
ATOM     46  H   UNL A   1      40.257  29.886  31.727  1.00  0.00     0.167 HD
ATOM     47  C   UNL A   1      42.181  27.049  28.951  1.00  0.00     0.034 A 
ATOM     48  C   UNL A   1      39.827  31.151  34.186  1.00  0.00     0.034 A 
ATOM     49  C   UNL A   1      43.004  27.086  30.133  1.00  0.00     0.049 A 
ATOM     50  C   UNL A   1      41.084  30.348  34.313  1.00  0.00     0.074 A 
ATOM     51  C   UNL A   1      44.190  26.419  30.377  1.00  0.00     0.029 A 
ATOM     52  N   UNL A   1      42.724  27.830  31.271  1.00  0.00    -0.354 N 
ATOM     53  N   UNL A   1      41.674  29.601  33.412  1.00  0.00    -0.248 NA
ATOM     54  C   UNL A   1      41.776  30.401  35.606  1.00  0.00     0.031 C 
ATOM     55  C   UNL A   1      44.621  26.749  31.668  1.00  0.00     0.029 A 
ATOM     56  C   UNL A   1      43.709  27.633  32.223  1.00  0.00     0.049 A 
ATOM     57  H   UNL A   1      41.939  28.414  31.384  1.00  0.00     0.167 HD
ATOM     58  C   UNL A   1      42.813  29.099  34.023  1.00  0.00     0.074 A 
ATOM     59  C   UNL A   1      42.848  29.658  35.362  1.00  0.00     0.031 C 
ATOM     60  C   UNL A   1      43.734  28.233  33.533  1.00  0.00     0.034 A 
BRANCH  47  61
ATOM     61  C   UNL A   1      42.619  26.169  27.811  1.00  0.00     0.023 A 
ATOM     62  C   UNL A   1      43.603  26.630  26.914  1.00  0.00     0.012 A 
ATOM     63  C   UNL A   1      42.121  24.858  27.677  1.00  0.00     0.148 A 
ATOM     64  C   UNL A   1      44.076  25.805  25.894  1.00  0.00     0.002 A 
ATOM     65  C   UNL A   1      42.620  24.030  26.675  1.00  0.00     0.091 A 
ATOM     66  F   UNL A   1      41.168  24.446  28.524  1.00  0.00    -0.205 F 
ATOM     67  C   UNL A   1      43.593  24.504  25.781  1.00  0.00     0.022 A 
BRANCH  65  68
ATOM     68  S   UNL A   1      42.106  22.318  26.490  1.00  0.00     0.127 S 
ATOM     69  O   UNL A   1      40.678  22.467  26.214  1.00  0.00    -0.237 OA
ATOM     70  O   UNL A   1      42.904  21.877  25.345  1.00  0.00    -0.237 OA
ATOM     71  O   UNL A   1      42.436  21.661  27.748  1.00  0.00    -0.744 OA
ENDBRANCH  65  68
ENDBRANCH  47  61
BRANCH  48  72
ATOM     72  C   UNL A   1      39.300  31.991  35.296  1.00  0.00     0.023 A 
ATOM     73  C   UNL A   1      38.455  31.416  36.261  1.00  0.00     0.012 A 
ATOM     74  C   UNL A   1      39.712  33.329  35.455  1.00  0.00     0.148 A 
ATOM     75  C   UNL A   1      38.021  32.161  37.359  1.00  0.00     0.002 A 
ATOM     76  C   UNL A   1      39.329  34.045  36.583  1.00  0.00     0.091 A 
ATOM     77  F   UNL A   1      40.500  33.873  34.516  1.00  0.00    -0.205 F 
ATOM     78  C   UNL A   1      38.470  33.469  37.530  1.00  0.00     0.022 A 
BRANCH  76  79
ATOM     79  S   UNL A   1      40.019  35.666  36.940  1.00  0.00     0.127 S 
ATOM     80  O   UNL A   1      39.387  35.990  38.214  1.00  0.00    -0.237 OA
ATOM     81  O   UNL A   1      41.454  35.389  37.017  1.00  0.00    -0.237 OA
ATOM     82  O   UNL A   1      39.639  36.494  35.801  1.00  0.00    -0.744 OA
ENDBRANCH  76  79
ENDBRANCH  48  72
BRANCH  60  83
ATOM     83  C   UNL A   1      44.851  27.841  34.458  1.00  0.00     0.023 A 
ATOM     84  C   UNL A   1      46.068  28.549  34.408  1.00  0.00     0.012 A 
ATOM     85  C   UNL A   1      44.684  26.810  35.401  1.00  0.00     0.148 A 
ATOM     86  C   UNL A   1      47.114  28.218  35.267  1.00  0.00     0.002 A 
ATOM     87  C   UNL A   1      45.716  26.512  36.281  1.00  0.00     0.091 A 
ATOM     88  F   UNL A   1      43.527  26.133  35.411  1.00  0.00    -0.205 F 
ATOM     89  C   UNL A   1      46.935  27.208  36.208  1.00  0.00     0.022 A 
BRANCH  87  90
ATOM     90  S   UNL A   1      45.537  25.280  37.574  1.00  0.00     0.127 S 
ATOM     91  O   UNL A   1      46.838  25.349  38.236  1.00  0.00    -0.237 OA
ATOM     92  O   UNL A   1      44.422  25.810  38.362  1.00  0.00    -0.237 OA
ATOM     93  O   UNL A   1      45.243  24.029  36.888  1.00  0.00    -0.744 OA
ENDBRANCH  87  90
ENDBRANCH  60  83
ENDBRANCH  34  35
ENDBRANCH  27  29
ENDBRANCH  26  27
ENDBRANCH  25  26
ENDBRANCH   1  25
TORSDOF 19
ENDMDL
MODEL 3
REMARK VINA RESULT:     -10.6      4.709      9.908
REMARK SMILES CC[C@](C)(NC(=O)[C@](C)([NH3+])c1ccccc1)C(=O)OCCOC(=O)c1ccc(-c2c3nc(c(-c4cccc(S(=O)(=O)[O-])c4F)c4ccc([nH]4)c(-c4cccc(S(=O)(=O)[O-])c4F)c4nc(c(-c5cccc(S(=O)(=O)[O-])c5F)c5ccc2[nH]5)C=C4)C=C3)cc1
REMARK SMILES IDX 20 1 19 2 17 3 18 4 3 5 4 6 2 7 1 8 5 9 6 10 7 12 8 13 9 14
REMARK SMILES IDX 10 15 11 19 12 20 16 21 13 22 15 23 14 24 21 25 22 26 23 27
REMARK SMILES IDX 24 28 25 29 26 30 87 31 27 32 86 33 28 34 29 35 30 36 80 37
REMARK SMILES IDX 31 38 85 39 79 40 81 41 32 42 84 43 78 44 77 45 33 47 65 48
REMARK SMILES IDX 45 49 64 50 46 51 49 52 63 53 82 54 47 55 48 56 62 58 83 59
REMARK SMILES IDX 50 60 34 61 35 62 43 63 36 64 38 65 44 66 37 67 39 68 40 69
REMARK SMILES IDX 41 70 42 71 66 72 67 73 75 74 68 75 70 76 76 77 69 78 71 79
REMARK SMILES IDX 72 80 73 81 74 82 51 83 52 84 60 85 53 86 55 87 61 88 54 89
REMARK SMILES IDX 56 90 57 91 58 92 59 93
REMARK H PARENT 5 11 10 16 10 17 10 18 81 46 49 57
REMARK Flexibility Score: inf
ROOT
ATOM      1  C   UNL A   1      31.384  29.562  25.232  1.00  0.00     0.274 C 
ENDROOT
BRANCH   1   2
ATOM      2  O   UNL A   1      31.743  28.230  24.782  1.00  0.00    -0.460 OA
BRANCH   2   3
ATOM      3  C   UNL A   1      31.666  27.238  25.711  1.00  0.00     0.331 C 
ATOM      4  O   UNL A   1      31.070  27.368  26.778  1.00  0.00    -0.249 OA
BRANCH   3   5
ATOM      5  C   UNL A   1      32.488  25.950  25.361  1.00  0.00     0.135 C 
ATOM      6  C   UNL A   1      33.793  26.399  24.669  1.00  0.00     0.047 C 
BRANCH   5   7
ATOM      7  C   UNL A   1      31.554  25.214  24.334  1.00  0.00     0.037 C 
ATOM      8  C   UNL A   1      30.074  25.587  24.393  1.00  0.00     0.007 C 
ENDBRANCH   5   7
BRANCH   5   9
ATOM      9  N   UNL A   1      32.810  24.977  26.466  1.00  0.00    -0.335 N 
ATOM     10  C   UNL A   1      32.177  23.747  26.622  1.00  0.00     0.286 C 
ATOM     11  H   UNL A   1      33.509  25.226  27.115  1.00  0.00     0.164 HD
ATOM     12  O   UNL A   1      31.131  23.742  27.279  1.00  0.00    -0.267 OA
BRANCH  10  13
ATOM     13  C   UNL A   1      32.957  22.423  26.252  1.00  0.00     0.196 C 
ATOM     14  C   UNL A   1      32.012  21.559  25.403  1.00  0.00     0.096 C 
BRANCH  13  15
ATOM     15  N   UNL A   1      33.198  21.656  27.507  1.00  0.00    -0.341 N 
ATOM     16  H   UNL A   1      32.507  20.910  27.588  1.00  0.00     0.345 HD
ATOM     17  H   UNL A   1      33.117  22.283  28.308  1.00  0.00     0.345 HD
ATOM     18  H   UNL A   1      34.134  21.251  27.484  1.00  0.00     0.345 HD
ENDBRANCH  13  15
BRANCH  13  19
ATOM     19  C   UNL A   1      34.268  22.630  25.470  1.00  0.00     0.022 A 
ATOM     20  C   UNL A   1      35.481  22.838  26.165  1.00  0.00     0.011 A 
ATOM     21  C   UNL A   1      34.319  22.674  24.065  1.00  0.00     0.011 A 
ATOM     22  C   UNL A   1      36.667  23.146  25.493  1.00  0.00     0.001 A 
ATOM     23  C   UNL A   1      35.508  22.978  23.393  1.00  0.00     0.001 A 
ATOM     24  C   UNL A   1      36.678  23.225  24.106  1.00  0.00     0.000 A 
ENDBRANCH  13  19
ENDBRANCH  10  13
ENDBRANCH   5   9
ENDBRANCH   3   5
ENDBRANCH   2   3
ENDBRANCH   1   2
BRANCH   1  25
ATOM     25  C   UNL A   1      32.573  30.361  25.806  1.00  0.00     0.275 C 
BRANCH  25  26
ATOM     26  O   UNL A   1      32.305  30.986  27.078  1.00  0.00    -0.458 OA
BRANCH  26  27
ATOM     27  C   UNL A   1      33.206  31.934  27.413  1.00  0.00     0.338 C 
ATOM     28  O   UNL A   1      33.009  33.135  27.398  1.00  0.00    -0.246 OA
BRANCH  27  29
ATOM     29  C   UNL A   1      34.423  31.396  28.012  1.00  0.00     0.060 A 
ATOM     30  C   UNL A   1      35.460  32.306  28.216  1.00  0.00     0.016 A 
ATOM     31  C   UNL A   1      34.619  30.032  28.210  1.00  0.00     0.016 A 
ATOM     32  C   UNL A   1      36.713  31.865  28.597  1.00  0.00     0.010 A 
ATOM     33  C   UNL A   1      35.863  29.591  28.676  1.00  0.00     0.010 A 
ATOM     34  C   UNL A   1      36.906  30.510  28.886  1.00  0.00    -0.014 A 
BRANCH  34  35
ATOM     35  C   UNL A   1      38.139  30.127  29.605  1.00  0.00     0.031 A 
ATOM     36  C   UNL A   1      39.155  29.214  29.002  1.00  0.00     0.074 A 
ATOM     37  C   UNL A   1      38.309  30.651  30.835  1.00  0.00     0.049 A 
ATOM     38  N   UNL A   1      40.259  28.760  29.535  1.00  0.00    -0.248 NA
ATOM     39  C   UNL A   1      38.908  28.743  27.631  1.00  0.00     0.031 C 
ATOM     40  C   UNL A   1      37.359  31.554  31.498  1.00  0.00     0.029 A 
ATOM     41  N   UNL A   1      39.319  30.509  31.747  1.00  0.00    -0.354 N 
ATOM     42  C   UNL A   1      40.820  27.916  28.588  1.00  0.00     0.074 A 
ATOM     43  C   UNL A   1      39.943  27.933  27.436  1.00  0.00     0.031 C 
ATOM     44  C   UNL A   1      37.836  31.893  32.701  1.00  0.00     0.029 A 
ATOM     45  C   UNL A   1      39.088  31.183  32.923  1.00  0.00     0.049 A 
ATOM     46  H   UNL A   1      40.130  29.978  31.578  1.00  0.00     0.167 HD
ATOM     47  C   UNL A   1      41.965  27.199  28.685  1.00  0.00     0.034 A 
ATOM     48  C   UNL A   1      39.788  31.202  34.072  1.00  0.00     0.034 A 
ATOM     49  C   UNL A   1      42.833  27.226  29.834  1.00  0.00     0.049 A 
ATOM     50  C   UNL A   1      41.056  30.408  34.137  1.00  0.00     0.074 A 
ATOM     51  C   UNL A   1      44.034  26.565  30.021  1.00  0.00     0.029 A 
ATOM     52  N   UNL A   1      42.593  27.951  30.994  1.00  0.00    -0.354 N 
ATOM     53  N   UNL A   1      41.616  29.680  33.201  1.00  0.00    -0.248 NA
ATOM     54  C   UNL A   1      41.799  30.448  35.401  1.00  0.00     0.031 C 
ATOM     55  C   UNL A   1      44.513  26.881  31.298  1.00  0.00     0.029 A 
ATOM     56  C   UNL A   1      43.617  27.748  31.903  1.00  0.00     0.049 A 
ATOM     57  H   UNL A   1      41.808  28.526  31.147  1.00  0.00     0.167 HD
ATOM     58  C   UNL A   1      42.782  29.179  33.758  1.00  0.00     0.074 A 
ATOM     59  C   UNL A   1      42.866  29.718  35.103  1.00  0.00     0.031 C 
ATOM     60  C   UNL A   1      43.690  28.329  33.219  1.00  0.00     0.034 A 
BRANCH  47  61
ATOM     61  C   UNL A   1      42.363  26.340  27.516  1.00  0.00     0.023 A 
ATOM     62  C   UNL A   1      43.189  26.877  26.507  1.00  0.00     0.012 A 
ATOM     63  C   UNL A   1      41.994  24.982  27.456  1.00  0.00     0.148 A 
ATOM     64  C   UNL A   1      43.630  26.080  25.451  1.00  0.00     0.002 A 
ATOM     65  C   UNL A   1      42.463  24.184  26.417  1.00  0.00     0.091 A 
ATOM     66  F   UNL A   1      41.189  24.496  28.411  1.00  0.00    -0.205 F 
ATOM     67  C   UNL A   1      43.276  24.733  25.412  1.00  0.00     0.022 A 
BRANCH  65  68
ATOM     68  S   UNL A   1      42.115  22.424  26.314  1.00  0.00     0.127 S 
ATOM     69  O   UNL A   1      40.657  22.419  26.197  1.00  0.00    -0.237 OA
ATOM     70  O   UNL A   1      42.825  22.038  25.094  1.00  0.00    -0.237 OA
ATOM     71  O   UNL A   1      42.648  21.838  27.536  1.00  0.00    -0.744 OA
ENDBRANCH  65  68
ENDBRANCH  47  61
BRANCH  48  72
ATOM     72  C   UNL A   1      39.299  32.021  35.214  1.00  0.00     0.023 A 
ATOM     73  C   UNL A   1      38.494  31.425  36.201  1.00  0.00     0.012 A 
ATOM     74  C   UNL A   1      39.711  33.359  35.380  1.00  0.00     0.148 A 
ATOM     75  C   UNL A   1      38.098  32.150  37.326  1.00  0.00     0.002 A 
ATOM     76  C   UNL A   1      39.366  34.054  36.533  1.00  0.00     0.091 A 
ATOM     77  F   UNL A   1      40.460  33.922  34.421  1.00  0.00    -0.205 F 
ATOM     78  C   UNL A   1      38.547  33.457  37.502  1.00  0.00     0.022 A 
BRANCH  76  79
ATOM     79  S   UNL A   1      40.061  35.673  36.890  1.00  0.00     0.127 S 
ATOM     80  O   UNL A   1      39.467  35.978  38.187  1.00  0.00    -0.237 OA
ATOM     81  O   UNL A   1      41.499  35.401  36.920  1.00  0.00    -0.237 OA
ATOM     82  O   UNL A   1      39.644  36.514  35.774  1.00  0.00    -0.744 OA
ENDBRANCH  76  79
ENDBRANCH  48  72
BRANCH  60  83
ATOM     83  C   UNL A   1      44.846  27.932  34.093  1.00  0.00     0.023 A 
ATOM     84  C   UNL A   1      46.002  28.739  34.115  1.00  0.00     0.012 A 
ATOM     85  C   UNL A   1      44.774  26.797  34.920  1.00  0.00     0.148 A 
ATOM     86  C   UNL A   1      47.081  28.404  34.929  1.00  0.00     0.002 A 
ATOM     87  C   UNL A   1      45.838  26.492  35.760  1.00  0.00     0.091 A 
ATOM     88  F   UNL A   1      43.676  26.030  34.862  1.00  0.00    -0.205 F 
ATOM     89  C   UNL A   1      46.996  27.288  35.758  1.00  0.00     0.022 A 
BRANCH  87  90
ATOM     90  S   UNL A   1      45.774  25.118  36.914  1.00  0.00     0.127 S 
ATOM     91  O   UNL A   1      45.750  23.969  36.011  1.00  0.00    -0.237 OA
ATOM     92  O   UNL A   1      47.022  25.278  37.664  1.00  0.00    -0.237 OA
ATOM     93  O   UNL A   1      44.569  25.325  37.706  1.00  0.00    -0.744 OA
ENDBRANCH  87  90
ENDBRANCH  60  83
ENDBRANCH  34  35
ENDBRANCH  27  29
ENDBRANCH  26  27
ENDBRANCH  25  26
ENDBRANCH   1  25
TORSDOF 19
ENDMDL
