MODEL 1
REMARK VINA RESULT:      -8.9      0.000      0.000
REMARK SMILES NS(=O)(=O)c1ccc(-n2nc(C(=O)NCCCCCCCCCCC(=O)OCCOC(=O)c3ccc(-c4c5nc(c(-c6cccc(S(=O)(=O)[O-])c6F)c6ccc([nH]6)c(-c6cccc(S(=O)(=O)[O-])c6F)c6nc(c(-c7cccc(S(=O)(=O)[O-])c7F)c7ccc4[nH]7)C=C6)C=C5)cc3)cc2-c2ccccc2)cc1
REMARK SMILES IDX 22 1 21 2 20 3 19 4 18 5 17 6 16 7 15 8 14 9 12 10 13 11
REMARK SMILES IDX 11 13 9 14 10 15 97 16 96 17 8 18 5 19 6 20 105 21 7 22
REMARK SMILES IDX 104 23 2 24 3 25 4 26 1 27 98 30 99 31 103 32 100 33 102 34
REMARK SMILES IDX 101 35 23 36 24 37 25 38 26 39 27 40 28 41 29 42 30 43 31 44
REMARK SMILES IDX 32 45 33 46 34 47 95 48 35 49 94 50 36 51 37 52 38 53 88 54
REMARK SMILES IDX 39 55 93 56 87 57 89 58 40 59 92 60 86 61 85 62 41 64 73 65
REMARK SMILES IDX 53 66 72 67 54 68 57 69 71 70 90 71 55 72 56 73 70 75 91 76
REMARK SMILES IDX 58 77 42 78 43 79 51 80 44 81 46 82 52 83 45 84 47 85 48 86
REMARK SMILES IDX 49 87 50 88 74 89 75 90 83 91 76 92 78 93 84 94 77 95 79 96
REMARK SMILES IDX 80 97 81 98 82 99 59 100 60 101 68 102 61 103 63 104 69 105
REMARK SMILES IDX 62 106 64 107 65 108 66 109 67 110
REMARK H PARENT 14 12 1 28 1 29 89 63 57 74
REMARK Flexibility Score: inf
ROOT
ATOM      1  C   UNL A   1      31.020  27.014  23.645  1.00  0.00     0.001 C 
ENDROOT
BRANCH   1   2
ATOM      2  C   UNL A   1      31.758  25.831  23.026  1.00  0.00     0.000 C 
BRANCH   2   3
ATOM      3  C   UNL A   1      33.270  25.978  23.187  1.00  0.00     0.000 C 
BRANCH   3   4
ATOM      4  C   UNL A   1      33.890  24.760  23.873  1.00  0.00     0.000 C 
BRANCH   4   5
ATOM      5  C   UNL A   1      34.298  25.063  25.319  1.00  0.00     0.000 C 
BRANCH   5   6
ATOM      6  C   UNL A   1      35.404  24.126  25.823  1.00  0.00     0.002 C 
BRANCH   6   7
ATOM      7  C   UNL A   1      35.919  23.188  24.727  1.00  0.00     0.021 C 
BRANCH   7   8
ATOM      8  C   UNL A   1      37.418  23.376  24.522  1.00  0.00     0.116 C 
BRANCH   8   9
ATOM      9  N   UNL A   1      38.128  22.386  25.289  1.00  0.00    -0.351 N 
ATOM     10  C   UNL A   1      39.127  22.493  26.221  1.00  0.00     0.271 C 
ATOM     11  O   UNL A   1      39.619  21.429  26.606  1.00  0.00    -0.267 OA
ATOM     12  H   UNL A   1      37.845  21.461  25.111  1.00  0.00     0.163 HD
BRANCH  10  13
ATOM     13  C   UNL A   1      39.529  23.801  26.775  1.00  0.00     0.151 A 
ATOM     14  N   UNL A   1      40.923  25.245  27.534  1.00  0.00    -0.232 N 
ATOM     15  N   UNL A   1      40.827  24.159  26.742  1.00  0.00    -0.162 NA
ATOM     16  C   UNL A   1      39.690  25.704  27.951  1.00  0.00     0.075 A 
ATOM     17  C   UNL A   1      38.783  24.845  27.371  1.00  0.00     0.065 A 
BRANCH  14  18
ATOM     18  C   UNL A   1      42.184  25.813  27.797  1.00  0.00     0.065 A 
ATOM     19  C   UNL A   1      44.775  26.663  28.249  1.00  0.00     0.082 A 
ATOM     20  C   UNL A   1      44.173  26.922  27.014  1.00  0.00     0.024 A 
ATOM     21  C   UNL A   1      44.070  26.025  29.278  1.00  0.00     0.024 A 
ATOM     22  C   UNL A   1      42.877  26.478  26.779  1.00  0.00     0.030 A 
ATOM     23  C   UNL A   1      42.752  25.630  29.063  1.00  0.00     0.030 A 
BRANCH  19  24
ATOM     24  S   UNL A   1      46.478  27.043  28.508  1.00  0.00     0.238 S 
ATOM     25  O   UNL A   1      46.586  28.449  28.847  1.00  0.00    -0.207 OA
ATOM     26  O   UNL A   1      47.255  26.427  27.467  1.00  0.00    -0.207 OA
BRANCH  24  27
ATOM     27  N   UNL A   1      46.865  26.229  29.927  1.00  0.00    -0.225 NA
ATOM     28  H   UNL A   1      46.469  26.728  30.725  1.00  0.00     0.137 HD
ATOM     29  H   UNL A   1      47.879  26.181  30.026  1.00  0.00     0.137 HD
ENDBRANCH  24  27
ENDBRANCH  19  24
ENDBRANCH  14  18
BRANCH  16  30
ATOM     30  C   UNL A   1      39.412  26.923  28.700  1.00  0.00     0.000 A 
ATOM     31  C   UNL A   1      39.332  28.157  28.044  1.00  0.00     0.010 A 
ATOM     32  C   UNL A   1      39.171  26.858  30.078  1.00  0.00     0.010 A 
ATOM     33  C   UNL A   1      39.025  29.313  28.760  1.00  0.00     0.001 A 
ATOM     34  C   UNL A   1      38.868  28.017  30.794  1.00  0.00     0.001 A 
ATOM     35  C   UNL A   1      38.795  29.243  30.134  1.00  0.00     0.000 A 
ENDBRANCH  16  30
ENDBRANCH  10  13
ENDBRANCH   8   9
ENDBRANCH   7   8
ENDBRANCH   6   7
ENDBRANCH   5   6
ENDBRANCH   4   5
ENDBRANCH   3   4
ENDBRANCH   2   3
ENDBRANCH   1   2
BRANCH   1  36
ATOM     36  C   UNL A   1      31.977  28.153  23.983  1.00  0.00     0.012 C 
BRANCH  36  37
ATOM     37  C   UNL A   1      31.518  29.118  25.082  1.00  0.00     0.123 C 
BRANCH  37  38
ATOM     38  C   UNL A   1      32.189  29.058  26.445  1.00  0.00     0.305 C 
ATOM     39  O   UNL A   1      32.859  28.097  26.804  1.00  0.00    -0.252 OA
BRANCH  38  40
ATOM     40  O   UNL A   1      32.019  30.187  27.179  1.00  0.00    -0.462 OA
BRANCH  40  41
ATOM     41  C   UNL A   1      32.940  31.277  26.967  1.00  0.00     0.274 C 
BRANCH  41  42
ATOM     42  C   UNL A   1      34.042  31.283  28.019  1.00  0.00     0.275 C 
BRANCH  42  43
ATOM     43  O   UNL A   1      34.623  32.582  28.076  1.00  0.00    -0.458 OA
BRANCH  43  44
ATOM     44  C   UNL A   1      34.070  33.382  29.010  1.00  0.00     0.338 C 
ATOM     45  O   UNL A   1      33.308  34.316  28.824  1.00  0.00    -0.246 OA
BRANCH  44  46
ATOM     46  C   UNL A   1      34.648  33.090  30.315  1.00  0.00     0.060 A 
ATOM     47  C   UNL A   1      35.030  34.177  31.118  1.00  0.00     0.016 A 
ATOM     48  C   UNL A   1      35.252  31.839  30.395  1.00  0.00     0.016 A 
ATOM     49  C   UNL A   1      36.206  34.080  31.823  1.00  0.00     0.010 A 
ATOM     50  C   UNL A   1      36.461  31.777  31.019  1.00  0.00     0.010 A 
ATOM     51  C   UNL A   1      36.951  32.917  31.664  1.00  0.00    -0.014 A 
BRANCH  51  52
ATOM     52  C   UNL A   1      38.262  32.824  32.261  1.00  0.00     0.031 A 
ATOM     53  C   UNL A   1      39.309  33.274  31.311  1.00  0.00     0.074 A 
ATOM     54  C   UNL A   1      38.372  32.589  33.583  1.00  0.00     0.049 A 
ATOM     55  N   UNL A   1      40.224  32.571  30.724  1.00  0.00    -0.248 NA
ATOM     56  C   UNL A   1      39.141  34.622  30.729  1.00  0.00     0.031 C 
ATOM     57  C   UNL A   1      37.279  32.488  34.562  1.00  0.00     0.029 A 
ATOM     58  N   UNL A   1      39.479  32.586  34.370  1.00  0.00    -0.354 N 
ATOM     59  C   UNL A   1      40.888  33.495  29.915  1.00  0.00     0.074 A 
ATOM     60  C   UNL A   1      39.965  34.562  29.686  1.00  0.00     0.031 C 
ATOM     61  C   UNL A   1      37.772  32.720  35.799  1.00  0.00     0.029 A 
ATOM     62  C   UNL A   1      39.212  32.882  35.706  1.00  0.00     0.049 A 
ATOM     63  H   UNL A   1      40.382  32.393  34.030  1.00  0.00     0.167 HD
ATOM     64  C   UNL A   1      42.248  33.541  29.871  1.00  0.00     0.034 A 
ATOM     65  C   UNL A   1      40.101  33.360  36.615  1.00  0.00     0.034 A 
ATOM     66  C   UNL A   1      42.808  32.310  30.373  1.00  0.00     0.049 A 
ATOM     67  C   UNL A   1      41.455  33.165  36.044  1.00  0.00     0.074 A 
ATOM     68  C   UNL A   1      42.713  30.977  30.031  1.00  0.00     0.029 A 
ATOM     69  N   UNL A   1      43.286  32.355  31.659  1.00  0.00    -0.354 N 
ATOM     70  N   UNL A   1      41.988  31.998  35.813  1.00  0.00    -0.248 NA
ATOM     71  C   UNL A   1      42.038  34.276  35.307  1.00  0.00     0.031 C 
ATOM     72  C   UNL A   1      42.756  30.275  31.269  1.00  0.00     0.029 A 
ATOM     73  C   UNL A   1      42.943  31.200  32.300  1.00  0.00     0.049 A 
ATOM     74  H   UNL A   1      43.793  33.101  32.055  1.00  0.00     0.167 HD
ATOM     75  C   UNL A   1      42.640  32.152  34.596  1.00  0.00     0.074 A 
ATOM     76  C   UNL A   1      42.735  33.596  34.393  1.00  0.00     0.031 C 
ATOM     77  C   UNL A   1      42.754  31.101  33.732  1.00  0.00     0.034 A 
BRANCH  64  78
ATOM     78  C   UNL A   1      43.075  34.823  29.834  1.00  0.00     0.023 A 
ATOM     79  C   UNL A   1      43.210  35.509  31.060  1.00  0.00     0.012 A 
ATOM     80  C   UNL A   1      43.483  35.531  28.674  1.00  0.00     0.148 A 
ATOM     81  C   UNL A   1      43.634  36.841  31.122  1.00  0.00     0.002 A 
ATOM     82  C   UNL A   1      43.967  36.833  28.744  1.00  0.00     0.091 A 
ATOM     83  F   UNL A   1      43.313  35.019  27.458  1.00  0.00    -0.205 F 
ATOM     84  C   UNL A   1      44.011  37.505  29.962  1.00  0.00     0.022 A 
BRANCH  82  85
ATOM     85  S   UNL A   1      44.493  37.727  27.270  1.00  0.00     0.127 S 
ATOM     86  O   UNL A   1      45.405  36.765  26.658  1.00  0.00    -0.237 OA
ATOM     87  O   UNL A   1      43.222  37.913  26.569  1.00  0.00    -0.237 OA
ATOM     88  O   UNL A   1      45.098  38.964  27.746  1.00  0.00    -0.744 OA
ENDBRANCH  82  85
ENDBRANCH  64  78
BRANCH  65  89
ATOM     89  C   UNL A   1      39.880  34.280  37.761  1.00  0.00     0.023 A 
ATOM     90  C   UNL A   1      39.960  35.674  37.560  1.00  0.00     0.012 A 
ATOM     91  C   UNL A   1      39.323  33.819  38.976  1.00  0.00     0.148 A 
ATOM     92  C   UNL A   1      39.479  36.575  38.521  1.00  0.00     0.002 A 
ATOM     93  C   UNL A   1      38.860  34.717  39.934  1.00  0.00     0.091 A 
ATOM     94  F   UNL A   1      39.158  32.502  39.150  1.00  0.00    -0.205 F 
ATOM     95  C   UNL A   1      38.925  36.097  39.705  1.00  0.00     0.022 A 
BRANCH  93  96
ATOM     96  S   UNL A   1      38.112  34.173  41.477  1.00  0.00     0.127 S 
ATOM     97  O   UNL A   1      37.877  35.444  42.163  1.00  0.00    -0.237 OA
ATOM     98  O   UNL A   1      36.904  33.500  41.006  1.00  0.00    -0.237 OA
ATOM     99  O   UNL A   1      39.102  33.318  42.120  1.00  0.00    -0.744 OA
ENDBRANCH  93  96
ENDBRANCH  65  89
BRANCH  77 100
ATOM    100  C   UNL A   1      42.453  29.722  34.252  1.00  0.00     0.023 A 
ATOM    101  C   UNL A   1      41.217  29.074  34.047  1.00  0.00     0.012 A 
ATOM    102  C   UNL A   1      43.534  28.990  34.769  1.00  0.00     0.148 A 
ATOM    103  C   UNL A   1      41.068  27.718  34.355  1.00  0.00     0.002 A 
ATOM    104  C   UNL A   1      43.398  27.634  35.018  1.00  0.00     0.091 A 
ATOM    105  F   UNL A   1      44.697  29.633  34.959  1.00  0.00    -0.205 F 
ATOM    106  C   UNL A   1      42.164  26.993  34.821  1.00  0.00     0.022 A 
BRANCH 104 107
ATOM    107  S   UNL A   1      44.812  26.626  35.464  1.00  0.00     0.127 S 
ATOM    108  O   UNL A   1      45.624  26.688  34.252  1.00  0.00    -0.237 OA
ATOM    109  O   UNL A   1      45.363  27.352  36.610  1.00  0.00    -0.237 OA
ATOM    110  O   UNL A   1      44.279  25.310  35.796  1.00  0.00    -0.744 OA
ENDBRANCH 104 107
ENDBRANCH  77 100
ENDBRANCH  51  52
ENDBRANCH  44  46
ENDBRANCH  43  44
ENDBRANCH  42  43
ENDBRANCH  41  42
ENDBRANCH  40  41
ENDBRANCH  38  40
ENDBRANCH  37  38
ENDBRANCH  36  37
ENDBRANCH   1  36
TORSDOF 29
ENDMDL
MODEL 2
REMARK VINA RESULT:      -8.7      2.512      3.450
REMARK SMILES NS(=O)(=O)c1ccc(-n2nc(C(=O)NCCCCCCCCCCC(=O)OCCOC(=O)c3ccc(-c4c5nc(c(-c6cccc(S(=O)(=O)[O-])c6F)c6ccc([nH]6)c(-c6cccc(S(=O)(=O)[O-])c6F)c6nc(c(-c7cccc(S(=O)(=O)[O-])c7F)c7ccc4[nH]7)C=C6)C=C5)cc3)cc2-c2ccccc2)cc1
REMARK SMILES IDX 22 1 21 2 20 3 19 4 18 5 17 6 16 7 15 8 14 9 12 10 13 11
REMARK SMILES IDX 11 13 9 14 10 15 97 16 96 17 8 18 5 19 6 20 105 21 7 22
REMARK SMILES IDX 104 23 2 24 3 25 4 26 1 27 98 30 99 31 103 32 100 33 102 34
REMARK SMILES IDX 101 35 23 36 24 37 25 38 26 39 27 40 28 41 29 42 30 43 31 44
REMARK SMILES IDX 32 45 33 46 34 47 95 48 35 49 94 50 36 51 37 52 38 53 88 54
REMARK SMILES IDX 39 55 93 56 87 57 89 58 40 59 92 60 86 61 85 62 41 64 73 65
REMARK SMILES IDX 53 66 72 67 54 68 57 69 71 70 90 71 55 72 56 73 70 75 91 76
REMARK SMILES IDX 58 77 42 78 43 79 51 80 44 81 46 82 52 83 45 84 47 85 48 86
REMARK SMILES IDX 49 87 50 88 74 89 75 90 83 91 76 92 78 93 84 94 77 95 79 96
REMARK SMILES IDX 80 97 81 98 82 99 59 100 60 101 68 102 61 103 63 104 69 105
REMARK SMILES IDX 62 106 64 107 65 108 66 109 67 110
REMARK H PARENT 14 12 1 28 1 29 89 63 57 74
REMARK Flexibility Score: inf
ROOT
ATOM      1  C   UNL A   1      32.425  25.111  24.223  1.00  0.00     0.001 C 
ENDROOT
BRANCH   1   2
ATOM      2  C   UNL A   1      32.331  24.302  25.513  1.00  0.00     0.000 C 
BRANCH   2   3
ATOM      3  C   UNL A   1      32.016  22.836  25.223  1.00  0.00     0.000 C 
BRANCH   3   4
ATOM      4  C   UNL A   1      33.184  21.919  25.593  1.00  0.00     0.000 C 
BRANCH   4   5
ATOM      5  C   UNL A   1      33.810  21.263  24.357  1.00  0.00     0.000 C 
BRANCH   5   6
ATOM      6  C   UNL A   1      35.302  21.592  24.213  1.00  0.00     0.002 C 
BRANCH   6   7
ATOM      7  C   UNL A   1      36.196  20.563  24.912  1.00  0.00     0.021 C 
BRANCH   7   8
ATOM      8  C   UNL A   1      37.366  21.254  25.605  1.00  0.00     0.116 C 
BRANCH   8   9
ATOM      9  N   UNL A   1      37.016  22.626  25.870  1.00  0.00    -0.351 N 
ATOM     10  C   UNL A   1      37.723  23.662  26.419  1.00  0.00     0.271 C 
ATOM     11  O   UNL A   1      37.085  24.696  26.631  1.00  0.00    -0.267 OA
ATOM     12  H   UNL A   1      36.098  22.863  25.608  1.00  0.00     0.163 HD
BRANCH  10  13
ATOM     13  C   UNL A   1      39.175  23.558  26.671  1.00  0.00     0.151 A 
ATOM     14  N   UNL A   1      41.113  22.650  26.524  1.00  0.00    -0.232 N 
ATOM     15  N   UNL A   1      39.919  22.735  25.906  1.00  0.00    -0.162 NA
ATOM     16  C   UNL A   1      41.223  23.526  27.584  1.00  0.00     0.075 A 
ATOM     17  C   UNL A   1      40.019  24.195  27.611  1.00  0.00     0.065 A 
BRANCH  14  18
ATOM     18  C   UNL A   1      42.098  21.775  26.027  1.00  0.00     0.065 A 
ATOM     19  C   UNL A   1      44.195  20.134  25.286  1.00  0.00     0.082 A 
ATOM     20  C   UNL A   1      43.106  19.589  25.975  1.00  0.00     0.024 A 
ATOM     21  C   UNL A   1      44.217  21.486  24.922  1.00  0.00     0.024 A 
ATOM     22  C   UNL A   1      42.061  20.417  26.364  1.00  0.00     0.030 A 
ATOM     23  C   UNL A   1      43.144  22.305  25.262  1.00  0.00     0.030 A 
BRANCH  19  24
ATOM     24  S   UNL A   1      45.619  19.149  24.948  1.00  0.00     0.238 S 
ATOM     25  O   UNL A   1      45.346  17.789  25.371  1.00  0.00    -0.207 OA
ATOM     26  O   UNL A   1      46.792  19.874  25.354  1.00  0.00    -0.207 OA
BRANCH  24  27
ATOM     27  N   UNL A   1      45.672  19.073  23.269  1.00  0.00    -0.225 NA
ATOM     28  H   UNL A   1      44.812  18.648  22.921  1.00  0.00     0.137 HD
ATOM     29  H   UNL A   1      46.471  18.510  22.979  1.00  0.00     0.137 HD
ENDBRANCH  24  27
ENDBRANCH  19  24
ENDBRANCH  14  18
BRANCH  16  30
ATOM     30  C   UNL A   1      42.411  23.795  28.384  1.00  0.00     0.000 A 
ATOM     31  C   UNL A   1      43.142  24.974  28.197  1.00  0.00     0.010 A 
ATOM     32  C   UNL A   1      42.799  22.894  29.385  1.00  0.00     0.010 A 
ATOM     33  C   UNL A   1      44.254  25.244  28.994  1.00  0.00     0.001 A 
ATOM     34  C   UNL A   1      43.915  23.164  30.178  1.00  0.00     0.001 A 
ATOM     35  C   UNL A   1      44.640  24.339  29.982  1.00  0.00     0.000 A 
ENDBRANCH  16  30
ENDBRANCH  10  13
ENDBRANCH   8   9
ENDBRANCH   7   8
ENDBRANCH   6   7
ENDBRANCH   5   6
ENDBRANCH   4   5
ENDBRANCH   3   4
ENDBRANCH   2   3
ENDBRANCH   1   2
BRANCH   1  36
ATOM     36  C   UNL A   1      33.433  26.250  24.350  1.00  0.00     0.012 C 
BRANCH  36  37
ATOM     37  C   UNL A   1      33.463  26.978  25.699  1.00  0.00     0.123 C 
BRANCH  37  38
ATOM     38  C   UNL A   1      33.410  28.498  25.719  1.00  0.00     0.305 C 
ATOM     39  O   UNL A   1      33.111  29.157  24.730  1.00  0.00    -0.252 OA
BRANCH  38  40
ATOM     40  O   UNL A   1      33.665  29.030  26.941  1.00  0.00    -0.462 OA
BRANCH  40  41
ATOM     41  C   UNL A   1      34.860  29.822  27.099  1.00  0.00     0.274 C 
BRANCH  41  42
ATOM     42  C   UNL A   1      34.534  31.220  27.607  1.00  0.00     0.275 C 
BRANCH  42  43
ATOM     43  O   UNL A   1      34.566  31.217  29.030  1.00  0.00    -0.458 OA
BRANCH  43  44
ATOM     44  C   UNL A   1      34.860  32.418  29.569  1.00  0.00     0.338 C 
ATOM     45  O   UNL A   1      34.720  33.513  29.051  1.00  0.00    -0.246 OA
BRANCH  44  46
ATOM     46  C   UNL A   1      35.552  32.233  30.838  1.00  0.00     0.060 A 
ATOM     47  C   UNL A   1      35.661  33.344  31.690  1.00  0.00     0.016 A 
ATOM     48  C   UNL A   1      36.475  31.192  30.828  1.00  0.00     0.016 A 
ATOM     49  C   UNL A   1      36.848  33.538  32.353  1.00  0.00     0.010 A 
ATOM     50  C   UNL A   1      37.681  31.432  31.412  1.00  0.00     0.010 A 
ATOM     51  C   UNL A   1      37.872  32.630  32.107  1.00  0.00    -0.014 A 
BRANCH  51  52
ATOM     52  C   UNL A   1      39.184  32.870  32.659  1.00  0.00     0.031 A 
ATOM     53  C   UNL A   1      40.077  33.495  31.652  1.00  0.00     0.074 A 
ATOM     54  C   UNL A   1      39.379  32.736  33.985  1.00  0.00     0.049 A 
ATOM     55  N   UNL A   1      41.113  32.989  31.064  1.00  0.00    -0.248 NA
ATOM     56  C   UNL A   1      39.589  34.738  31.016  1.00  0.00     0.031 C 
ATOM     57  C   UNL A   1      38.363  32.440  35.007  1.00  0.00     0.029 A 
ATOM     58  N   UNL A   1      40.476  33.026  34.731  1.00  0.00    -0.354 N 
ATOM     59  C   UNL A   1      41.526  33.996  30.190  1.00  0.00     0.074 A 
ATOM     60  C   UNL A   1      40.379  34.812  29.947  1.00  0.00     0.031 C 
ATOM     61  C   UNL A   1      38.821  32.843  36.214  1.00  0.00     0.029 A 
ATOM     62  C   UNL A   1      40.183  33.323  36.061  1.00  0.00     0.049 A 
ATOM     63  H   UNL A   1      41.391  33.026  34.367  1.00  0.00     0.167 HD
ATOM     64  C   UNL A   1      42.838  34.349  30.094  1.00  0.00     0.034 A 
ATOM     65  C   UNL A   1      40.961  34.038  36.914  1.00  0.00     0.034 A 
ATOM     66  C   UNL A   1      43.678  33.306  30.631  1.00  0.00     0.049 A 
ATOM     67  C   UNL A   1      42.309  34.127  36.303  1.00  0.00     0.074 A 
ATOM     68  C   UNL A   1      43.883  31.970  30.354  1.00  0.00     0.029 A 
ATOM     69  N   UNL A   1      44.165  33.526  31.895  1.00  0.00    -0.354 N 
ATOM     70  N   UNL A   1      43.089  33.101  36.106  1.00  0.00    -0.248 NA
ATOM     71  C   UNL A   1      42.603  35.301  35.495  1.00  0.00     0.031 C 
ATOM     72  C   UNL A   1      44.117  31.362  31.620  1.00  0.00     0.029 A 
ATOM     73  C   UNL A   1      44.112  32.358  32.600  1.00  0.00     0.049 A 
ATOM     74  H   UNL A   1      44.498  34.387  32.239  1.00  0.00     0.167 HD
ATOM     75  C   UNL A   1      43.657  33.336  34.860  1.00  0.00     0.074 A 
ATOM     76  C   UNL A   1      43.414  34.750  34.589  1.00  0.00     0.031 C 
ATOM     77  C   UNL A   1      43.987  32.295  34.041  1.00  0.00     0.034 A 
BRANCH  64  78
ATOM     78  C   UNL A   1      43.349  35.781  29.969  1.00  0.00     0.023 A 
ATOM     79  C   UNL A   1      43.785  36.390  31.166  1.00  0.00     0.012 A 
ATOM     80  C   UNL A   1      43.178  36.644  28.855  1.00  0.00     0.148 A 
ATOM     81  C   UNL A   1      43.953  37.775  31.274  1.00  0.00     0.002 A 
ATOM     82  C   UNL A   1      43.408  38.012  28.947  1.00  0.00     0.091 A 
ATOM     83  F   UNL A   1      42.681  36.195  27.706  1.00  0.00    -0.205 F 
ATOM     84  C   UNL A   1      43.761  38.588  30.165  1.00  0.00     0.022 A 
BRANCH  82  85
ATOM     85  S   UNL A   1      43.200  39.104  27.529  1.00  0.00     0.127 S 
ATOM     86  O   UNL A   1      43.427  40.413  28.135  1.00  0.00    -0.237 OA
ATOM     87  O   UNL A   1      44.264  38.637  26.640  1.00  0.00    -0.237 OA
ATOM     88  O   UNL A   1      41.854  38.860  27.028  1.00  0.00    -0.744 OA
ENDBRANCH  82  85
ENDBRANCH  64  78
BRANCH  65  89
ATOM     89  C   UNL A   1      40.564  34.943  38.025  1.00  0.00     0.023 A 
ATOM     90  C   UNL A   1      40.292  36.300  37.753  1.00  0.00     0.012 A 
ATOM     91  C   UNL A   1      40.183  34.432  39.286  1.00  0.00     0.148 A 
ATOM     92  C   UNL A   1      39.642  37.112  38.693  1.00  0.00     0.002 A 
ATOM     93  C   UNL A   1      39.550  35.246  40.222  1.00  0.00     0.091 A 
ATOM     94  F   UNL A   1      40.352  33.127  39.531  1.00  0.00    -0.205 F 
ATOM     95  C   UNL A   1      39.266  36.584  39.925  1.00  0.00     0.022 A 
BRANCH  93  96
ATOM     96  S   UNL A   1      39.016  34.628  41.825  1.00  0.00     0.127 S 
ATOM     97  O   UNL A   1      38.094  33.557  41.444  1.00  0.00    -0.237 OA
ATOM     98  O   UNL A   1      40.275  34.172  42.408  1.00  0.00    -0.237 OA
ATOM     99  O   UNL A   1      38.381  35.755  42.497  1.00  0.00    -0.744 OA
ENDBRANCH  93  96
ENDBRANCH  65  89
BRANCH  77 100
ATOM    100  C   UNL A   1      44.024  30.912  34.634  1.00  0.00     0.023 A 
ATOM    101  C   UNL A   1      45.146  30.397  35.317  1.00  0.00     0.012 A 
ATOM    102  C   UNL A   1      42.810  30.211  34.684  1.00  0.00     0.148 A 
ATOM    103  C   UNL A   1      45.051  29.201  36.036  1.00  0.00     0.002 A 
ATOM    104  C   UNL A   1      42.705  29.057  35.445  1.00  0.00     0.091 A 
ATOM    105  F   UNL A   1      41.760  30.721  34.021  1.00  0.00    -0.205 F 
ATOM    106  C   UNL A   1      43.825  28.543  36.117  1.00  0.00     0.022 A 
BRANCH 104 107
ATOM    107  S   UNL A   1      41.120  28.263  35.711  1.00  0.00     0.127 S 
ATOM    108  O   UNL A   1      40.324  29.351  36.272  1.00  0.00    -0.237 OA
ATOM    109  O   UNL A   1      40.741  27.861  34.355  1.00  0.00    -0.237 OA
ATOM    110  O   UNL A   1      41.376  27.145  36.611  1.00  0.00    -0.744 OA
ENDBRANCH 104 107
ENDBRANCH  77 100
ENDBRANCH  51  52
ENDBRANCH  44  46
ENDBRANCH  43  44
ENDBRANCH  42  43
ENDBRANCH  41  42
ENDBRANCH  40  41
ENDBRANCH  38  40
ENDBRANCH  37  38
ENDBRANCH  36  37
ENDBRANCH   1  36
TORSDOF 29
ENDMDL
MODEL 3
REMARK VINA RESULT:      -8.6      2.433      6.808
REMARK SMILES NS(=O)(=O)c1ccc(-n2nc(C(=O)NCCCCCCCCCCC(=O)OCCOC(=O)c3ccc(-c4c5nc(c(-c6cccc(S(=O)(=O)[O-])c6F)c6ccc([nH]6)c(-c6cccc(S(=O)(=O)[O-])c6F)c6nc(c(-c7cccc(S(=O)(=O)[O-])c7F)c7ccc4[nH]7)C=C6)C=C5)cc3)cc2-c2ccccc2)cc1
REMARK SMILES IDX 22 1 21 2 20 3 19 4 18 5 17 6 16 7 15 8 14 9 12 10 13 11
REMARK SMILES IDX 11 13 9 14 10 15 97 16 96 17 8 18 5 19 6 20 105 21 7 22
REMARK SMILES IDX 104 23 2 24 3 25 4 26 1 27 98 30 99 31 103 32 100 33 102 34
REMARK SMILES IDX 101 35 23 36 24 37 25 38 26 39 27 40 28 41 29 42 30 43 31 44
REMARK SMILES IDX 32 45 33 46 34 47 95 48 35 49 94 50 36 51 37 52 38 53 88 54
REMARK SMILES IDX 39 55 93 56 87 57 89 58 40 59 92 60 86 61 85 62 41 64 73 65
REMARK SMILES IDX 53 66 72 67 54 68 57 69 71 70 90 71 55 72 56 73 70 75 91 76
REMARK SMILES IDX 58 77 42 78 43 79 51 80 44 81 46 82 52 83 45 84 47 85 48 86
REMARK SMILES IDX 49 87 50 88 74 89 75 90 83 91 76 92 78 93 84 94 77 95 79 96
REMARK SMILES IDX 80 97 81 98 82 99 59 100 60 101 68 102 61 103 63 104 69 105
REMARK SMILES IDX 62 106 64 107 65 108 66 109 67 110
REMARK H PARENT 14 12 1 28 1 29 89 63 57 74
REMARK Flexibility Score: inf
ROOT
ATOM      1  C   UNL A   1      32.010  23.831  24.598  1.00  0.00     0.001 C 
ENDROOT
BRANCH   1   2
ATOM      2  C   UNL A   1      31.864  23.455  26.069  1.00  0.00     0.000 C 
BRANCH   2   3
ATOM      3  C   UNL A   1      33.006  22.547  26.523  1.00  0.00     0.000 C 
BRANCH   3   4
ATOM      4  C   UNL A   1      34.345  22.973  25.919  1.00  0.00     0.000 C 
BRANCH   4   5
ATOM      5  C   UNL A   1      35.432  21.913  26.135  1.00  0.00     0.000 C 
BRANCH   5   6
ATOM      6  C   UNL A   1      35.874  21.254  24.821  1.00  0.00     0.002 C 
BRANCH   6   7
ATOM      7  C   UNL A   1      37.208  20.514  24.959  1.00  0.00     0.021 C 
BRANCH   7   8
ATOM      8  C   UNL A   1      38.315  21.479  25.374  1.00  0.00     0.116 C 
BRANCH   8   9
ATOM      9  N   UNL A   1      39.257  20.785  26.213  1.00  0.00    -0.351 N 
ATOM     10  C   UNL A   1      40.501  21.129  26.672  1.00  0.00     0.271 C 
ATOM     11  O   UNL A   1      41.115  20.245  27.276  1.00  0.00    -0.267 OA
ATOM     12  H   UNL A   1      38.951  19.899  26.512  1.00  0.00     0.163 HD
BRANCH  10  13
ATOM     13  C   UNL A   1      41.033  22.497  26.509  1.00  0.00     0.151 A 
ATOM     14  N   UNL A   1      42.549  24.013  26.569  1.00  0.00    -0.232 N 
ATOM     15  N   UNL A   1      42.365  22.684  26.452  1.00  0.00    -0.162 NA
ATOM     16  C   UNL A   1      41.362  24.715  26.535  1.00  0.00     0.075 A 
ATOM     17  C   UNL A   1      40.390  23.752  26.381  1.00  0.00     0.065 A 
BRANCH  14  18
ATOM     18  C   UNL A   1      43.854  24.536  26.650  1.00  0.00     0.065 A 
ATOM     19  C   UNL A   1      46.512  25.287  26.764  1.00  0.00     0.082 A 
ATOM     20  C   UNL A   1      45.805  25.441  25.566  1.00  0.00     0.024 A 
ATOM     21  C   UNL A   1      45.881  24.807  27.919  1.00  0.00     0.024 A 
ATOM     22  C   UNL A   1      44.474  25.046  25.503  1.00  0.00     0.030 A 
ATOM     23  C   UNL A   1      44.533  24.463  27.872  1.00  0.00     0.030 A 
BRANCH  19  24
ATOM     24  S   UNL A   1      48.247  25.600  26.821  1.00  0.00     0.238 S 
ATOM     25  O   UNL A   1      48.893  24.476  27.469  1.00  0.00    -0.207 OA
ATOM     26  O   UNL A   1      48.460  26.964  27.223  1.00  0.00    -0.207 OA
BRANCH  24  27
ATOM     27  N   UNL A   1      48.730  25.504  25.213  1.00  0.00    -0.225 NA
ATOM     28  H   UNL A   1      48.096  24.888  24.704  1.00  0.00     0.137 HD
ATOM     29  H   UNL A   1      49.678  25.131  25.165  1.00  0.00     0.137 HD
ENDBRANCH  24  27
ENDBRANCH  19  24
ENDBRANCH  14  18
BRANCH  16  30
ATOM     30  C   UNL A   1      41.196  26.163  26.502  1.00  0.00     0.000 A 
ATOM     31  C   UNL A   1      40.404  26.809  27.457  1.00  0.00     0.010 A 
ATOM     32  C   UNL A   1      41.876  26.923  25.542  1.00  0.00     0.010 A 
ATOM     33  C   UNL A   1      40.282  28.198  27.445  1.00  0.00     0.001 A 
ATOM     34  C   UNL A   1      41.750  28.313  25.528  1.00  0.00     0.001 A 
ATOM     35  C   UNL A   1      40.954  28.948  26.480  1.00  0.00     0.000 A 
ENDBRANCH  16  30
ENDBRANCH  10  13
ENDBRANCH   8   9
ENDBRANCH   7   8
ENDBRANCH   6   7
ENDBRANCH   5   6
ENDBRANCH   4   5
ENDBRANCH   3   4
ENDBRANCH   2   3
ENDBRANCH   1   2
BRANCH   1  36
ATOM     36  C   UNL A   1      32.363  25.306  24.431  1.00  0.00     0.012 C 
BRANCH  36  37
ATOM     37  C   UNL A   1      31.483  26.303  25.193  1.00  0.00     0.123 C 
BRANCH  37  38
ATOM     38  C   UNL A   1      31.612  27.787  24.888  1.00  0.00     0.305 C 
ATOM     39  O   UNL A   1      31.682  28.217  23.743  1.00  0.00    -0.252 OA
BRANCH  38  40
ATOM     40  O   UNL A   1      31.580  28.570  25.996  1.00  0.00    -0.462 OA
BRANCH  40  41
ATOM     41  C   UNL A   1      32.837  28.931  26.606  1.00  0.00     0.274 C 
BRANCH  41  42
ATOM     42  C   UNL A   1      33.130  30.416  26.430  1.00  0.00     0.275 C 
BRANCH  42  43
ATOM     43  O   UNL A   1      33.236  31.024  27.712  1.00  0.00    -0.458 OA
BRANCH  43  44
ATOM     44  C   UNL A   1      34.330  31.799  27.855  1.00  0.00     0.338 C 
ATOM     45  O   UNL A   1      34.582  32.837  27.267  1.00  0.00    -0.246 OA
BRANCH  44  46
ATOM     46  C   UNL A   1      35.299  31.131  28.716  1.00  0.00     0.060 A 
ATOM     47  C   UNL A   1      35.193  31.336  30.101  1.00  0.00     0.016 A 
ATOM     48  C   UNL A   1      36.502  30.835  28.083  1.00  0.00     0.016 A 
ATOM     49  C   UNL A   1      36.350  31.505  30.821  1.00  0.00     0.010 A 
ATOM     50  C   UNL A   1      37.644  31.093  28.779  1.00  0.00     0.010 A 
ATOM     51  C   UNL A   1      37.549  31.490  30.115  1.00  0.00    -0.014 A 
BRANCH  51  52
ATOM     52  C   UNL A   1      38.780  31.810  30.797  1.00  0.00     0.031 A 
ATOM     53  C   UNL A   1      39.389  30.595  31.392  1.00  0.00     0.074 A 
ATOM     54  C   UNL A   1      39.329  33.031  30.634  1.00  0.00     0.049 A 
ATOM     55  N   UNL A   1      39.520  30.286  32.642  1.00  0.00    -0.248 NA
ATOM     56  C   UNL A   1      39.629  29.459  30.477  1.00  0.00     0.031 C 
ATOM     57  C   UNL A   1      38.857  34.105  29.747  1.00  0.00     0.029 A 
ATOM     58  N   UNL A   1      40.525  33.504  31.067  1.00  0.00    -0.354 N 
ATOM     59  C   UNL A   1      40.111  29.021  32.612  1.00  0.00     0.074 A 
ATOM     60  C   UNL A   1      39.789  28.458  31.339  1.00  0.00     0.031 C 
ATOM     61  C   UNL A   1      39.881  34.952  29.498  1.00  0.00     0.029 A 
ATOM     62  C   UNL A   1      41.032  34.538  30.281  1.00  0.00     0.049 A 
ATOM     63  H   UNL A   1      40.989  33.153  31.861  1.00  0.00     0.167 HD
ATOM     64  C   UNL A   1      41.167  28.720  33.417  1.00  0.00     0.034 A 
ATOM     65  C   UNL A   1      42.334  34.915  30.193  1.00  0.00     0.034 A 
ATOM     66  C   UNL A   1      41.251  29.660  34.507  1.00  0.00     0.049 A 
ATOM     67  C   UNL A   1      43.047  34.288  31.331  1.00  0.00     0.074 A 
ATOM     68  C   UNL A   1      40.415  30.051  35.533  1.00  0.00     0.029 A 
ATOM     69  N   UNL A   1      42.198  30.645  34.373  1.00  0.00    -0.354 N 
ATOM     70  N   UNL A   1      42.822  34.579  32.582  1.00  0.00    -0.248 NA
ATOM     71  C   UNL A   1      43.693  33.005  31.094  1.00  0.00     0.031 C 
ATOM     72  C   UNL A   1      40.659  31.444  35.698  1.00  0.00     0.029 A 
ATOM     73  C   UNL A   1      41.676  31.826  34.818  1.00  0.00     0.049 A 
ATOM     74  H   UNL A   1      43.106  30.521  34.013  1.00  0.00     0.167 HD
ATOM     75  C   UNL A   1      42.872  33.354  33.235  1.00  0.00     0.074 A 
ATOM     76  C   UNL A   1      43.524  32.445  32.295  1.00  0.00     0.031 C 
ATOM     77  C   UNL A   1      42.103  33.123  34.339  1.00  0.00     0.034 A 
BRANCH  64  78
ATOM     78  C   UNL A   1      42.384  27.904  32.989  1.00  0.00     0.023 A 
ATOM     79  C   UNL A   1      42.794  26.889  33.881  1.00  0.00     0.012 A 
ATOM     80  C   UNL A   1      43.293  28.226  31.949  1.00  0.00     0.148 A 
ATOM     81  C   UNL A   1      44.061  26.300  33.801  1.00  0.00     0.002 A 
ATOM     82  C   UNL A   1      44.525  27.593  31.831  1.00  0.00     0.091 A 
ATOM     83  F   UNL A   1      43.052  29.230  31.109  1.00  0.00    -0.205 F 
ATOM     84  C   UNL A   1      44.929  26.653  32.777  1.00  0.00     0.022 A 
BRANCH  82  85
ATOM     85  S   UNL A   1      45.674  27.997  30.504  1.00  0.00     0.127 S 
ATOM     86  O   UNL A   1      46.056  29.361  30.856  1.00  0.00    -0.237 OA
ATOM     87  O   UNL A   1      46.717  26.989  30.700  1.00  0.00    -0.237 OA
ATOM     88  O   UNL A   1      44.925  27.847  29.263  1.00  0.00    -0.744 OA
ENDBRANCH  82  85
ENDBRANCH  64  78
BRANCH  65  89
ATOM     89  C   UNL A   1      43.082  35.468  29.034  1.00  0.00     0.023 A 
ATOM     90  C   UNL A   1      43.122  34.746  27.822  1.00  0.00     0.012 A 
ATOM     91  C   UNL A   1      43.519  36.812  29.017  1.00  0.00     0.148 A 
ATOM     92  C   UNL A   1      43.557  35.349  26.633  1.00  0.00     0.002 A 
ATOM     93  C   UNL A   1      43.963  37.402  27.836  1.00  0.00     0.091 A 
ATOM     94  F   UNL A   1      43.407  37.540  30.135  1.00  0.00    -0.205 F 
ATOM     95  C   UNL A   1      43.972  36.677  26.639  1.00  0.00     0.022 A 
BRANCH  93  96
ATOM     96  S   UNL A   1      44.493  39.119  27.763  1.00  0.00     0.127 S 
ATOM     97  O   UNL A   1      44.900  39.250  26.363  1.00  0.00    -0.237 OA
ATOM     98  O   UNL A   1      43.266  39.830  28.111  1.00  0.00    -0.237 OA
ATOM     99  O   UNL A   1      45.587  39.241  28.719  1.00  0.00    -0.744 OA
ENDBRANCH  93  96
ENDBRANCH  65  89
BRANCH  77 100
ATOM    100  C   UNL A   1      41.458  34.305  35.011  1.00  0.00     0.023 A 
ATOM    101  C   UNL A   1      40.169  34.772  34.679  1.00  0.00     0.012 A 
ATOM    102  C   UNL A   1      42.096  34.810  36.155  1.00  0.00     0.148 A 
ATOM    103  C   UNL A   1      39.533  35.726  35.480  1.00  0.00     0.002 A 
ATOM    104  C   UNL A   1      41.439  35.711  36.977  1.00  0.00     0.091 A 
ATOM    105  F   UNL A   1      43.325  34.353  36.445  1.00  0.00    -0.205 F 
ATOM    106  C   UNL A   1      40.159  36.180  36.639  1.00  0.00     0.022 A 
BRANCH 104 107
ATOM    107  S   UNL A   1      42.131  36.203  38.555  1.00  0.00     0.127 S 
ATOM    108  O   UNL A   1      43.007  37.308  38.173  1.00  0.00    -0.237 OA
ATOM    109  O   UNL A   1      40.938  36.598  39.309  1.00  0.00    -0.237 OA
ATOM    110  O   UNL A   1      42.804  35.023  39.085  1.00  0.00    -0.744 OA
ENDBRANCH 104 107
ENDBRANCH  77 100
ENDBRANCH  51  52
ENDBRANCH  44  46
ENDBRANCH  43  44
ENDBRANCH  42  43
ENDBRANCH  41  42
ENDBRANCH  40  41
ENDBRANCH  38  40
ENDBRANCH  37  38
ENDBRANCH  36  37
ENDBRANCH   1  36
TORSDOF 29
ENDMDL
