MODEL 1
REMARK VINA RESULT:     -10.6      0.000      0.000
REMARK SMILES CSc1ccc(C[C@H]([NH3+])C(=O)OCCOC(=O)c2ccc(-c3c4nc(c(-c5cccc(S(=O)(=O)[O-])c5F)c5ccc([nH]5)c(-c5cccc(S(=O)(=O)[O-])c5F)c5nc(c(-c6cccc(S(=O)(=O)[O-])c6F)c6ccc3[nH]6)C=C5)C=C4)cc2)cc1
REMARK SMILES IDX 13 1 12 2 10 3 11 4 8 5 7 6 6 7 3 8 4 9 82 10 5 11 81 12
REMARK SMILES IDX 2 13 1 14 9 15 14 19 15 20 16 21 17 22 18 23 19 24 80 25
REMARK SMILES IDX 20 26 79 27 21 28 22 29 23 30 73 31 24 32 78 33 72 34 74 35
REMARK SMILES IDX 25 36 77 37 71 38 70 39 26 41 58 42 38 43 57 44 39 45 42 46
REMARK SMILES IDX 56 47 75 48 40 49 41 50 55 52 76 53 43 54 27 55 28 56 36 57
REMARK SMILES IDX 29 58 31 59 37 60 30 61 32 62 33 63 34 64 35 65 59 66 60 67
REMARK SMILES IDX 68 68 61 69 63 70 69 71 62 72 64 73 65 74 66 75 67 76 44 77
REMARK SMILES IDX 45 78 53 79 46 80 48 81 54 82 47 83 49 84 50 85 51 86 52 87
REMARK H PARENT 9 16 9 17 9 18 74 40 42 51
REMARK Flexibility Score: inf
ROOT
ATOM      1  C   UNL A   1      35.745  21.416  24.473  1.00  0.00     0.274 C 
ENDROOT
BRANCH   1   2
ATOM      2  O   UNL A   1      35.643  22.609  23.675  1.00  0.00    -0.458 OA
BRANCH   2   3
ATOM      3  C   UNL A   1      34.396  22.948  23.230  1.00  0.00     0.365 C 
ATOM      4  O   UNL A   1      34.154  23.468  22.149  1.00  0.00    -0.245 OA
BRANCH   3   5
ATOM      5  C   UNL A   1      33.316  22.612  24.275  1.00  0.00     0.296 C 
BRANCH   5   6
ATOM      6  C   UNL A   1      32.269  21.703  23.609  1.00  0.00     0.113 C 
BRANCH   6   7
ATOM      7  C   UNL A   1      32.422  20.234  23.922  1.00  0.00    -0.041 A 
ATOM      8  C   UNL A   1      32.852  17.512  24.534  1.00  0.00     0.007 A 
ATOM      9  C   UNL A   1      32.659  17.922  23.211  1.00  0.00     0.015 A 
ATOM     10  C   UNL A   1      32.807  18.476  25.547  1.00  0.00     0.015 A 
ATOM     11  C   UNL A   1      32.446  19.272  22.905  1.00  0.00     0.005 A 
ATOM     12  C   UNL A   1      32.595  19.822  25.247  1.00  0.00     0.005 A 
BRANCH   8  13
ATOM     13  S   UNL A   1      33.132  15.819  25.038  1.00  0.00    -0.130 SA
ATOM     14  C   UNL A   1      34.931  15.764  25.245  1.00  0.00     0.091 C 
ENDBRANCH   8  13
ENDBRANCH   6   7
ENDBRANCH   5   6
BRANCH   5  15
ATOM     15  N   UNL A   1      32.774  23.846  24.899  1.00  0.00    -0.346 N 
ATOM     16  H   UNL A   1      33.277  24.038  25.765  1.00  0.00     0.345 HD
ATOM     17  H   UNL A   1      31.783  23.718  25.101  1.00  0.00     0.345 HD
ATOM     18  H   UNL A   1      32.890  24.631  24.257  1.00  0.00     0.345 HD
ENDBRANCH   5  15
ENDBRANCH   3   5
ENDBRANCH   2   3
ENDBRANCH   1   2
BRANCH   1  19
ATOM     19  C   UNL A   1      37.211  21.087  24.777  1.00  0.00     0.275 C 
BRANCH  19  20
ATOM     20  O   UNL A   1      37.707  21.835  25.903  1.00  0.00    -0.458 OA
BRANCH  20  21
ATOM     21  C   UNL A   1      39.003  21.608  26.222  1.00  0.00     0.338 C 
ATOM     22  O   UNL A   1      39.654  20.604  25.981  1.00  0.00    -0.246 OA
BRANCH  21  23
ATOM     23  C   UNL A   1      39.604  22.833  26.775  1.00  0.00     0.060 A 
ATOM     24  C   UNL A   1      39.150  24.057  26.279  1.00  0.00     0.016 A 
ATOM     25  C   UNL A   1      40.638  22.788  27.711  1.00  0.00     0.016 A 
ATOM     26  C   UNL A   1      39.729  25.246  26.707  1.00  0.00     0.010 A 
ATOM     27  C   UNL A   1      41.222  23.985  28.141  1.00  0.00     0.010 A 
ATOM     28  C   UNL A   1      40.778  25.218  27.631  1.00  0.00    -0.014 A 
BRANCH  28  29
ATOM     29  C   UNL A   1      41.434  26.487  28.026  1.00  0.00     0.031 A 
ATOM     30  C   UNL A   1      40.650  27.533  28.763  1.00  0.00     0.074 A 
ATOM     31  C   UNL A   1      42.731  26.687  27.732  1.00  0.00     0.049 A 
ATOM     32  N   UNL A   1      41.024  28.726  29.146  1.00  0.00    -0.248 NA
ATOM     33  C   UNL A   1      39.260  27.196  29.114  1.00  0.00     0.031 C 
ATOM     34  C   UNL A   1      43.594  25.732  27.035  1.00  0.00     0.029 A 
ATOM     35  N   UNL A   1      43.545  27.764  27.969  1.00  0.00    -0.354 N 
ATOM     36  C   UNL A   1      39.909  29.298  29.746  1.00  0.00     0.074 A 
ATOM     37  C   UNL A   1      38.844  28.322  29.678  1.00  0.00     0.031 C 
ATOM     38  C   UNL A   1      44.814  26.273  26.885  1.00  0.00     0.029 A 
ATOM     39  C   UNL A   1      44.808  27.623  27.442  1.00  0.00     0.049 A 
ATOM     40  H   UNL A   1      43.255  28.562  28.467  1.00  0.00     0.167 HD
ATOM     41  C   UNL A   1      39.791  30.522  30.314  1.00  0.00     0.034 A 
ATOM     42  C   UNL A   1      45.834  28.494  27.393  1.00  0.00     0.034 A 
ATOM     43  C   UNL A   1      40.867  31.471  30.414  1.00  0.00     0.049 A 
ATOM     44  C   UNL A   1      45.673  29.850  28.024  1.00  0.00     0.074 A 
ATOM     45  C   UNL A   1      40.857  32.721  31.007  1.00  0.00     0.029 A 
ATOM     46  N   UNL A   1      42.143  31.278  29.909  1.00  0.00    -0.354 N 
ATOM     47  N   UNL A   1      44.642  30.341  28.671  1.00  0.00    -0.248 NA
ATOM     48  C   UNL A   1      46.821  30.763  27.944  1.00  0.00     0.031 C 
ATOM     49  C   UNL A   1      42.126  33.289  30.849  1.00  0.00     0.029 A 
ATOM     50  C   UNL A   1      42.929  32.386  30.170  1.00  0.00     0.049 A 
ATOM     51  H   UNL A   1      42.446  30.470  29.434  1.00  0.00     0.167 HD
ATOM     52  C   UNL A   1      45.025  31.607  29.095  1.00  0.00     0.074 A 
ATOM     53  C   UNL A   1      46.392  31.798  28.655  1.00  0.00     0.031 C 
ATOM     54  C   UNL A   1      44.306  32.537  29.772  1.00  0.00     0.034 A 
BRANCH  41  55
ATOM     55  C   UNL A   1      38.455  30.892  30.899  1.00  0.00     0.023 A 
ATOM     56  C   UNL A   1      38.187  30.613  32.253  1.00  0.00     0.012 A 
ATOM     57  C   UNL A   1      37.487  31.562  30.124  1.00  0.00     0.148 A 
ATOM     58  C   UNL A   1      36.966  30.973  32.822  1.00  0.00     0.002 A 
ATOM     59  C   UNL A   1      36.287  31.948  30.708  1.00  0.00     0.091 A 
ATOM     60  F   UNL A   1      37.751  31.793  28.830  1.00  0.00    -0.205 F 
ATOM     61  C   UNL A   1      36.021  31.648  32.054  1.00  0.00     0.022 A 
BRANCH  59  62
ATOM     62  S   UNL A   1      35.037  32.881  29.815  1.00  0.00     0.127 S 
ATOM     63  O   UNL A   1      34.551  31.885  28.862  1.00  0.00    -0.237 OA
ATOM     64  O   UNL A   1      34.088  33.224  30.876  1.00  0.00    -0.237 OA
ATOM     65  O   UNL A   1      35.731  34.022  29.235  1.00  0.00    -0.744 OA
ENDBRANCH  59  62
ENDBRANCH  41  55
BRANCH  42  66
ATOM     66  C   UNL A   1      47.117  28.092  26.748  1.00  0.00     0.023 A 
ATOM     67  C   UNL A   1      48.218  27.746  27.553  1.00  0.00     0.012 A 
ATOM     68  C   UNL A   1      47.238  28.015  25.347  1.00  0.00     0.148 A 
ATOM     69  C   UNL A   1      49.425  27.350  26.975  1.00  0.00     0.002 A 
ATOM     70  C   UNL A   1      48.425  27.567  24.779  1.00  0.00     0.091 A 
ATOM     71  F   UNL A   1      46.187  28.373  24.596  1.00  0.00    -0.205 F 
ATOM     72  C   UNL A   1      49.525  27.249  25.590  1.00  0.00     0.022 A 
BRANCH  70  73
ATOM     73  S   UNL A   1      48.590  27.281  23.012  1.00  0.00     0.127 S 
ATOM     74  O   UNL A   1      49.984  27.647  22.778  1.00  0.00    -0.237 OA
ATOM     75  O   UNL A   1      48.301  25.850  22.905  1.00  0.00    -0.237 OA
ATOM     76  O   UNL A   1      47.591  28.139  22.386  1.00  0.00    -0.744 OA
ENDBRANCH  70  73
ENDBRANCH  42  66
BRANCH  54  77
ATOM     77  C   UNL A   1      44.985  33.839  30.099  1.00  0.00     0.023 A 
ATOM     78  C   UNL A   1      45.724  33.955  31.293  1.00  0.00     0.012 A 
ATOM     79  C   UNL A   1      44.955  34.917  29.194  1.00  0.00     0.148 A 
ATOM     80  C   UNL A   1      46.403  35.136  31.592  1.00  0.00     0.002 A 
ATOM     81  C   UNL A   1      45.671  36.076  29.479  1.00  0.00     0.091 A 
ATOM     82  F   UNL A   1      44.229  34.795  28.073  1.00  0.00    -0.205 F 
ATOM     83  C   UNL A   1      46.387  36.190  30.682  1.00  0.00     0.022 A 
BRANCH  81  84
ATOM     84  S   UNL A   1      45.777  37.444  28.320  1.00  0.00     0.127 S 
ATOM     85  O   UNL A   1      46.452  36.822  27.183  1.00  0.00    -0.237 OA
ATOM     86  O   UNL A   1      44.369  37.770  28.090  1.00  0.00    -0.237 OA
ATOM     87  O   UNL A   1      46.529  38.487  29.005  1.00  0.00    -0.744 OA
ENDBRANCH  81  84
ENDBRANCH  54  77
ENDBRANCH  28  29
ENDBRANCH  21  23
ENDBRANCH  20  21
ENDBRANCH  19  20
ENDBRANCH   1  19
TORSDOF 18
ENDMDL
MODEL 2
REMARK VINA RESULT:     -10.5      5.296      9.859
REMARK SMILES CSc1ccc(C[C@H]([NH3+])C(=O)OCCOC(=O)c2ccc(-c3c4nc(c(-c5cccc(S(=O)(=O)[O-])c5F)c5ccc([nH]5)c(-c5cccc(S(=O)(=O)[O-])c5F)c5nc(c(-c6cccc(S(=O)(=O)[O-])c6F)c6ccc3[nH]6)C=C5)C=C4)cc2)cc1
REMARK SMILES IDX 13 1 12 2 10 3 11 4 8 5 7 6 6 7 3 8 4 9 82 10 5 11 81 12
REMARK SMILES IDX 2 13 1 14 9 15 14 19 15 20 16 21 17 22 18 23 19 24 80 25
REMARK SMILES IDX 20 26 79 27 21 28 22 29 23 30 73 31 24 32 78 33 72 34 74 35
REMARK SMILES IDX 25 36 77 37 71 38 70 39 26 41 58 42 38 43 57 44 39 45 42 46
REMARK SMILES IDX 56 47 75 48 40 49 41 50 55 52 76 53 43 54 27 55 28 56 36 57
REMARK SMILES IDX 29 58 31 59 37 60 30 61 32 62 33 63 34 64 35 65 59 66 60 67
REMARK SMILES IDX 68 68 61 69 63 70 69 71 62 72 64 73 65 74 66 75 67 76 44 77
REMARK SMILES IDX 45 78 53 79 46 80 48 81 54 82 47 83 49 84 50 85 51 86 52 87
REMARK H PARENT 9 16 9 17 9 18 74 40 42 51
REMARK Flexibility Score: inf
ROOT
ATOM      1  C   UNL A   1      44.070  21.479  25.273  1.00  0.00     0.274 C 
ENDROOT
BRANCH   1   2
ATOM      2  O   UNL A   1      42.657  21.213  25.333  1.00  0.00    -0.458 OA
BRANCH   2   3
ATOM      3  C   UNL A   1      42.278  20.009  25.856  1.00  0.00     0.365 C 
ATOM      4  O   UNL A   1      42.769  18.929  25.554  1.00  0.00    -0.245 OA
BRANCH   3   5
ATOM      5  C   UNL A   1      41.130  20.171  26.868  1.00  0.00     0.296 C 
BRANCH   5   6
ATOM      6  C   UNL A   1      40.921  21.673  27.121  1.00  0.00     0.113 C 
BRANCH   6   7
ATOM      7  C   UNL A   1      39.637  22.234  26.561  1.00  0.00    -0.041 A 
ATOM      8  C   UNL A   1      37.176  23.274  25.651  1.00  0.00     0.007 A 
ATOM      9  C   UNL A   1      37.553  21.964  25.339  1.00  0.00     0.015 A 
ATOM     10  C   UNL A   1      38.052  24.063  26.404  1.00  0.00     0.015 A 
ATOM     11  C   UNL A   1      38.773  21.446  25.791  1.00  0.00     0.005 A 
ATOM     12  C   UNL A   1      39.269  23.550  26.855  1.00  0.00     0.005 A 
BRANCH   8  13
ATOM     13  S   UNL A   1      35.644  24.036  25.128  1.00  0.00    -0.130 SA
ATOM     14  C   UNL A   1      34.461  23.417  26.354  1.00  0.00     0.091 C 
ENDBRANCH   8  13
ENDBRANCH   6   7
ENDBRANCH   5   6
BRANCH   5  15
ATOM     15  N   UNL A   1      41.370  19.353  28.084  1.00  0.00    -0.346 N 
ATOM     16  H   UNL A   1      40.484  18.977  28.422  1.00  0.00     0.345 HD
ATOM     17  H   UNL A   1      41.792  19.935  28.808  1.00  0.00     0.345 HD
ATOM     18  H   UNL A   1      42.001  18.584  27.857  1.00  0.00     0.345 HD
ENDBRANCH   5  15
ENDBRANCH   3   5
ENDBRANCH   2   3
ENDBRANCH   1   2
BRANCH   1  19
ATOM     19  C   UNL A   1      44.376  22.573  24.244  1.00  0.00     0.275 C 
BRANCH  19  20
ATOM     20  O   UNL A   1      43.707  23.809  24.558  1.00  0.00    -0.458 OA
BRANCH  20  21
ATOM     21  C   UNL A   1      44.507  24.800  25.015  1.00  0.00     0.338 C 
ATOM     22  O   UNL A   1      45.588  25.140  24.560  1.00  0.00    -0.246 OA
BRANCH  21  23
ATOM     23  C   UNL A   1      43.814  25.557  26.071  1.00  0.00     0.060 A 
ATOM     24  C   UNL A   1      44.194  26.886  26.269  1.00  0.00     0.016 A 
ATOM     25  C   UNL A   1      42.860  24.961  26.896  1.00  0.00     0.016 A 
ATOM     26  C   UNL A   1      43.629  27.630  27.299  1.00  0.00     0.010 A 
ATOM     27  C   UNL A   1      42.293  25.710  27.933  1.00  0.00     0.010 A 
ATOM     28  C   UNL A   1      42.685  27.044  28.147  1.00  0.00    -0.014 A 
BRANCH  28  29
ATOM     29  C   UNL A   1      42.143  27.826  29.283  1.00  0.00     0.031 A 
ATOM     30  C   UNL A   1      42.835  27.784  30.614  1.00  0.00     0.074 A 
ATOM     31  C   UNL A   1      41.041  28.578  29.109  1.00  0.00     0.049 A 
ATOM     32  N   UNL A   1      42.491  28.351  31.741  1.00  0.00    -0.248 NA
ATOM     33  C   UNL A   1      44.079  27.000  30.690  1.00  0.00     0.031 C 
ATOM     34  C   UNL A   1      40.299  28.708  27.855  1.00  0.00     0.029 A 
ATOM     35  N   UNL A   1      40.347  29.364  29.994  1.00  0.00    -0.354 N 
ATOM     36  C   UNL A   1      43.447  27.962  32.669  1.00  0.00     0.074 A 
ATOM     37  C   UNL A   1      44.389  27.111  31.975  1.00  0.00     0.031 C 
ATOM     38  C   UNL A   1      39.241  29.511  28.055  1.00  0.00     0.029 A 
ATOM     39  C   UNL A   1      39.212  29.923  29.456  1.00  0.00     0.049 A 
ATOM     40  H   UNL A   1      40.633  29.512  30.924  1.00  0.00     0.167 HD
ATOM     41  C   UNL A   1      43.538  28.296  33.978  1.00  0.00     0.034 A 
ATOM     42  C   UNL A   1      38.246  30.662  30.034  1.00  0.00     0.034 A 
ATOM     43  C   UNL A   1      42.621  29.175  34.651  1.00  0.00     0.049 A 
ATOM     44  C   UNL A   1      38.368  31.011  31.492  1.00  0.00     0.074 A 
ATOM     45  C   UNL A   1      42.651  29.606  35.965  1.00  0.00     0.029 A 
ATOM     46  N   UNL A   1      41.508  29.757  34.065  1.00  0.00    -0.354 N 
ATOM     47  N   UNL A   1      39.329  30.712  32.334  1.00  0.00    -0.248 NA
ATOM     48  C   UNL A   1      37.289  31.820  32.076  1.00  0.00     0.031 C 
ATOM     49  C   UNL A   1      41.548  30.440  36.177  1.00  0.00     0.029 A 
ATOM     50  C   UNL A   1      40.839  30.539  34.990  1.00  0.00     0.049 A 
ATOM     51  H   UNL A   1      41.234  29.633  33.127  1.00  0.00     0.167 HD
ATOM     52  C   UNL A   1      38.984  31.316  33.537  1.00  0.00     0.074 A 
ATOM     53  C   UNL A   1      37.738  32.019  33.308  1.00  0.00     0.031 C 
ATOM     54  C   UNL A   1      39.629  31.277  34.729  1.00  0.00     0.034 A 
BRANCH  41  55
ATOM     55  C   UNL A   1      44.690  27.729  34.763  1.00  0.00     0.023 A 
ATOM     56  C   UNL A   1      44.601  26.423  35.284  1.00  0.00     0.012 A 
ATOM     57  C   UNL A   1      45.878  28.466  34.940  1.00  0.00     0.148 A 
ATOM     58  C   UNL A   1      45.667  25.867  35.991  1.00  0.00     0.002 A 
ATOM     59  C   UNL A   1      46.948  27.892  35.615  1.00  0.00     0.091 A 
ATOM     60  F   UNL A   1      45.932  29.717  34.461  1.00  0.00    -0.205 F 
ATOM     61  C   UNL A   1      46.843  26.597  36.148  1.00  0.00     0.022 A 
BRANCH  59  62
ATOM     62  S   UNL A   1      48.526  28.730  35.809  1.00  0.00     0.127 S 
ATOM     63  O   UNL A   1      49.211  27.854  36.758  1.00  0.00    -0.237 OA
ATOM     64  O   UNL A   1      49.065  28.696  34.448  1.00  0.00    -0.237 OA
ATOM     65  O   UNL A   1      48.210  30.065  36.299  1.00  0.00    -0.744 OA
ENDBRANCH  59  62
ENDBRANCH  41  55
BRANCH  42  66
ATOM     66  C   UNL A   1      37.097  31.148  29.219  1.00  0.00     0.023 A 
ATOM     67  C   UNL A   1      36.990  32.520  28.920  1.00  0.00     0.012 A 
ATOM     68  C   UNL A   1      36.134  30.257  28.708  1.00  0.00     0.148 A 
ATOM     69  C   UNL A   1      35.933  32.998  28.144  1.00  0.00     0.002 A 
ATOM     70  C   UNL A   1      35.114  30.732  27.891  1.00  0.00     0.091 A 
ATOM     71  F   UNL A   1      36.237  28.957  29.024  1.00  0.00    -0.205 F 
ATOM     72  C   UNL A   1      35.003  32.104  27.620  1.00  0.00     0.022 A 
BRANCH  70  73
ATOM     73  S   UNL A   1      33.957  29.630  27.069  1.00  0.00     0.127 S 
ATOM     74  O   UNL A   1      33.317  28.968  28.202  1.00  0.00    -0.237 OA
ATOM     75  O   UNL A   1      33.103  30.570  26.341  1.00  0.00    -0.237 OA
ATOM     76  O   UNL A   1      34.773  28.780  26.211  1.00  0.00    -0.744 OA
ENDBRANCH  70  73
ENDBRANCH  42  66
BRANCH  54  77
ATOM     77  C   UNL A   1      39.015  32.032  35.878  1.00  0.00     0.023 A 
ATOM     78  C   UNL A   1      39.103  33.437  35.912  1.00  0.00     0.012 A 
ATOM     79  C   UNL A   1      38.287  31.358  36.878  1.00  0.00     0.148 A 
ATOM     80  C   UNL A   1      38.498  34.160  36.939  1.00  0.00     0.002 A 
ATOM     81  C   UNL A   1      37.650  32.088  37.875  1.00  0.00     0.091 A 
ATOM     82  F   UNL A   1      38.232  30.019  36.840  1.00  0.00    -0.205 F 
ATOM     83  C   UNL A   1      37.763  33.488  37.913  1.00  0.00     0.022 A 
BRANCH  81  84
ATOM     84  S   UNL A   1      36.608  31.310  39.114  1.00  0.00     0.127 S 
ATOM     85  O   UNL A   1      36.287  30.034  38.476  1.00  0.00    -0.237 OA
ATOM     86  O   UNL A   1      37.509  31.207  40.263  1.00  0.00    -0.237 OA
ATOM     87  O   UNL A   1      35.483  32.214  39.313  1.00  0.00    -0.744 OA
ENDBRANCH  81  84
ENDBRANCH  54  77
ENDBRANCH  28  29
ENDBRANCH  21  23
ENDBRANCH  20  21
ENDBRANCH  19  20
ENDBRANCH   1  19
TORSDOF 18
ENDMDL
MODEL 3
REMARK VINA RESULT:     -10.4      2.377      3.664
REMARK SMILES CSc1ccc(C[C@H]([NH3+])C(=O)OCCOC(=O)c2ccc(-c3c4nc(c(-c5cccc(S(=O)(=O)[O-])c5F)c5ccc([nH]5)c(-c5cccc(S(=O)(=O)[O-])c5F)c5nc(c(-c6cccc(S(=O)(=O)[O-])c6F)c6ccc3[nH]6)C=C5)C=C4)cc2)cc1
REMARK SMILES IDX 13 1 12 2 10 3 11 4 8 5 7 6 6 7 3 8 4 9 82 10 5 11 81 12
REMARK SMILES IDX 2 13 1 14 9 15 14 19 15 20 16 21 17 22 18 23 19 24 80 25
REMARK SMILES IDX 20 26 79 27 21 28 22 29 23 30 73 31 24 32 78 33 72 34 74 35
REMARK SMILES IDX 25 36 77 37 71 38 70 39 26 41 58 42 38 43 57 44 39 45 42 46
REMARK SMILES IDX 56 47 75 48 40 49 41 50 55 52 76 53 43 54 27 55 28 56 36 57
REMARK SMILES IDX 29 58 31 59 37 60 30 61 32 62 33 63 34 64 35 65 59 66 60 67
REMARK SMILES IDX 68 68 61 69 63 70 69 71 62 72 64 73 65 74 66 75 67 76 44 77
REMARK SMILES IDX 45 78 53 79 46 80 48 81 54 82 47 83 49 84 50 85 51 86 52 87
REMARK H PARENT 9 16 9 17 9 18 74 40 42 51
REMARK Flexibility Score: inf
ROOT
ATOM      1  C   UNL A   1      35.206  20.427  24.907  1.00  0.00     0.274 C 
ENDROOT
BRANCH   1   2
ATOM      2  O   UNL A   1      33.875  20.875  25.220  1.00  0.00    -0.458 OA
BRANCH   2   3
ATOM      3  C   UNL A   1      33.435  21.997  24.575  1.00  0.00     0.365 C 
ATOM      4  O   UNL A   1      33.895  22.428  23.526  1.00  0.00    -0.245 OA
BRANCH   3   5
ATOM      5  C   UNL A   1      32.290  22.677  25.346  1.00  0.00     0.296 C 
BRANCH   5   6
ATOM      6  C   UNL A   1      32.907  23.659  26.356  1.00  0.00     0.113 C 
BRANCH   6   7
ATOM      7  C   UNL A   1      32.668  25.116  26.045  1.00  0.00    -0.041 A 
ATOM      8  C   UNL A   1      32.303  27.877  25.583  1.00  0.00     0.007 A 
ATOM      9  C   UNL A   1      31.255  27.094  26.078  1.00  0.00     0.015 A 
ATOM     10  C   UNL A   1      33.526  27.259  25.303  1.00  0.00     0.015 A 
ATOM     11  C   UNL A   1      31.435  25.725  26.309  1.00  0.00     0.005 A 
ATOM     12  C   UNL A   1      33.709  25.895  25.531  1.00  0.00     0.005 A 
BRANCH   8  13
ATOM     13  S   UNL A   1      32.185  29.632  25.253  1.00  0.00    -0.130 SA
ATOM     14  C   UNL A   1      32.495  30.358  26.884  1.00  0.00     0.091 C 
ENDBRANCH   8  13
ENDBRANCH   6   7
ENDBRANCH   5   6
BRANCH   5  15
ATOM     15  N   UNL A   1      31.366  21.671  25.928  1.00  0.00    -0.346 N 
ATOM     16  H   UNL A   1      31.033  21.998  26.835  1.00  0.00     0.345 HD
ATOM     17  H   UNL A   1      31.858  20.785  26.046  1.00  0.00     0.345 HD
ATOM     18  H   UNL A   1      30.571  21.536  25.303  1.00  0.00     0.345 HD
ENDBRANCH   5  15
ENDBRANCH   3   5
ENDBRANCH   2   3
ENDBRANCH   1   2
BRANCH   1  19
ATOM     19  C   UNL A   1      36.244  21.161  25.762  1.00  0.00     0.275 C 
BRANCH  19  20
ATOM     20  O   UNL A   1      37.477  21.370  25.047  1.00  0.00    -0.458 OA
BRANCH  20  21
ATOM     21  C   UNL A   1      38.600  21.008  25.713  1.00  0.00     0.338 C 
ATOM     22  O   UNL A   1      39.096  19.894  25.764  1.00  0.00    -0.246 OA
BRANCH  21  23
ATOM     23  C   UNL A   1      39.267  22.204  26.256  1.00  0.00     0.060 A 
ATOM     24  C   UNL A   1      38.868  23.448  25.761  1.00  0.00     0.016 A 
ATOM     25  C   UNL A   1      40.307  22.109  27.180  1.00  0.00     0.016 A 
ATOM     26  C   UNL A   1      39.510  24.607  26.180  1.00  0.00     0.010 A 
ATOM     27  C   UNL A   1      40.954  23.276  27.601  1.00  0.00     0.010 A 
ATOM     28  C   UNL A   1      40.566  24.529  27.092  1.00  0.00    -0.014 A 
BRANCH  28  29
ATOM     29  C   UNL A   1      41.288  25.765  27.477  1.00  0.00     0.031 A 
ATOM     30  C   UNL A   1      40.581  26.826  28.268  1.00  0.00     0.074 A 
ATOM     31  C   UNL A   1      42.577  25.921  27.123  1.00  0.00     0.049 A 
ATOM     32  N   UNL A   1      41.018  27.996  28.654  1.00  0.00    -0.248 NA
ATOM     33  C   UNL A   1      39.197  26.534  28.681  1.00  0.00     0.031 C 
ATOM     34  C   UNL A   1      43.368  24.948  26.370  1.00  0.00     0.029 A 
ATOM     35  N   UNL A   1      43.442  26.963  27.339  1.00  0.00    -0.354 N 
ATOM     36  C   UNL A   1      39.956  28.598  29.316  1.00  0.00     0.074 A 
ATOM     37  C   UNL A   1      38.853  27.664  29.283  1.00  0.00     0.031 C 
ATOM     38  C   UNL A   1      44.599  25.446  26.170  1.00  0.00     0.029 A 
ATOM     39  C   UNL A   1      44.672  26.785  26.750  1.00  0.00     0.049 A 
ATOM     40  H   UNL A   1      43.206  27.761  27.864  1.00  0.00     0.167 HD
ATOM     41  C   UNL A   1      39.913  29.814  29.911  1.00  0.00     0.034 A 
ATOM     42  C   UNL A   1      45.727  27.617  26.666  1.00  0.00     0.034 A 
ATOM     43  C   UNL A   1      41.027  30.720  29.975  1.00  0.00     0.049 A 
ATOM     44  C   UNL A   1      45.648  28.966  27.328  1.00  0.00     0.074 A 
ATOM     45  C   UNL A   1      41.094  31.958  30.589  1.00  0.00     0.029 A 
ATOM     46  N   UNL A   1      42.269  30.489  29.405  1.00  0.00    -0.354 N 
ATOM     47  N   UNL A   1      44.669  29.483  28.032  1.00  0.00    -0.248 NA
ATOM     48  C   UNL A   1      46.826  29.837  27.208  1.00  0.00     0.031 C 
ATOM     49  C   UNL A   1      42.375  32.481  30.379  1.00  0.00     0.029 A 
ATOM     50  C   UNL A   1      43.109  31.562  29.646  1.00  0.00     0.049 A 
ATOM     51  H   UNL A   1      42.518  29.679  28.903  1.00  0.00     0.167 HD
ATOM     52  C   UNL A   1      45.121  30.726  28.459  1.00  0.00     0.074 A 
ATOM     53  C   UNL A   1      46.471  30.873  27.956  1.00  0.00     0.031 C 
ATOM     54  C   UNL A   1      44.471  31.668  29.185  1.00  0.00     0.034 A 
BRANCH  41  55
ATOM     55  C   UNL A   1      38.621  30.223  30.565  1.00  0.00     0.023 A 
ATOM     56  C   UNL A   1      38.334  29.784  31.873  1.00  0.00     0.012 A 
ATOM     57  C   UNL A   1      37.718  31.083  29.909  1.00  0.00     0.148 A 
ATOM     58  C   UNL A   1      37.156  30.174  32.509  1.00  0.00     0.002 A 
ATOM     59  C   UNL A   1      36.563  31.495  30.563  1.00  0.00     0.091 A 
ATOM     60  F   UNL A   1      37.997  31.467  28.655  1.00  0.00    -0.205 F 
ATOM     61  C   UNL A   1      36.276  31.036  31.859  1.00  0.00     0.022 A 
BRANCH  59  62
ATOM     62  S   UNL A   1      35.404  32.657  29.832  1.00  0.00     0.127 S 
ATOM     63  O   UNL A   1      36.256  33.825  29.612  1.00  0.00    -0.237 OA
ATOM     64  O   UNL A   1      34.996  31.961  28.609  1.00  0.00    -0.237 OA
ATOM     65  O   UNL A   1      34.341  32.829  30.812  1.00  0.00    -0.744 OA
ENDBRANCH  59  62
ENDBRANCH  41  55
BRANCH  42  66
ATOM     66  C   UNL A   1      46.961  27.180  25.954  1.00  0.00     0.023 A 
ATOM     67  C   UNL A   1      47.088  27.423  24.573  1.00  0.00     0.012 A 
ATOM     68  C   UNL A   1      48.023  26.561  26.642  1.00  0.00     0.148 A 
ATOM     69  C   UNL A   1      48.240  27.039  23.886  1.00  0.00     0.002 A 
ATOM     70  C   UNL A   1      49.190  26.231  25.963  1.00  0.00     0.091 A 
ATOM     71  F   UNL A   1      47.875  26.314  27.952  1.00  0.00    -0.205 F 
ATOM     72  C   UNL A   1      49.295  26.455  24.582  1.00  0.00     0.022 A 
BRANCH  70  73
ATOM     73  S   UNL A   1      50.643  25.599  26.811  1.00  0.00     0.127 S 
ATOM     74  O   UNL A   1      51.020  26.736  27.646  1.00  0.00    -0.237 OA
ATOM     75  O   UNL A   1      50.097  24.453  27.541  1.00  0.00    -0.237 OA
ATOM     76  O   UNL A   1      51.583  25.241  25.757  1.00  0.00    -0.744 OA
ENDBRANCH  70  73
ENDBRANCH  42  66
BRANCH  54  77
ATOM     77  C   UNL A   1      45.214  32.938  29.502  1.00  0.00     0.023 A 
ATOM     78  C   UNL A   1      46.004  33.008  30.666  1.00  0.00     0.012 A 
ATOM     79  C   UNL A   1      45.192  34.029  28.612  1.00  0.00     0.148 A 
ATOM     80  C   UNL A   1      46.741  34.156  30.953  1.00  0.00     0.002 A 
ATOM     81  C   UNL A   1      45.964  35.154  28.882  1.00  0.00     0.091 A 
ATOM     82  F   UNL A   1      44.418  33.952  27.519  1.00  0.00    -0.205 F 
ATOM     83  C   UNL A   1      46.731  35.222  30.057  1.00  0.00     0.022 A 
BRANCH  81  84
ATOM     84  S   UNL A   1      46.080  36.533  27.738  1.00  0.00     0.127 S 
ATOM     85  O   UNL A   1      47.126  37.347  28.355  1.00  0.00    -0.237 OA
ATOM     86  O   UNL A   1      46.475  35.875  26.491  1.00  0.00    -0.237 OA
ATOM     87  O   UNL A   1      44.753  37.133  27.704  1.00  0.00    -0.744 OA
ENDBRANCH  81  84
ENDBRANCH  54  77
ENDBRANCH  28  29
ENDBRANCH  21  23
ENDBRANCH  20  21
ENDBRANCH  19  20
ENDBRANCH   1  19
TORSDOF 18
ENDMDL
