MODEL 1
REMARK VINA RESULT:     -12.1      0.000      0.000
REMARK SMILES C[C@@H](C(=O)OCCOC(=O)c1ccc(-c2c3nc(c(-c4cccc(S(=O)(=O)[O-])c4F)c4ccc([nH]4)c(-c4cccc(S(=O)(=O)[O-])c4F)c4nc(c(-c5cccc(S(=O)(=O)[O-])c5F)c5ccc2[nH]5)C=C4)C=C3)cc1)c1ccc(C[C@H]2CCC[C@@H]2O)cc1
REMARK SMILES IDX 6 1 5 2 3 3 4 4 2 5 1 6 74 7 75 8 86 9 76 10 85 11 77 12
REMARK SMILES IDX 78 13 79 14 80 15 83 16 81 17 82 18 84 19 7 21 8 22 9 23
REMARK SMILES IDX 10 24 11 25 12 26 73 27 13 28 72 29 14 30 15 31 16 32 66 33
REMARK SMILES IDX 17 34 71 35 65 36 67 37 18 38 70 39 64 40 63 41 19 43 51 44
REMARK SMILES IDX 31 45 50 46 32 47 35 48 49 49 68 50 33 51 34 52 48 54 69 55
REMARK SMILES IDX 36 56 20 57 21 58 29 59 22 60 24 61 30 62 23 63 25 64 26 65
REMARK SMILES IDX 27 66 28 67 52 68 53 69 61 70 54 71 56 72 62 73 55 74 57 75
REMARK SMILES IDX 58 76 59 77 60 78 37 79 38 80 46 81 39 82 41 83 47 84 40 85
REMARK SMILES IDX 42 86 43 87 44 88 45 89
REMARK H PARENT 84 20 67 42 35 53
REMARK Flexibility Score: inf
ROOT
ATOM      1  C   UNL A   1      31.404  28.243  24.837  1.00  0.00     0.274 C 
ENDROOT
BRANCH   1   2
ATOM      2  O   UNL A   1      32.022  27.699  23.654  1.00  0.00    -0.462 OA
BRANCH   2   3
ATOM      3  C   UNL A   1      31.537  26.499  23.216  1.00  0.00     0.313 C 
ATOM      4  O   UNL A   1      30.349  26.199  23.203  1.00  0.00    -0.252 OA
BRANCH   3   5
ATOM      5  C   UNL A   1      32.658  25.611  22.645  1.00  0.00     0.126 C 
ATOM      6  C   UNL A   1      32.664  25.641  21.116  1.00  0.00     0.025 C 
BRANCH   5   7
ATOM      7  C   UNL A   1      32.596  24.187  23.177  1.00  0.00    -0.034 A 
ATOM      8  C   UNL A   1      32.717  23.119  22.296  1.00  0.00     0.005 A 
ATOM      9  C   UNL A   1      32.434  23.886  24.540  1.00  0.00     0.005 A 
ATOM     10  C   UNL A   1      32.595  21.813  22.742  1.00  0.00     0.004 A 
ATOM     11  C   UNL A   1      32.318  22.550  24.984  1.00  0.00     0.004 A 
ATOM     12  C   UNL A   1      32.359  21.494  24.073  1.00  0.00    -0.048 A 
BRANCH  12  13
ATOM     13  C   UNL A   1      32.258  20.033  24.443  1.00  0.00     0.041 C 
BRANCH  13  14
ATOM     14  C   UNL A   1      33.221  19.020  23.771  1.00  0.00     0.022 C 
ATOM     15  C   UNL A   1      34.393  18.594  24.668  1.00  0.00     0.007 C 
ATOM     16  C   UNL A   1      32.694  17.675  23.256  1.00  0.00     0.117 C 
ATOM     17  C   UNL A   1      34.818  17.199  24.187  1.00  0.00     0.003 C 
ATOM     18  C   UNL A   1      33.971  16.905  22.965  1.00  0.00     0.032 C 
BRANCH  16  19
ATOM     19  O   UNL A   1      31.929  17.780  22.081  1.00  0.00    -0.393 OA
ATOM     20  H   UNL A   1      30.996  17.608  22.287  1.00  0.00     0.210 HD
ENDBRANCH  16  19
ENDBRANCH  13  14
ENDBRANCH  12  13
ENDBRANCH   5   7
ENDBRANCH   3   5
ENDBRANCH   2   3
ENDBRANCH   1   2
BRANCH   1  21
ATOM     21  C   UNL A   1      31.977  29.644  25.087  1.00  0.00     0.275 C 
BRANCH  21  22
ATOM     22  O   UNL A   1      32.157  29.830  26.505  1.00  0.00    -0.458 OA
BRANCH  22  23
ATOM     23  C   UNL A   1      32.679  31.019  26.912  1.00  0.00     0.338 C 
ATOM     24  O   UNL A   1      32.138  32.106  26.813  1.00  0.00    -0.246 OA
BRANCH  23  25
ATOM     25  C   UNL A   1      34.022  30.806  27.528  1.00  0.00     0.060 A 
ATOM     26  C   UNL A   1      34.505  29.518  27.718  1.00  0.00     0.016 A 
ATOM     27  C   UNL A   1      34.796  31.880  27.994  1.00  0.00     0.016 A 
ATOM     28  C   UNL A   1      35.671  29.307  28.447  1.00  0.00     0.010 A 
ATOM     29  C   UNL A   1      36.031  31.654  28.647  1.00  0.00     0.010 A 
ATOM     30  C   UNL A   1      36.472  30.351  28.905  1.00  0.00    -0.014 A 
BRANCH  30  31
ATOM     31  C   UNL A   1      37.661  29.979  29.735  1.00  0.00     0.031 A 
ATOM     32  C   UNL A   1      38.887  29.423  29.071  1.00  0.00     0.074 A 
ATOM     33  C   UNL A   1      37.734  30.314  31.044  1.00  0.00     0.049 A 
ATOM     34  N   UNL A   1      39.992  28.997  29.624  1.00  0.00    -0.248 NA
ATOM     35  C   UNL A   1      38.872  29.318  27.604  1.00  0.00     0.031 C 
ATOM     36  C   UNL A   1      36.660  30.945  31.811  1.00  0.00     0.029 A 
ATOM     37  N   UNL A   1      38.781  30.268  31.939  1.00  0.00    -0.354 N 
ATOM     38  C   UNL A   1      40.718  28.407  28.600  1.00  0.00     0.074 A 
ATOM     39  C   UNL A   1      39.996  28.654  27.371  1.00  0.00     0.031 C 
ATOM     40  C   UNL A   1      37.150  31.379  32.984  1.00  0.00     0.029 A 
ATOM     41  C   UNL A   1      38.543  30.962  33.111  1.00  0.00     0.049 A 
ATOM     42  H   UNL A   1      39.620  29.786  31.762  1.00  0.00     0.167 HD
ATOM     43  C   UNL A   1      41.840  27.659  28.702  1.00  0.00     0.034 A 
ATOM     44  C   UNL A   1      39.362  31.232  34.152  1.00  0.00     0.034 A 
ATOM     45  C   UNL A   1      42.589  27.498  29.918  1.00  0.00     0.049 A 
ATOM     46  C   UNL A   1      40.702  30.543  34.199  1.00  0.00     0.074 A 
ATOM     47  C   UNL A   1      43.665  26.665  30.172  1.00  0.00     0.029 A 
ATOM     48  N   UNL A   1      42.356  28.216  31.081  1.00  0.00    -0.354 N 
ATOM     49  N   UNL A   1      41.312  29.855  33.264  1.00  0.00    -0.248 NA
ATOM     50  C   UNL A   1      41.440  30.608  35.472  1.00  0.00     0.031 C 
ATOM     51  C   UNL A   1      44.081  26.881  31.492  1.00  0.00     0.029 A 
ATOM     52  C   UNL A   1      43.277  27.862  32.050  1.00  0.00     0.049 A 
ATOM     53  H   UNL A   1      41.639  28.880  31.198  1.00  0.00     0.167 HD
ATOM     54  C   UNL A   1      42.463  29.348  33.856  1.00  0.00     0.074 A 
ATOM     55  C   UNL A   1      42.526  29.900  35.194  1.00  0.00     0.031 C 
ATOM     56  C   UNL A   1      43.343  28.440  33.366  1.00  0.00     0.034 A 
BRANCH  43  57
ATOM     57  C   UNL A   1      42.234  26.853  27.498  1.00  0.00     0.023 A 
ATOM     58  C   UNL A   1      42.912  27.437  26.414  1.00  0.00     0.012 A 
ATOM     59  C   UNL A   1      41.915  25.480  27.464  1.00  0.00     0.148 A 
ATOM     60  C   UNL A   1      43.244  26.666  25.298  1.00  0.00     0.002 A 
ATOM     61  C   UNL A   1      42.285  24.711  26.370  1.00  0.00     0.091 A 
ATOM     62  F   UNL A   1      41.237  24.956  28.496  1.00  0.00    -0.205 F 
ATOM     63  C   UNL A   1      42.940  25.305  25.281  1.00  0.00     0.022 A 
BRANCH  61  64
ATOM     64  S   UNL A   1      41.992  22.941  26.296  1.00  0.00     0.127 S 
ATOM     65  O   UNL A   1      42.694  22.475  27.491  1.00  0.00    -0.237 OA
ATOM     66  O   UNL A   1      40.533  22.867  26.377  1.00  0.00    -0.237 OA
ATOM     67  O   UNL A   1      42.551  22.494  25.027  1.00  0.00    -0.744 OA
ENDBRANCH  61  64
ENDBRANCH  43  57
BRANCH  44  68
ATOM     68  C   UNL A   1      38.978  32.200  35.229  1.00  0.00     0.023 A 
ATOM     69  C   UNL A   1      38.081  31.776  36.235  1.00  0.00     0.012 A 
ATOM     70  C   UNL A   1      39.479  33.511  35.297  1.00  0.00     0.148 A 
ATOM     71  C   UNL A   1      37.690  32.636  37.267  1.00  0.00     0.002 A 
ATOM     72  C   UNL A   1      39.160  34.331  36.376  1.00  0.00     0.091 A 
ATOM     73  F   UNL A   1      40.267  33.953  34.305  1.00  0.00    -0.205 F 
ATOM     74  C   UNL A   1      38.247  33.907  37.351  1.00  0.00     0.022 A 
BRANCH  72  75
ATOM     75  S   UNL A   1      40.034  35.881  36.623  1.00  0.00     0.127 S 
ATOM     76  O   UNL A   1      39.440  36.376  37.859  1.00  0.00    -0.237 OA
ATOM     77  O   UNL A   1      41.428  35.451  36.737  1.00  0.00    -0.237 OA
ATOM     78  O   UNL A   1      39.748  36.640  35.410  1.00  0.00    -0.744 OA
ENDBRANCH  72  75
ENDBRANCH  44  68
BRANCH  56  79
ATOM     79  C   UNL A   1      44.408  27.932  34.299  1.00  0.00     0.023 A 
ATOM     80  C   UNL A   1      45.644  28.609  34.354  1.00  0.00     0.012 A 
ATOM     81  C   UNL A   1      44.166  26.858  35.174  1.00  0.00     0.148 A 
ATOM     82  C   UNL A   1      46.632  28.211  35.252  1.00  0.00     0.002 A 
ATOM     83  C   UNL A   1      45.144  26.489  36.093  1.00  0.00     0.091 A 
ATOM     84  F   UNL A   1      42.992  26.215  35.091  1.00  0.00    -0.205 F 
ATOM     85  C   UNL A   1      46.378  27.159  36.128  1.00  0.00     0.022 A 
BRANCH  83  86
ATOM     86  S   UNL A   1      44.876  25.196  37.311  1.00  0.00     0.127 S 
ATOM     87  O   UNL A   1      45.418  24.025  36.625  1.00  0.00    -0.237 OA
ATOM     88  O   UNL A   1      45.675  25.664  38.444  1.00  0.00    -0.237 OA
ATOM     89  O   UNL A   1      43.441  25.171  37.556  1.00  0.00    -0.744 OA
ENDBRANCH  83  86
ENDBRANCH  56  79
ENDBRANCH  30  31
ENDBRANCH  23  25
ENDBRANCH  22  23
ENDBRANCH  21  22
ENDBRANCH   1  21
TORSDOF 18
ENDMDL
MODEL 2
REMARK VINA RESULT:     -12.0      4.954     10.332
REMARK SMILES C[C@@H](C(=O)OCCOC(=O)c1ccc(-c2c3nc(c(-c4cccc(S(=O)(=O)[O-])c4F)c4ccc([nH]4)c(-c4cccc(S(=O)(=O)[O-])c4F)c4nc(c(-c5cccc(S(=O)(=O)[O-])c5F)c5ccc2[nH]5)C=C4)C=C3)cc1)c1ccc(C[C@H]2CCC[C@@H]2O)cc1
REMARK SMILES IDX 6 1 5 2 3 3 4 4 2 5 1 6 74 7 75 8 86 9 76 10 85 11 77 12
REMARK SMILES IDX 78 13 79 14 80 15 83 16 81 17 82 18 84 19 7 21 8 22 9 23
REMARK SMILES IDX 10 24 11 25 12 26 73 27 13 28 72 29 14 30 15 31 16 32 66 33
REMARK SMILES IDX 17 34 71 35 65 36 67 37 18 38 70 39 64 40 63 41 19 43 51 44
REMARK SMILES IDX 31 45 50 46 32 47 35 48 49 49 68 50 33 51 34 52 48 54 69 55
REMARK SMILES IDX 36 56 20 57 21 58 29 59 22 60 24 61 30 62 23 63 25 64 26 65
REMARK SMILES IDX 27 66 28 67 52 68 53 69 61 70 54 71 56 72 62 73 55 74 57 75
REMARK SMILES IDX 58 76 59 77 60 78 37 79 38 80 46 81 39 82 41 83 47 84 40 85
REMARK SMILES IDX 42 86 43 87 44 88 45 89
REMARK H PARENT 84 20 67 42 35 53
REMARK Flexibility Score: inf
ROOT
ATOM      1  C   UNL A   1      34.361  20.803  25.135  1.00  0.00     0.274 C 
ENDROOT
BRANCH   1   2
ATOM      2  O   UNL A   1      34.001  21.862  24.225  1.00  0.00    -0.462 OA
BRANCH   2   3
ATOM      3  C   UNL A   1      33.503  23.002  24.791  1.00  0.00     0.313 C 
ATOM      4  O   UNL A   1      32.471  23.051  25.450  1.00  0.00    -0.252 OA
BRANCH   3   5
ATOM      5  C   UNL A   1      34.453  24.196  24.584  1.00  0.00     0.126 C 
ATOM      6  C   UNL A   1      35.304  24.449  25.829  1.00  0.00     0.025 C 
BRANCH   5   7
ATOM      7  C   UNL A   1      33.717  25.452  24.144  1.00  0.00    -0.034 A 
ATOM      8  C   UNL A   1      33.491  26.473  25.060  1.00  0.00     0.005 A 
ATOM      9  C   UNL A   1      33.255  25.648  22.831  1.00  0.00     0.005 A 
ATOM     10  C   UNL A   1      32.763  27.597  24.705  1.00  0.00     0.004 A 
ATOM     11  C   UNL A   1      32.520  26.802  22.479  1.00  0.00     0.004 A 
ATOM     12  C   UNL A   1      32.232  27.777  23.435  1.00  0.00    -0.048 A 
BRANCH  12  13
ATOM     13  C   UNL A   1      31.467  29.051  23.162  1.00  0.00     0.041 C 
BRANCH  13  14
ATOM     14  C   UNL A   1      30.050  28.957  22.540  1.00  0.00     0.022 C 
ATOM     15  C   UNL A   1      29.083  28.067  23.336  1.00  0.00     0.007 C 
ATOM     16  C   UNL A   1      29.218  30.226  22.313  1.00  0.00     0.117 C 
ATOM     17  C   UNL A   1      27.670  28.584  23.029  1.00  0.00     0.003 C 
ATOM     18  C   UNL A   1      27.843  29.670  21.985  1.00  0.00     0.032 C 
BRANCH  16  19
ATOM     19  O   UNL A   1      29.675  31.016  21.243  1.00  0.00    -0.393 OA
ATOM     20  H   UNL A   1      30.353  31.633  21.563  1.00  0.00     0.210 HD
ENDBRANCH  16  19
ENDBRANCH  13  14
ENDBRANCH  12  13
ENDBRANCH   5   7
ENDBRANCH   3   5
ENDBRANCH   2   3
ENDBRANCH   1   2
BRANCH   1  21
ATOM     21  C   UNL A   1      35.830  20.435  24.898  1.00  0.00     0.275 C 
BRANCH  21  22
ATOM     22  O   UNL A   1      36.668  21.387  25.584  1.00  0.00    -0.458 OA
BRANCH  22  23
ATOM     23  C   UNL A   1      38.004  21.125  25.616  1.00  0.00     0.338 C 
ATOM     24  O   UNL A   1      38.539  20.101  25.230  1.00  0.00    -0.246 OA
BRANCH  23  25
ATOM     25  C   UNL A   1      38.742  22.295  26.180  1.00  0.00     0.060 A 
ATOM     26  C   UNL A   1      38.244  23.579  26.012  1.00  0.00     0.016 A 
ATOM     27  C   UNL A   1      39.980  22.142  26.823  1.00  0.00     0.016 A 
ATOM     28  C   UNL A   1      39.010  24.682  26.378  1.00  0.00     0.010 A 
ATOM     29  C   UNL A   1      40.703  23.268  27.281  1.00  0.00     0.010 A 
ATOM     30  C   UNL A   1      40.232  24.564  27.036  1.00  0.00    -0.014 A 
BRANCH  30  31
ATOM     31  C   UNL A   1      40.981  25.831  27.308  1.00  0.00     0.031 A 
ATOM     32  C   UNL A   1      40.513  26.752  28.398  1.00  0.00     0.074 A 
ATOM     33  C   UNL A   1      42.180  26.075  26.731  1.00  0.00     0.049 A 
ATOM     34  N   UNL A   1      40.998  27.915  28.748  1.00  0.00    -0.248 NA
ATOM     35  C   UNL A   1      39.350  26.325  29.191  1.00  0.00     0.031 C 
ATOM     36  C   UNL A   1      42.813  25.228  25.721  1.00  0.00     0.029 A 
ATOM     37  N   UNL A   1      43.129  27.044  26.976  1.00  0.00    -0.354 N 
ATOM     38  C   UNL A   1      40.094  28.435  29.663  1.00  0.00     0.074 A 
ATOM     39  C   UNL A   1      39.110  27.406  29.921  1.00  0.00     0.031 C 
ATOM     40  C   UNL A   1      44.092  25.606  25.565  1.00  0.00     0.029 A 
ATOM     41  C   UNL A   1      44.348  26.793  26.375  1.00  0.00     0.049 A 
ATOM     42  H   UNL A   1      42.956  27.840  27.527  1.00  0.00     0.167 HD
ATOM     43  C   UNL A   1      40.054  29.688  30.170  1.00  0.00     0.034 A 
ATOM     44  C   UNL A   1      45.528  27.445  26.479  1.00  0.00     0.034 A 
ATOM     45  C   UNL A   1      41.087  30.668  29.969  1.00  0.00     0.049 A 
ATOM     46  C   UNL A   1      45.546  28.770  27.199  1.00  0.00     0.074 A 
ATOM     47  C   UNL A   1      41.098  32.005  30.324  1.00  0.00     0.029 A 
ATOM     48  N   UNL A   1      42.315  30.400  29.384  1.00  0.00    -0.354 N 
ATOM     49  N   UNL A   1      44.617  29.321  27.943  1.00  0.00    -0.248 NA
ATOM     50  C   UNL A   1      46.753  29.598  27.039  1.00  0.00     0.031 C 
ATOM     51  C   UNL A   1      42.335  32.545  29.952  1.00  0.00     0.029 A 
ATOM     52  C   UNL A   1      43.100  31.539  29.386  1.00  0.00     0.049 A 
ATOM     53  H   UNL A   1      42.589  29.526  29.023  1.00  0.00     0.167 HD
ATOM     54  C   UNL A   1      45.096  30.582  28.275  1.00  0.00     0.074 A 
ATOM     55  C   UNL A   1      46.443  30.673  27.750  1.00  0.00     0.031 C 
ATOM     56  C   UNL A   1      44.447  31.605  28.885  1.00  0.00     0.034 A 
BRANCH  43  57
ATOM     57  C   UNL A   1      38.790  30.103  30.864  1.00  0.00     0.023 A 
ATOM     58  C   UNL A   1      38.564  29.799  32.218  1.00  0.00     0.012 A 
ATOM     59  C   UNL A   1      37.815  30.816  30.137  1.00  0.00     0.148 A 
ATOM     60  C   UNL A   1      37.367  30.177  32.830  1.00  0.00     0.002 A 
ATOM     61  C   UNL A   1      36.647  31.225  30.764  1.00  0.00     0.091 A 
ATOM     62  F   UNL A   1      38.041  31.063  28.839  1.00  0.00    -0.205 F 
ATOM     63  C   UNL A   1      36.416  30.897  32.108  1.00  0.00     0.022 A 
BRANCH  61  64
ATOM     64  S   UNL A   1      35.402  32.212  29.926  1.00  0.00     0.127 S 
ATOM     65  O   UNL A   1      36.192  33.350  29.460  1.00  0.00    -0.237 OA
ATOM     66  O   UNL A   1      34.952  31.307  28.870  1.00  0.00    -0.237 OA
ATOM     67  O   UNL A   1      34.392  32.521  30.930  1.00  0.00    -0.744 OA
ENDBRANCH  61  64
ENDBRANCH  43  57
BRANCH  44  68
ATOM     68  C   UNL A   1      46.797  26.878  25.921  1.00  0.00     0.023 A 
ATOM     69  C   UNL A   1      47.024  26.960  24.529  1.00  0.00     0.012 A 
ATOM     70  C   UNL A   1      47.784  26.276  26.719  1.00  0.00     0.148 A 
ATOM     71  C   UNL A   1      48.192  26.450  23.953  1.00  0.00     0.002 A 
ATOM     72  C   UNL A   1      48.985  25.853  26.153  1.00  0.00     0.091 A 
ATOM     73  F   UNL A   1      47.548  26.116  28.030  1.00  0.00    -0.205 F 
ATOM     74  C   UNL A   1      49.184  25.916  24.768  1.00  0.00     0.022 A 
BRANCH  72  75
ATOM     75  S   UNL A   1      50.359  25.371  27.205  1.00  0.00     0.127 S 
ATOM     76  O   UNL A   1      49.821  24.210  27.903  1.00  0.00    -0.237 OA
ATOM     77  O   UNL A   1      51.417  25.074  26.238  1.00  0.00    -0.237 OA
ATOM     78  O   UNL A   1      50.615  26.559  28.011  1.00  0.00    -0.744 OA
ENDBRANCH  72  75
ENDBRANCH  44  68
BRANCH  56  79
ATOM     79  C   UNL A   1      45.155  32.931  28.958  1.00  0.00     0.023 A 
ATOM     80  C   UNL A   1      45.898  33.243  30.115  1.00  0.00     0.012 A 
ATOM     81  C   UNL A   1      45.163  33.820  27.868  1.00  0.00     0.148 A 
ATOM     82  C   UNL A   1      46.622  34.431  30.196  1.00  0.00     0.002 A 
ATOM     83  C   UNL A   1      45.916  34.987  27.942  1.00  0.00     0.091 A 
ATOM     84  F   UNL A   1      44.432  33.514  26.786  1.00  0.00    -0.205 F 
ATOM     85  C   UNL A   1      46.640  35.296  29.106  1.00  0.00     0.022 A 
BRANCH  83  86
ATOM     86  S   UNL A   1      46.060  36.125  26.559  1.00  0.00     0.127 S 
ATOM     87  O   UNL A   1      44.842  36.920  26.702  1.00  0.00    -0.237 OA
ATOM     88  O   UNL A   1      47.297  36.842  26.871  1.00  0.00    -0.237 OA
ATOM     89  O   UNL A   1      46.130  35.294  25.366  1.00  0.00    -0.744 OA
ENDBRANCH  83  86
ENDBRANCH  56  79
ENDBRANCH  30  31
ENDBRANCH  23  25
ENDBRANCH  22  23
ENDBRANCH  21  22
ENDBRANCH   1  21
TORSDOF 18
ENDMDL
MODEL 3
REMARK VINA RESULT:     -11.8      4.780      7.007
REMARK SMILES C[C@@H](C(=O)OCCOC(=O)c1ccc(-c2c3nc(c(-c4cccc(S(=O)(=O)[O-])c4F)c4ccc([nH]4)c(-c4cccc(S(=O)(=O)[O-])c4F)c4nc(c(-c5cccc(S(=O)(=O)[O-])c5F)c5ccc2[nH]5)C=C4)C=C3)cc1)c1ccc(C[C@H]2CCC[C@@H]2O)cc1
REMARK SMILES IDX 6 1 5 2 3 3 4 4 2 5 1 6 74 7 75 8 86 9 76 10 85 11 77 12
REMARK SMILES IDX 78 13 79 14 80 15 83 16 81 17 82 18 84 19 7 21 8 22 9 23
REMARK SMILES IDX 10 24 11 25 12 26 73 27 13 28 72 29 14 30 15 31 16 32 66 33
REMARK SMILES IDX 17 34 71 35 65 36 67 37 18 38 70 39 64 40 63 41 19 43 51 44
REMARK SMILES IDX 31 45 50 46 32 47 35 48 49 49 68 50 33 51 34 52 48 54 69 55
REMARK SMILES IDX 36 56 20 57 21 58 29 59 22 60 24 61 30 62 23 63 25 64 26 65
REMARK SMILES IDX 27 66 28 67 52 68 53 69 61 70 54 71 56 72 62 73 55 74 57 75
REMARK SMILES IDX 58 76 59 77 60 78 37 79 38 80 46 81 39 82 41 83 47 84 40 85
REMARK SMILES IDX 42 86 43 87 44 88 45 89
REMARK H PARENT 84 20 67 42 35 53
REMARK Flexibility Score: inf
ROOT
ATOM      1  C   UNL A   1      36.366  22.932  23.270  1.00  0.00     0.274 C 
ENDROOT
BRANCH   1   2
ATOM      2  O   UNL A   1      35.674  23.732  24.249  1.00  0.00    -0.462 OA
BRANCH   2   3
ATOM      3  C   UNL A   1      34.431  24.177  23.896  1.00  0.00     0.313 C 
ATOM      4  O   UNL A   1      34.210  24.920  22.947  1.00  0.00    -0.252 OA
BRANCH   3   5
ATOM      5  C   UNL A   1      33.336  23.548  24.775  1.00  0.00     0.126 C 
ATOM      6  C   UNL A   1      33.719  23.593  26.255  1.00  0.00     0.025 C 
BRANCH   5   7
ATOM      7  C   UNL A   1      32.975  22.138  24.332  1.00  0.00    -0.034 A 
ATOM      8  C   UNL A   1      33.092  21.085  25.231  1.00  0.00     0.005 A 
ATOM      9  C   UNL A   1      32.508  21.838  23.041  1.00  0.00     0.005 A 
ATOM     10  C   UNL A   1      32.838  19.782  24.835  1.00  0.00     0.004 A 
ATOM     11  C   UNL A   1      32.246  20.506  22.651  1.00  0.00     0.004 A 
ATOM     12  C   UNL A   1      32.449  19.453  23.543  1.00  0.00    -0.048 A 
BRANCH  12  13
ATOM     13  C   UNL A   1      32.187  17.998  23.232  1.00  0.00     0.041 C 
BRANCH  13  14
ATOM     14  C   UNL A   1      33.152  16.924  23.796  1.00  0.00     0.022 C 
ATOM     15  C   UNL A   1      34.621  17.372  23.833  1.00  0.00     0.007 C 
ATOM     16  C   UNL A   1      32.944  16.360  25.207  1.00  0.00     0.117 C 
ATOM     17  C   UNL A   1      35.289  16.565  24.956  1.00  0.00     0.003 C 
ATOM     18  C   UNL A   1      34.234  15.598  25.457  1.00  0.00     0.032 C 
BRANCH  16  19
ATOM     19  O   UNL A   1      31.850  15.482  25.310  1.00  0.00    -0.393 OA
ATOM     20  H   UNL A   1      31.034  15.995  25.424  1.00  0.00     0.210 HD
ENDBRANCH  16  19
ENDBRANCH  13  14
ENDBRANCH  12  13
ENDBRANCH   5   7
ENDBRANCH   3   5
ENDBRANCH   2   3
ENDBRANCH   1   2
BRANCH   1  21
ATOM     21  C   UNL A   1      36.850  21.644  23.947  1.00  0.00     0.275 C 
BRANCH  21  22
ATOM     22  O   UNL A   1      37.132  21.921  25.334  1.00  0.00    -0.458 OA
BRANCH  22  23
ATOM     23  C   UNL A   1      38.360  21.562  25.799  1.00  0.00     0.338 C 
ATOM     24  O   UNL A   1      38.883  20.470  25.663  1.00  0.00    -0.246 OA
BRANCH  23  25
ATOM     25  C   UNL A   1      39.002  22.717  26.495  1.00  0.00     0.060 A 
ATOM     26  C   UNL A   1      38.438  23.982  26.411  1.00  0.00     0.016 A 
ATOM     27  C   UNL A   1      40.216  22.577  27.184  1.00  0.00     0.016 A 
ATOM     28  C   UNL A   1      39.120  25.089  26.906  1.00  0.00     0.010 A 
ATOM     29  C   UNL A   1      40.851  23.698  27.770  1.00  0.00     0.010 A 
ATOM     30  C   UNL A   1      40.317  24.982  27.612  1.00  0.00    -0.014 A 
BRANCH  30  31
ATOM     31  C   UNL A   1      40.976  26.260  28.026  1.00  0.00     0.031 A 
ATOM     32  C   UNL A   1      42.208  26.728  27.307  1.00  0.00     0.074 A 
ATOM     33  C   UNL A   1      40.381  27.105  28.900  1.00  0.00     0.049 A 
ATOM     34  N   UNL A   1      42.947  27.778  27.553  1.00  0.00    -0.248 NA
ATOM     35  C   UNL A   1      42.682  25.913  26.177  1.00  0.00     0.031 C 
ATOM     36  C   UNL A   1      39.133  26.834  29.611  1.00  0.00     0.029 A 
ATOM     37  N   UNL A   1      40.684  28.399  29.265  1.00  0.00    -0.354 N 
ATOM     38  C   UNL A   1      44.064  27.647  26.740  1.00  0.00     0.074 A 
ATOM     39  C   UNL A   1      43.839  26.495  25.893  1.00  0.00     0.031 C 
ATOM     40  C   UNL A   1      38.692  27.970  30.177  1.00  0.00     0.029 A 
ATOM     41  C   UNL A   1      39.676  29.028  29.972  1.00  0.00     0.049 A 
ATOM     42  H   UNL A   1      41.537  28.835  29.044  1.00  0.00     0.167 HD
ATOM     43  C   UNL A   1      45.200  28.379  26.766  1.00  0.00     0.034 A 
ATOM     44  C   UNL A   1      39.565  30.308  30.391  1.00  0.00     0.034 A 
ATOM     45  C   UNL A   1      45.369  29.571  27.553  1.00  0.00     0.049 A 
ATOM     46  C   UNL A   1      40.773  31.203  30.265  1.00  0.00     0.074 A 
ATOM     47  C   UNL A   1      46.513  30.321  27.758  1.00  0.00     0.029 A 
ATOM     48  N   UNL A   1      44.346  30.205  28.240  1.00  0.00    -0.354 N 
ATOM     49  N   UNL A   1      41.891  30.998  29.612  1.00  0.00    -0.248 NA
ATOM     50  C   UNL A   1      40.731  32.481  30.996  1.00  0.00     0.031 C 
ATOM     51  C   UNL A   1      46.179  31.411  28.572  1.00  0.00     0.029 A 
ATOM     52  C   UNL A   1      44.825  31.348  28.854  1.00  0.00     0.049 A 
ATOM     53  H   UNL A   1      43.415  29.888  28.283  1.00  0.00     0.167 HD
ATOM     54  C   UNL A   1      42.708  32.081  29.911  1.00  0.00     0.074 A 
ATOM     55  C   UNL A   1      41.919  32.996  30.710  1.00  0.00     0.031 C 
ATOM     56  C   UNL A   1      44.021  32.262  29.621  1.00  0.00     0.034 A 
BRANCH  43  57
ATOM     57  C   UNL A   1      46.385  27.825  26.030  1.00  0.00     0.023 A 
ATOM     58  C   UNL A   1      46.562  28.047  24.653  1.00  0.00     0.012 A 
ATOM     59  C   UNL A   1      47.338  27.069  26.743  1.00  0.00     0.148 A 
ATOM     60  C   UNL A   1      47.662  27.499  23.991  1.00  0.00     0.002 A 
ATOM     61  C   UNL A   1      48.450  26.563  26.086  1.00  0.00     0.091 A 
ATOM     62  F   UNL A   1      47.127  26.843  28.047  1.00  0.00    -0.205 F 
ATOM     63  C   UNL A   1      48.609  26.767  24.707  1.00  0.00     0.022 A 
BRANCH  61  64
ATOM     64  S   UNL A   1      49.749  25.668  26.946  1.00  0.00     0.127 S 
ATOM     65  O   UNL A   1      50.029  26.561  28.069  1.00  0.00    -0.237 OA
ATOM     66  O   UNL A   1      49.075  24.422  27.309  1.00  0.00    -0.237 OA
ATOM     67  O   UNL A   1      50.833  25.512  25.985  1.00  0.00    -0.744 OA
ENDBRANCH  61  64
ENDBRANCH  43  57
BRANCH  44  68
ATOM     68  C   UNL A   1      38.284  30.851  30.946  1.00  0.00     0.023 A 
ATOM     69  C   UNL A   1      38.098  30.855  32.346  1.00  0.00     0.012 A 
ATOM     70  C   UNL A   1      37.258  31.371  30.140  1.00  0.00     0.148 A 
ATOM     71  C   UNL A   1      36.924  31.351  32.921  1.00  0.00     0.002 A 
ATOM     72  C   UNL A   1      36.131  31.949  30.721  1.00  0.00     0.091 A 
ATOM     73  F   UNL A   1      37.384  31.300  28.806  1.00  0.00    -0.205 F 
ATOM     74  C   UNL A   1      35.949  31.920  32.109  1.00  0.00     0.022 A 
BRANCH  72  75
ATOM     75  S   UNL A   1      34.973  32.883  29.714  1.00  0.00     0.127 S 
ATOM     76  O   UNL A   1      34.091  33.464  30.718  1.00  0.00    -0.237 OA
ATOM     77  O   UNL A   1      35.841  33.840  29.026  1.00  0.00    -0.237 OA
ATOM     78  O   UNL A   1      34.388  31.878  28.832  1.00  0.00    -0.744 OA
ENDBRANCH  72  75
ENDBRANCH  44  68
BRANCH  56  79
ATOM     79  C   UNL A   1      44.708  33.456  30.228  1.00  0.00     0.023 A 
ATOM     80  C   UNL A   1      45.355  33.309  31.472  1.00  0.00     0.012 A 
ATOM     81  C   UNL A   1      44.793  34.681  29.542  1.00  0.00     0.148 A 
ATOM     82  C   UNL A   1      46.059  34.370  32.036  1.00  0.00     0.002 A 
ATOM     83  C   UNL A   1      45.526  35.725  30.095  1.00  0.00     0.091 A 
ATOM     84  F   UNL A   1      44.153  34.805  28.371  1.00  0.00    -0.205 F 
ATOM     85  C   UNL A   1      46.153  35.574  31.343  1.00  0.00     0.022 A 
BRANCH  83  86
ATOM     86  S   UNL A   1      45.768  37.286  29.239  1.00  0.00     0.127 S 
ATOM     87  O   UNL A   1      44.410  37.829  29.224  1.00  0.00    -0.237 OA
ATOM     88  O   UNL A   1      46.696  37.989  30.125  1.00  0.00    -0.237 OA
ATOM     89  O   UNL A   1      46.320  36.945  27.936  1.00  0.00    -0.744 OA
ENDBRANCH  83  86
ENDBRANCH  56  79
ENDBRANCH  30  31
ENDBRANCH  23  25
ENDBRANCH  22  23
ENDBRANCH  21  22
ENDBRANCH   1  21
TORSDOF 18
ENDMDL
