MODEL 1
REMARK VINA RESULT:     -11.9      0.000      0.000
REMARK SMILES COC(=O)c1ccc([C@H]2Nc3c(C(=O)OCCOC(=O)c4ccc(-c5c6nc(c(-c7cccc(S(=O)(=O)[O-])c7F)c7ccc([nH]7)c(-c7cccc(S(=O)(=O)[O-])c7F)c7nc(c(-c8cccc(S(=O)(=O)[O-])c8F)c8ccc5[nH]8)C=C7)C=C6)cc4)cccc3[C@H]3[C@H]4CC[C@H](C4)[C@H]32)cc1
REMARK SMILES IDX 16 1 15 2 13 3 14 4 12 5 9 6 10 7 94 8 11 9 88 11 92 12
REMARK SMILES IDX 87 13 89 14 91 15 93 16 84 17 86 18 90 19 85 20 8 21 5 22
REMARK SMILES IDX 6 23 96 24 7 25 95 26 3 27 4 28 2 29 1 30 17 31 18 32 19 33
REMARK SMILES IDX 20 34 21 35 22 36 83 37 23 38 82 39 24 40 25 41 26 42 76 43
REMARK SMILES IDX 27 44 81 45 75 46 77 47 28 48 80 49 74 50 73 51 29 53 61 54
REMARK SMILES IDX 41 55 60 56 42 57 45 58 59 59 78 60 43 61 44 62 58 64 79 65
REMARK SMILES IDX 46 66 30 67 31 68 39 69 32 70 34 71 40 72 33 73 35 74 36 75
REMARK SMILES IDX 37 76 38 77 62 78 63 79 71 80 64 81 66 82 72 83 65 84 67 85
REMARK SMILES IDX 68 86 69 87 70 88 47 89 48 90 56 91 49 92 51 93 57 94 50 95
REMARK SMILES IDX 52 96 53 97 54 98 55 99
REMARK H PARENT 10 10 77 52 45 63
REMARK Flexibility Score: inf
ROOT
ATOM      1  C   UNL A   1      31.562  27.855  27.289  1.00  0.00     0.275 C 
ENDROOT
BRANCH   1   2
ATOM      2  O   UNL A   1      31.858  26.706  26.467  1.00  0.00    -0.458 OA
BRANCH   2   3
ATOM      3  C   UNL A   1      30.883  25.763  26.377  1.00  0.00     0.340 C 
ATOM      4  O   UNL A   1      29.686  25.941  26.507  1.00  0.00    -0.246 OA
BRANCH   3   5
ATOM      5  C   UNL A   1      31.532  24.442  26.267  1.00  0.00     0.083 A 
ATOM      6  C   UNL A   1      34.959  25.173  25.278  1.00  0.00     0.113 C 
ATOM      7  N   UNL A   1      33.842  25.323  26.255  1.00  0.00    -0.377 N 
ATOM      8  C   UNL A   1      35.767  23.957  25.799  1.00  0.00     0.027 C 
ATOM      9  C   UNL A   1      32.924  24.263  26.235  1.00  0.00     0.053 A 
ATOM     10  H   UNL A   1      33.756  26.096  26.858  1.00  0.00     0.161 HD
ATOM     11  C   UNL A   1      34.937  22.844  26.507  1.00  0.00     0.030 C 
ATOM     12  C   UNL A   1      36.857  23.159  25.061  1.00  0.00    -0.005 C 
ATOM     13  C   UNL A   1      33.454  22.954  26.261  1.00  0.00    -0.020 A 
ATOM     14  C   UNL A   1      35.744  21.562  26.192  1.00  0.00    -0.003 C 
ATOM     15  C   UNL A   1      36.321  22.226  23.967  1.00  0.00     0.004 C 
ATOM     16  C   UNL A   1      37.182  22.114  26.156  1.00  0.00     0.008 C 
ATOM     17  C   UNL A   1      30.682  23.339  26.134  1.00  0.00     0.018 A 
ATOM     18  C   UNL A   1      32.593  21.857  26.185  1.00  0.00     0.006 A 
ATOM     19  C   UNL A   1      35.584  21.127  24.736  1.00  0.00     0.004 C 
ATOM     20  C   UNL A   1      31.215  22.052  26.073  1.00  0.00     0.001 A 
BRANCH   6  21
ATOM     21  C   UNL A   1      34.447  25.540  23.869  1.00  0.00    -0.025 A 
ATOM     22  C   UNL A   1      33.006  25.864  21.421  1.00  0.00     0.060 A 
ATOM     23  C   UNL A   1      33.365  24.599  21.840  1.00  0.00     0.016 A 
ATOM     24  C   UNL A   1      33.378  26.975  22.182  1.00  0.00     0.016 A 
ATOM     25  C   UNL A   1      34.091  24.463  23.017  1.00  0.00     0.007 A 
ATOM     26  C   UNL A   1      34.054  26.804  23.419  1.00  0.00     0.007 A 
BRANCH  22  27
ATOM     27  C   UNL A   1      32.107  25.925  20.259  1.00  0.00     0.337 C 
ATOM     28  O   UNL A   1      30.911  26.137  20.366  1.00  0.00    -0.246 OA
BRANCH  27  29
ATOM     29  O   UNL A   1      32.761  25.536  19.137  1.00  0.00    -0.465 OA
ATOM     30  C   UNL A   1      31.863  25.350  18.039  1.00  0.00     0.282 C 
ENDBRANCH  27  29
ENDBRANCH  22  27
ENDBRANCH   6  21
ENDBRANCH   3   5
ENDBRANCH   2   3
ENDBRANCH   1   2
BRANCH   1  31
ATOM     31  C   UNL A   1      31.653  29.134  26.457  1.00  0.00     0.275 C 
BRANCH  31  32
ATOM     32  O   UNL A   1      33.026  29.559  26.422  1.00  0.00    -0.458 OA
BRANCH  32  33
ATOM     33  C   UNL A   1      33.326  30.732  27.028  1.00  0.00     0.338 C 
ATOM     34  O   UNL A   1      32.587  31.677  27.231  1.00  0.00    -0.246 OA
BRANCH  33  35
ATOM     35  C   UNL A   1      34.708  30.640  27.539  1.00  0.00     0.060 A 
ATOM     36  C   UNL A   1      35.206  29.367  27.767  1.00  0.00     0.016 A 
ATOM     37  C   UNL A   1      35.464  31.753  27.906  1.00  0.00     0.016 A 
ATOM     38  C   UNL A   1      36.416  29.199  28.428  1.00  0.00     0.010 A 
ATOM     39  C   UNL A   1      36.728  31.573  28.504  1.00  0.00     0.010 A 
ATOM     40  C   UNL A   1      37.207  30.284  28.801  1.00  0.00    -0.014 A 
BRANCH  40  41
ATOM     41  C   UNL A   1      38.464  30.008  29.561  1.00  0.00     0.031 A 
ATOM     42  C   UNL A   1      39.547  29.162  28.949  1.00  0.00     0.074 A 
ATOM     43  C   UNL A   1      38.726  30.631  30.731  1.00  0.00     0.049 A 
ATOM     44  N   UNL A   1      40.651  28.715  29.490  1.00  0.00    -0.248 NA
ATOM     45  C   UNL A   1      39.384  28.798  27.533  1.00  0.00     0.031 C 
ATOM     46  C   UNL A   1      37.858  31.615  31.379  1.00  0.00     0.029 A 
ATOM     47  N   UNL A   1      39.817  30.557  31.567  1.00  0.00    -0.354 N 
ATOM     48  C   UNL A   1      41.267  27.941  28.515  1.00  0.00     0.074 A 
ATOM     49  C   UNL A   1      40.446  28.033  27.326  1.00  0.00     0.031 C 
ATOM     50  C   UNL A   1      38.466  32.087  32.477  1.00  0.00     0.029 A 
ATOM     51  C   UNL A   1      39.705  31.349  32.689  1.00  0.00     0.049 A 
ATOM     52  H   UNL A   1      40.601  29.992  31.382  1.00  0.00     0.167 HD
ATOM     53  C   UNL A   1      42.396  27.201  28.613  1.00  0.00     0.034 A 
ATOM     54  C   UNL A   1      40.469  31.429  33.798  1.00  0.00     0.034 A 
ATOM     55  C   UNL A   1      43.234  27.142  29.782  1.00  0.00     0.049 A 
ATOM     56  C   UNL A   1      41.667  30.526  33.924  1.00  0.00     0.074 A 
ATOM     57  C   UNL A   1      44.356  26.360  29.997  1.00  0.00     0.029 A 
ATOM     58  N   UNL A   1      43.046  27.893  30.931  1.00  0.00    -0.354 N 
ATOM     59  N   UNL A   1      42.200  29.729  33.030  1.00  0.00    -0.248 NA
ATOM     60  C   UNL A   1      42.358  30.515  35.223  1.00  0.00     0.031 C 
ATOM     61  C   UNL A   1      44.827  26.615  31.290  1.00  0.00     0.029 A 
ATOM     62  C   UNL A   1      44.021  27.584  31.865  1.00  0.00     0.049 A 
ATOM     63  H   UNL A   1      42.325  28.550  31.065  1.00  0.00     0.167 HD
ATOM     64  C   UNL A   1      43.286  29.126  33.655  1.00  0.00     0.074 A 
ATOM     65  C   UNL A   1      43.364  29.682  34.989  1.00  0.00     0.031 C 
ATOM     66  C   UNL A   1      44.122  28.173  33.176  1.00  0.00     0.034 A 
BRANCH  53  67
ATOM     67  C   UNL A   1      42.746  26.321  27.445  1.00  0.00     0.023 A 
ATOM     68  C   UNL A   1      43.568  26.793  26.405  1.00  0.00     0.012 A 
ATOM     69  C   UNL A   1      42.267  24.996  27.406  1.00  0.00     0.148 A 
ATOM     70  C   UNL A   1      43.881  25.966  25.324  1.00  0.00     0.002 A 
ATOM     71  C   UNL A   1      42.617  24.166  26.350  1.00  0.00     0.091 A 
ATOM     72  F   UNL A   1      41.466  24.578  28.397  1.00  0.00    -0.205 F 
ATOM     73  C   UNL A   1      43.415  24.652  25.303  1.00  0.00     0.022 A 
BRANCH  71  74
ATOM     74  S   UNL A   1      42.120  22.442  26.274  1.00  0.00     0.127 S 
ATOM     75  O   UNL A   1      42.707  22.024  25.001  1.00  0.00    -0.237 OA
ATOM     76  O   UNL A   1      42.772  21.883  27.458  1.00  0.00    -0.237 OA
ATOM     77  O   UNL A   1      40.666  22.439  26.322  1.00  0.00    -0.744 OA
ENDBRANCH  71  74
ENDBRANCH  53  67
BRANCH  54  78
ATOM     78  C   UNL A   1      40.087  32.343  34.919  1.00  0.00     0.023 A 
ATOM     79  C   UNL A   1      40.688  33.612  35.027  1.00  0.00     0.012 A 
ATOM     80  C   UNL A   1      39.143  31.952  35.892  1.00  0.00     0.148 A 
ATOM     81  C   UNL A   1      40.374  34.460  36.092  1.00  0.00     0.002 A 
ATOM     82  C   UNL A   1      38.781  32.829  36.908  1.00  0.00     0.091 A 
ATOM     83  F   UNL A   1      38.620  30.720  35.814  1.00  0.00    -0.205 F 
ATOM     84  C   UNL A   1      39.411  34.076  37.022  1.00  0.00     0.022 A 
BRANCH  82  85
ATOM     85  S   UNL A   1      37.464  32.453  38.070  1.00  0.00     0.127 S 
ATOM     86  O   UNL A   1      36.311  33.077  37.424  1.00  0.00    -0.237 OA
ATOM     87  O   UNL A   1      37.451  30.989  38.062  1.00  0.00    -0.237 OA
ATOM     88  O   UNL A   1      37.874  33.043  39.337  1.00  0.00    -0.744 OA
ENDBRANCH  82  85
ENDBRANCH  54  78
BRANCH  66  89
ATOM     89  C   UNL A   1      45.215  27.673  34.086  1.00  0.00     0.023 A 
ATOM     90  C   UNL A   1      46.459  28.335  34.117  1.00  0.00     0.012 A 
ATOM     91  C   UNL A   1      44.982  26.601  34.970  1.00  0.00     0.148 A 
ATOM     92  C   UNL A   1      47.462  27.922  34.993  1.00  0.00     0.002 A 
ATOM     93  C   UNL A   1      45.968  26.226  35.875  1.00  0.00     0.091 A 
ATOM     94  F   UNL A   1      43.799  25.973  34.914  1.00  0.00    -0.205 F 
ATOM     95  C   UNL A   1      47.213  26.878  35.881  1.00  0.00     0.022 A 
BRANCH  93  96
ATOM     96  S   UNL A   1      45.707  24.956  37.119  1.00  0.00     0.127 S 
ATOM     97  O   UNL A   1      46.979  24.976  37.838  1.00  0.00    -0.237 OA
ATOM     98  O   UNL A   1      44.572  25.490  37.872  1.00  0.00    -0.237 OA
ATOM     99  O   UNL A   1      45.426  23.727  36.388  1.00  0.00    -0.744 OA
ENDBRANCH  93  96
ENDBRANCH  66  89
ENDBRANCH  40  41
ENDBRANCH  33  35
ENDBRANCH  32  33
ENDBRANCH  31  32
ENDBRANCH   1  31
TORSDOF 17
ENDMDL
MODEL 2
REMARK VINA RESULT:     -11.9      5.368      8.617
REMARK SMILES COC(=O)c1ccc([C@H]2Nc3c(C(=O)OCCOC(=O)c4ccc(-c5c6nc(c(-c7cccc(S(=O)(=O)[O-])c7F)c7ccc([nH]7)c(-c7cccc(S(=O)(=O)[O-])c7F)c7nc(c(-c8cccc(S(=O)(=O)[O-])c8F)c8ccc5[nH]8)C=C7)C=C6)cc4)cccc3[C@H]3[C@H]4CC[C@H](C4)[C@H]32)cc1
REMARK SMILES IDX 16 1 15 2 13 3 14 4 12 5 9 6 10 7 94 8 11 9 88 11 92 12
REMARK SMILES IDX 87 13 89 14 91 15 93 16 84 17 86 18 90 19 85 20 8 21 5 22
REMARK SMILES IDX 6 23 96 24 7 25 95 26 3 27 4 28 2 29 1 30 17 31 18 32 19 33
REMARK SMILES IDX 20 34 21 35 22 36 83 37 23 38 82 39 24 40 25 41 26 42 76 43
REMARK SMILES IDX 27 44 81 45 75 46 77 47 28 48 80 49 74 50 73 51 29 53 61 54
REMARK SMILES IDX 41 55 60 56 42 57 45 58 59 59 78 60 43 61 44 62 58 64 79 65
REMARK SMILES IDX 46 66 30 67 31 68 39 69 32 70 34 71 40 72 33 73 35 74 36 75
REMARK SMILES IDX 37 76 38 77 62 78 63 79 71 80 64 81 66 82 72 83 65 84 67 85
REMARK SMILES IDX 68 86 69 87 70 88 47 89 48 90 56 91 49 92 51 93 57 94 50 95
REMARK SMILES IDX 52 96 53 97 54 98 55 99
REMARK H PARENT 10 10 77 52 45 63
REMARK Flexibility Score: inf
ROOT
ATOM      1  C   UNL A   1      39.256  20.970  26.122  1.00  0.00     0.275 C 
ENDROOT
BRANCH   1   2
ATOM      2  O   UNL A   1      38.483  21.295  24.946  1.00  0.00    -0.458 OA
BRANCH   2   3
ATOM      3  C   UNL A   1      37.179  20.910  24.958  1.00  0.00     0.340 C 
ATOM      4  O   UNL A   1      36.756  19.780  25.120  1.00  0.00    -0.246 OA
BRANCH   3   5
ATOM      5  C   UNL A   1      36.356  22.070  24.565  1.00  0.00     0.083 A 
ATOM      6  C   UNL A   1      33.372  21.832  26.637  1.00  0.00     0.113 C 
ATOM      7  N   UNL A   1      34.853  21.958  26.525  1.00  0.00    -0.377 N 
ATOM      8  C   UNL A   1      32.866  23.294  26.736  1.00  0.00     0.027 C 
ATOM      9  C   UNL A   1      35.285  22.555  25.332  1.00  0.00     0.053 A 
ATOM     10  H   UNL A   1      35.473  21.649  27.225  1.00  0.00     0.161 HD
ATOM     11  C   UNL A   1      33.696  24.354  25.951  1.00  0.00     0.030 C 
ATOM     12  C   UNL A   1      31.422  23.808  26.589  1.00  0.00    -0.005 C 
ATOM     13  C   UNL A   1      34.638  23.749  24.941  1.00  0.00    -0.020 A 
ATOM     14  C   UNL A   1      32.632  25.411  25.573  1.00  0.00    -0.003 C 
ATOM     15  C   UNL A   1      30.902  23.815  25.146  1.00  0.00     0.004 C 
ATOM     16  C   UNL A   1      31.680  25.323  26.780  1.00  0.00     0.008 C 
ATOM     17  C   UNL A   1      36.655  22.657  23.331  1.00  0.00     0.018 A 
ATOM     18  C   UNL A   1      34.984  24.360  23.734  1.00  0.00     0.006 A 
ATOM     19  C   UNL A   1      31.707  24.921  24.460  1.00  0.00     0.004 C 
ATOM     20  C   UNL A   1      35.954  23.787  22.910  1.00  0.00     0.001 A 
BRANCH   6  21
ATOM     21  C   UNL A   1      32.903  20.638  25.778  1.00  0.00    -0.025 A 
ATOM     22  C   UNL A   1      32.527  18.579  23.831  1.00  0.00     0.060 A 
ATOM     23  C   UNL A   1      32.523  19.901  23.437  1.00  0.00     0.016 A 
ATOM     24  C   UNL A   1      32.684  18.262  25.183  1.00  0.00     0.016 A 
ATOM     25  C   UNL A   1      32.677  20.890  24.401  1.00  0.00     0.007 A 
ATOM     26  C   UNL A   1      32.915  19.286  26.139  1.00  0.00     0.007 A 
BRANCH  22  27
ATOM     27  C   UNL A   1      32.520  17.584  22.748  1.00  0.00     0.337 C 
ATOM     28  O   UNL A   1      31.880  17.738  21.721  1.00  0.00    -0.246 OA
BRANCH  27  29
ATOM     29  O   UNL A   1      33.150  16.452  23.145  1.00  0.00    -0.465 OA
ATOM     30  C   UNL A   1      34.569  16.556  22.991  1.00  0.00     0.282 C 
ENDBRANCH  27  29
ENDBRANCH  22  27
ENDBRANCH   6  21
ENDBRANCH   3   5
ENDBRANCH   2   3
ENDBRANCH   1   2
BRANCH   1  31
ATOM     31  C   UNL A   1      39.588  19.479  26.138  1.00  0.00     0.275 C 
BRANCH  31  32
ATOM     32  O   UNL A   1      40.911  19.300  25.604  1.00  0.00    -0.458 OA
BRANCH  32  33
ATOM     33  C   UNL A   1      41.943  19.339  26.481  1.00  0.00     0.338 C 
ATOM     34  O   UNL A   1      42.455  18.406  27.070  1.00  0.00    -0.246 OA
BRANCH  33  35
ATOM     35  C   UNL A   1      42.456  20.722  26.520  1.00  0.00     0.060 A 
ATOM     36  C   UNL A   1      42.642  21.284  27.774  1.00  0.00     0.016 A 
ATOM     37  C   UNL A   1      42.639  21.503  25.380  1.00  0.00     0.016 A 
ATOM     38  C   UNL A   1      42.931  22.637  27.896  1.00  0.00     0.010 A 
ATOM     39  C   UNL A   1      43.011  22.857  25.512  1.00  0.00     0.010 A 
ATOM     40  C   UNL A   1      43.132  23.450  26.782  1.00  0.00    -0.014 A 
BRANCH  40  41
ATOM     41  C   UNL A   1      43.380  24.905  27.011  1.00  0.00     0.031 A 
ATOM     42  C   UNL A   1      44.650  25.544  26.517  1.00  0.00     0.074 A 
ATOM     43  C   UNL A   1      42.418  25.708  27.516  1.00  0.00     0.049 A 
ATOM     44  N   UNL A   1      45.099  26.756  26.719  1.00  0.00    -0.248 NA
ATOM     45  C   UNL A   1      45.513  24.721  25.655  1.00  0.00     0.031 C 
ATOM     46  C   UNL A   1      41.068  25.281  27.885  1.00  0.00     0.029 A 
ATOM     47  N   UNL A   1      42.414  27.061  27.772  1.00  0.00    -0.354 N 
ATOM     48  C   UNL A   1      46.336  26.814  26.092  1.00  0.00     0.074 A 
ATOM     49  C   UNL A   1      46.539  25.534  25.446  1.00  0.00     0.031 C 
ATOM     50  C   UNL A   1      40.356  26.351  28.271  1.00  0.00     0.029 A 
ATOM     51  C   UNL A   1      41.228  27.517  28.305  1.00  0.00     0.049 A 
ATOM     52  H   UNL A   1      43.185  27.646  27.592  1.00  0.00     0.167 HD
ATOM     53  C   UNL A   1      47.231  27.830  26.082  1.00  0.00     0.034 A 
ATOM     54  C   UNL A   1      40.894  28.715  28.828  1.00  0.00     0.034 A 
ATOM     55  C   UNL A   1      47.011  29.116  26.690  1.00  0.00     0.049 A 
ATOM     56  C   UNL A   1      41.937  29.798  28.892  1.00  0.00     0.074 A 
ATOM     57  C   UNL A   1      47.892  30.179  26.794  1.00  0.00     0.029 A 
ATOM     58  N   UNL A   1      45.831  29.517  27.295  1.00  0.00    -0.354 N 
ATOM     59  N   UNL A   1      43.140  29.820  28.372  1.00  0.00    -0.248 NA
ATOM     60  C   UNL A   1      41.585  31.018  29.636  1.00  0.00     0.031 C 
ATOM     61  C   UNL A   1      47.254  31.210  27.491  1.00  0.00     0.029 A 
ATOM     62  C   UNL A   1      45.963  30.804  27.787  1.00  0.00     0.049 A 
ATOM     63  H   UNL A   1      45.017  28.966  27.365  1.00  0.00     0.167 HD
ATOM     64  C   UNL A   1      43.686  31.051  28.723  1.00  0.00     0.074 A 
ATOM     65  C   UNL A   1      42.666  31.766  29.461  1.00  0.00     0.031 C 
ATOM     66  C   UNL A   1      44.930  31.530  28.482  1.00  0.00     0.034 A 
BRANCH  53  67
ATOM     67  C   UNL A   1      48.574  27.559  25.461  1.00  0.00     0.023 A 
ATOM     68  C   UNL A   1      49.668  27.161  26.251  1.00  0.00     0.012 A 
ATOM     69  C   UNL A   1      48.730  27.678  24.065  1.00  0.00     0.148 A 
ATOM     70  C   UNL A   1      50.910  26.916  25.661  1.00  0.00     0.002 A 
ATOM     71  C   UNL A   1      49.955  27.391  23.481  1.00  0.00     0.091 A 
ATOM     72  F   UNL A   1      47.678  28.082  23.339  1.00  0.00    -0.205 F 
ATOM     73  C   UNL A   1      51.050  27.022  24.278  1.00  0.00     0.022 A 
BRANCH  71  74
ATOM     74  S   UNL A   1      50.209  27.434  21.704  1.00  0.00     0.127 S 
ATOM     75  O   UNL A   1      51.616  27.048  21.599  1.00  0.00    -0.237 OA
ATOM     76  O   UNL A   1      49.263  26.423  21.235  1.00  0.00    -0.237 OA
ATOM     77  O   UNL A   1      49.902  28.794  21.286  1.00  0.00    -0.744 OA
ENDBRANCH  71  74
ENDBRANCH  53  67
BRANCH  54  78
ATOM     78  C   UNL A   1      39.533  28.936  29.409  1.00  0.00     0.023 A 
ATOM     79  C   UNL A   1      39.270  28.570  30.742  1.00  0.00     0.012 A 
ATOM     80  C   UNL A   1      38.491  29.491  28.636  1.00  0.00     0.148 A 
ATOM     81  C   UNL A   1      37.993  28.730  31.286  1.00  0.00     0.002 A 
ATOM     82  C   UNL A   1      37.243  29.715  29.205  1.00  0.00     0.091 A 
ATOM     83  F   UNL A   1      38.735  29.781  27.350  1.00  0.00    -0.205 F 
ATOM     84  C   UNL A   1      36.985  29.316  30.524  1.00  0.00     0.022 A 
BRANCH  82  85
ATOM     85  S   UNL A   1      35.933  30.573  28.325  1.00  0.00     0.127 S 
ATOM     86  O   UNL A   1      34.909  30.693  29.361  1.00  0.00    -0.237 OA
ATOM     87  O   UNL A   1      36.580  31.833  27.957  1.00  0.00    -0.237 OA
ATOM     88  O   UNL A   1      35.590  29.721  27.194  1.00  0.00    -0.744 OA
ENDBRANCH  82  85
ENDBRANCH  54  78
BRANCH  66  89
ATOM     89  C   UNL A   1      45.269  32.904  29.002  1.00  0.00     0.023 A 
ATOM     90  C   UNL A   1      45.901  33.042  30.254  1.00  0.00     0.012 A 
ATOM     91  C   UNL A   1      45.040  34.049  28.214  1.00  0.00     0.148 A 
ATOM     92  C   UNL A   1      46.274  34.300  30.726  1.00  0.00     0.002 A 
ATOM     93  C   UNL A   1      45.459  35.295  28.669  1.00  0.00     0.091 A 
ATOM     94  F   UNL A   1      44.423  33.899  27.033  1.00  0.00    -0.205 F 
ATOM     95  C   UNL A   1      46.066  35.424  29.929  1.00  0.00     0.022 A 
BRANCH  93  96
ATOM     96  S   UNL A   1      45.319  36.784  27.674  1.00  0.00     0.127 S 
ATOM     97  O   UNL A   1      46.178  36.464  26.535  1.00  0.00    -0.237 OA
ATOM     98  O   UNL A   1      43.889  36.819  27.369  1.00  0.00    -0.237 OA
ATOM     99  O   UNL A   1      45.786  37.877  28.517  1.00  0.00    -0.744 OA
ENDBRANCH  93  96
ENDBRANCH  66  89
ENDBRANCH  40  41
ENDBRANCH  33  35
ENDBRANCH  32  33
ENDBRANCH  31  32
ENDBRANCH   1  31
TORSDOF 17
ENDMDL
MODEL 3
REMARK VINA RESULT:     -11.5      5.908     10.190
REMARK SMILES COC(=O)c1ccc([C@H]2Nc3c(C(=O)OCCOC(=O)c4ccc(-c5c6nc(c(-c7cccc(S(=O)(=O)[O-])c7F)c7ccc([nH]7)c(-c7cccc(S(=O)(=O)[O-])c7F)c7nc(c(-c8cccc(S(=O)(=O)[O-])c8F)c8ccc5[nH]8)C=C7)C=C6)cc4)cccc3[C@H]3[C@H]4CC[C@H](C4)[C@H]32)cc1
REMARK SMILES IDX 16 1 15 2 13 3 14 4 12 5 9 6 10 7 94 8 11 9 88 11 92 12
REMARK SMILES IDX 87 13 89 14 91 15 93 16 84 17 86 18 90 19 85 20 8 21 5 22
REMARK SMILES IDX 6 23 96 24 7 25 95 26 3 27 4 28 2 29 1 30 17 31 18 32 19 33
REMARK SMILES IDX 20 34 21 35 22 36 83 37 23 38 82 39 24 40 25 41 26 42 76 43
REMARK SMILES IDX 27 44 81 45 75 46 77 47 28 48 80 49 74 50 73 51 29 53 61 54
REMARK SMILES IDX 41 55 60 56 42 57 45 58 59 59 78 60 43 61 44 62 58 64 79 65
REMARK SMILES IDX 46 66 30 67 31 68 39 69 32 70 34 71 40 72 33 73 35 74 36 75
REMARK SMILES IDX 37 76 38 77 62 78 63 79 71 80 64 81 66 82 72 83 65 84 67 85
REMARK SMILES IDX 68 86 69 87 70 88 47 89 48 90 56 91 49 92 51 93 57 94 50 95
REMARK SMILES IDX 52 96 53 97 54 98 55 99
REMARK H PARENT 10 10 77 52 45 63
REMARK Flexibility Score: inf
ROOT
ATOM      1  C   UNL A   1      39.413  20.364  25.753  1.00  0.00     0.275 C 
ENDROOT
BRANCH   1   2
ATOM      2  O   UNL A   1      38.405  21.376  25.539  1.00  0.00    -0.458 OA
BRANCH   2   3
ATOM      3  C   UNL A   1      37.183  20.934  25.141  1.00  0.00     0.340 C 
ATOM      4  O   UNL A   1      36.838  19.774  25.005  1.00  0.00    -0.246 OA
BRANCH   3   5
ATOM      5  C   UNL A   1      36.384  22.105  24.729  1.00  0.00     0.083 A 
ATOM      6  C   UNL A   1      33.320  21.871  26.682  1.00  0.00     0.113 C 
ATOM      7  N   UNL A   1      34.806  21.986  26.628  1.00  0.00    -0.377 N 
ATOM      8  C   UNL A   1      32.822  23.337  26.775  1.00  0.00     0.027 C 
ATOM      9  C   UNL A   1      35.288  22.591  25.459  1.00  0.00     0.053 A 
ATOM     10  H   UNL A   1      35.396  21.665  27.348  1.00  0.00     0.161 HD
ATOM     11  C   UNL A   1      33.691  24.397  26.034  1.00  0.00     0.030 C 
ATOM     12  C   UNL A   1      31.390  23.864  26.578  1.00  0.00    -0.005 C 
ATOM     13  C   UNL A   1      34.667  23.794  25.055  1.00  0.00    -0.020 A 
ATOM     14  C   UNL A   1      32.651  25.467  25.625  1.00  0.00    -0.003 C 
ATOM     15  C   UNL A   1      30.926  23.890  25.116  1.00  0.00     0.004 C 
ATOM     16  C   UNL A   1      31.652  25.375  26.794  1.00  0.00     0.008 C 
ATOM     17  C   UNL A   1      36.735  22.701  23.513  1.00  0.00     0.018 A 
ATOM     18  C   UNL A   1      35.063  24.414  23.868  1.00  0.00     0.006 A 
ATOM     19  C   UNL A   1      31.766  24.995  24.473  1.00  0.00     0.004 C 
ATOM     20  C   UNL A   1      36.061  23.841  23.076  1.00  0.00     0.001 A 
BRANCH   6  21
ATOM     21  C   UNL A   1      32.875  20.690  25.793  1.00  0.00    -0.025 A 
ATOM     22  C   UNL A   1      32.545  18.667  23.800  1.00  0.00     0.060 A 
ATOM     23  C   UNL A   1      32.527  19.997  23.433  1.00  0.00     0.016 A 
ATOM     24  C   UNL A   1      32.694  18.324  25.146  1.00  0.00     0.016 A 
ATOM     25  C   UNL A   1      32.658  20.967  24.420  1.00  0.00     0.007 A 
ATOM     26  C   UNL A   1      32.902  19.331  26.125  1.00  0.00     0.007 A 
BRANCH  22  27
ATOM     27  C   UNL A   1      32.562  17.696  22.695  1.00  0.00     0.337 C 
ATOM     28  O   UNL A   1      32.015  17.910  21.627  1.00  0.00    -0.246 OA
BRANCH  27  29
ATOM     29  O   UNL A   1      33.087  16.518  23.113  1.00  0.00    -0.465 OA
ATOM     30  C   UNL A   1      34.518  16.551  23.119  1.00  0.00     0.282 C 
ENDBRANCH  27  29
ENDBRANCH  22  27
ENDBRANCH   6  21
ENDBRANCH   3   5
ENDBRANCH   2   3
ENDBRANCH   1   2
BRANCH   1  31
ATOM     31  C   UNL A   1      40.362  20.794  26.870  1.00  0.00     0.275 C 
BRANCH  31  32
ATOM     32  O   UNL A   1      41.474  19.884  26.901  1.00  0.00    -0.458 OA
BRANCH  32  33
ATOM     33  C   UNL A   1      42.422  20.034  25.945  1.00  0.00     0.338 C 
ATOM     34  O   UNL A   1      42.658  19.297  25.008  1.00  0.00    -0.246 OA
BRANCH  33  35
ATOM     35  C   UNL A   1      43.071  21.344  26.149  1.00  0.00     0.060 A 
ATOM     36  C   UNL A   1      43.460  21.656  27.442  1.00  0.00     0.016 A 
ATOM     37  C   UNL A   1      43.192  22.303  25.143  1.00  0.00     0.016 A 
ATOM     38  C   UNL A   1      43.894  22.938  27.751  1.00  0.00     0.010 A 
ATOM     39  C   UNL A   1      43.709  23.578  25.450  1.00  0.00     0.010 A 
ATOM     40  C   UNL A   1      44.040  23.921  26.773  1.00  0.00    -0.014 A 
BRANCH  40  41
ATOM     41  C   UNL A   1      44.457  25.288  27.210  1.00  0.00     0.031 A 
ATOM     42  C   UNL A   1      43.457  26.218  27.841  1.00  0.00     0.074 A 
ATOM     43  C   UNL A   1      45.755  25.660  27.198  1.00  0.00     0.049 A 
ATOM     44  N   UNL A   1      43.594  27.475  28.177  1.00  0.00    -0.248 NA
ATOM     45  C   UNL A   1      42.139  25.651  28.169  1.00  0.00     0.031 C 
ATOM     46  C   UNL A   1      46.875  24.816  26.780  1.00  0.00     0.029 A 
ATOM     47  N   UNL A   1      46.360  26.836  27.584  1.00  0.00    -0.354 N 
ATOM     48  C   UNL A   1      42.358  27.876  28.666  1.00  0.00     0.074 A 
ATOM     49  C   UNL A   1      41.500  26.710  28.645  1.00  0.00     0.031 C 
ATOM     50  C   UNL A   1      48.025  25.477  26.976  1.00  0.00     0.029 A 
ATOM     51  C   UNL A   1      47.726  26.836  27.407  1.00  0.00     0.049 A 
ATOM     52  H   UNL A   1      45.863  27.603  27.950  1.00  0.00     0.167 HD
ATOM     53  C   UNL A   1      41.969  29.109  29.067  1.00  0.00     0.034 A 
ATOM     54  C   UNL A   1      48.634  27.829  27.510  1.00  0.00     0.034 A 
ATOM     55  C   UNL A   1      42.833  30.259  29.126  1.00  0.00     0.049 A 
ATOM     56  C   UNL A   1      48.161  29.214  27.865  1.00  0.00     0.074 A 
ATOM     57  C   UNL A   1      42.506  31.565  29.448  1.00  0.00     0.029 A 
ATOM     58  N   UNL A   1      44.193  30.243  28.860  1.00  0.00    -0.354 N 
ATOM     59  N   UNL A   1      46.970  29.609  28.246  1.00  0.00    -0.248 NA
ATOM     60  C   UNL A   1      49.153  30.297  27.784  1.00  0.00     0.031 C 
ATOM     61  C   UNL A   1      43.663  32.344  29.345  1.00  0.00     0.029 A 
ATOM     62  C   UNL A   1      44.718  31.517  28.997  1.00  0.00     0.049 A 
ATOM     63  H   UNL A   1      44.711  29.443  28.610  1.00  0.00     0.167 HD
ATOM     64  C   UNL A   1      47.071  30.981  28.450  1.00  0.00     0.074 A 
ATOM     65  C   UNL A   1      48.449  31.343  28.195  1.00  0.00     0.031 C 
ATOM     66  C   UNL A   1      46.100  31.865  28.786  1.00  0.00     0.034 A 
BRANCH  53  67
ATOM     67  C   UNL A   1      40.513  29.299  29.393  1.00  0.00     0.023 A 
ATOM     68  C   UNL A   1      39.581  29.612  28.386  1.00  0.00     0.012 A 
ATOM     69  C   UNL A   1      40.072  29.133  30.722  1.00  0.00     0.148 A 
ATOM     70  C   UNL A   1      38.233  29.790  28.705  1.00  0.00     0.002 A 
ATOM     71  C   UNL A   1      38.724  29.269  31.024  1.00  0.00     0.091 A 
ATOM     72  F   UNL A   1      40.983  28.858  31.666  1.00  0.00    -0.205 F 
ATOM     73  C   UNL A   1      37.805  29.608  30.019  1.00  0.00     0.022 A 
BRANCH  71  74
ATOM     74  S   UNL A   1      38.073  28.986  32.673  1.00  0.00     0.127 S 
ATOM     75  O   UNL A   1      36.655  29.291  32.485  1.00  0.00    -0.237 OA
ATOM     76  O   UNL A   1      38.370  27.569  32.880  1.00  0.00    -0.237 OA
ATOM     77  O   UNL A   1      38.796  29.893  33.552  1.00  0.00    -0.744 OA
ENDBRANCH  71  74
ENDBRANCH  53  67
BRANCH  54  78
ATOM     78  C   UNL A   1      50.074  27.576  27.199  1.00  0.00     0.023 A 
ATOM     79  C   UNL A   1      50.494  27.458  25.860  1.00  0.00     0.012 A 
ATOM     80  C   UNL A   1      51.030  27.432  28.227  1.00  0.00     0.148 A 
ATOM     81  C   UNL A   1      51.828  27.178  25.554  1.00  0.00     0.002 A 
ATOM     82  C   UNL A   1      52.368  27.226  27.914  1.00  0.00     0.091 A 
ATOM     83  F   UNL A   1      50.611  27.487  29.499  1.00  0.00    -0.205 F 
ATOM     84  C   UNL A   1      52.767  27.078  26.578  1.00  0.00     0.022 A 
BRANCH  82  85
ATOM     85  S   UNL A   1      53.651  27.206  29.170  1.00  0.00     0.127 S 
ATOM     86  O   UNL A   1      53.271  26.040  29.965  1.00  0.00    -0.237 OA
ATOM     87  O   UNL A   1      54.866  27.032  28.372  1.00  0.00    -0.237 OA
ATOM     88  O   UNL A   1      53.560  28.491  29.850  1.00  0.00    -0.744 OA
ENDBRANCH  82  85
ENDBRANCH  54  78
BRANCH  66  89
ATOM     89  C   UNL A   1      46.485  33.317  28.921  1.00  0.00     0.023 A 
ATOM     90  C   UNL A   1      46.784  33.847  30.192  1.00  0.00     0.012 A 
ATOM     91  C   UNL A   1      46.632  34.131  27.781  1.00  0.00     0.148 A 
ATOM     92  C   UNL A   1      47.197  35.172  30.329  1.00  0.00     0.002 A 
ATOM     93  C   UNL A   1      47.091  35.437  27.920  1.00  0.00     0.091 A 
ATOM     94  F   UNL A   1      46.327  33.614  26.582  1.00  0.00    -0.205 F 
ATOM     95  C   UNL A   1      47.364  35.962  29.194  1.00  0.00     0.022 A 
BRANCH  93  96
ATOM     96  S   UNL A   1      47.426  36.499  26.511  1.00  0.00     0.127 S 
ATOM     97  O   UNL A   1      46.123  36.538  25.850  1.00  0.00    -0.237 OA
ATOM     98  O   UNL A   1      47.821  37.752  27.155  1.00  0.00    -0.237 OA
ATOM     99  O   UNL A   1      48.487  35.845  25.755  1.00  0.00    -0.744 OA
ENDBRANCH  93  96
ENDBRANCH  66  89
ENDBRANCH  40  41
ENDBRANCH  33  35
ENDBRANCH  32  33
ENDBRANCH  31  32
ENDBRANCH   1  31
TORSDOF 17
ENDMDL
