MODEL 1
REMARK VINA RESULT:      -8.4      0.000      0.000
REMARK SMILES CC(C)C[C@H](NC(=O)[C@@H](NC(=O)[C@H](C)NC(=O)CNC(=O)OCc1ccccc1)C(C)C)C(=O)OCCOC(=O)c1ccc(-c2c3nc(c(-c4cccc(S(=O)(=O)[O-])c4F)c4ccc([nH]4)c(-c4cccc(S(=O)(=O)[O-])c4F)c4nc(c(-c5cccc(S(=O)(=O)[O-])c5F)c5ccc2[nH]5)C=C4)C=C3)cc1
REMARK SMILES IDX 5 1 4 2 2 3 1 4 3 5 33 6 34 7 35 8 36 9 37 10 38 11 39 12
REMARK SMILES IDX 40 13 41 14 42 15 103 16 43 17 102 18 44 19 45 20 46 21
REMARK SMILES IDX 96 22 47 23 101 24 95 25 97 26 48 27 100 28 94 29 93 30
REMARK SMILES IDX 49 32 81 33 61 34 80 35 62 36 65 37 79 38 98 39 63 40 64 41
REMARK SMILES IDX 78 43 99 44 66 45 50 46 51 47 59 48 52 49 54 50 60 51 53 52
REMARK SMILES IDX 55 53 56 54 57 55 58 56 82 57 83 58 91 59 84 60 86 61 92 62
REMARK SMILES IDX 85 63 87 64 88 65 89 66 90 67 67 68 68 69 76 70 69 71 71 72
REMARK SMILES IDX 77 73 70 74 72 75 73 76 74 77 75 78 6 79 7 80 8 82 9 83
REMARK SMILES IDX 10 84 11 85 12 87 13 88 14 89 15 90 16 91 17 93 18 94 19 95
REMARK SMILES IDX 20 96 21 98 22 99 23 100 24 101 25 102 29 103 26 104 28 105
REMARK SMILES IDX 27 106 30 107 31 108 32 109
REMARK H PARENT 97 31 65 42 6 81 10 86 15 92 19 97
REMARK Flexibility Score: inf
ROOT
ATOM      1  C   UNL A   1      40.568  26.513  28.252  1.00  0.00     0.192 C 
ENDROOT
BRANCH   1   2
ATOM      2  C   UNL A   1      41.815  26.825  27.373  1.00  0.00     0.040 C 
BRANCH   2   3
ATOM      3  C   UNL A   1      41.576  27.931  26.339  1.00  0.00    -0.015 C 
ATOM      4  C   UNL A   1      41.758  29.325  26.948  1.00  0.00     0.007 C 
ATOM      5  C   UNL A   1      42.544  27.762  25.169  1.00  0.00     0.007 C 
ENDBRANCH   2   3
ENDBRANCH   1   2
BRANCH   1   6
ATOM      6  C   UNL A   1      39.980  24.947  27.685  1.00  0.00     0.328 C 
ATOM      7  O   UNL A   1      39.225  24.891  26.717  1.00  0.00    -0.250 OA
BRANCH   6   8
ATOM      8  O   UNL A   1      40.519  23.775  28.226  1.00  0.00    -0.461 OA
BRANCH   8   9
ATOM      9  C   UNL A   1      40.650  22.265  27.638  1.00  0.00     0.274 C 
BRANCH   9  10
ATOM     10  C   UNL A   1      41.264  21.893  25.937  1.00  0.00     0.275 C 
BRANCH  10  11
ATOM     11  O   UNL A   1      42.931  21.843  25.419  1.00  0.00    -0.458 OA
BRANCH  11  12
ATOM     12  C   UNL A   1      44.317  22.222  25.852  1.00  0.00     0.338 C 
ATOM     13  O   UNL A   1      45.156  21.316  25.806  1.00  0.00    -0.246 OA
BRANCH  12  14
ATOM     14  C   UNL A   1      44.958  23.799  26.369  1.00  0.00     0.060 A 
ATOM     15  C   UNL A   1      45.025  24.828  24.945  1.00  0.00     0.016 A 
ATOM     16  C   UNL A   1      45.926  24.432  27.854  1.00  0.00     0.016 A 
ATOM     17  C   UNL A   1      45.971  26.392  24.917  1.00  0.00     0.010 A 
ATOM     18  C   UNL A   1      46.916  25.956  27.788  1.00  0.00     0.010 A 
ATOM     19  C   UNL A   1      46.861  26.985  26.357  1.00  0.00    -0.014 A 
BRANCH  19  20
ATOM     20  C   UNL A   1      47.616  28.283  26.384  1.00  0.00     0.031 A 
ATOM     21  C   UNL A   1      49.108  28.282  26.230  1.00  0.00     0.074 A 
ATOM     22  C   UNL A   1      46.992  29.464  26.626  1.00  0.00     0.049 A 
ATOM     23  N   UNL A   1      49.930  29.296  26.266  1.00  0.00    -0.248 NA
ATOM     24  C   UNL A   1      49.762  26.998  25.932  1.00  0.00     0.031 C 
ATOM     25  C   UNL A   1      45.556  29.699  26.582  1.00  0.00     0.029 A 
ATOM     26  N   UNL A   1      47.473  30.695  27.022  1.00  0.00    -0.354 N 
ATOM     27  C   UNL A   1      51.182  28.783  25.958  1.00  0.00     0.074 A 
ATOM     28  C   UNL A   1      51.017  27.369  25.723  1.00  0.00     0.031 C 
ATOM     29  C   UNL A   1      45.247  30.870  27.154  1.00  0.00     0.029 A 
ATOM     30  C   UNL A   1      46.483  31.527  27.521  1.00  0.00     0.049 A 
ATOM     31  H   UNL A   1      48.420  30.956  26.955  1.00  0.00     0.167 HD
ATOM     32  C   UNL A   1      52.364  29.434  25.898  1.00  0.00     0.034 A 
ATOM     33  C   UNL A   1      46.553  32.688  28.202  1.00  0.00     0.034 A 
ATOM     34  C   UNL A   1      52.526  30.812  26.266  1.00  0.00     0.049 A 
ATOM     35  C   UNL A   1      47.901  33.333  28.296  1.00  0.00     0.074 A 
ATOM     36  C   UNL A   1      53.680  31.574  26.255  1.00  0.00     0.029 A 
ATOM     37  N   UNL A   1      51.520  31.611  26.788  1.00  0.00    -0.354 N 
ATOM     38  N   UNL A   1      49.047  32.877  27.850  1.00  0.00    -0.248 NA
ATOM     39  C   UNL A   1      47.970  34.672  28.891  1.00  0.00     0.031 C 
ATOM     40  C   UNL A   1      53.385  32.809  26.841  1.00  0.00     0.029 A 
ATOM     41  C   UNL A   1      52.036  32.838  27.161  1.00  0.00     0.049 A 
ATOM     42  H   UNL A   1      50.576  31.344  26.879  1.00  0.00     0.167 HD
ATOM     43  C   UNL A   1      49.966  33.888  28.062  1.00  0.00     0.074 A 
ATOM     44  C   UNL A   1      49.240  34.987  28.671  1.00  0.00     0.031 C 
ATOM     45  C   UNL A   1      51.288  33.909  27.770  1.00  0.00     0.034 A 
BRANCH  32  46
ATOM     46  C   UNL A   1      53.575  28.650  25.477  1.00  0.00     0.023 A 
ATOM     47  C   UNL A   1      54.373  28.008  26.447  1.00  0.00     0.012 A 
ATOM     48  C   UNL A   1      53.886  28.500  24.112  1.00  0.00     0.148 A 
ATOM     49  C   UNL A   1      55.468  27.235  26.062  1.00  0.00     0.002 A 
ATOM     50  C   UNL A   1      54.955  27.697  23.736  1.00  0.00     0.091 A 
ATOM     51  F   UNL A   1      53.130  29.144  23.213  1.00  0.00    -0.205 F 
ATOM     52  C   UNL A   1      55.752  27.071  24.709  1.00  0.00     0.022 A 
BRANCH  50  53
ATOM     53  S   UNL A   1      55.365  27.371  22.018  1.00  0.00     0.127 S 
ATOM     54  O   UNL A   1      55.491  28.728  21.482  1.00  0.00    -0.237 OA
ATOM     55  O   UNL A   1      56.628  26.644  22.142  1.00  0.00    -0.237 OA
ATOM     56  O   UNL A   1      54.257  26.598  21.476  1.00  0.00    -0.744 OA
ENDBRANCH  50  53
ENDBRANCH  32  46
BRANCH  33  57
ATOM     57  C   UNL A   1      45.330  33.308  28.799  1.00  0.00     0.023 A 
ATOM     58  C   UNL A   1      44.967  33.043  30.134  1.00  0.00     0.012 A 
ATOM     59  C   UNL A   1      44.519  34.179  28.037  1.00  0.00     0.148 A 
ATOM     60  C   UNL A   1      43.808  33.602  30.685  1.00  0.00     0.002 A 
ATOM     61  C   UNL A   1      43.387  34.760  28.602  1.00  0.00     0.091 A 
ATOM     62  F   UNL A   1      44.864  34.413  26.762  1.00  0.00    -0.205 F 
ATOM     63  C   UNL A   1      43.023  34.463  29.923  1.00  0.00     0.022 A 
BRANCH  61  64
ATOM     64  S   UNL A   1      42.363  35.948  27.720  1.00  0.00     0.127 S 
ATOM     65  O   UNL A   1      41.033  35.643  28.242  1.00  0.00    -0.237 OA
ATOM     66  O   UNL A   1      42.919  37.226  28.169  1.00  0.00    -0.237 OA
ATOM     67  O   UNL A   1      42.567  35.670  26.305  1.00  0.00    -0.744 OA
ENDBRANCH  61  64
ENDBRANCH  33  57
BRANCH  45  68
ATOM     68  C   UNL A   1      52.036  35.162  28.119  1.00  0.00     0.023 A 
ATOM     69  C   UNL A   1      52.534  35.335  29.424  1.00  0.00     0.012 A 
ATOM     70  C   UNL A   1      52.300  36.129  27.133  1.00  0.00     0.148 A 
ATOM     71  C   UNL A   1      53.258  36.478  29.753  1.00  0.00     0.002 A 
ATOM     72  C   UNL A   1      53.071  37.235  27.452  1.00  0.00     0.091 A 
ATOM     73  F   UNL A   1      51.797  35.944  25.903  1.00  0.00    -0.205 F 
ATOM     74  C   UNL A   1      53.538  37.420  28.765  1.00  0.00     0.022 A 
BRANCH  72  75
ATOM     75  S   UNL A   1      53.571  38.444  26.225  1.00  0.00     0.127 S 
ATOM     76  O   UNL A   1      53.720  39.650  27.039  1.00  0.00    -0.237 OA
ATOM     77  O   UNL A   1      54.828  37.879  25.733  1.00  0.00    -0.237 OA
ATOM     78  O   UNL A   1      52.500  38.490  25.239  1.00  0.00    -0.744 OA
ENDBRANCH  72  75
ENDBRANCH  45  68
ENDBRANCH  19  20
ENDBRANCH  12  14
ENDBRANCH  11  12
ENDBRANCH  10  11
ENDBRANCH   9  10
ENDBRANCH   8   9
ENDBRANCH   6   8
ENDBRANCH   1   6
BRANCH   1  79
ATOM     79  N   UNL A   1      41.031  27.018  29.664  1.00  0.00    -0.341 N 
ATOM     80  C   UNL A   1      41.082  28.116  30.483  1.00  0.00     0.243 C 
ATOM     81  H   UNL A   1      41.436  26.260  30.143  1.00  0.00     0.164 HD
ATOM     82  O   UNL A   1      42.080  28.060  31.226  1.00  0.00    -0.273 OA
BRANCH  80  83
ATOM     83  C   UNL A   1      40.108  29.369  30.652  1.00  0.00     0.174 C 
BRANCH  83  84
ATOM     84  N   UNL A   1      38.893  28.991  31.425  1.00  0.00    -0.342 N 
ATOM     85  C   UNL A   1      38.333  29.069  32.675  1.00  0.00     0.242 C 
ATOM     86  H   UNL A   1      38.270  28.517  30.828  1.00  0.00     0.164 HD
ATOM     87  O   UNL A   1      37.385  28.276  32.787  1.00  0.00    -0.273 OA
BRANCH  85  88
ATOM     88  C   UNL A   1      38.913  29.975  34.100  1.00  0.00     0.168 C 
ATOM     89  C   UNL A   1      38.380  31.607  33.576  1.00  0.00     0.041 C 
BRANCH  88  90
ATOM     90  N   UNL A   1      40.467  29.577  35.455  1.00  0.00    -0.343 N 
ATOM     91  C   UNL A   1      41.540  28.633  35.832  1.00  0.00     0.240 C 
ATOM     92  H   UNL A   1      40.491  30.321  36.100  1.00  0.00     0.164 HD
ATOM     93  O   UNL A   1      42.304  29.038  36.720  1.00  0.00    -0.273 OA
BRANCH  91  94
ATOM     94  C   UNL A   1      41.908  27.178  35.026  1.00  0.00     0.219 C 
BRANCH  94  95
ATOM     95  N   UNL A   1      43.066  26.091  35.370  1.00  0.00    -0.312 N 
ATOM     96  C   UNL A   1      44.072  25.298  34.591  1.00  0.00     0.407 C 
ATOM     97  H   UNL A   1      43.121  25.906  36.336  1.00  0.00     0.167 HD
ATOM     98  O   UNL A   1      44.064  24.096  34.878  1.00  0.00    -0.225 OA
BRANCH  96  99
ATOM     99  O   UNL A   1      45.051  25.789  33.425  1.00  0.00    -0.445 OA
BRANCH  99 100
ATOM    100  C   UNL A   1      46.688  26.483  33.065  1.00  0.00     0.270 C 
BRANCH 100 101
ATOM    101  C   UNL A   1      47.299  27.087  31.722  1.00  0.00    -0.011 A 
ATOM    102  C   UNL A   1      48.506  26.633  31.125  1.00  0.00     0.007 A 
ATOM    103  C   UNL A   1      46.692  28.187  31.108  1.00  0.00     0.007 A 
ATOM    104  C   UNL A   1      49.259  27.461  30.280  1.00  0.00     0.000 A 
ATOM    105  C   UNL A   1      47.409  28.975  30.190  1.00  0.00     0.000 A 
ATOM    106  C   UNL A   1      48.726  28.664  29.853  1.00  0.00     0.000 A 
ENDBRANCH 100 101
ENDBRANCH  99 100
ENDBRANCH  96  99
ENDBRANCH  94  95
ENDBRANCH  91  94
ENDBRANCH  88  90
ENDBRANCH  85  88
ENDBRANCH  83  84
BRANCH  83 107
ATOM    107  C   UNL A   1      40.747  30.923  30.719  1.00  0.00     0.015 C 
ATOM    108  C   UNL A   1      39.868  32.097  30.234  1.00  0.00     0.010 C 
ATOM    109  C   UNL A   1      41.618  31.322  31.928  1.00  0.00     0.010 C 
ENDBRANCH  83 107
ENDBRANCH  80  83
ENDBRANCH   1  79
TORSDOF 27
ENDMDL
MODEL 2
REMARK VINA RESULT:      -8.1      6.085     11.147
REMARK SMILES CC(C)C[C@H](NC(=O)[C@@H](NC(=O)[C@H](C)NC(=O)CNC(=O)OCc1ccccc1)C(C)C)C(=O)OCCOC(=O)c1ccc(-c2c3nc(c(-c4cccc(S(=O)(=O)[O-])c4F)c4ccc([nH]4)c(-c4cccc(S(=O)(=O)[O-])c4F)c4nc(c(-c5cccc(S(=O)(=O)[O-])c5F)c5ccc2[nH]5)C=C4)C=C3)cc1
REMARK SMILES IDX 5 1 4 2 2 3 1 4 3 5 33 6 34 7 35 8 36 9 37 10 38 11 39 12
REMARK SMILES IDX 40 13 41 14 42 15 103 16 43 17 102 18 44 19 45 20 46 21
REMARK SMILES IDX 96 22 47 23 101 24 95 25 97 26 48 27 100 28 94 29 93 30
REMARK SMILES IDX 49 32 81 33 61 34 80 35 62 36 65 37 79 38 98 39 63 40 64 41
REMARK SMILES IDX 78 43 99 44 66 45 50 46 51 47 59 48 52 49 54 50 60 51 53 52
REMARK SMILES IDX 55 53 56 54 57 55 58 56 82 57 83 58 91 59 84 60 86 61 92 62
REMARK SMILES IDX 85 63 87 64 88 65 89 66 90 67 67 68 68 69 76 70 69 71 71 72
REMARK SMILES IDX 77 73 70 74 72 75 73 76 74 77 75 78 6 79 7 80 8 82 9 83
REMARK SMILES IDX 10 84 11 85 12 87 13 88 14 89 15 90 16 91 17 93 18 94 19 95
REMARK SMILES IDX 20 96 21 98 22 99 23 100 24 101 25 102 29 103 26 104 28 105
REMARK SMILES IDX 27 106 30 107 31 108 32 109
REMARK H PARENT 97 31 65 42 6 81 10 86 15 92 19 97
REMARK Flexibility Score: inf
ROOT
ATOM      1  C   UNL A   1      32.605  26.318  26.125  1.00  0.00     0.192 C 
ENDROOT
BRANCH   1   2
ATOM      2  C   UNL A   1      33.703  25.214  26.122  1.00  0.00     0.040 C 
BRANCH   2   3
ATOM      3  C   UNL A   1      33.163  23.813  26.430  1.00  0.00    -0.015 C 
ATOM      4  C   UNL A   1      34.188  22.967  27.195  1.00  0.00     0.007 C 
ATOM      5  C   UNL A   1      31.884  23.922  27.257  1.00  0.00     0.007 C 
ENDBRANCH   2   3
ENDBRANCH   1   2
BRANCH   1   6
ATOM      6  C   UNL A   1      33.482  27.845  25.978  1.00  0.00     0.328 C 
ATOM      7  O   UNL A   1      33.410  28.495  24.938  1.00  0.00    -0.250 OA
BRANCH   6   8
ATOM      8  O   UNL A   1      34.103  28.390  27.107  1.00  0.00    -0.461 OA
BRANCH   8   9
ATOM      9  C   UNL A   1      34.812  29.829  27.370  1.00  0.00     0.274 C 
BRANCH   9  10
ATOM     10  C   UNL A   1      36.355  30.028  28.365  1.00  0.00     0.275 C 
BRANCH  10  11
ATOM     11  O   UNL A   1      36.924  28.967  29.629  1.00  0.00    -0.458 OA
BRANCH  11  12
ATOM     12  C   UNL A   1      37.776  28.948  30.864  1.00  0.00     0.338 C 
ATOM     13  O   UNL A   1      37.164  28.864  31.933  1.00  0.00    -0.246 OA
BRANCH  12  14
ATOM     14  C   UNL A   1      39.548  28.968  31.026  1.00  0.00     0.060 A 
ATOM     15  C   UNL A   1      40.187  27.748  29.933  1.00  0.00     0.016 A 
ATOM     16  C   UNL A   1      40.770  29.606  32.307  1.00  0.00     0.016 A 
ATOM     17  C   UNL A   1      41.910  27.148  30.042  1.00  0.00     0.010 A 
ATOM     18  C   UNL A   1      42.461  28.950  32.445  1.00  0.00     0.010 A 
ATOM     19  C   UNL A   1      43.062  27.795  31.256  1.00  0.00    -0.014 A 
BRANCH  19  20
ATOM     20  C   UNL A   1      44.495  27.356  31.350  1.00  0.00     0.031 A 
ATOM     21  C   UNL A   1      44.903  26.365  32.400  1.00  0.00     0.074 A 
ATOM     22  C   UNL A   1      45.457  27.893  30.559  1.00  0.00     0.049 A 
ATOM     23  N   UNL A   1      46.096  25.899  32.659  1.00  0.00    -0.248 NA
ATOM     24  C   UNL A   1      43.841  25.767  33.224  1.00  0.00     0.031 C 
ATOM     25  C   UNL A   1      45.236  28.685  29.358  1.00  0.00     0.029 A 
ATOM     26  N   UNL A   1      46.833  27.913  30.667  1.00  0.00    -0.354 N 
ATOM     27  C   UNL A   1      45.923  24.932  33.638  1.00  0.00     0.074 A 
ATOM     28  C   UNL A   1      44.510  24.862  33.924  1.00  0.00     0.031 C 
ATOM     29  C   UNL A   1      46.360  29.309  28.984  1.00  0.00     0.029 A 
ATOM     30  C   UNL A   1      47.424  28.879  29.867  1.00  0.00     0.049 A 
ATOM     31  H   UNL A   1      47.342  27.305  31.251  1.00  0.00     0.167 HD
ATOM     32  C   UNL A   1      46.864  24.186  34.255  1.00  0.00     0.034 A 
ATOM     33  C   UNL A   1      48.678  29.372  29.842  1.00  0.00     0.034 A 
ATOM     34  C   UNL A   1      48.274  24.365  34.052  1.00  0.00     0.049 A 
ATOM     35  C   UNL A   1      49.699  28.655  30.669  1.00  0.00     0.074 A 
ATOM     36  C   UNL A   1      49.321  23.673  34.631  1.00  0.00     0.029 A 
ATOM     37  N   UNL A   1      48.834  25.359  33.263  1.00  0.00    -0.354 N 
ATOM     38  N   UNL A   1      49.515  27.635  31.473  1.00  0.00    -0.248 NA
ATOM     39  C   UNL A   1      51.098  29.074  30.531  1.00  0.00     0.031 C 
ATOM     40  C   UNL A   1      50.512  24.298  34.252  1.00  0.00     0.029 A 
ATOM     41  C   UNL A   1      50.211  25.341  33.388  1.00  0.00     0.049 A 
ATOM     42  H   UNL A   1      48.327  25.985  32.697  1.00  0.00     0.167 HD
ATOM     43  C   UNL A   1      50.775  27.256  31.900  1.00  0.00     0.074 A 
ATOM     44  C   UNL A   1      51.717  28.153  31.257  1.00  0.00     0.031 C 
ATOM     45  C   UNL A   1      51.121  26.251  32.739  1.00  0.00     0.034 A 
BRANCH  32  46
ATOM     46  C   UNL A   1      46.402  23.155  35.246  1.00  0.00     0.023 A 
ATOM     47  C   UNL A   1      46.057  21.859  34.808  1.00  0.00     0.012 A 
ATOM     48  C   UNL A   1      46.367  23.454  36.621  1.00  0.00     0.148 A 
ATOM     49  C   UNL A   1      45.676  20.880  35.725  1.00  0.00     0.002 A 
ATOM     50  C   UNL A   1      46.025  22.462  37.532  1.00  0.00     0.091 A 
ATOM     51  F   UNL A   1      46.670  24.701  37.008  1.00  0.00    -0.205 F 
ATOM     52  C   UNL A   1      45.672  21.178  37.086  1.00  0.00     0.022 A 
BRANCH  50  53
ATOM     53  S   UNL A   1      46.049  22.728  39.307  1.00  0.00     0.127 S 
ATOM     54  O   UNL A   1      45.608  21.424  39.807  1.00  0.00    -0.237 OA
ATOM     55  O   UNL A   1      47.459  23.029  39.548  1.00  0.00    -0.237 OA
ATOM     56  O   UNL A   1      45.129  23.826  39.567  1.00  0.00    -0.744 OA
ENDBRANCH  50  53
ENDBRANCH  32  46
BRANCH  33  57
ATOM     57  C   UNL A   1      49.026  30.556  28.997  1.00  0.00     0.023 A 
ATOM     58  C   UNL A   1      49.520  30.386  27.689  1.00  0.00     0.012 A 
ATOM     59  C   UNL A   1      48.858  31.868  29.493  1.00  0.00     0.148 A 
ATOM     60  C   UNL A   1      49.871  31.492  26.907  1.00  0.00     0.002 A 
ATOM     61  C   UNL A   1      49.175  32.966  28.696  1.00  0.00     0.091 A 
ATOM     62  F   UNL A   1      48.401  32.019  30.745  1.00  0.00    -0.205 F 
ATOM     63  C   UNL A   1      49.693  32.779  27.407  1.00  0.00     0.022 A 
BRANCH  61  64
ATOM     64  S   UNL A   1      48.899  34.663  29.228  1.00  0.00     0.127 S 
ATOM     65  O   UNL A   1      49.212  35.412  28.014  1.00  0.00    -0.237 OA
ATOM     66  O   UNL A   1      47.480  34.645  29.588  1.00  0.00    -0.237 OA
ATOM     67  O   UNL A   1      49.800  34.874  30.353  1.00  0.00    -0.744 OA
ENDBRANCH  61  64
ENDBRANCH  33  57
BRANCH  45  68
ATOM     68  C   UNL A   1      52.585  26.078  33.017  1.00  0.00     0.023 A 
ATOM     69  C   UNL A   1      53.246  26.989  33.863  1.00  0.00     0.012 A 
ATOM     70  C   UNL A   1      53.282  24.975  32.492  1.00  0.00     0.148 A 
ATOM     71  C   UNL A   1      54.596  26.822  34.155  1.00  0.00     0.002 A 
ATOM     72  C   UNL A   1      54.610  24.782  32.835  1.00  0.00     0.091 A 
ATOM     73  F   UNL A   1      52.630  24.135  31.676  1.00  0.00    -0.205 F 
ATOM     74  C   UNL A   1      55.275  25.713  33.653  1.00  0.00     0.022 A 
BRANCH  72  75
ATOM     75  S   UNL A   1      55.534  23.331  32.325  1.00  0.00     0.127 S 
ATOM     76  O   UNL A   1      55.833  23.645  30.928  1.00  0.00    -0.237 OA
ATOM     77  O   UNL A   1      56.689  23.372  33.222  1.00  0.00    -0.237 OA
ATOM     78  O   UNL A   1      54.647  22.193  32.529  1.00  0.00    -0.744 OA
ENDBRANCH  72  75
ENDBRANCH  45  68
ENDBRANCH  19  20
ENDBRANCH  12  14
ENDBRANCH  11  12
ENDBRANCH  10  11
ENDBRANCH   9  10
ENDBRANCH   8   9
ENDBRANCH   6   8
ENDBRANCH   1   6
BRANCH   1  79
ATOM     79  N   UNL A   1      31.479  25.661  25.252  1.00  0.00    -0.341 N 
ATOM     80  C   UNL A   1      31.134  25.316  23.971  1.00  0.00     0.243 C 
ATOM     81  H   UNL A   1      30.744  25.395  25.849  1.00  0.00     0.164 HD
ATOM     82  O   UNL A   1      29.899  25.375  23.821  1.00  0.00    -0.273 OA
BRANCH  80  83
ATOM     83  C   UNL A   1      32.006  24.845  22.719  1.00  0.00     0.174 C 
BRANCH  83  84
ATOM     84  N   UNL A   1      31.936  23.368  22.553  1.00  0.00    -0.342 N 
ATOM     85  C   UNL A   1      32.651  22.216  22.764  1.00  0.00     0.242 C 
ATOM     86  H   UNL A   1      31.069  23.133  22.149  1.00  0.00     0.164 HD
ATOM     87  O   UNL A   1      32.169  21.271  22.121  1.00  0.00    -0.273 OA
BRANCH  85  88
ATOM     88  C   UNL A   1      34.194  22.008  23.637  1.00  0.00     0.168 C 
ATOM     89  C   UNL A   1      34.972  23.537  23.112  1.00  0.00     0.041 C 
BRANCH  88  90
ATOM     90  N   UNL A   1      35.207  20.279  24.265  1.00  0.00    -0.343 N 
ATOM     91  C   UNL A   1      36.493  19.726  24.740  1.00  0.00     0.240 C 
ATOM     92  H   UNL A   1      34.564  19.534  24.228  1.00  0.00     0.164 HD
ATOM     93  O   UNL A   1      36.444  18.552  25.131  1.00  0.00    -0.273 OA
BRANCH  91  94
ATOM     94  C   UNL A   1      37.928  20.616  24.970  1.00  0.00     0.219 C 
BRANCH  94  95
ATOM     95  N   UNL A   1      39.248  20.210  25.827  1.00  0.00    -0.312 N 
ATOM     96  C   UNL A   1      40.395  20.941  26.458  1.00  0.00     0.407 C 
ATOM     97  H   UNL A   1      39.309  19.238  25.968  1.00  0.00     0.167 HD
ATOM     98  O   UNL A   1      41.494  20.456  26.166  1.00  0.00    -0.225 OA
BRANCH  96  99
ATOM     99  O   UNL A   1      40.370  22.266  27.355  1.00  0.00    -0.445 OA
BRANCH  99 100
ATOM    100  C   UNL A   1      41.379  23.383  28.368  1.00  0.00     0.270 C 
BRANCH 100 101
ATOM    101  C   UNL A   1      42.950  23.650  28.386  1.00  0.00    -0.011 A 
ATOM    102  C   UNL A   1      43.787  23.392  29.504  1.00  0.00     0.007 A 
ATOM    103  C   UNL A   1      43.571  24.256  27.288  1.00  0.00     0.007 A 
ATOM    104  C   UNL A   1      45.003  24.069  29.680  1.00  0.00     0.000 A 
ATOM    105  C   UNL A   1      44.832  24.863  27.429  1.00  0.00     0.000 A 
ATOM    106  C   UNL A   1      45.501  24.850  28.652  1.00  0.00     0.000 A 
ENDBRANCH 100 101
ENDBRANCH  99 100
ENDBRANCH  96  99
ENDBRANCH  94  95
ENDBRANCH  91  94
ENDBRANCH  88  90
ENDBRANCH  85  88
ENDBRANCH  83  84
BRANCH  83 107
ATOM    107  C   UNL A   1      32.199  25.872  21.401  1.00  0.00     0.015 C 
ATOM    108  C   UNL A   1      32.923  27.219  21.622  1.00  0.00     0.010 C 
ATOM    109  C   UNL A   1      32.530  25.264  20.022  1.00  0.00     0.010 C 
ENDBRANCH  83 107
ENDBRANCH  80  83
ENDBRANCH   1  79
TORSDOF 27
ENDMDL
MODEL 3
REMARK VINA RESULT:      -7.8      4.997     10.573
REMARK SMILES CC(C)C[C@H](NC(=O)[C@@H](NC(=O)[C@H](C)NC(=O)CNC(=O)OCc1ccccc1)C(C)C)C(=O)OCCOC(=O)c1ccc(-c2c3nc(c(-c4cccc(S(=O)(=O)[O-])c4F)c4ccc([nH]4)c(-c4cccc(S(=O)(=O)[O-])c4F)c4nc(c(-c5cccc(S(=O)(=O)[O-])c5F)c5ccc2[nH]5)C=C4)C=C3)cc1
REMARK SMILES IDX 5 1 4 2 2 3 1 4 3 5 33 6 34 7 35 8 36 9 37 10 38 11 39 12
REMARK SMILES IDX 40 13 41 14 42 15 103 16 43 17 102 18 44 19 45 20 46 21
REMARK SMILES IDX 96 22 47 23 101 24 95 25 97 26 48 27 100 28 94 29 93 30
REMARK SMILES IDX 49 32 81 33 61 34 80 35 62 36 65 37 79 38 98 39 63 40 64 41
REMARK SMILES IDX 78 43 99 44 66 45 50 46 51 47 59 48 52 49 54 50 60 51 53 52
REMARK SMILES IDX 55 53 56 54 57 55 58 56 82 57 83 58 91 59 84 60 86 61 92 62
REMARK SMILES IDX 85 63 87 64 88 65 89 66 90 67 67 68 68 69 76 70 69 71 71 72
REMARK SMILES IDX 77 73 70 74 72 75 73 76 74 77 75 78 6 79 7 80 8 82 9 83
REMARK SMILES IDX 10 84 11 85 12 87 13 88 14 89 15 90 16 91 17 93 18 94 19 95
REMARK SMILES IDX 20 96 21 98 22 99 23 100 24 101 25 102 29 103 26 104 28 105
REMARK SMILES IDX 27 106 30 107 31 108 32 109
REMARK H PARENT 97 31 65 42 6 81 10 86 15 92 19 97
REMARK Flexibility Score: inf
ROOT
ATOM      1  C   UNL A   1      42.286  25.824  28.061  1.00  0.00     0.192 C 
ENDROOT
BRANCH   1   2
ATOM      2  C   UNL A   1      42.032  24.432  27.412  1.00  0.00     0.040 C 
BRANCH   2   3
ATOM      3  C   UNL A   1      41.808  23.311  28.433  1.00  0.00    -0.015 C 
ATOM      4  C   UNL A   1      40.835  22.250  27.907  1.00  0.00     0.007 C 
ATOM      5  C   UNL A   1      43.142  22.647  28.771  1.00  0.00     0.007 C 
ENDBRANCH   2   3
ENDBRANCH   1   2
BRANCH   1   6
ATOM      6  C   UNL A   1      43.937  26.256  27.603  1.00  0.00     0.328 C 
ATOM      7  O   UNL A   1      44.130  27.145  26.778  1.00  0.00    -0.250 OA
BRANCH   6   8
ATOM      8  O   UNL A   1      45.011  25.708  28.312  1.00  0.00    -0.461 OA
BRANCH   8   9
ATOM      9  C   UNL A   1      46.220  24.719  27.864  1.00  0.00     0.274 C 
BRANCH   9  10
ATOM     10  C   UNL A   1      47.042  24.812  26.213  1.00  0.00     0.275 C 
BRANCH  10  11
ATOM     11  O   UNL A   1      48.189  26.018  25.687  1.00  0.00    -0.458 OA
BRANCH  11  12
ATOM     12  C   UNL A   1      48.376  27.502  25.571  1.00  0.00     0.338 C 
ATOM     13  O   UNL A   1      49.132  27.875  24.667  1.00  0.00    -0.246 OA
BRANCH  12  14
ATOM     14  C   UNL A   1      47.629  28.821  26.501  1.00  0.00     0.060 A 
ATOM     15  C   UNL A   1      48.326  28.783  28.115  1.00  0.00     0.016 A 
ATOM     16  C   UNL A   1      46.076  29.870  26.332  1.00  0.00     0.016 A 
ATOM     17  C   UNL A   1      47.588  29.693  29.518  1.00  0.00     0.010 A 
ATOM     18  C   UNL A   1      45.315  30.715  27.752  1.00  0.00     0.010 A 
ATOM     19  C   UNL A   1      46.122  30.708  29.320  1.00  0.00    -0.014 A 
BRANCH  19  20
ATOM     20  C   UNL A   1      45.510  31.501  30.439  1.00  0.00     0.031 A 
ATOM     21  C   UNL A   1      45.554  33.000  30.400  1.00  0.00     0.074 A 
ATOM     22  C   UNL A   1      44.984  30.898  31.534  1.00  0.00     0.049 A 
ATOM     23  N   UNL A   1      45.115  33.850  31.291  1.00  0.00    -0.248 NA
ATOM     24  C   UNL A   1      46.095  33.637  29.190  1.00  0.00     0.031 C 
ATOM     25  C   UNL A   1      44.653  29.486  31.659  1.00  0.00     0.029 A 
ATOM     26  N   UNL A   1      44.681  31.376  32.793  1.00  0.00    -0.354 N 
ATOM     27  C   UNL A   1      45.288  35.109  30.734  1.00  0.00     0.074 A 
ATOM     28  C   UNL A   1      45.860  34.920  29.423  1.00  0.00     0.031 C 
ATOM     29  C   UNL A   1      44.440  29.156  32.939  1.00  0.00     0.029 A 
ATOM     30  C   UNL A   1      44.518  30.367  33.730  1.00  0.00     0.049 A 
ATOM     31  H   UNL A   1      44.589  32.333  33.004  1.00  0.00     0.167 HD
ATOM     32  C   UNL A   1      45.012  36.313  31.280  1.00  0.00     0.034 A 
ATOM     33  C   UNL A   1      44.444  30.402  35.075  1.00  0.00     0.034 A 
ATOM     34  C   UNL A   1      44.569  36.483  32.635  1.00  0.00     0.049 A 
ATOM     35  C   UNL A   1      44.317  31.753  35.706  1.00  0.00     0.074 A 
ATOM     36  C   UNL A   1      44.268  37.657  33.300  1.00  0.00     0.029 A 
ATOM     37  N   UNL A   1      44.441  35.454  33.556  1.00  0.00    -0.354 N 
ATOM     38  N   UNL A   1      44.333  32.924  35.117  1.00  0.00    -0.248 NA
ATOM     39  C   UNL A   1      44.072  31.804  37.152  1.00  0.00     0.031 C 
ATOM     40  C   UNL A   1      44.032  37.344  34.642  1.00  0.00     0.029 A 
ATOM     41  C   UNL A   1      44.127  35.969  34.800  1.00  0.00     0.049 A 
ATOM     42  H   UNL A   1      44.556  34.497  33.354  1.00  0.00     0.167 HD
ATOM     43  C   UNL A   1      44.051  33.851  36.105  1.00  0.00     0.074 A 
ATOM     44  C   UNL A   1      43.860  33.100  37.333  1.00  0.00     0.031 C 
ATOM     45  C   UNL A   1      43.949  35.197  36.004  1.00  0.00     0.034 A 
BRANCH  32  46
ATOM     46  C   UNL A   1      45.237  37.534  30.434  1.00  0.00     0.023 A 
ATOM     47  C   UNL A   1      46.458  38.236  30.518  1.00  0.00     0.012 A 
ATOM     48  C   UNL A   1      44.261  37.950  29.510  1.00  0.00     0.148 A 
ATOM     49  C   UNL A   1      46.697  39.340  29.700  1.00  0.00     0.002 A 
ATOM     50  C   UNL A   1      44.522  39.026  28.671  1.00  0.00     0.091 A 
ATOM     51  F   UNL A   1      43.098  37.284  29.470  1.00  0.00    -0.205 F 
ATOM     52  C   UNL A   1      45.735  39.727  28.770  1.00  0.00     0.022 A 
BRANCH  50  53
ATOM     53  S   UNL A   1      43.376  39.563  27.398  1.00  0.00     0.127 S 
ATOM     54  O   UNL A   1      44.269  39.742  26.252  1.00  0.00    -0.237 OA
ATOM     55  O   UNL A   1      42.476  38.415  27.298  1.00  0.00    -0.237 OA
ATOM     56  O   UNL A   1      42.762  40.787  27.893  1.00  0.00    -0.744 OA
ENDBRANCH  50  53
ENDBRANCH  32  46
BRANCH  33  57
ATOM     57  C   UNL A   1      44.452  29.142  35.882  1.00  0.00     0.023 A 
ATOM     58  C   UNL A   1      43.253  28.457  36.159  1.00  0.00     0.012 A 
ATOM     59  C   UNL A   1      45.665  28.612  36.376  1.00  0.00     0.148 A 
ATOM     60  C   UNL A   1      43.257  27.294  36.936  1.00  0.00     0.002 A 
ATOM     61  C   UNL A   1      45.666  27.434  37.119  1.00  0.00     0.091 A 
ATOM     62  F   UNL A   1      46.800  29.280  36.120  1.00  0.00    -0.205 F 
ATOM     63  C   UNL A   1      44.461  26.779  37.410  1.00  0.00     0.022 A 
BRANCH  61  64
ATOM     64  S   UNL A   1      47.180  26.653  37.698  1.00  0.00     0.127 S 
ATOM     65  O   UNL A   1      46.666  25.461  38.366  1.00  0.00    -0.237 OA
ATOM     66  O   UNL A   1      47.892  26.395  36.445  1.00  0.00    -0.237 OA
ATOM     67  O   UNL A   1      47.823  27.635  38.561  1.00  0.00    -0.744 OA
ENDBRANCH  61  64
ENDBRANCH  33  57
BRANCH  45  68
ATOM     68  C   UNL A   1      43.627  35.946  37.263  1.00  0.00     0.023 A 
ATOM     69  C   UNL A   1      44.655  36.605  37.964  1.00  0.00     0.012 A 
ATOM     70  C   UNL A   1      42.296  36.049  37.706  1.00  0.00     0.148 A 
ATOM     71  C   UNL A   1      44.364  37.330  39.116  1.00  0.00     0.002 A 
ATOM     72  C   UNL A   1      42.007  36.822  38.820  1.00  0.00     0.091 A 
ATOM     73  F   UNL A   1      41.342  35.396  37.028  1.00  0.00    -0.205 F 
ATOM     74  C   UNL A   1      43.041  37.451  39.536  1.00  0.00     0.022 A 
BRANCH  72  75
ATOM     75  S   UNL A   1      40.327  37.121  39.372  1.00  0.00     0.127 S 
ATOM     76  O   UNL A   1      40.096  35.978  40.255  1.00  0.00    -0.237 OA
ATOM     77  O   UNL A   1      40.454  38.407  40.056  1.00  0.00    -0.237 OA
ATOM     78  O   UNL A   1      39.504  37.152  38.170  1.00  0.00    -0.744 OA
ENDBRANCH  72  75
ENDBRANCH  45  68
ENDBRANCH  19  20
ENDBRANCH  12  14
ENDBRANCH  11  12
ENDBRANCH  10  11
ENDBRANCH   9  10
ENDBRANCH   8   9
ENDBRANCH   6   8
ENDBRANCH   1   6
BRANCH   1  79
ATOM     79  N   UNL A   1      40.908  26.543  27.841  1.00  0.00    -0.341 N 
ATOM     80  C   UNL A   1      39.930  27.273  28.465  1.00  0.00     0.243 C 
ATOM     81  H   UNL A   1      40.648  26.426  26.899  1.00  0.00     0.164 HD
ATOM     82  O   UNL A   1      38.820  27.049  27.947  1.00  0.00    -0.273 OA
BRANCH  80  83
ATOM     83  C   UNL A   1      39.985  28.329  29.662  1.00  0.00     0.174 C 
BRANCH  83  84
ATOM     84  N   UNL A   1      39.190  27.848  30.825  1.00  0.00    -0.342 N 
ATOM     85  C   UNL A   1      38.849  28.170  32.114  1.00  0.00     0.242 C 
ATOM     86  H   UNL A   1      38.755  26.999  30.584  1.00  0.00     0.164 HD
ATOM     87  O   UNL A   1      38.373  27.188  32.705  1.00  0.00    -0.273 OA
BRANCH  85  88
ATOM     88  C   UNL A   1      39.183  29.677  33.011  1.00  0.00     0.168 C 
ATOM     89  C   UNL A   1      40.702  29.148  33.806  1.00  0.00     0.041 C 
BRANCH  88  90
ATOM     90  N   UNL A   1      37.898  31.182  33.715  1.00  0.00    -0.343 N 
ATOM     91  C   UNL A   1      36.638  31.916  33.475  1.00  0.00     0.240 C 
ATOM     92  H   UNL A   1      38.297  31.545  34.539  1.00  0.00     0.164 HD
ATOM     93  O   UNL A   1      36.286  32.666  34.397  1.00  0.00    -0.273 OA
BRANCH  91  94
ATOM     94  C   UNL A   1      35.576  31.659  32.168  1.00  0.00     0.219 C 
BRANCH  94  95
ATOM     95  N   UNL A   1      35.881  30.954  30.736  1.00  0.00    -0.312 N 
ATOM     96  C   UNL A   1      36.077  31.415  29.323  1.00  0.00     0.407 C 
ATOM     97  H   UNL A   1      35.956  29.976  30.817  1.00  0.00     0.167 HD
ATOM     98  O   UNL A   1      35.389  30.786  28.511  1.00  0.00    -0.225 OA
BRANCH  96  99
ATOM     99  O   UNL A   1      36.967  32.627  28.777  1.00  0.00    -0.445 OA
BRANCH  99 100
ATOM    100  C   UNL A   1      38.126  33.939  29.252  1.00  0.00     0.270 C 
BRANCH 100 101
ATOM    101  C   UNL A   1      39.392  33.921  30.220  1.00  0.00    -0.011 A 
ATOM    102  C   UNL A   1      39.314  33.730  31.626  1.00  0.00     0.007 A 
ATOM    103  C   UNL A   1      40.668  34.189  29.712  1.00  0.00     0.007 A 
ATOM    104  C   UNL A   1      40.319  34.200  32.484  1.00  0.00     0.000 A 
ATOM    105  C   UNL A   1      41.710  34.577  30.574  1.00  0.00     0.000 A 
ATOM    106  C   UNL A   1      41.504  34.673  31.950  1.00  0.00     0.000 A 
ENDBRANCH 100 101
ENDBRANCH  99 100
ENDBRANCH  96  99
ENDBRANCH  94  95
ENDBRANCH  91  94
ENDBRANCH  88  90
ENDBRANCH  85  88
ENDBRANCH  83  84
BRANCH  83 107
ATOM    107  C   UNL A   1      41.346  29.295  29.863  1.00  0.00     0.015 C 
ATOM    108  C   UNL A   1      42.375  29.360  28.712  1.00  0.00     0.010 C 
ATOM    109  C   UNL A   1      41.199  30.655  30.576  1.00  0.00     0.010 C 
ENDBRANCH  83 107
ENDBRANCH  80  83
ENDBRANCH   1  79
TORSDOF 27
ENDMDL
