MODEL 1
REMARK VINA RESULT:     -10.3      0.000      0.000
REMARK SMILES C[C@H](CCC(=O)OCCOC(=O)c1ccc(-c2c3nc(c(-c4cccc(S(=O)(=O)[O-])c4F)c4ccc([nH]4)c(-c4cccc(S(=O)(=O)[O-])c4F)c4nc(c(-c5cccc(S(=O)(=O)[O-])c5F)c5ccc2[nH]5)C=C4)C=C3)cc1)NC(=O)N(C)CCc1cccs1
REMARK SMILES IDX 5 1 6 2 4 3 3 4 2 5 1 6 76 7 77 8 78 10 79 11 80 12 81 13
REMARK SMILES IDX 82 14 83 15 84 16 87 17 85 18 86 19 7 20 8 21 9 22 10 23
REMARK SMILES IDX 11 24 12 25 13 26 14 27 75 28 15 29 74 30 16 31 17 32 18 33
REMARK SMILES IDX 68 34 19 35 73 36 67 37 69 38 20 39 72 40 66 41 65 42 21 44
REMARK SMILES IDX 53 45 33 46 52 47 34 48 37 49 51 50 70 51 35 52 36 53 50 55
REMARK SMILES IDX 71 56 38 57 22 58 23 59 31 60 24 61 26 62 32 63 25 64 27 65
REMARK SMILES IDX 28 66 29 67 30 68 54 69 55 70 63 71 56 72 58 73 64 74 57 75
REMARK SMILES IDX 59 76 60 77 61 78 62 79 39 80 40 81 48 82 41 83 43 84 49 85
REMARK SMILES IDX 42 86 44 87 45 88 46 89 47 90
REMARK H PARENT 76 9 69 43 37 54
REMARK Flexibility Score: inf
ROOT
ATOM      1  C   UNL A   1      33.031  28.380  25.268  1.00  0.00     0.305 C 
ATOM      2  O   UNL A   1      33.362  28.954  24.240  1.00  0.00    -0.252 OA
ENDROOT
BRANCH   1   3
ATOM      3  C   UNL A   1      33.895  27.352  25.963  1.00  0.00     0.125 C 
BRANCH   3   4
ATOM      4  C   UNL A   1      33.405  25.915  25.772  1.00  0.00     0.036 C 
BRANCH   4   5
ATOM      5  C   UNL A   1      34.404  24.917  25.161  1.00  0.00     0.081 C 
ATOM      6  C   UNL A   1      34.310  23.523  25.779  1.00  0.00     0.031 C 
BRANCH   5   7
ATOM      7  N   UNL A   1      34.226  24.888  23.717  1.00  0.00    -0.336 N 
ATOM      8  C   UNL A   1      33.306  24.474  22.840  1.00  0.00     0.317 C 
ATOM      9  H   UNL A   1      35.001  25.285  23.257  1.00  0.00     0.165 HD
ATOM     10  O   UNL A   1      33.634  24.641  21.659  1.00  0.00    -0.249 OA
BRANCH   8  11
ATOM     11  N   UNL A   1      32.098  23.939  23.182  1.00  0.00    -0.328 N 
ATOM     12  C   UNL A   1      31.716  22.546  23.344  1.00  0.00     0.148 C 
BRANCH  11  13
ATOM     13  C   UNL A   1      30.988  24.891  23.335  1.00  0.00     0.126 C 
BRANCH  13  14
ATOM     14  C   UNL A   1      31.308  26.290  22.773  1.00  0.00     0.068 C 
BRANCH  14  15
ATOM     15  C   UNL A   1      30.180  27.271  22.943  1.00  0.00     0.006 A 
ATOM     16  C   UNL A   1      28.939  27.049  23.508  1.00  0.00     0.015 A 
ATOM     17  S   UNL A   1      30.327  28.879  22.367  1.00  0.00    -0.149 S 
ATOM     18  C   UNL A   1      28.080  28.181  23.393  1.00  0.00     0.012 A 
ATOM     19  C   UNL A   1      28.706  29.239  22.775  1.00  0.00     0.065 A 
ENDBRANCH  14  15
ENDBRANCH  13  14
ENDBRANCH  11  13
ENDBRANCH   8  11
ENDBRANCH   5   7
ENDBRANCH   4   5
ENDBRANCH   3   4
ENDBRANCH   1   3
BRANCH   1  20
ATOM     20  O   UNL A   1      31.855  28.557  25.919  1.00  0.00    -0.462 OA
BRANCH  20  21
ATOM     21  C   UNL A   1      31.884  29.357  27.116  1.00  0.00     0.274 C 
BRANCH  21  22
ATOM     22  C   UNL A   1      31.844  30.848  26.780  1.00  0.00     0.275 C 
BRANCH  22  23
ATOM     23  O   UNL A   1      33.170  31.339  26.512  1.00  0.00    -0.458 OA
BRANCH  23  24
ATOM     24  C   UNL A   1      33.695  32.147  27.456  1.00  0.00     0.338 C 
ATOM     25  O   UNL A   1      33.168  33.132  27.963  1.00  0.00    -0.246 OA
BRANCH  24  26
ATOM     26  C   UNL A   1      34.992  31.616  27.897  1.00  0.00     0.060 A 
ATOM     27  C   UNL A   1      35.100  30.249  28.173  1.00  0.00     0.016 A 
ATOM     28  C   UNL A   1      36.071  32.471  28.124  1.00  0.00     0.016 A 
ATOM     29  C   UNL A   1      36.270  29.736  28.722  1.00  0.00     0.010 A 
ATOM     30  C   UNL A   1      37.254  31.952  28.658  1.00  0.00     0.010 A 
ATOM     31  C   UNL A   1      37.347  30.589  28.991  1.00  0.00    -0.014 A 
BRANCH  31  32
ATOM     32  C   UNL A   1      38.535  30.055  29.695  1.00  0.00     0.031 A 
ATOM     33  C   UNL A   1      38.841  30.524  31.090  1.00  0.00     0.074 A 
ATOM     34  C   UNL A   1      39.321  29.144  29.093  1.00  0.00     0.049 A 
ATOM     35  N   UNL A   1      39.827  30.184  31.877  1.00  0.00    -0.248 NA
ATOM     36  C   UNL A   1      37.914  31.507  31.677  1.00  0.00     0.031 C 
ATOM     37  C   UNL A   1      39.119  28.616  27.743  1.00  0.00     0.029 A 
ATOM     38  N   UNL A   1      40.453  28.509  29.537  1.00  0.00    -0.354 N 
ATOM     39  C   UNL A   1      39.668  30.939  33.032  1.00  0.00     0.074 A 
ATOM     40  C   UNL A   1      38.492  31.760  32.843  1.00  0.00     0.031 C 
ATOM     41  C   UNL A   1      40.101  27.741  27.466  1.00  0.00     0.029 A 
ATOM     42  C   UNL A   1      41.010  27.666  28.606  1.00  0.00     0.049 A 
ATOM     43  H   UNL A   1      40.830  28.644  30.436  1.00  0.00     0.167 HD
ATOM     44  C   UNL A   1      40.423  30.937  34.156  1.00  0.00     0.034 A 
ATOM     45  C   UNL A   1      42.131  26.921  28.667  1.00  0.00     0.034 A 
ATOM     46  C   UNL A   1      41.565  30.086  34.357  1.00  0.00     0.049 A 
ATOM     47  C   UNL A   1      42.938  26.922  29.938  1.00  0.00     0.074 A 
ATOM     48  C   UNL A   1      42.370  29.976  35.476  1.00  0.00     0.029 A 
ATOM     49  N   UNL A   1      42.064  29.200  33.414  1.00  0.00    -0.354 N 
ATOM     50  N   UNL A   1      42.709  27.556  31.062  1.00  0.00    -0.248 NA
ATOM     51  C   UNL A   1      44.139  26.073  29.962  1.00  0.00     0.031 C 
ATOM     52  C   UNL A   1      43.363  29.027  35.207  1.00  0.00     0.029 A 
ATOM     53  C   UNL A   1      43.167  28.537  33.926  1.00  0.00     0.049 A 
ATOM     54  H   UNL A   1      41.688  29.061  32.515  1.00  0.00     0.167 HD
ATOM     55  C   UNL A   1      43.712  27.156  31.938  1.00  0.00     0.074 A 
ATOM     56  C   UNL A   1      44.539  26.208  31.220  1.00  0.00     0.031 C 
ATOM     57  C   UNL A   1      43.938  27.548  33.217  1.00  0.00     0.034 A 
BRANCH  44  58
ATOM     58  C   UNL A   1      40.015  31.862  35.270  1.00  0.00     0.023 A 
ATOM     59  C   UNL A   1      40.534  33.171  35.314  1.00  0.00     0.012 A 
ATOM     60  C   UNL A   1      39.086  31.453  36.247  1.00  0.00     0.148 A 
ATOM     61  C   UNL A   1      40.159  34.050  36.330  1.00  0.00     0.002 A 
ATOM     62  C   UNL A   1      38.688  32.347  37.235  1.00  0.00     0.091 A 
ATOM     63  F   UNL A   1      38.624  30.195  36.205  1.00  0.00    -0.205 F 
ATOM     64  C   UNL A   1      39.230  33.642  37.284  1.00  0.00     0.022 A 
BRANCH  62  65
ATOM     65  S   UNL A   1      37.445  31.933  38.463  1.00  0.00     0.127 S 
ATOM     66  O   UNL A   1      38.167  32.180  39.710  1.00  0.00    -0.237 OA
ATOM     67  O   UNL A   1      36.385  32.899  38.172  1.00  0.00    -0.237 OA
ATOM     68  O   UNL A   1      37.082  30.545  38.211  1.00  0.00    -0.744 OA
ENDBRANCH  62  65
ENDBRANCH  44  58
BRANCH  45  69
ATOM     69  C   UNL A   1      42.517  26.061  27.513  1.00  0.00     0.023 A 
ATOM     70  C   UNL A   1      43.348  26.590  26.507  1.00  0.00     0.012 A 
ATOM     71  C   UNL A   1      42.092  24.722  27.419  1.00  0.00     0.148 A 
ATOM     72  C   UNL A   1      43.727  25.810  25.414  1.00  0.00     0.002 A 
ATOM     73  C   UNL A   1      42.516  23.934  26.355  1.00  0.00     0.091 A 
ATOM     74  F   UNL A   1      41.286  24.242  28.376  1.00  0.00    -0.205 F 
ATOM     75  C   UNL A   1      43.320  24.480  25.343  1.00  0.00     0.022 A 
BRANCH  73  76
ATOM     76  S   UNL A   1      42.141  22.180  26.252  1.00  0.00     0.127 S 
ATOM     77  O   UNL A   1      40.689  22.193  26.087  1.00  0.00    -0.237 OA
ATOM     78  O   UNL A   1      42.892  21.775  25.063  1.00  0.00    -0.237 OA
ATOM     79  O   UNL A   1      42.635  21.603  27.495  1.00  0.00    -0.744 OA
ENDBRANCH  73  76
ENDBRANCH  45  69
BRANCH  57  80
ATOM     80  C   UNL A   1      45.103  26.926  33.940  1.00  0.00     0.023 A 
ATOM     81  C   UNL A   1      46.375  27.524  33.857  1.00  0.00     0.012 A 
ATOM     82  C   UNL A   1      44.922  25.793  34.756  1.00  0.00     0.148 A 
ATOM     83  C   UNL A   1      47.458  26.984  34.551  1.00  0.00     0.002 A 
ATOM     84  C   UNL A   1      45.996  25.288  35.481  1.00  0.00     0.091 A 
ATOM     85  F   UNL A   1      43.709  25.222  34.806  1.00  0.00    -0.205 F 
ATOM     86  C   UNL A   1      47.267  25.875  35.372  1.00  0.00     0.022 A 
BRANCH  84  87
ATOM     87  S   UNL A   1      45.803  23.920  36.631  1.00  0.00     0.127 S 
ATOM     88  O   UNL A   1      45.211  22.893  35.777  1.00  0.00    -0.237 OA
ATOM     89  O   UNL A   1      47.183  23.652  37.038  1.00  0.00    -0.237 OA
ATOM     90  O   UNL A   1      44.952  24.425  37.700  1.00  0.00    -0.744 OA
ENDBRANCH  84  87
ENDBRANCH  57  80
ENDBRANCH  31  32
ENDBRANCH  24  26
ENDBRANCH  23  24
ENDBRANCH  22  23
ENDBRANCH  21  22
ENDBRANCH  20  21
ENDBRANCH   1  20
TORSDOF 21
ENDMDL
MODEL 2
REMARK VINA RESULT:     -10.3      2.137      3.297
REMARK SMILES C[C@H](CCC(=O)OCCOC(=O)c1ccc(-c2c3nc(c(-c4cccc(S(=O)(=O)[O-])c4F)c4ccc([nH]4)c(-c4cccc(S(=O)(=O)[O-])c4F)c4nc(c(-c5cccc(S(=O)(=O)[O-])c5F)c5ccc2[nH]5)C=C4)C=C3)cc1)NC(=O)N(C)CCc1cccs1
REMARK SMILES IDX 5 1 6 2 4 3 3 4 2 5 1 6 76 7 77 8 78 10 79 11 80 12 81 13
REMARK SMILES IDX 82 14 83 15 84 16 87 17 85 18 86 19 7 20 8 21 9 22 10 23
REMARK SMILES IDX 11 24 12 25 13 26 14 27 75 28 15 29 74 30 16 31 17 32 18 33
REMARK SMILES IDX 68 34 19 35 73 36 67 37 69 38 20 39 72 40 66 41 65 42 21 44
REMARK SMILES IDX 53 45 33 46 52 47 34 48 37 49 51 50 70 51 35 52 36 53 50 55
REMARK SMILES IDX 71 56 38 57 22 58 23 59 31 60 24 61 26 62 32 63 25 64 27 65
REMARK SMILES IDX 28 66 29 67 30 68 54 69 55 70 63 71 56 72 58 73 64 74 57 75
REMARK SMILES IDX 59 76 60 77 61 78 62 79 39 80 40 81 48 82 41 83 43 84 49 85
REMARK SMILES IDX 42 86 44 87 45 88 46 89 47 90
REMARK H PARENT 76 9 69 43 37 54
REMARK Flexibility Score: inf
ROOT
ATOM      1  C   UNL A   1      32.180  27.766  24.559  1.00  0.00     0.305 C 
ATOM      2  O   UNL A   1      31.116  27.319  24.157  1.00  0.00    -0.252 OA
ENDROOT
BRANCH   1   3
ATOM      3  C   UNL A   1      33.437  26.935  24.693  1.00  0.00     0.125 C 
BRANCH   3   4
ATOM      4  C   UNL A   1      33.557  26.231  26.047  1.00  0.00     0.036 C 
BRANCH   4   5
ATOM      5  C   UNL A   1      33.474  24.694  26.040  1.00  0.00     0.081 C 
ATOM      6  C   UNL A   1      32.056  24.172  26.257  1.00  0.00     0.031 C 
BRANCH   5   7
ATOM      7  N   UNL A   1      34.060  24.191  24.807  1.00  0.00    -0.336 N 
ATOM      8  C   UNL A   1      35.133  23.487  24.436  1.00  0.00     0.317 C 
ATOM      9  H   UNL A   1      33.511  24.439  24.028  1.00  0.00     0.165 HD
ATOM     10  O   UNL A   1      35.227  23.331  23.212  1.00  0.00    -0.249 OA
BRANCH   8  11
ATOM     11  N   UNL A   1      36.045  22.953  25.301  1.00  0.00    -0.328 N 
ATOM     12  C   UNL A   1      37.368  23.433  25.663  1.00  0.00     0.148 C 
BRANCH  11  13
ATOM     13  C   UNL A   1      35.686  21.661  25.904  1.00  0.00     0.126 C 
BRANCH  13  14
ATOM     14  C   UNL A   1      35.969  20.461  24.978  1.00  0.00     0.068 C 
BRANCH  14  15
ATOM     15  C   UNL A   1      34.756  19.609  24.722  1.00  0.00     0.006 A 
ATOM     16  C   UNL A   1      34.711  18.256  24.444  1.00  0.00     0.015 A 
ATOM     17  S   UNL A   1      33.189  20.304  24.709  1.00  0.00    -0.149 S 
ATOM     18  C   UNL A   1      33.392  17.809  24.142  1.00  0.00     0.012 A 
ATOM     19  C   UNL A   1      32.471  18.827  24.231  1.00  0.00     0.065 A 
ENDBRANCH  14  15
ENDBRANCH  13  14
ENDBRANCH  11  13
ENDBRANCH   8  11
ENDBRANCH   5   7
ENDBRANCH   4   5
ENDBRANCH   3   4
ENDBRANCH   1   3
BRANCH   1  20
ATOM     20  O   UNL A   1      32.392  29.046  24.955  1.00  0.00    -0.462 OA
BRANCH  20  21
ATOM     21  C   UNL A   1      31.234  29.894  25.073  1.00  0.00     0.274 C 
BRANCH  21  22
ATOM     22  C   UNL A   1      31.470  31.005  26.096  1.00  0.00     0.275 C 
BRANCH  22  23
ATOM     23  O   UNL A   1      32.624  30.711  26.902  1.00  0.00    -0.458 OA
BRANCH  23  24
ATOM     24  C   UNL A   1      33.315  31.781  27.347  1.00  0.00     0.338 C 
ATOM     25  O   UNL A   1      32.910  32.934  27.442  1.00  0.00    -0.246 OA
BRANCH  24  26
ATOM     26  C   UNL A   1      34.638  31.353  27.822  1.00  0.00     0.060 A 
ATOM     27  C   UNL A   1      34.841  30.003  28.122  1.00  0.00     0.016 A 
ATOM     28  C   UNL A   1      35.645  32.290  28.059  1.00  0.00     0.016 A 
ATOM     29  C   UNL A   1      36.034  29.586  28.703  1.00  0.00     0.010 A 
ATOM     30  C   UNL A   1      36.851  31.868  28.625  1.00  0.00     0.010 A 
ATOM     31  C   UNL A   1      37.038  30.520  28.981  1.00  0.00    -0.014 A 
BRANCH  31  32
ATOM     32  C   UNL A   1      38.247  30.086  29.718  1.00  0.00     0.031 A 
ATOM     33  C   UNL A   1      38.497  30.611  31.103  1.00  0.00     0.074 A 
ATOM     34  C   UNL A   1      39.102  29.214  29.154  1.00  0.00     0.049 A 
ATOM     35  N   UNL A   1      39.490  30.360  31.915  1.00  0.00    -0.248 NA
ATOM     36  C   UNL A   1      37.497  31.546  31.649  1.00  0.00     0.031 C 
ATOM     37  C   UNL A   1      38.959  28.637  27.816  1.00  0.00     0.029 A 
ATOM     38  N   UNL A   1      40.266  28.668  29.633  1.00  0.00    -0.354 N 
ATOM     39  C   UNL A   1      39.261  31.133  33.045  1.00  0.00     0.074 A 
ATOM     40  C   UNL A   1      38.036  31.868  32.816  1.00  0.00     0.031 C 
ATOM     41  C   UNL A   1      40.001  27.823  27.578  1.00  0.00     0.029 A 
ATOM     42  C   UNL A   1      40.893  27.839  28.734  1.00  0.00     0.049 A 
ATOM     43  H   UNL A   1      40.617  28.853  30.533  1.00  0.00     0.167 HD
ATOM     44  C   UNL A   1      39.995  31.212  34.181  1.00  0.00     0.034 A 
ATOM     45  C   UNL A   1      42.060  27.173  28.833  1.00  0.00     0.034 A 
ATOM     46  C   UNL A   1      41.188  30.445  34.423  1.00  0.00     0.049 A 
ATOM     47  C   UNL A   1      42.844  27.262  30.116  1.00  0.00     0.074 A 
ATOM     48  C   UNL A   1      41.979  30.420  35.557  1.00  0.00     0.029 A 
ATOM     49  N   UNL A   1      41.760  29.569  33.513  1.00  0.00    -0.354 N 
ATOM     50  N   UNL A   1      42.554  27.910  31.218  1.00  0.00    -0.248 NA
ATOM     51  C   UNL A   1      44.098  26.497  30.182  1.00  0.00     0.031 C 
ATOM     52  C   UNL A   1      43.037  29.532  35.329  1.00  0.00     0.029 A 
ATOM     53  C   UNL A   1      42.896  28.996  34.060  1.00  0.00     0.049 A 
ATOM     54  H   UNL A   1      41.411  29.381  32.613  1.00  0.00     0.167 HD
ATOM     55  C   UNL A   1      43.566  27.601  32.120  1.00  0.00     0.074 A 
ATOM     56  C   UNL A   1      44.466  26.692  31.442  1.00  0.00     0.031 C 
ATOM     57  C   UNL A   1      43.744  28.042  33.391  1.00  0.00     0.034 A 
BRANCH  44  58
ATOM     58  C   UNL A   1      39.507  32.138  35.262  1.00  0.00     0.023 A 
ATOM     59  C   UNL A   1      38.583  31.667  36.216  1.00  0.00     0.012 A 
ATOM     60  C   UNL A   1      39.995  33.455  35.361  1.00  0.00     0.148 A 
ATOM     61  C   UNL A   1      38.128  32.504  37.235  1.00  0.00     0.002 A 
ATOM     62  C   UNL A   1      39.566  34.271  36.402  1.00  0.00     0.091 A 
ATOM     63  F   UNL A   1      40.853  33.893  34.429  1.00  0.00    -0.205 F 
ATOM     64  C   UNL A   1      38.626  33.801  37.334  1.00  0.00     0.022 A 
BRANCH  62  65
ATOM     65  S   UNL A   1      40.205  35.931  36.650  1.00  0.00     0.127 S 
ATOM     66  O   UNL A   1      39.801  36.591  35.410  1.00  0.00    -0.237 OA
ATOM     67  O   UNL A   1      39.475  36.372  37.840  1.00  0.00    -0.237 OA
ATOM     68  O   UNL A   1      41.640  35.781  36.844  1.00  0.00    -0.744 OA
ENDBRANCH  62  65
ENDBRANCH  44  58
BRANCH  45  69
ATOM     69  C   UNL A   1      42.523  26.310  27.710  1.00  0.00     0.023 A 
ATOM     70  C   UNL A   1      43.424  26.835  26.764  1.00  0.00     0.012 A 
ATOM     71  C   UNL A   1      42.099  24.973  27.587  1.00  0.00     0.148 A 
ATOM     72  C   UNL A   1      43.876  26.052  25.701  1.00  0.00     0.002 A 
ATOM     73  C   UNL A   1      42.592  24.182  26.555  1.00  0.00     0.091 A 
ATOM     74  F   UNL A   1      41.225  24.498  28.485  1.00  0.00    -0.205 F 
ATOM     75  C   UNL A   1      43.468  24.724  25.602  1.00  0.00     0.022 A 
BRANCH  73  76
ATOM     76  S   UNL A   1      42.217  22.430  26.427  1.00  0.00     0.127 S 
ATOM     77  O   UNL A   1      40.767  22.447  26.249  1.00  0.00    -0.237 OA
ATOM     78  O   UNL A   1      42.979  22.039  25.241  1.00  0.00    -0.237 OA
ATOM     79  O   UNL A   1      42.700  21.838  27.668  1.00  0.00    -0.744 OA
ENDBRANCH  73  76
ENDBRANCH  45  69
BRANCH  57  80
ATOM     80  C   UNL A   1      44.935  27.519  34.148  1.00  0.00     0.023 A 
ATOM     81  C   UNL A   1      46.171  28.187  34.053  1.00  0.00     0.012 A 
ATOM     82  C   UNL A   1      44.811  26.411  35.008  1.00  0.00     0.148 A 
ATOM     83  C   UNL A   1      47.276  27.740  34.778  1.00  0.00     0.002 A 
ATOM     84  C   UNL A   1      45.905  25.999  35.762  1.00  0.00     0.091 A 
ATOM     85  F   UNL A   1      43.634  25.772  35.070  1.00  0.00    -0.205 F 
ATOM     86  C   UNL A   1      47.140  26.655  35.641  1.00  0.00     0.022 A 
BRANCH  84  87
ATOM     87  S   UNL A   1      45.779  24.669  36.965  1.00  0.00     0.127 S 
ATOM     88  O   UNL A   1      45.940  23.487  36.121  1.00  0.00    -0.237 OA
ATOM     89  O   UNL A   1      46.909  24.939  37.855  1.00  0.00    -0.237 OA
ATOM     90  O   UNL A   1      44.474  24.829  37.591  1.00  0.00    -0.744 OA
ENDBRANCH  84  87
ENDBRANCH  57  80
ENDBRANCH  31  32
ENDBRANCH  24  26
ENDBRANCH  23  24
ENDBRANCH  22  23
ENDBRANCH  21  22
ENDBRANCH  20  21
ENDBRANCH   1  20
TORSDOF 21
ENDMDL
MODEL 3
REMARK VINA RESULT:     -10.3      1.329      2.620
REMARK SMILES C[C@H](CCC(=O)OCCOC(=O)c1ccc(-c2c3nc(c(-c4cccc(S(=O)(=O)[O-])c4F)c4ccc([nH]4)c(-c4cccc(S(=O)(=O)[O-])c4F)c4nc(c(-c5cccc(S(=O)(=O)[O-])c5F)c5ccc2[nH]5)C=C4)C=C3)cc1)NC(=O)N(C)CCc1cccs1
REMARK SMILES IDX 5 1 6 2 4 3 3 4 2 5 1 6 76 7 77 8 78 10 79 11 80 12 81 13
REMARK SMILES IDX 82 14 83 15 84 16 87 17 85 18 86 19 7 20 8 21 9 22 10 23
REMARK SMILES IDX 11 24 12 25 13 26 14 27 75 28 15 29 74 30 16 31 17 32 18 33
REMARK SMILES IDX 68 34 19 35 73 36 67 37 69 38 20 39 72 40 66 41 65 42 21 44
REMARK SMILES IDX 53 45 33 46 52 47 34 48 37 49 51 50 70 51 35 52 36 53 50 55
REMARK SMILES IDX 71 56 38 57 22 58 23 59 31 60 24 61 26 62 32 63 25 64 27 65
REMARK SMILES IDX 28 66 29 67 30 68 54 69 55 70 63 71 56 72 58 73 64 74 57 75
REMARK SMILES IDX 59 76 60 77 61 78 62 79 39 80 40 81 48 82 41 83 43 84 49 85
REMARK SMILES IDX 42 86 44 87 45 88 46 89 47 90
REMARK H PARENT 76 9 69 43 37 54
REMARK Flexibility Score: inf
ROOT
ATOM      1  C   UNL A   1      32.403  29.164  24.812  1.00  0.00     0.305 C 
ATOM      2  O   UNL A   1      33.145  29.360  23.861  1.00  0.00    -0.252 OA
ENDROOT
BRANCH   1   3
ATOM      3  C   UNL A   1      32.340  27.853  25.564  1.00  0.00     0.125 C 
BRANCH   3   4
ATOM      4  C   UNL A   1      30.999  27.132  25.415  1.00  0.00     0.036 C 
BRANCH   4   5
ATOM      5  C   UNL A   1      30.637  26.623  24.008  1.00  0.00     0.081 C 
ATOM      6  C   UNL A   1      29.575  27.477  23.319  1.00  0.00     0.031 C 
BRANCH   5   7
ATOM      7  N   UNL A   1      31.851  26.513  23.215  1.00  0.00    -0.336 N 
ATOM      8  C   UNL A   1      32.606  25.544  22.687  1.00  0.00     0.317 C 
ATOM      9  H   UNL A   1      32.221  27.402  23.009  1.00  0.00     0.165 HD
ATOM     10  O   UNL A   1      33.609  25.961  22.095  1.00  0.00    -0.249 OA
BRANCH   8  11
ATOM     11  N   UNL A   1      32.311  24.213  22.753  1.00  0.00    -0.328 N 
ATOM     12  C   UNL A   1      31.133  23.552  23.289  1.00  0.00     0.148 C 
BRANCH  11  13
ATOM     13  C   UNL A   1      33.362  23.293  22.294  1.00  0.00     0.126 C 
BRANCH  13  14
ATOM     14  C   UNL A   1      33.819  22.303  23.383  1.00  0.00     0.068 C 
BRANCH  14  15
ATOM     15  C   UNL A   1      35.027  22.774  24.145  1.00  0.00     0.006 A 
ATOM     16  C   UNL A   1      36.357  22.642  23.796  1.00  0.00     0.015 A 
ATOM     17  S   UNL A   1      34.853  23.548  25.666  1.00  0.00    -0.149 S 
ATOM     18  C   UNL A   1      37.235  23.106  24.819  1.00  0.00     0.012 A 
ATOM     19  C   UNL A   1      36.546  23.607  25.900  1.00  0.00     0.065 A 
ENDBRANCH  14  15
ENDBRANCH  13  14
ENDBRANCH  11  13
ENDBRANCH   8  11
ENDBRANCH   5   7
ENDBRANCH   4   5
ENDBRANCH   3   4
ENDBRANCH   1   3
BRANCH   1  20
ATOM     20  O   UNL A   1      31.527  30.066  25.321  1.00  0.00    -0.462 OA
BRANCH  20  21
ATOM     21  C   UNL A   1      31.723  30.469  26.688  1.00  0.00     0.274 C 
BRANCH  21  22
ATOM     22  C   UNL A   1      31.637  31.989  26.831  1.00  0.00     0.275 C 
BRANCH  22  23
ATOM     23  O   UNL A   1      32.933  32.586  26.649  1.00  0.00    -0.458 OA
BRANCH  23  24
ATOM     24  C   UNL A   1      33.439  33.222  27.725  1.00  0.00     0.338 C 
ATOM     25  O   UNL A   1      32.926  34.147  28.346  1.00  0.00    -0.246 OA
BRANCH  24  26
ATOM     26  C   UNL A   1      34.689  32.571  28.143  1.00  0.00     0.060 A 
ATOM     27  C   UNL A   1      34.644  31.241  28.570  1.00  0.00     0.016 A 
ATOM     28  C   UNL A   1      35.882  33.294  28.201  1.00  0.00     0.016 A 
ATOM     29  C   UNL A   1      35.779  30.638  29.101  1.00  0.00     0.010 A 
ATOM     30  C   UNL A   1      37.027  32.680  28.717  1.00  0.00     0.010 A 
ATOM     31  C   UNL A   1      36.972  31.361  29.200  1.00  0.00    -0.014 A 
BRANCH  31  32
ATOM     32  C   UNL A   1      38.135  30.752  29.886  1.00  0.00     0.031 A 
ATOM     33  C   UNL A   1      38.427  31.119  31.314  1.00  0.00     0.074 A 
ATOM     34  C   UNL A   1      38.907  29.862  29.238  1.00  0.00     0.049 A 
ATOM     35  N   UNL A   1      39.391  30.703  32.092  1.00  0.00    -0.248 NA
ATOM     36  C   UNL A   1      37.516  32.086  31.950  1.00  0.00     0.031 C 
ATOM     37  C   UNL A   1      38.716  29.428  27.853  1.00  0.00     0.029 A 
ATOM     38  N   UNL A   1      40.015  29.170  29.657  1.00  0.00    -0.354 N 
ATOM     39  C   UNL A   1      39.230  31.385  33.291  1.00  0.00     0.074 A 
ATOM     40  C   UNL A   1      38.079  32.247  33.139  1.00  0.00     0.031 C 
ATOM     41  C   UNL A   1      39.680  28.549  27.534  1.00  0.00     0.029 A 
ATOM     42  C   UNL A   1      40.567  28.375  28.681  1.00  0.00     0.049 A 
ATOM     43  H   UNL A   1      40.380  29.236  30.569  1.00  0.00     0.167 HD
ATOM     44  C   UNL A   1      39.965  31.289  34.425  1.00  0.00     0.034 A 
ATOM     45  C   UNL A   1      41.668  27.599  28.710  1.00  0.00     0.034 A 
ATOM     46  C   UNL A   1      41.082  30.397  34.587  1.00  0.00     0.049 A 
ATOM     47  C   UNL A   1      42.453  27.495  29.991  1.00  0.00     0.074 A 
ATOM     48  C   UNL A   1      41.865  30.193  35.709  1.00  0.00     0.029 A 
ATOM     49  N   UNL A   1      41.575  29.562  33.596  1.00  0.00    -0.354 N 
ATOM     50  N   UNL A   1      42.220  28.060  31.151  1.00  0.00    -0.248 NA
ATOM     51  C   UNL A   1      43.631  26.615  29.978  1.00  0.00     0.031 C 
ATOM     52  C   UNL A   1      42.838  29.238  35.393  1.00  0.00     0.029 A 
ATOM     53  C   UNL A   1      42.652  28.838  34.080  1.00  0.00     0.049 A 
ATOM     54  H   UNL A   1      41.212  29.492  32.684  1.00  0.00     0.167 HD
ATOM     55  C   UNL A   1      43.197  27.577  32.014  1.00  0.00     0.074 A 
ATOM     56  C   UNL A   1      44.012  26.657  31.248  1.00  0.00     0.031 C 
ATOM     57  C   UNL A   1      43.411  27.878  33.319  1.00  0.00     0.034 A 
BRANCH  44  58
ATOM     58  C   UNL A   1      39.561  32.149  35.591  1.00  0.00     0.023 A 
ATOM     59  C   UNL A   1      40.055  33.465  35.690  1.00  0.00     0.012 A 
ATOM     60  C   UNL A   1      38.662  31.673  36.564  1.00  0.00     0.148 A 
ATOM     61  C   UNL A   1      39.683  34.284  36.755  1.00  0.00     0.002 A 
ATOM     62  C   UNL A   1      38.265  32.508  37.603  1.00  0.00     0.091 A 
ATOM     63  F   UNL A   1      38.224  30.409  36.469  1.00  0.00    -0.205 F 
ATOM     64  C   UNL A   1      38.782  33.810  37.705  1.00  0.00     0.022 A 
BRANCH  62  65
ATOM     65  S   UNL A   1      37.056  32.008  38.833  1.00  0.00     0.127 S 
ATOM     66  O   UNL A   1      35.874  32.755  38.406  1.00  0.00    -0.237 OA
ATOM     67  O   UNL A   1      36.973  30.563  38.618  1.00  0.00    -0.237 OA
ATOM     68  O   UNL A   1      37.614  32.396  40.121  1.00  0.00    -0.744 OA
ENDBRANCH  62  65
ENDBRANCH  44  58
BRANCH  45  69
ATOM     69  C   UNL A   1      42.052  26.806  27.508  1.00  0.00     0.023 A 
ATOM     70  C   UNL A   1      42.685  27.454  26.429  1.00  0.00     0.012 A 
ATOM     71  C   UNL A   1      41.822  25.419  27.437  1.00  0.00     0.148 A 
ATOM     72  C   UNL A   1      43.057  26.740  25.290  1.00  0.00     0.002 A 
ATOM     73  C   UNL A   1      42.242  24.704  26.321  1.00  0.00     0.091 A 
ATOM     74  F   UNL A   1      41.201  24.824  28.465  1.00  0.00    -0.205 F 
ATOM     75  C   UNL A   1      42.845  25.364  25.240  1.00  0.00     0.022 A 
BRANCH  73  76
ATOM     76  S   UNL A   1      42.122  22.914  26.229  1.00  0.00     0.127 S 
ATOM     77  O   UNL A   1      40.677  22.707  26.305  1.00  0.00    -0.237 OA
ATOM     78  O   UNL A   1      42.716  22.633  24.922  1.00  0.00    -0.237 OA
ATOM     79  O   UNL A   1      42.897  22.414  27.357  1.00  0.00    -0.744 OA
ENDBRANCH  73  76
ENDBRANCH  45  69
BRANCH  57  80
ATOM     80  C   UNL A   1      44.547  27.180  34.018  1.00  0.00     0.023 A 
ATOM     81  C   UNL A   1      45.845  27.723  33.953  1.00  0.00     0.012 A 
ATOM     82  C   UNL A   1      44.316  26.028  34.795  1.00  0.00     0.148 A 
ATOM     83  C   UNL A   1      46.903  27.111  34.626  1.00  0.00     0.002 A 
ATOM     84  C   UNL A   1      45.367  25.450  35.499  1.00  0.00     0.091 A 
ATOM     85  F   UNL A   1      43.079  25.511  34.827  1.00  0.00    -0.205 F 
ATOM     86  C   UNL A   1      46.662  25.983  35.408  1.00  0.00     0.022 A 
BRANCH  84  87
ATOM     87  S   UNL A   1      45.113  24.054  36.601  1.00  0.00     0.127 S 
ATOM     88  O   UNL A   1      46.472  23.788  37.066  1.00  0.00    -0.237 OA
ATOM     89  O   UNL A   1      44.219  24.611  37.618  1.00  0.00    -0.237 OA
ATOM     90  O   UNL A   1      44.509  23.012  35.781  1.00  0.00    -0.744 OA
ENDBRANCH  84  87
ENDBRANCH  57  80
ENDBRANCH  31  32
ENDBRANCH  24  26
ENDBRANCH  23  24
ENDBRANCH  22  23
ENDBRANCH  21  22
ENDBRANCH  20  21
ENDBRANCH   1  20
TORSDOF 21
ENDMDL
