MODEL 1
REMARK VINA RESULT:     -11.5      0.000      0.000
REMARK SMILES C[C@@H](C(=O)OCCOC(=O)c1ccc(-c2c3nc(c(-c4cccc(S(=O)(=O)[O-])c4F)c4ccc([nH]4)c(-c4cccc(S(=O)(=O)[O-])c4F)c4nc(c(-c5cccc(S(=O)(=O)[O-])c5F)c5ccc2[nH]5)C=C4)C=C3)cc1)c1ccc(OC2CCCC2)cc1F
REMARK SMILES IDX 6 1 5 2 3 3 4 4 2 5 1 6 74 7 75 8 85 9 76 10 84 11 86 12
REMARK SMILES IDX 77 13 78 14 79 15 80 16 83 17 81 18 82 19 7 20 8 21 9 22
REMARK SMILES IDX 10 23 11 24 12 25 73 26 13 27 72 28 14 29 15 30 16 31 66 32
REMARK SMILES IDX 17 33 71 34 65 35 67 36 18 37 70 38 64 39 63 40 19 42 51 43
REMARK SMILES IDX 31 44 50 45 32 46 35 47 49 48 68 49 33 50 34 51 48 53 69 54
REMARK SMILES IDX 36 55 20 56 21 57 29 58 22 59 24 60 30 61 23 62 25 63 26 64
REMARK SMILES IDX 27 65 28 66 52 67 53 68 61 69 54 70 56 71 62 72 55 73 57 74
REMARK SMILES IDX 58 75 59 76 60 77 37 78 38 79 46 80 39 81 41 82 47 83 40 84
REMARK SMILES IDX 42 85 43 86 44 87 45 88
REMARK H PARENT 67 41 35 52
REMARK Flexibility Score: inf
ROOT
ATOM      1  C   UNL A   1      30.865  31.341  25.744  1.00  0.00     0.274 C 
ENDROOT
BRANCH   1   2
ATOM      2  O   UNL A   1      31.872  30.330  25.535  1.00  0.00    -0.462 OA
BRANCH   2   3
ATOM      3  C   UNL A   1      31.446  29.124  25.068  1.00  0.00     0.313 C 
ATOM      4  O   UNL A   1      30.968  28.958  23.952  1.00  0.00    -0.252 OA
BRANCH   3   5
ATOM      5  C   UNL A   1      31.534  28.011  26.124  1.00  0.00     0.129 C 
ATOM      6  C   UNL A   1      32.455  28.365  27.296  1.00  0.00     0.025 C 
BRANCH   5   7
ATOM      7  C   UNL A   1      31.805  26.648  25.494  1.00  0.00     0.002 A 
ATOM      8  C   UNL A   1      33.112  26.321  25.093  1.00  0.00     0.011 A 
ATOM      9  C   UNL A   1      30.827  25.660  25.331  1.00  0.00     0.130 A 
ATOM     10  C   UNL A   1      33.403  25.066  24.544  1.00  0.00     0.047 A 
ATOM     11  C   UNL A   1      31.117  24.406  24.784  1.00  0.00     0.086 A 
ATOM     12  F   UNL A   1      29.565  25.881  25.723  1.00  0.00    -0.207 F 
ATOM     13  C   UNL A   1      32.408  24.098  24.380  1.00  0.00     0.122 A 
BRANCH  13  14
ATOM     14  O   UNL A   1      32.849  22.934  23.829  1.00  0.00    -0.490 OA
BRANCH  14  15
ATOM     15  C   UNL A   1      33.396  21.852  24.574  1.00  0.00     0.173 C 
ATOM     16  C   UNL A   1      32.844  20.469  24.264  1.00  0.00     0.045 C 
ATOM     17  C   UNL A   1      34.914  21.725  24.553  1.00  0.00     0.045 C 
ATOM     18  C   UNL A   1      33.928  19.487  24.684  1.00  0.00     0.004 C 
ATOM     19  C   UNL A   1      35.181  20.297  25.005  1.00  0.00     0.004 C 
ENDBRANCH  14  15
ENDBRANCH  13  14
ENDBRANCH   5   7
ENDBRANCH   3   5
ENDBRANCH   2   3
ENDBRANCH   1   2
BRANCH   1  20
ATOM     20  C   UNL A   1      31.410  32.504  26.570  1.00  0.00     0.275 C 
BRANCH  20  21
ATOM     21  O   UNL A   1      32.570  32.095  27.315  1.00  0.00    -0.458 OA
BRANCH  21  22
ATOM     22  C   UNL A   1      33.320  33.101  27.820  1.00  0.00     0.338 C 
ATOM     23  O   UNL A   1      32.971  34.247  28.038  1.00  0.00    -0.246 OA
BRANCH  22  24
ATOM     24  C   UNL A   1      34.654  32.586  28.159  1.00  0.00     0.060 A 
ATOM     25  C   UNL A   1      34.761  31.253  28.535  1.00  0.00     0.016 A 
ATOM     26  C   UNL A   1      35.764  33.428  28.221  1.00  0.00     0.016 A 
ATOM     27  C   UNL A   1      35.959  30.775  29.058  1.00  0.00     0.010 A 
ATOM     28  C   UNL A   1      36.989  32.924  28.687  1.00  0.00     0.010 A 
ATOM     29  C   UNL A   1      37.089  31.603  29.156  1.00  0.00    -0.014 A 
BRANCH  29  30
ATOM     30  C   UNL A   1      38.325  31.066  29.800  1.00  0.00     0.031 A 
ATOM     31  C   UNL A   1      38.707  31.467  31.206  1.00  0.00     0.074 A 
ATOM     32  C   UNL A   1      39.041  30.104  29.181  1.00  0.00     0.049 A 
ATOM     33  N   UNL A   1      39.666  30.991  31.962  1.00  0.00    -0.248 NA
ATOM     34  C   UNL A   1      37.893  32.503  31.862  1.00  0.00     0.031 C 
ATOM     35  C   UNL A   1      38.776  29.592  27.836  1.00  0.00     0.029 A 
ATOM     36  N   UNL A   1      40.121  29.368  29.609  1.00  0.00    -0.354 N 
ATOM     37  C   UNL A   1      39.550  31.641  33.185  1.00  0.00     0.074 A 
ATOM     38  C   UNL A   1      38.471  32.595  33.052  1.00  0.00     0.031 C 
ATOM     39  C   UNL A   1      39.649  28.612  27.558  1.00  0.00     0.029 A 
ATOM     40  C   UNL A   1      40.572  28.459  28.679  1.00  0.00     0.049 A 
ATOM     41  H   UNL A   1      40.532  29.480  30.497  1.00  0.00     0.167 HD
ATOM     42  C   UNL A   1      40.222  31.416  34.339  1.00  0.00     0.034 A 
ATOM     43  C   UNL A   1      41.623  27.614  28.704  1.00  0.00     0.034 A 
ATOM     44  C   UNL A   1      41.275  30.451  34.506  1.00  0.00     0.049 A 
ATOM     45  C   UNL A   1      42.482  27.536  29.933  1.00  0.00     0.074 A 
ATOM     46  C   UNL A   1      41.978  30.138  35.657  1.00  0.00     0.029 A 
ATOM     47  N   UNL A   1      41.790  29.656  33.496  1.00  0.00    -0.354 N 
ATOM     48  N   UNL A   1      42.292  28.084  31.108  1.00  0.00    -0.248 NA
ATOM     49  C   UNL A   1      43.701  26.714  29.845  1.00  0.00     0.031 C 
ATOM     50  C   UNL A   1      42.933  29.166  35.338  1.00  0.00     0.029 A 
ATOM     51  C   UNL A   1      42.824  28.876  33.988  1.00  0.00     0.049 A 
ATOM     52  H   UNL A   1      41.467  29.645  32.566  1.00  0.00     0.167 HD
ATOM     53  C   UNL A   1      43.353  27.665  31.901  1.00  0.00     0.074 A 
ATOM     54  C   UNL A   1      44.171  26.794  31.083  1.00  0.00     0.031 C 
ATOM     55  C   UNL A   1      43.630  27.991  33.188  1.00  0.00     0.034 A 
BRANCH  42  56
ATOM     56  C   UNL A   1      39.767  32.165  35.560  1.00  0.00     0.023 A 
ATOM     57  C   UNL A   1      40.218  33.488  35.745  1.00  0.00     0.012 A 
ATOM     58  C   UNL A   1      38.857  31.608  36.475  1.00  0.00     0.148 A 
ATOM     59  C   UNL A   1      39.779  34.243  36.831  1.00  0.00     0.002 A 
ATOM     60  C   UNL A   1      38.405  32.374  37.544  1.00  0.00     0.091 A 
ATOM     61  F   UNL A   1      38.463  30.339  36.294  1.00  0.00    -0.205 F 
ATOM     62  C   UNL A   1      38.866  33.690  37.724  1.00  0.00     0.022 A 
BRANCH  60  63
ATOM     63  S   UNL A   1      37.198  31.762  38.724  1.00  0.00     0.127 S 
ATOM     64  O   UNL A   1      37.058  30.369  38.305  1.00  0.00    -0.237 OA
ATOM     65  O   UNL A   1      37.885  31.947  40.002  1.00  0.00    -0.237 OA
ATOM     66  O   UNL A   1      36.015  32.594  38.548  1.00  0.00    -0.744 OA
ENDBRANCH  60  63
ENDBRANCH  42  56
BRANCH  43  67
ATOM     67  C   UNL A   1      41.923  26.776  27.508  1.00  0.00     0.023 A 
ATOM     68  C   UNL A   1      42.582  27.339  26.399  1.00  0.00     0.012 A 
ATOM     69  C   UNL A   1      41.587  25.407  27.483  1.00  0.00     0.148 A 
ATOM     70  C   UNL A   1      42.893  26.554  25.286  1.00  0.00     0.002 A 
ATOM     71  C   UNL A   1      41.961  24.619  26.403  1.00  0.00     0.091 A 
ATOM     72  F   UNL A   1      40.915  24.895  28.524  1.00  0.00    -0.205 F 
ATOM     73  C   UNL A   1      42.601  25.192  25.296  1.00  0.00     0.022 A 
BRANCH  71  74
ATOM     74  S   UNL A   1      41.753  22.835  26.437  1.00  0.00     0.127 S 
ATOM     75  O   UNL A   1      42.407  22.479  27.693  1.00  0.00    -0.237 OA
ATOM     76  O   UNL A   1      40.297  22.688  26.436  1.00  0.00    -0.237 OA
ATOM     77  O   UNL A   1      42.396  22.358  25.219  1.00  0.00    -0.744 OA
ENDBRANCH  71  74
ENDBRANCH  43  67
BRANCH  55  78
ATOM     78  C   UNL A   1      44.886  27.429  33.798  1.00  0.00     0.023 A 
ATOM     79  C   UNL A   1      46.068  28.196  33.761  1.00  0.00     0.012 A 
ATOM     80  C   UNL A   1      44.890  26.189  34.467  1.00  0.00     0.148 A 
ATOM     81  C   UNL A   1      47.239  27.730  34.358  1.00  0.00     0.002 A 
ATOM     82  C   UNL A   1      46.051  25.749  35.097  1.00  0.00     0.091 A 
ATOM     83  F   UNL A   1      43.765  25.460  34.473  1.00  0.00    -0.205 F 
ATOM     84  C   UNL A   1      47.227  26.513  35.036  1.00  0.00     0.022 A 
BRANCH  82  85
ATOM     85  S   UNL A   1      46.094  24.237  36.066  1.00  0.00     0.127 S 
ATOM     86  O   UNL A   1      46.394  23.234  35.046  1.00  0.00    -0.237 OA
ATOM     87  O   UNL A   1      47.186  24.495  37.008  1.00  0.00    -0.237 OA
ATOM     88  O   UNL A   1      44.781  24.132  36.689  1.00  0.00    -0.744 OA
ENDBRANCH  82  85
ENDBRANCH  55  78
ENDBRANCH  29  30
ENDBRANCH  22  24
ENDBRANCH  21  22
ENDBRANCH  20  21
ENDBRANCH   1  20
TORSDOF 17
ENDMDL
MODEL 2
REMARK VINA RESULT:     -11.5      5.607     10.794
REMARK SMILES C[C@@H](C(=O)OCCOC(=O)c1ccc(-c2c3nc(c(-c4cccc(S(=O)(=O)[O-])c4F)c4ccc([nH]4)c(-c4cccc(S(=O)(=O)[O-])c4F)c4nc(c(-c5cccc(S(=O)(=O)[O-])c5F)c5ccc2[nH]5)C=C4)C=C3)cc1)c1ccc(OC2CCCC2)cc1F
REMARK SMILES IDX 6 1 5 2 3 3 4 4 2 5 1 6 74 7 75 8 85 9 76 10 84 11 86 12
REMARK SMILES IDX 77 13 78 14 79 15 80 16 83 17 81 18 82 19 7 20 8 21 9 22
REMARK SMILES IDX 10 23 11 24 12 25 73 26 13 27 72 28 14 29 15 30 16 31 66 32
REMARK SMILES IDX 17 33 71 34 65 35 67 36 18 37 70 38 64 39 63 40 19 42 51 43
REMARK SMILES IDX 31 44 50 45 32 46 35 47 49 48 68 49 33 50 34 51 48 53 69 54
REMARK SMILES IDX 36 55 20 56 21 57 29 58 22 59 24 60 30 61 23 62 25 63 26 64
REMARK SMILES IDX 27 65 28 66 52 67 53 68 61 69 54 70 56 71 62 72 55 73 57 74
REMARK SMILES IDX 58 75 59 76 60 77 37 78 38 79 46 80 39 81 41 82 47 83 40 84
REMARK SMILES IDX 42 85 43 86 44 87 45 88
REMARK H PARENT 67 41 35 52
REMARK Flexibility Score: inf
ROOT
ATOM      1  C   UNL A   1      37.861  21.337  25.581  1.00  0.00     0.274 C 
ENDROOT
BRANCH   1   2
ATOM      2  O   UNL A   1      37.441  22.460  24.780  1.00  0.00    -0.462 OA
BRANCH   2   3
ATOM      3  C   UNL A   1      36.722  23.430  25.410  1.00  0.00     0.313 C 
ATOM      4  O   UNL A   1      37.058  23.944  26.471  1.00  0.00    -0.252 OA
BRANCH   3   5
ATOM      5  C   UNL A   1      35.394  23.742  24.702  1.00  0.00     0.129 C 
ATOM      6  C   UNL A   1      34.737  25.034  25.199  1.00  0.00     0.025 C 
BRANCH   5   7
ATOM      7  C   UNL A   1      34.467  22.531  24.670  1.00  0.00     0.002 A 
ATOM      8  C   UNL A   1      34.443  21.651  25.766  1.00  0.00     0.011 A 
ATOM      9  C   UNL A   1      33.583  22.257  23.620  1.00  0.00     0.130 A 
ATOM     10  C   UNL A   1      33.579  20.549  25.785  1.00  0.00     0.047 A 
ATOM     11  C   UNL A   1      32.720  21.158  23.638  1.00  0.00     0.086 A 
ATOM     12  F   UNL A   1      33.520  23.069  22.556  1.00  0.00    -0.207 F 
ATOM     13  C   UNL A   1      32.712  20.289  24.720  1.00  0.00     0.122 A 
BRANCH  13  14
ATOM     14  O   UNL A   1      31.942  19.180  24.888  1.00  0.00    -0.490 OA
BRANCH  14  15
ATOM     15  C   UNL A   1      32.345  17.863  24.529  1.00  0.00     0.173 C 
ATOM     16  C   UNL A   1      33.289  17.745  23.342  1.00  0.00     0.045 C 
ATOM     17  C   UNL A   1      32.948  17.021  25.645  1.00  0.00     0.045 C 
ATOM     18  C   UNL A   1      34.022  16.423  23.527  1.00  0.00     0.004 C 
ATOM     19  C   UNL A   1      33.685  15.904  24.921  1.00  0.00     0.004 C 
ENDBRANCH  14  15
ENDBRANCH  13  14
ENDBRANCH   5   7
ENDBRANCH   3   5
ENDBRANCH   2   3
ENDBRANCH   1   2
BRANCH   1  20
ATOM     20  C   UNL A   1      39.379  21.311  25.747  1.00  0.00     0.275 C 
BRANCH  20  21
ATOM     21  O   UNL A   1      39.825  19.994  26.114  1.00  0.00    -0.458 OA
BRANCH  21  22
ATOM     22  C   UNL A   1      41.166  19.819  26.131  1.00  0.00     0.338 C 
ATOM     23  O   UNL A   1      41.784  18.805  25.865  1.00  0.00    -0.246 OA
BRANCH  22  24
ATOM     24  C   UNL A   1      41.815  21.098  26.455  1.00  0.00     0.060 A 
ATOM     25  C   UNL A   1      41.879  21.476  27.790  1.00  0.00     0.016 A 
ATOM     26  C   UNL A   1      42.248  21.967  25.454  1.00  0.00     0.016 A 
ATOM     27  C   UNL A   1      42.296  22.760  28.127  1.00  0.00     0.010 A 
ATOM     28  C   UNL A   1      42.731  23.238  25.804  1.00  0.00     0.010 A 
ATOM     29  C   UNL A   1      42.717  23.668  27.142  1.00  0.00    -0.014 A 
BRANCH  29  30
ATOM     30  C   UNL A   1      43.076  25.059  27.548  1.00  0.00     0.031 A 
ATOM     31  C   UNL A   1      44.446  25.626  27.259  1.00  0.00     0.074 A 
ATOM     32  C   UNL A   1      42.128  25.876  28.055  1.00  0.00     0.049 A 
ATOM     33  N   UNL A   1      44.876  26.854  27.418  1.00  0.00    -0.248 NA
ATOM     34  C   UNL A   1      45.450  24.716  26.685  1.00  0.00     0.031 C 
ATOM     35  C   UNL A   1      40.753  25.481  28.360  1.00  0.00     0.029 A 
ATOM     36  N   UNL A   1      42.169  27.212  28.380  1.00  0.00    -0.354 N 
ATOM     37  C   UNL A   1      46.180  26.871  26.937  1.00  0.00     0.074 A 
ATOM     38  C   UNL A   1      46.498  25.516  26.541  1.00  0.00     0.031 C 
ATOM     39  C   UNL A   1      40.075  26.552  28.803  1.00  0.00     0.029 A 
ATOM     40  C   UNL A   1      40.978  27.698  28.867  1.00  0.00     0.049 A 
ATOM     41  H   UNL A   1      42.975  27.768  28.274  1.00  0.00     0.167 HD
ATOM     42  C   UNL A   1      47.013  27.925  26.764  1.00  0.00     0.034 A 
ATOM     43  C   UNL A   1      40.644  28.917  29.339  1.00  0.00     0.034 A 
ATOM     44  C   UNL A   1      46.708  29.284  27.118  1.00  0.00     0.049 A 
ATOM     45  C   UNL A   1      41.663  30.020  29.326  1.00  0.00     0.074 A 
ATOM     46  C   UNL A   1      47.488  30.414  26.938  1.00  0.00     0.029 A 
ATOM     47  N   UNL A   1      45.542  29.700  27.739  1.00  0.00    -0.354 N 
ATOM     48  N   UNL A   1      42.852  30.038  28.774  1.00  0.00    -0.248 NA
ATOM     49  C   UNL A   1      41.293  31.279  29.993  1.00  0.00     0.031 C 
ATOM     50  C   UNL A   1      46.801  31.512  27.468  1.00  0.00     0.029 A 
ATOM     51  C   UNL A   1      45.594  31.064  27.979  1.00  0.00     0.049 A 
ATOM     52  H   UNL A   1      44.787  29.113  27.973  1.00  0.00     0.167 HD
ATOM     53  C   UNL A   1      43.365  31.307  29.014  1.00  0.00     0.074 A 
ATOM     54  C   UNL A   1      42.348  32.041  29.738  1.00  0.00     0.031 C 
ATOM     55  C   UNL A   1      44.579  31.807  28.678  1.00  0.00     0.034 A 
BRANCH  42  56
ATOM     56  C   UNL A   1      48.317  27.665  26.063  1.00  0.00     0.023 A 
ATOM     57  C   UNL A   1      49.444  27.326  26.839  1.00  0.00     0.012 A 
ATOM     58  C   UNL A   1      48.420  27.684  24.661  1.00  0.00     0.148 A 
ATOM     59  C   UNL A   1      50.660  27.021  26.231  1.00  0.00     0.002 A 
ATOM     60  C   UNL A   1      49.631  27.357  24.059  1.00  0.00     0.091 A 
ATOM     61  F   UNL A   1      47.343  28.035  23.945  1.00  0.00    -0.205 F 
ATOM     62  C   UNL A   1      50.750  27.027  24.842  1.00  0.00     0.022 A 
BRANCH  60  63
ATOM     63  S   UNL A   1      49.833  27.297  22.276  1.00  0.00     0.127 S 
ATOM     64  O   UNL A   1      48.807  26.328  21.897  1.00  0.00    -0.237 OA
ATOM     65  O   UNL A   1      49.543  28.677  21.881  1.00  0.00    -0.237 OA
ATOM     66  O   UNL A   1      51.209  26.880  22.047  1.00  0.00    -0.744 OA
ENDBRANCH  60  63
ENDBRANCH  42  56
BRANCH  43  67
ATOM     67  C   UNL A   1      39.273  29.149  29.875  1.00  0.00     0.023 A 
ATOM     68  C   UNL A   1      38.937  28.708  31.169  1.00  0.00     0.012 A 
ATOM     69  C   UNL A   1      38.309  29.844  29.116  1.00  0.00     0.148 A 
ATOM     70  C   UNL A   1      37.664  28.948  31.691  1.00  0.00     0.002 A 
ATOM     71  C   UNL A   1      37.070  30.138  29.668  1.00  0.00     0.091 A 
ATOM     72  F   UNL A   1      38.626  30.215  27.867  1.00  0.00    -0.205 F 
ATOM     73  C   UNL A   1      36.737  29.679  30.950  1.00  0.00     0.022 A 
BRANCH  71  74
ATOM     74  S   UNL A   1      35.905  31.213  28.821  1.00  0.00     0.127 S 
ATOM     75  O   UNL A   1      36.780  32.264  28.310  1.00  0.00    -0.237 OA
ATOM     76  O   UNL A   1      35.345  30.326  27.800  1.00  0.00    -0.237 OA
ATOM     77  O   UNL A   1      34.948  31.612  29.845  1.00  0.00    -0.744 OA
ENDBRANCH  71  74
ENDBRANCH  43  67
BRANCH  55  78
ATOM     78  C   UNL A   1      44.901  33.214  29.109  1.00  0.00     0.023 A 
ATOM     79  C   UNL A   1      45.472  33.427  30.380  1.00  0.00     0.012 A 
ATOM     80  C   UNL A   1      44.710  34.311  28.246  1.00  0.00     0.148 A 
ATOM     81  C   UNL A   1      45.827  34.710  30.794  1.00  0.00     0.002 A 
ATOM     82  C   UNL A   1      45.106  35.583  28.649  1.00  0.00     0.091 A 
ATOM     83  F   UNL A   1      44.143  34.095  27.050  1.00  0.00    -0.205 F 
ATOM     84  C   UNL A   1      45.656  35.786  29.925  1.00  0.00     0.022 A 
BRANCH  82  85
ATOM     85  S   UNL A   1      45.002  37.005  27.556  1.00  0.00     0.127 S 
ATOM     86  O   UNL A   1      45.479  38.083  28.420  1.00  0.00    -0.237 OA
ATOM     87  O   UNL A   1      45.919  36.641  26.474  1.00  0.00    -0.237 OA
ATOM     88  O   UNL A   1      43.605  37.089  27.152  1.00  0.00    -0.744 OA
ENDBRANCH  82  85
ENDBRANCH  55  78
ENDBRANCH  29  30
ENDBRANCH  22  24
ENDBRANCH  21  22
ENDBRANCH  20  21
ENDBRANCH   1  20
TORSDOF 17
ENDMDL
MODEL 3
REMARK VINA RESULT:     -11.4      5.185     10.525
REMARK SMILES C[C@@H](C(=O)OCCOC(=O)c1ccc(-c2c3nc(c(-c4cccc(S(=O)(=O)[O-])c4F)c4ccc([nH]4)c(-c4cccc(S(=O)(=O)[O-])c4F)c4nc(c(-c5cccc(S(=O)(=O)[O-])c5F)c5ccc2[nH]5)C=C4)C=C3)cc1)c1ccc(OC2CCCC2)cc1F
REMARK SMILES IDX 6 1 5 2 3 3 4 4 2 5 1 6 74 7 75 8 85 9 76 10 84 11 86 12
REMARK SMILES IDX 77 13 78 14 79 15 80 16 83 17 81 18 82 19 7 20 8 21 9 22
REMARK SMILES IDX 10 23 11 24 12 25 73 26 13 27 72 28 14 29 15 30 16 31 66 32
REMARK SMILES IDX 17 33 71 34 65 35 67 36 18 37 70 38 64 39 63 40 19 42 51 43
REMARK SMILES IDX 31 44 50 45 32 46 35 47 49 48 68 49 33 50 34 51 48 53 69 54
REMARK SMILES IDX 36 55 20 56 21 57 29 58 22 59 24 60 30 61 23 62 25 63 26 64
REMARK SMILES IDX 27 65 28 66 52 67 53 68 61 69 54 70 56 71 62 72 55 73 57 74
REMARK SMILES IDX 58 75 59 76 60 77 37 78 38 79 46 80 39 81 41 82 47 83 40 84
REMARK SMILES IDX 42 85 43 86 44 87 45 88
REMARK H PARENT 67 41 35 52
REMARK Flexibility Score: inf
ROOT
ATOM      1  C   UNL A   1      35.814  21.333  25.607  1.00  0.00     0.274 C 
ENDROOT
BRANCH   1   2
ATOM      2  O   UNL A   1      34.497  20.858  25.263  1.00  0.00    -0.462 OA
BRANCH   2   3
ATOM      3  C   UNL A   1      33.470  21.744  25.392  1.00  0.00     0.313 C 
ATOM      4  O   UNL A   1      32.537  21.823  24.601  1.00  0.00    -0.252 OA
BRANCH   3   5
ATOM      5  C   UNL A   1      33.655  22.702  26.579  1.00  0.00     0.129 C 
ATOM      6  C   UNL A   1      32.929  22.238  27.846  1.00  0.00     0.025 C 
BRANCH   5   7
ATOM      7  C   UNL A   1      33.385  24.152  26.188  1.00  0.00     0.002 A 
ATOM      8  C   UNL A   1      32.166  24.749  26.555  1.00  0.00     0.011 A 
ATOM      9  C   UNL A   1      34.309  24.961  25.518  1.00  0.00     0.130 A 
ATOM     10  C   UNL A   1      31.899  26.088  26.243  1.00  0.00     0.047 A 
ATOM     11  C   UNL A   1      34.044  26.298  25.207  1.00  0.00     0.086 A 
ATOM     12  F   UNL A   1      35.509  24.476  25.168  1.00  0.00    -0.207 F 
ATOM     13  C   UNL A   1      32.833  26.875  25.563  1.00  0.00     0.122 A 
BRANCH  13  14
ATOM     14  O   UNL A   1      32.423  28.151  25.331  1.00  0.00    -0.490 OA
BRANCH  14  15
ATOM     15  C   UNL A   1      31.796  28.585  24.129  1.00  0.00     0.173 C 
ATOM     16  C   UNL A   1      31.320  27.494  23.183  1.00  0.00     0.045 C 
ATOM     17  C   UNL A   1      30.632  29.553  24.294  1.00  0.00     0.045 C 
ATOM     18  C   UNL A   1      30.213  28.125  22.349  1.00  0.00     0.004 C 
ATOM     19  C   UNL A   1      29.889  29.481  22.968  1.00  0.00     0.004 C 
ENDBRANCH  14  15
ENDBRANCH  13  14
ENDBRANCH   5   7
ENDBRANCH   3   5
ENDBRANCH   2   3
ENDBRANCH   1   2
BRANCH   1  20
ATOM     20  C   UNL A   1      36.898  20.429  25.027  1.00  0.00     0.275 C 
BRANCH  20  21
ATOM     21  O   UNL A   1      38.142  21.143  24.911  1.00  0.00    -0.458 OA
BRANCH  21  22
ATOM     22  C   UNL A   1      39.101  20.785  25.795  1.00  0.00     0.338 C 
ATOM     23  O   UNL A   1      39.564  19.673  25.976  1.00  0.00    -0.246 OA
BRANCH  22  24
ATOM     24  C   UNL A   1      39.589  21.985  26.490  1.00  0.00     0.060 A 
ATOM     25  C   UNL A   1      39.065  23.214  26.113  1.00  0.00     0.016 A 
ATOM     26  C   UNL A   1      40.631  21.915  27.415  1.00  0.00     0.016 A 
ATOM     27  C   UNL A   1      39.638  24.388  26.592  1.00  0.00     0.010 A 
ATOM     28  C   UNL A   1      41.162  23.101  27.947  1.00  0.00     0.010 A 
ATOM     29  C   UNL A   1      40.704  24.354  27.507  1.00  0.00    -0.014 A 
BRANCH  29  30
ATOM     30  C   UNL A   1      41.336  25.640  27.927  1.00  0.00     0.031 A 
ATOM     31  C   UNL A   1      42.772  25.952  27.578  1.00  0.00     0.074 A 
ATOM     32  C   UNL A   1      40.584  26.600  28.506  1.00  0.00     0.049 A 
ATOM     33  N   UNL A   1      43.432  27.072  27.744  1.00  0.00    -0.248 NA
ATOM     34  C   UNL A   1      43.559  24.891  26.927  1.00  0.00     0.031 C 
ATOM     35  C   UNL A   1      39.176  26.457  28.876  1.00  0.00     0.029 A 
ATOM     36  N   UNL A   1      40.891  27.893  28.861  1.00  0.00    -0.354 N 
ATOM     37  C   UNL A   1      44.691  26.863  27.192  1.00  0.00     0.074 A 
ATOM     38  C   UNL A   1      44.730  25.488  26.746  1.00  0.00     0.031 C 
ATOM     39  C   UNL A   1      38.734  27.619  29.381  1.00  0.00     0.029 A 
ATOM     40  C   UNL A   1      39.837  28.575  29.425  1.00  0.00     0.049 A 
ATOM     41  H   UNL A   1      41.781  28.293  28.725  1.00  0.00     0.167 HD
ATOM     42  C   UNL A   1      45.697  27.749  27.000  1.00  0.00     0.034 A 
ATOM     43  C   UNL A   1      39.762  29.817  29.944  1.00  0.00     0.034 A 
ATOM     44  C   UNL A   1      45.670  29.128  27.404  1.00  0.00     0.049 A 
ATOM     45  C   UNL A   1      40.967  30.712  29.902  1.00  0.00     0.074 A 
ATOM     46  C   UNL A   1      46.638  30.099  27.209  1.00  0.00     0.029 A 
ATOM     47  N   UNL A   1      44.635  29.732  28.098  1.00  0.00    -0.354 N 
ATOM     48  N   UNL A   1      42.109  30.528  29.287  1.00  0.00    -0.248 NA
ATOM     49  C   UNL A   1      40.872  31.994  30.620  1.00  0.00     0.031 C 
ATOM     50  C   UNL A   1      46.196  31.287  27.803  1.00  0.00     0.029 A 
ATOM     51  C   UNL A   1      44.953  31.053  28.368  1.00  0.00     0.049 A 
ATOM     52  H   UNL A   1      43.796  29.288  28.358  1.00  0.00     0.167 HD
ATOM     53  C   UNL A   1      42.862  31.671  29.530  1.00  0.00     0.074 A 
ATOM     54  C   UNL A   1      42.038  32.556  30.326  1.00  0.00     0.031 C 
ATOM     55  C   UNL A   1      44.131  31.948  29.140  1.00  0.00     0.034 A 
BRANCH  42  56
ATOM     56  C   UNL A   1      46.893  27.276  26.222  1.00  0.00     0.023 A 
ATOM     57  C   UNL A   1      47.804  26.403  26.851  1.00  0.00     0.012 A 
ATOM     58  C   UNL A   1      47.084  27.626  24.874  1.00  0.00     0.148 A 
ATOM     59  C   UNL A   1      48.896  25.892  26.153  1.00  0.00     0.002 A 
ATOM     60  C   UNL A   1      48.165  27.095  24.176  1.00  0.00     0.091 A 
ATOM     61  F   UNL A   1      46.221  28.478  24.305  1.00  0.00    -0.205 F 
ATOM     62  C   UNL A   1      49.071  26.231  24.814  1.00  0.00     0.022 A 
BRANCH  60  63
ATOM     63  S   UNL A   1      48.449  27.440  22.437  1.00  0.00     0.127 S 
ATOM     64  O   UNL A   1      48.459  26.094  21.869  1.00  0.00    -0.237 OA
ATOM     65  O   UNL A   1      47.278  28.243  22.081  1.00  0.00    -0.237 OA
ATOM     66  O   UNL A   1      49.714  28.159  22.377  1.00  0.00    -0.744 OA
ENDBRANCH  60  63
ENDBRANCH  42  56
BRANCH  43  67
ATOM     67  C   UNL A   1      38.486  30.282  30.560  1.00  0.00     0.023 A 
ATOM     68  C   UNL A   1      38.272  30.126  31.943  1.00  0.00     0.012 A 
ATOM     69  C   UNL A   1      37.497  30.914  29.781  1.00  0.00     0.148 A 
ATOM     70  C   UNL A   1      37.093  30.585  32.534  1.00  0.00     0.002 A 
ATOM     71  C   UNL A   1      36.358  31.429  30.388  1.00  0.00     0.091 A 
ATOM     72  F   UNL A   1      37.690  31.012  28.458  1.00  0.00    -0.205 F 
ATOM     73  C   UNL A   1      36.146  31.254  31.761  1.00  0.00     0.022 A 
BRANCH  71  74
ATOM     74  S   UNL A   1      35.189  32.437  29.467  1.00  0.00     0.127 S 
ATOM     75  O   UNL A   1      34.204  32.769  30.492  1.00  0.00    -0.237 OA
ATOM     76  O   UNL A   1      36.021  33.557  29.024  1.00  0.00    -0.237 OA
ATOM     77  O   UNL A   1      34.727  31.580  28.382  1.00  0.00    -0.744 OA
ENDBRANCH  71  74
ENDBRANCH  43  67
BRANCH  55  78
ATOM     78  C   UNL A   1      44.731  33.254  29.587  1.00  0.00     0.023 A 
ATOM     79  C   UNL A   1      45.437  33.302  30.807  1.00  0.00     0.012 A 
ATOM     80  C   UNL A   1      44.664  34.410  28.784  1.00  0.00     0.148 A 
ATOM     81  C   UNL A   1      46.047  34.482  31.230  1.00  0.00     0.002 A 
ATOM     82  C   UNL A   1      45.311  35.573  29.192  1.00  0.00     0.091 A 
ATOM     83  F   UNL A   1      43.968  34.355  27.638  1.00  0.00    -0.205 F 
ATOM     84  C   UNL A   1      45.995  35.613  30.418  1.00  0.00     0.022 A 
BRANCH  82  85
ATOM     85  S   UNL A   1      45.368  37.044  28.163  1.00  0.00     0.127 S 
ATOM     86  O   UNL A   1      46.031  36.543  26.960  1.00  0.00    -0.237 OA
ATOM     87  O   UNL A   1      43.949  37.364  27.988  1.00  0.00    -0.237 OA
ATOM     88  O   UNL A   1      46.113  38.032  28.931  1.00  0.00    -0.744 OA
ENDBRANCH  82  85
ENDBRANCH  55  78
ENDBRANCH  29  30
ENDBRANCH  22  24
ENDBRANCH  21  22
ENDBRANCH  20  21
ENDBRANCH   1  20
TORSDOF 17
ENDMDL
