MODEL 1
REMARK VINA RESULT:     -12.7      0.000      0.000
REMARK SMILES Cc1cc(=O)c(Oc2ccc(C(=O)OCCOC(=O)c3ccc(-c4c5nc(c(-c6cccc(S(=O)(=O)[O-])c6F)c6ccc([nH]6)c(-c6cccc(S(=O)(=O)[O-])c6F)c6nc(c(-c7cccc(S(=O)(=O)[O-])c7F)c7ccc4[nH]7)C=C6)C=C5)cc3)cc2)c(-c2ccc(S(C)(=O)=O)cc2)o1
REMARK SMILES IDX 15 1 14 2 12 3 13 4 11 5 8 6 9 7 84 8 10 9 83 10 7 11 6 12
REMARK SMILES IDX 1 13 2 14 3 15 96 16 4 17 85 18 5 19 86 20 87 21 95 22 88 23
REMARK SMILES IDX 94 24 89 25 90 26 91 27 92 28 93 29 16 30 17 31 18 32 19 33
REMARK SMILES IDX 20 34 21 35 82 36 22 37 81 38 23 39 24 40 25 41 75 42 26 43
REMARK SMILES IDX 80 44 74 45 76 46 27 47 79 48 73 49 72 50 28 52 60 53 40 54
REMARK SMILES IDX 59 55 41 56 44 57 58 58 77 59 42 60 43 61 57 63 78 64 45 65
REMARK SMILES IDX 29 66 30 67 38 68 31 69 33 70 39 71 32 72 34 73 35 74 36 75
REMARK SMILES IDX 37 76 61 77 62 78 70 79 63 80 65 81 71 82 64 83 66 84 67 85
REMARK SMILES IDX 68 86 69 87 46 88 47 89 55 90 48 91 50 92 56 93 49 94 51 95
REMARK SMILES IDX 52 96 53 97 54 98
REMARK H PARENT 76 51 44 62
REMARK Flexibility Score: inf
ROOT
ATOM      1  C   UNL A   1      33.737  32.128  27.627  1.00  0.00     0.275 C 
ENDROOT
BRANCH   1   2
ATOM      2  O   UNL A   1      33.123  30.837  27.441  1.00  0.00    -0.458 OA
BRANCH   2   3
ATOM      3  C   UNL A   1      33.946  29.818  27.078  1.00  0.00     0.338 C 
ATOM      4  O   UNL A   1      35.168  29.845  27.087  1.00  0.00    -0.246 OA
BRANCH   3   5
ATOM      5  C   UNL A   1      33.154  28.583  26.816  1.00  0.00     0.060 A 
ATOM      6  C   UNL A   1      31.871  26.106  26.643  1.00  0.00     0.127 A 
ATOM      7  C   UNL A   1      33.173  26.232  26.171  1.00  0.00     0.048 A 
ATOM      8  C   UNL A   1      31.174  27.230  27.095  1.00  0.00     0.048 A 
ATOM      9  C   UNL A   1      33.804  27.481  26.238  1.00  0.00     0.019 A 
ATOM     10  C   UNL A   1      31.819  28.462  27.211  1.00  0.00     0.019 A 
BRANCH   6  11
ATOM     11  O   UNL A   1      31.161  24.939  26.596  1.00  0.00    -0.449 OA
BRANCH  11  12
ATOM     12  C   UNL A   1      31.187  24.087  25.503  1.00  0.00     0.217 A 
ATOM     13  C   UNL A   1      32.108  21.492  22.175  1.00  0.00     0.088 C 
ATOM     14  C   UNL A   1      31.794  22.276  23.411  1.00  0.00     0.105 A 
ATOM     15  C   UNL A   1      32.245  21.938  24.620  1.00  0.00     0.098 A 
ATOM     16  O   UNL A   1      31.002  23.383  23.202  1.00  0.00    -0.457 OA
ATOM     17  C   UNL A   1      31.929  22.810  25.762  1.00  0.00     0.228 A 
ATOM     18  C   UNL A   1      30.783  24.303  24.226  1.00  0.00     0.180 A 
ATOM     19  O   UNL A   1      32.327  22.498  26.883  1.00  0.00    -0.285 OA
BRANCH  18  20
ATOM     20  C   UNL A   1      30.163  25.517  23.655  1.00  0.00     0.021 A 
ATOM     21  C   UNL A   1      30.941  26.385  22.867  1.00  0.00     0.013 A 
ATOM     22  C   UNL A   1      28.883  25.932  24.042  1.00  0.00     0.013 A 
ATOM     23  C   UNL A   1      30.469  27.651  22.501  1.00  0.00     0.021 A 
ATOM     24  C   UNL A   1      28.397  27.189  23.668  1.00  0.00     0.021 A 
ATOM     25  C   UNL A   1      29.201  28.058  22.920  1.00  0.00     0.067 A 
BRANCH  25  26
ATOM     26  S   UNL A   1      28.617  29.712  22.617  1.00  0.00     0.175 S 
ATOM     27  C   UNL A   1      29.481  30.745  23.765  1.00  0.00     0.163 C 
ATOM     28  O   UNL A   1      29.019  30.121  21.286  1.00  0.00    -0.224 OA
ATOM     29  O   UNL A   1      27.215  29.751  22.999  1.00  0.00    -0.224 OA
ENDBRANCH  25  26
ENDBRANCH  18  20
ENDBRANCH  11  12
ENDBRANCH   6  11
ENDBRANCH   3   5
ENDBRANCH   2   3
ENDBRANCH   1   2
BRANCH   1  30
ATOM     30  C   UNL A   1      32.716  33.272  27.534  1.00  0.00     0.275 C 
BRANCH  30  31
ATOM     31  O   UNL A   1      33.302  34.577  27.711  1.00  0.00    -0.458 OA
BRANCH  31  32
ATOM     32  C   UNL A   1      33.390  34.965  29.004  1.00  0.00     0.338 C 
ATOM     33  O   UNL A   1      32.580  35.641  29.617  1.00  0.00    -0.246 OA
BRANCH  32  34
ATOM     34  C   UNL A   1      34.589  34.419  29.661  1.00  0.00     0.060 A 
ATOM     35  C   UNL A   1      35.871  34.581  29.127  1.00  0.00     0.016 A 
ATOM     36  C   UNL A   1      34.418  33.848  30.923  1.00  0.00     0.016 A 
ATOM     37  C   UNL A   1      36.980  34.136  29.854  1.00  0.00     0.010 A 
ATOM     38  C   UNL A   1      35.517  33.415  31.650  1.00  0.00     0.010 A 
ATOM     39  C   UNL A   1      36.803  33.530  31.107  1.00  0.00    -0.014 A 
BRANCH  39  40
ATOM     40  C   UNL A   1      37.918  32.864  31.816  1.00  0.00     0.031 A 
ATOM     41  C   UNL A   1      38.589  31.701  31.140  1.00  0.00     0.074 A 
ATOM     42  C   UNL A   1      38.254  33.219  33.068  1.00  0.00     0.049 A 
ATOM     43  N   UNL A   1      39.523  30.909  31.594  1.00  0.00    -0.248 NA
ATOM     44  C   UNL A   1      38.120  31.367  29.783  1.00  0.00     0.031 C 
ATOM     45  C   UNL A   1      37.621  34.284  33.846  1.00  0.00     0.029 A 
ATOM     46  N   UNL A   1      39.198  32.699  33.916  1.00  0.00    -0.354 N 
ATOM     47  C   UNL A   1      39.716  29.955  30.603  1.00  0.00     0.074 A 
ATOM     48  C   UNL A   1      38.797  30.257  29.529  1.00  0.00     0.031 C 
ATOM     49  C   UNL A   1      38.198  34.339  35.059  1.00  0.00     0.029 A 
ATOM     50  C   UNL A   1      39.231  33.309  35.147  1.00  0.00     0.049 A 
ATOM     51  H   UNL A   1      39.796  31.957  33.667  1.00  0.00     0.167 HD
ATOM     52  C   UNL A   1      40.599  28.932  30.577  1.00  0.00     0.034 A 
ATOM     53  C   UNL A   1      40.015  33.067  36.217  1.00  0.00     0.034 A 
ATOM     54  C   UNL A   1      41.556  28.679  31.614  1.00  0.00     0.049 A 
ATOM     55  C   UNL A   1      41.061  31.987  36.129  1.00  0.00     0.074 A 
ATOM     56  C   UNL A   1      42.560  27.729  31.646  1.00  0.00     0.029 A 
ATOM     57  N   UNL A   1      41.629  29.388  32.803  1.00  0.00    -0.354 N 
ATOM     58  N   UNL A   1      41.320  31.174  35.134  1.00  0.00    -0.248 NA
ATOM     59  C   UNL A   1      41.943  31.809  37.293  1.00  0.00     0.031 C 
ATOM     60  C   UNL A   1      43.246  27.868  32.856  1.00  0.00     0.029 A 
ATOM     61  C   UNL A   1      42.669  28.906  33.574  1.00  0.00     0.049 A 
ATOM     62  H   UNL A   1      41.029  30.125  33.060  1.00  0.00     0.167 HD
ATOM     63  C   UNL A   1      42.406  30.406  35.536  1.00  0.00     0.074 A 
ATOM     64  C   UNL A   1      42.765  30.858  36.865  1.00  0.00     0.031 C 
ATOM     65  C   UNL A   1      43.040  29.410  34.872  1.00  0.00     0.034 A 
BRANCH  52  66
ATOM     66  C   UNL A   1      40.605  28.053  29.359  1.00  0.00     0.023 A 
ATOM     67  C   UNL A   1      39.715  26.962  29.293  1.00  0.00     0.012 A 
ATOM     68  C   UNL A   1      41.463  28.318  28.277  1.00  0.00     0.148 A 
ATOM     69  C   UNL A   1      39.701  26.127  28.176  1.00  0.00     0.002 A 
ATOM     70  C   UNL A   1      41.419  27.502  27.152  1.00  0.00     0.091 A 
ATOM     71  F   UNL A   1      42.313  29.351  28.372  1.00  0.00    -0.205 F 
ATOM     72  C   UNL A   1      40.546  26.401  27.104  1.00  0.00     0.022 A 
BRANCH  70  73
ATOM     73  S   UNL A   1      42.428  27.795  25.695  1.00  0.00     0.127 S 
ATOM     74  O   UNL A   1      41.907  29.078  25.227  1.00  0.00    -0.237 OA
ATOM     75  O   UNL A   1      43.774  27.855  26.265  1.00  0.00    -0.237 OA
ATOM     76  O   UNL A   1      42.190  26.666  24.806  1.00  0.00    -0.744 OA
ENDBRANCH  70  73
ENDBRANCH  52  66
BRANCH  53  77
ATOM     77  C   UNL A   1      39.903  33.945  37.414  1.00  0.00     0.023 A 
ATOM     78  C   UNL A   1      40.455  35.239  37.364  1.00  0.00     0.012 A 
ATOM     79  C   UNL A   1      39.181  33.546  38.556  1.00  0.00     0.148 A 
ATOM     80  C   UNL A   1      40.295  36.122  38.432  1.00  0.00     0.002 A 
ATOM     81  C   UNL A   1      38.993  34.444  39.601  1.00  0.00     0.091 A 
ATOM     82  F   UNL A   1      38.660  32.311  38.576  1.00  0.00    -0.205 F 
ATOM     83  C   UNL A   1      39.557  35.728  39.545  1.00  0.00     0.022 A 
BRANCH  81  84
ATOM     84  S   UNL A   1      37.970  34.074  41.031  1.00  0.00     0.127 S 
ATOM     85  O   UNL A   1      38.883  33.292  41.861  1.00  0.00    -0.237 OA
ATOM     86  O   UNL A   1      37.673  35.415  41.534  1.00  0.00    -0.237 OA
ATOM     87  O   UNL A   1      36.817  33.347  40.519  1.00  0.00    -0.744 OA
ENDBRANCH  81  84
ENDBRANCH  53  77
BRANCH  65  88
ATOM     88  C   UNL A   1      44.202  28.734  35.542  1.00  0.00     0.023 A 
ATOM     89  C   UNL A   1      45.494  29.269  35.386  1.00  0.00     0.012 A 
ATOM     90  C   UNL A   1      43.989  27.675  36.447  1.00  0.00     0.148 A 
ATOM     91  C   UNL A   1      46.562  28.757  36.121  1.00  0.00     0.002 A 
ATOM     92  C   UNL A   1      45.051  27.194  37.201  1.00  0.00     0.091 A 
ATOM     93  F   UNL A   1      42.749  27.176  36.566  1.00  0.00    -0.205 F 
ATOM     94  C   UNL A   1      46.339  27.731  37.038  1.00  0.00     0.022 A 
BRANCH  92  95
ATOM     95  S   UNL A   1      44.839  25.938  38.468  1.00  0.00     0.127 S 
ATOM     96  O   UNL A   1      44.028  26.647  39.456  1.00  0.00    -0.237 OA
ATOM     97  O   UNL A   1      44.132  24.880  37.744  1.00  0.00    -0.237 OA
ATOM     98  O   UNL A   1      46.181  25.578  38.905  1.00  0.00    -0.744 OA
ENDBRANCH  92  95
ENDBRANCH  65  88
ENDBRANCH  39  40
ENDBRANCH  32  34
ENDBRANCH  31  32
ENDBRANCH  30  31
ENDBRANCH   1  30
TORSDOF 18
ENDMDL
MODEL 2
REMARK VINA RESULT:     -12.7      0.549      7.536
REMARK SMILES Cc1cc(=O)c(Oc2ccc(C(=O)OCCOC(=O)c3ccc(-c4c5nc(c(-c6cccc(S(=O)(=O)[O-])c6F)c6ccc([nH]6)c(-c6cccc(S(=O)(=O)[O-])c6F)c6nc(c(-c7cccc(S(=O)(=O)[O-])c7F)c7ccc4[nH]7)C=C6)C=C5)cc3)cc2)c(-c2ccc(S(C)(=O)=O)cc2)o1
REMARK SMILES IDX 15 1 14 2 12 3 13 4 11 5 8 6 9 7 84 8 10 9 83 10 7 11 6 12
REMARK SMILES IDX 1 13 2 14 3 15 96 16 4 17 85 18 5 19 86 20 87 21 95 22 88 23
REMARK SMILES IDX 94 24 89 25 90 26 91 27 92 28 93 29 16 30 17 31 18 32 19 33
REMARK SMILES IDX 20 34 21 35 82 36 22 37 81 38 23 39 24 40 25 41 75 42 26 43
REMARK SMILES IDX 80 44 74 45 76 46 27 47 79 48 73 49 72 50 28 52 60 53 40 54
REMARK SMILES IDX 59 55 41 56 44 57 58 58 77 59 42 60 43 61 57 63 78 64 45 65
REMARK SMILES IDX 29 66 30 67 38 68 31 69 33 70 39 71 32 72 34 73 35 74 36 75
REMARK SMILES IDX 37 76 61 77 62 78 70 79 63 80 65 81 71 82 64 83 66 84 67 85
REMARK SMILES IDX 68 86 69 87 46 88 47 89 55 90 48 91 50 92 56 93 49 94 51 95
REMARK SMILES IDX 52 96 53 97 54 98
REMARK H PARENT 76 51 44 62
REMARK Flexibility Score: inf
ROOT
ATOM      1  C   UNL A   1      33.721  32.477  28.182  1.00  0.00     0.275 C 
ENDROOT
BRANCH   1   2
ATOM      2  O   UNL A   1      33.308  31.507  27.199  1.00  0.00    -0.458 OA
BRANCH   2   3
ATOM      3  C   UNL A   1      34.086  30.400  27.071  1.00  0.00     0.338 C 
ATOM      4  O   UNL A   1      35.298  30.354  27.215  1.00  0.00    -0.246 OA
BRANCH   3   5
ATOM      5  C   UNL A   1      33.235  29.190  26.886  1.00  0.00     0.060 A 
ATOM      6  C   UNL A   1      31.851  26.761  26.853  1.00  0.00     0.127 A 
ATOM      7  C   UNL A   1      33.132  26.821  26.316  1.00  0.00     0.048 A 
ATOM      8  C   UNL A   1      31.220  27.926  27.301  1.00  0.00     0.048 A 
ATOM      9  C   UNL A   1      33.814  28.045  26.313  1.00  0.00     0.019 A 
ATOM     10  C   UNL A   1      31.917  29.134  27.347  1.00  0.00     0.019 A 
BRANCH   6  11
ATOM     11  O   UNL A   1      31.095  25.622  26.876  1.00  0.00    -0.449 OA
BRANCH  11  12
ATOM     12  C   UNL A   1      31.136  24.672  25.868  1.00  0.00     0.217 A 
ATOM     13  C   UNL A   1      32.101  21.798  22.793  1.00  0.00     0.088 C 
ATOM     14  C   UNL A   1      31.775  22.687  23.951  1.00  0.00     0.105 A 
ATOM     15  C   UNL A   1      32.240  22.475  25.184  1.00  0.00     0.098 A 
ATOM     16  O   UNL A   1      30.957  23.751  23.645  1.00  0.00    -0.457 OA
ATOM     17  C   UNL A   1      31.908  23.443  26.241  1.00  0.00     0.228 A 
ATOM     18  C   UNL A   1      30.721  24.758  24.580  1.00  0.00     0.180 A 
ATOM     19  O   UNL A   1      32.319  23.247  27.383  1.00  0.00    -0.285 OA
BRANCH  18  20
ATOM     20  C   UNL A   1      30.070  25.899  23.901  1.00  0.00     0.021 A 
ATOM     21  C   UNL A   1      30.866  26.873  23.272  1.00  0.00     0.013 A 
ATOM     22  C   UNL A   1      28.699  26.144  24.043  1.00  0.00     0.013 A 
ATOM     23  C   UNL A   1      30.314  28.079  22.823  1.00  0.00     0.021 A 
ATOM     24  C   UNL A   1      28.137  27.339  23.582  1.00  0.00     0.021 A 
ATOM     25  C   UNL A   1      28.949  28.317  22.997  1.00  0.00     0.067 A 
BRANCH  25  26
ATOM     26  S   UNL A   1      28.229  29.893  22.589  1.00  0.00     0.175 S 
ATOM     27  C   UNL A   1      29.244  31.106  23.383  1.00  0.00     0.163 C 
ATOM     28  O   UNL A   1      28.340  30.110  21.160  1.00  0.00    -0.224 OA
ATOM     29  O   UNL A   1      26.928  29.952  23.236  1.00  0.00    -0.224 OA
ENDBRANCH  25  26
ENDBRANCH  18  20
ENDBRANCH  11  12
ENDBRANCH   6  11
ENDBRANCH   3   5
ENDBRANCH   2   3
ENDBRANCH   1   2
BRANCH   1  30
ATOM     30  C   UNL A   1      33.139  33.870  27.899  1.00  0.00     0.275 C 
BRANCH  30  31
ATOM     31  O   UNL A   1      32.504  34.467  29.046  1.00  0.00    -0.458 OA
BRANCH  31  32
ATOM     32  C   UNL A   1      33.335  35.225  29.798  1.00  0.00     0.338 C 
ATOM     33  O   UNL A   1      33.226  36.419  30.022  1.00  0.00    -0.246 OA
BRANCH  32  34
ATOM     34  C   UNL A   1      34.408  34.423  30.408  1.00  0.00     0.060 A 
ATOM     35  C   UNL A   1      34.153  33.451  31.379  1.00  0.00     0.016 A 
ATOM     36  C   UNL A   1      35.690  34.569  29.877  1.00  0.00     0.016 A 
ATOM     37  C   UNL A   1      35.201  32.645  31.838  1.00  0.00     0.010 A 
ATOM     38  C   UNL A   1      36.729  33.765  30.323  1.00  0.00     0.010 A 
ATOM     39  C   UNL A   1      36.496  32.817  31.328  1.00  0.00    -0.014 A 
BRANCH  39  40
ATOM     40  C   UNL A   1      37.666  32.136  31.924  1.00  0.00     0.031 A 
ATOM     41  C   UNL A   1      38.146  32.606  33.269  1.00  0.00     0.074 A 
ATOM     42  C   UNL A   1      38.344  31.197  31.243  1.00  0.00     0.049 A 
ATOM     43  N   UNL A   1      39.194  32.228  33.951  1.00  0.00    -0.248 NA
ATOM     44  C   UNL A   1      37.356  33.669  33.917  1.00  0.00     0.031 C 
ATOM     45  C   UNL A   1      38.010  30.717  29.902  1.00  0.00     0.029 A 
ATOM     46  N   UNL A   1      39.475  30.497  31.579  1.00  0.00    -0.354 N 
ATOM     47  C   UNL A   1      39.218  33.039  35.078  1.00  0.00     0.074 A 
ATOM     48  C   UNL A   1      38.090  33.937  34.987  1.00  0.00     0.031 C 
ATOM     49  C   UNL A   1      38.918  29.798  29.529  1.00  0.00     0.029 A 
ATOM     50  C   UNL A   1      39.900  29.632  30.599  1.00  0.00     0.049 A 
ATOM     51  H   UNL A   1      39.939  30.605  32.440  1.00  0.00     0.167 HD
ATOM     52  C   UNL A   1      40.088  33.020  36.112  1.00  0.00     0.034 A 
ATOM     53  C   UNL A   1      40.957  28.795  30.577  1.00  0.00     0.034 A 
ATOM     54  C   UNL A   1      41.164  32.080  36.232  1.00  0.00     0.049 A 
ATOM     55  C   UNL A   1      41.857  28.719  31.783  1.00  0.00     0.074 A 
ATOM     56  C   UNL A   1      42.046  31.911  37.282  1.00  0.00     0.029 A 
ATOM     57  N   UNL A   1      41.500  31.146  35.265  1.00  0.00    -0.354 N 
ATOM     58  N   UNL A   1      41.791  29.403  32.900  1.00  0.00    -0.248 NA
ATOM     59  C   UNL A   1      42.952  27.739  31.743  1.00  0.00     0.031 C 
ATOM     60  C   UNL A   1      42.914  30.866  36.952  1.00  0.00     0.029 A 
ATOM     61  C   UNL A   1      42.568  30.386  35.697  1.00  0.00     0.049 A 
ATOM     62  H   UNL A   1      41.043  31.039  34.399  1.00  0.00     0.167 HD
ATOM     63  C   UNL A   1      42.817  28.922  33.706  1.00  0.00     0.074 A 
ATOM     64  C   UNL A   1      43.484  27.880  32.952  1.00  0.00     0.031 C 
ATOM     65  C   UNL A   1      43.180  29.316  34.949  1.00  0.00     0.034 A 
BRANCH  52  66
ATOM     66  C   UNL A   1      39.867  34.010  37.221  1.00  0.00     0.023 A 
ATOM     67  C   UNL A   1      40.302  35.340  37.053  1.00  0.00     0.012 A 
ATOM     68  C   UNL A   1      39.211  33.636  38.408  1.00  0.00     0.148 A 
ATOM     69  C   UNL A   1      40.113  36.279  38.066  1.00  0.00     0.002 A 
ATOM     70  C   UNL A   1      38.995  34.586  39.399  1.00  0.00     0.091 A 
ATOM     71  F   UNL A   1      38.824  32.360  38.550  1.00  0.00    -0.205 F 
ATOM     72  C   UNL A   1      39.454  35.904  39.234  1.00  0.00     0.022 A 
BRANCH  70  73
ATOM     73  S   UNL A   1      38.113  34.224  40.921  1.00  0.00     0.127 S 
ATOM     74  O   UNL A   1      39.124  33.490  41.681  1.00  0.00    -0.237 OA
ATOM     75  O   UNL A   1      37.822  35.564  41.429  1.00  0.00    -0.237 OA
ATOM     76  O   UNL A   1      36.943  33.448  40.535  1.00  0.00    -0.744 OA
ENDBRANCH  70  73
ENDBRANCH  52  66
BRANCH  53  77
ATOM     77  C   UNL A   1      41.144  27.890  29.410  1.00  0.00     0.023 A 
ATOM     78  C   UNL A   1      40.490  26.644  29.403  1.00  0.00     0.012 A 
ATOM     79  C   UNL A   1      41.882  28.289  28.278  1.00  0.00     0.148 A 
ATOM     80  C   UNL A   1      40.569  25.805  28.291  1.00  0.00     0.002 A 
ATOM     81  C   UNL A   1      41.926  27.465  27.159  1.00  0.00     0.091 A 
ATOM     82  F   UNL A   1      42.490  29.483  28.308  1.00  0.00    -0.205 F 
ATOM     83  C   UNL A   1      41.279  26.219  27.167  1.00  0.00     0.022 A 
BRANCH  81  84
ATOM     84  S   UNL A   1      42.720  27.951  25.622  1.00  0.00     0.127 S 
ATOM     85  O   UNL A   1      42.616  26.729  24.829  1.00  0.00    -0.237 OA
ATOM     86  O   UNL A   1      41.858  29.048  25.181  1.00  0.00    -0.237 OA
ATOM     87  O   UNL A   1      44.074  28.347  25.981  1.00  0.00    -0.744 OA
ENDBRANCH  81  84
ENDBRANCH  53  77
BRANCH  65  88
ATOM     88  C   UNL A   1      44.340  28.623  35.605  1.00  0.00     0.023 A 
ATOM     89  C   UNL A   1      45.645  29.097  35.377  1.00  0.00     0.012 A 
ATOM     90  C   UNL A   1      44.121  27.612  36.562  1.00  0.00     0.148 A 
ATOM     91  C   UNL A   1      46.720  28.573  36.095  1.00  0.00     0.002 A 
ATOM     92  C   UNL A   1      45.192  27.121  37.297  1.00  0.00     0.091 A 
ATOM     93  F   UNL A   1      42.868  27.170  36.750  1.00  0.00    -0.205 F 
ATOM     94  C   UNL A   1      46.493  27.597  37.063  1.00  0.00     0.022 A 
BRANCH  92  95
ATOM     95  S   UNL A   1      44.980  25.929  38.626  1.00  0.00     0.127 S 
ATOM     96  O   UNL A   1      44.443  24.775  37.907  1.00  0.00    -0.237 OA
ATOM     97  O   UNL A   1      46.349  25.760  39.115  1.00  0.00    -0.237 OA
ATOM     98  O   UNL A   1      44.070  26.549  39.579  1.00  0.00    -0.744 OA
ENDBRANCH  92  95
ENDBRANCH  65  88
ENDBRANCH  39  40
ENDBRANCH  32  34
ENDBRANCH  31  32
ENDBRANCH  30  31
ENDBRANCH   1  30
TORSDOF 18
ENDMDL
MODEL 3
REMARK VINA RESULT:     -12.5      6.371     10.340
REMARK SMILES Cc1cc(=O)c(Oc2ccc(C(=O)OCCOC(=O)c3ccc(-c4c5nc(c(-c6cccc(S(=O)(=O)[O-])c6F)c6ccc([nH]6)c(-c6cccc(S(=O)(=O)[O-])c6F)c6nc(c(-c7cccc(S(=O)(=O)[O-])c7F)c7ccc4[nH]7)C=C6)C=C5)cc3)cc2)c(-c2ccc(S(C)(=O)=O)cc2)o1
REMARK SMILES IDX 15 1 14 2 12 3 13 4 11 5 8 6 9 7 84 8 10 9 83 10 7 11 6 12
REMARK SMILES IDX 1 13 2 14 3 15 96 16 4 17 85 18 5 19 86 20 87 21 95 22 88 23
REMARK SMILES IDX 94 24 89 25 90 26 91 27 92 28 93 29 16 30 17 31 18 32 19 33
REMARK SMILES IDX 20 34 21 35 82 36 22 37 81 38 23 39 24 40 25 41 75 42 26 43
REMARK SMILES IDX 80 44 74 45 76 46 27 47 79 48 73 49 72 50 28 52 60 53 40 54
REMARK SMILES IDX 59 55 41 56 44 57 58 58 77 59 42 60 43 61 57 63 78 64 45 65
REMARK SMILES IDX 29 66 30 67 38 68 31 69 33 70 39 71 32 72 34 73 35 74 36 75
REMARK SMILES IDX 37 76 61 77 62 78 70 79 63 80 65 81 71 82 64 83 66 84 67 85
REMARK SMILES IDX 68 86 69 87 46 88 47 89 55 90 48 91 50 92 56 93 49 94 51 95
REMARK SMILES IDX 52 96 53 97 54 98
REMARK H PARENT 76 51 44 62
REMARK Flexibility Score: inf
ROOT
ATOM      1  C   UNL A   1      39.661  20.600  26.647  1.00  0.00     0.275 C 
ENDROOT
BRANCH   1   2
ATOM      2  O   UNL A   1      38.745  21.268  25.756  1.00  0.00    -0.458 OA
BRANCH   2   3
ATOM      3  C   UNL A   1      38.572  22.602  25.948  1.00  0.00     0.338 C 
ATOM      4  O   UNL A   1      39.397  23.373  26.416  1.00  0.00    -0.246 OA
BRANCH   3   5
ATOM      5  C   UNL A   1      37.280  23.046  25.353  1.00  0.00     0.060 A 
ATOM      6  C   UNL A   1      34.729  23.493  24.299  1.00  0.00     0.127 A 
ATOM      7  C   UNL A   1      35.673  22.818  23.533  1.00  0.00     0.048 A 
ATOM      8  C   UNL A   1      35.086  24.038  25.536  1.00  0.00     0.048 A 
ATOM      9  C   UNL A   1      36.958  22.617  24.055  1.00  0.00     0.019 A 
ATOM     10  C   UNL A   1      36.348  23.793  26.079  1.00  0.00     0.019 A 
BRANCH   6  11
ATOM     11  O   UNL A   1      33.461  23.763  23.868  1.00  0.00    -0.449 OA
BRANCH  11  12
ATOM     12  C   UNL A   1      32.329  23.376  24.569  1.00  0.00     0.217 A 
ATOM     13  C   UNL A   1      29.168  22.579  27.401  1.00  0.00     0.088 C 
ATOM     14  C   UNL A   1      30.196  22.975  26.388  1.00  0.00     0.105 A 
ATOM     15  C   UNL A   1      30.497  24.246  26.118  1.00  0.00     0.098 A 
ATOM     16  O   UNL A   1      30.814  21.921  25.755  1.00  0.00    -0.457 OA
ATOM     17  C   UNL A   1      31.566  24.529  25.147  1.00  0.00     0.228 A 
ATOM     18  C   UNL A   1      31.914  22.136  24.926  1.00  0.00     0.180 A 
ATOM     19  O   UNL A   1      31.840  25.698  24.881  1.00  0.00    -0.285 OA
BRANCH  18  20
ATOM     20  C   UNL A   1      32.549  20.835  24.627  1.00  0.00     0.021 A 
ATOM     21  C   UNL A   1      32.151  20.119  23.482  1.00  0.00     0.013 A 
ATOM     22  C   UNL A   1      33.384  20.201  25.554  1.00  0.00     0.013 A 
ATOM     23  C   UNL A   1      32.549  18.792  23.283  1.00  0.00     0.021 A 
ATOM     24  C   UNL A   1      33.800  18.880  25.355  1.00  0.00     0.021 A 
ATOM     25  C   UNL A   1      33.360  18.169  24.233  1.00  0.00     0.067 A 
BRANCH  25  26
ATOM     26  S   UNL A   1      33.764  16.439  24.108  1.00  0.00     0.175 S 
ATOM     27  C   UNL A   1      35.159  16.193  25.169  1.00  0.00     0.163 C 
ATOM     28  O   UNL A   1      32.670  15.656  24.648  1.00  0.00    -0.224 OA
ATOM     29  O   UNL A   1      34.229  16.203  22.751  1.00  0.00    -0.224 OA
ENDBRANCH  25  26
ENDBRANCH  18  20
ENDBRANCH  11  12
ENDBRANCH   6  11
ENDBRANCH   3   5
ENDBRANCH   2   3
ENDBRANCH   1   2
BRANCH   1  30
ATOM     30  C   UNL A   1      40.451  19.490  25.938  1.00  0.00     0.275 C 
BRANCH  30  31
ATOM     31  O   UNL A   1      41.764  19.280  26.492  1.00  0.00    -0.458 OA
BRANCH  31  32
ATOM     32  C   UNL A   1      42.758  19.857  25.779  1.00  0.00     0.338 C 
ATOM     33  O   UNL A   1      43.469  19.313  24.951  1.00  0.00    -0.246 OA
BRANCH  32  34
ATOM     34  C   UNL A   1      42.871  21.298  26.062  1.00  0.00     0.060 A 
ATOM     35  C   UNL A   1      42.740  22.266  25.062  1.00  0.00     0.016 A 
ATOM     36  C   UNL A   1      42.974  21.677  27.400  1.00  0.00     0.016 A 
ATOM     37  C   UNL A   1      42.745  23.621  25.412  1.00  0.00     0.010 A 
ATOM     38  C   UNL A   1      42.971  23.019  27.751  1.00  0.00     0.010 A 
ATOM     39  C   UNL A   1      42.885  24.000  26.755  1.00  0.00    -0.014 A 
BRANCH  39  40
ATOM     40  C   UNL A   1      43.102  25.409  27.150  1.00  0.00     0.031 A 
ATOM     41  C   UNL A   1      44.480  25.986  26.982  1.00  0.00     0.074 A 
ATOM     42  C   UNL A   1      42.126  26.123  27.737  1.00  0.00     0.049 A 
ATOM     43  N   UNL A   1      44.934  27.158  27.333  1.00  0.00    -0.248 NA
ATOM     44  C   UNL A   1      45.491  25.108  26.364  1.00  0.00     0.031 C 
ATOM     45  C   UNL A   1      40.774  25.640  28.015  1.00  0.00     0.029 A 
ATOM     46  N   UNL A   1      42.134  27.403  28.229  1.00  0.00    -0.354 N 
ATOM     47  C   UNL A   1      46.289  27.140  27.028  1.00  0.00     0.074 A 
ATOM     48  C   UNL A   1      46.589  25.840  26.475  1.00  0.00     0.031 C 
ATOM     49  C   UNL A   1      40.081  26.616  28.629  1.00  0.00     0.029 A 
ATOM     50  C   UNL A   1      40.942  27.785  28.795  1.00  0.00     0.049 A 
ATOM     51  H   UNL A   1      42.922  27.993  28.183  1.00  0.00     0.167 HD
ATOM     52  C   UNL A   1      47.199  28.130  27.172  1.00  0.00     0.034 A 
ATOM     53  C   UNL A   1      40.586  28.951  29.372  1.00  0.00     0.034 A 
ATOM     54  C   UNL A   1      46.881  29.441  27.656  1.00  0.00     0.049 A 
ATOM     55  C   UNL A   1      41.588  30.075  29.431  1.00  0.00     0.074 A 
ATOM     56  C   UNL A   1      47.706  30.546  27.752  1.00  0.00     0.029 A 
ATOM     57  N   UNL A   1      45.633  29.823  28.122  1.00  0.00    -0.354 N 
ATOM     58  N   UNL A   1      42.833  30.086  29.019  1.00  0.00    -0.248 NA
ATOM     59  C   UNL A   1      41.132  31.351  30.000  1.00  0.00     0.031 C 
ATOM     60  C   UNL A   1      46.952  31.602  28.272  1.00  0.00     0.029 A 
ATOM     61  C   UNL A   1      45.659  31.152  28.496  1.00  0.00     0.049 A 
ATOM     62  H   UNL A   1      44.845  29.235  28.177  1.00  0.00     0.167 HD
ATOM     63  C   UNL A   1      43.304  31.372  29.255  1.00  0.00     0.074 A 
ATOM     64  C   UNL A   1      42.205  32.117  29.837  1.00  0.00     0.031 C 
ATOM     65  C   UNL A   1      44.535  31.886  29.023  1.00  0.00     0.034 A 
BRANCH  52  66
ATOM     66  C   UNL A   1      48.609  27.841  26.741  1.00  0.00     0.023 A 
ATOM     67  C   UNL A   1      49.574  27.513  27.715  1.00  0.00     0.012 A 
ATOM     68  C   UNL A   1      48.972  27.865  25.382  1.00  0.00     0.148 A 
ATOM     69  C   UNL A   1      50.891  27.244  27.344  1.00  0.00     0.002 A 
ATOM     70  C   UNL A   1      50.278  27.562  25.017  1.00  0.00     0.091 A 
ATOM     71  F   UNL A   1      48.040  28.197  24.477  1.00  0.00    -0.205 F 
ATOM     72  C   UNL A   1      51.240  27.261  25.997  1.00  0.00     0.022 A 
BRANCH  70  73
ATOM     73  S   UNL A   1      50.824  27.504  23.307  1.00  0.00     0.127 S 
ATOM     74  O   UNL A   1      51.012  28.923  23.008  1.00  0.00    -0.237 OA
ATOM     75  O   UNL A   1      52.063  26.734  23.409  1.00  0.00    -0.237 OA
ATOM     76  O   UNL A   1      49.756  26.850  22.563  1.00  0.00    -0.744 OA
ENDBRANCH  70  73
ENDBRANCH  52  66
BRANCH  53  77
ATOM     77  C   UNL A   1      39.183  29.136  29.834  1.00  0.00     0.023 A 
ATOM     78  C   UNL A   1      38.856  28.808  31.163  1.00  0.00     0.012 A 
ATOM     79  C   UNL A   1      38.203  29.715  29.004  1.00  0.00     0.148 A 
ATOM     80  C   UNL A   1      37.575  29.048  31.660  1.00  0.00     0.002 A 
ATOM     81  C   UNL A   1      36.939  29.986  29.516  1.00  0.00     0.091 A 
ATOM     82  F   UNL A   1      38.543  30.023  27.744  1.00  0.00    -0.205 F 
ATOM     83  C   UNL A   1      36.620  29.644  30.840  1.00  0.00     0.022 A 
BRANCH  81  84
ATOM     84  S   UNL A   1      35.673  30.849  28.578  1.00  0.00     0.127 S 
ATOM     85  O   UNL A   1      34.926  29.741  27.989  1.00  0.00    -0.237 OA
ATOM     86  O   UNL A   1      34.969  31.576  29.636  1.00  0.00    -0.237 OA
ATOM     87  O   UNL A   1      36.385  31.694  27.630  1.00  0.00    -0.744 OA
ENDBRANCH  81  84
ENDBRANCH  53  77
BRANCH  65  88
ATOM     88  C   UNL A   1      44.785  33.325  29.374  1.00  0.00     0.023 A 
ATOM     89  C   UNL A   1      45.354  33.641  30.621  1.00  0.00     0.012 A 
ATOM     90  C   UNL A   1      44.602  34.338  28.412  1.00  0.00     0.148 A 
ATOM     91  C   UNL A   1      45.741  34.950  30.907  1.00  0.00     0.002 A 
ATOM     92  C   UNL A   1      45.021  35.632  28.691  1.00  0.00     0.091 A 
ATOM     93  F   UNL A   1      44.044  34.010  27.237  1.00  0.00    -0.205 F 
ATOM     94  C   UNL A   1      45.588  35.941  29.940  1.00  0.00     0.022 A 
BRANCH  92  95
ATOM     95  S   UNL A   1      44.945  36.951  27.473  1.00  0.00     0.127 S 
ATOM     96  O   UNL A   1      45.380  38.105  28.258  1.00  0.00    -0.237 OA
ATOM     97  O   UNL A   1      45.907  36.501  26.466  1.00  0.00    -0.237 OA
ATOM     98  O   UNL A   1      43.564  36.995  27.014  1.00  0.00    -0.744 OA
ENDBRANCH  92  95
ENDBRANCH  65  88
ENDBRANCH  39  40
ENDBRANCH  32  34
ENDBRANCH  31  32
ENDBRANCH  30  31
ENDBRANCH   1  30
TORSDOF 18
ENDMDL
