MODEL 1
REMARK VINA RESULT:     -12.2      0.000      0.000
REMARK SMILES CC[NH+]1CCC2(CC1)OC[C@@H](C(=O)OCCOC(=O)c1ccc(-c3c4nc(c(-c5cccc(S(=O)(=O)[O-])c5F)c5ccc([nH]5)c(-c5cccc(S(=O)(=O)[O-])c5F)c5nc(c(-c6cccc(S(=O)(=O)[O-])c6F)c6ccc3[nH]6)C=C5)C=C4)cc1)N2C(=O)c1ccc(Cl)c([N+](=O)[O-])c1
REMARK SMILES IDX 15 1 14 2 12 3 13 4 11 5 3 6 4 7 8 8 5 10 7 11 6 12 9 13
REMARK SMILES IDX 83 14 10 15 2 16 1 17 84 18 85 19 86 20 87 21 95 22 88 23
REMARK SMILES IDX 91 24 89 25 90 26 92 27 93 28 94 29 16 30 17 31 18 32 19 33
REMARK SMILES IDX 20 34 21 35 82 36 22 37 81 38 23 39 24 40 25 41 75 42 26 43
REMARK SMILES IDX 80 44 74 45 76 46 27 47 79 48 73 49 72 50 28 52 60 53 40 54
REMARK SMILES IDX 59 55 41 56 44 57 58 58 77 59 42 60 43 61 57 63 78 64 45 65
REMARK SMILES IDX 29 66 30 67 38 68 31 69 33 70 39 71 32 72 34 73 35 74 36 75
REMARK SMILES IDX 37 76 61 77 62 78 70 79 63 80 65 81 71 82 64 83 66 84 67 85
REMARK SMILES IDX 68 86 69 87 46 88 47 89 55 90 48 91 50 92 56 93 49 94 51 95
REMARK SMILES IDX 52 96 53 97 54 98
REMARK H PARENT 3 9 76 51 44 62
REMARK Flexibility Score: inf
ROOT
ATOM      1  C   UNL A   1      31.795  29.759  25.054  1.00  0.00     0.274 C 
ENDROOT
BRANCH   1   2
ATOM      2  O   UNL A   1      33.202  29.686  24.749  1.00  0.00    -0.460 OA
BRANCH   2   3
ATOM      3  C   UNL A   1      33.529  28.647  23.944  1.00  0.00     0.331 C 
ATOM      4  O   UNL A   1      34.070  28.767  22.845  1.00  0.00    -0.250 OA
BRANCH   3   5
ATOM      5  C   UNL A   1      33.198  27.266  24.505  1.00  0.00     0.224 C 
ATOM      6  N   UNL A   1      32.050  22.257  24.472  1.00  0.00    -0.335 N 
ATOM      7  C   UNL A   1      31.573  23.270  25.390  1.00  0.00     0.267 C 
ATOM      8  C   UNL A   1      33.196  22.498  23.616  1.00  0.00     0.267 C 
ATOM      9  H   UNL A   1      31.310  22.443  23.796  1.00  0.00     0.348 HD
ATOM     10  C   UNL A   1      32.471  24.458  25.679  1.00  0.00     0.120 C 
ATOM     11  C   UNL A   1      34.069  23.716  23.866  1.00  0.00     0.120 C 
ATOM     12  C   UNL A   1      33.425  24.904  24.562  1.00  0.00     0.155 C 
ATOM     13  O   UNL A   1      34.551  25.492  25.283  1.00  0.00    -0.352 OA
ATOM     14  N   UNL A   1      32.937  26.036  23.759  1.00  0.00    -0.293 N 
ATOM     15  C   UNL A   1      34.379  26.904  25.378  1.00  0.00     0.200 C 
BRANCH   6  16
ATOM     16  C   UNL A   1      31.895  20.860  24.882  1.00  0.00     0.258 C 
ATOM     17  C   UNL A   1      33.115  19.975  24.653  1.00  0.00     0.071 C 
ENDBRANCH   6  16
BRANCH  14  18
ATOM     18  C   UNL A   1      31.934  26.092  22.805  1.00  0.00     0.257 C 
ATOM     19  O   UNL A   1      32.047  25.601  21.686  1.00  0.00    -0.269 OA
BRANCH  18  20
ATOM     20  C   UNL A   1      30.647  26.743  23.066  1.00  0.00     0.047 A 
ATOM     21  C   UNL A   1      29.627  26.067  23.742  1.00  0.00     0.016 A 
ATOM     22  C   UNL A   1      30.393  27.972  22.458  1.00  0.00     0.101 A 
ATOM     23  C   UNL A   1      28.367  26.669  23.874  1.00  0.00     0.028 A 
ATOM     24  C   UNL A   1      29.150  28.593  22.648  1.00  0.00     0.288 A 
ATOM     25  C   UNL A   1      28.124  27.945  23.343  1.00  0.00     0.118 A 
ATOM     26  Cl  UNL A   1      26.529  28.579  23.537  1.00  0.00    -0.077 Cl
BRANCH  24  27
ATOM     27  N   UNL A   1      28.991  29.939  22.123  1.00  0.00     0.064 N 
ATOM     28  O   UNL A   1      28.654  30.064  20.938  1.00  0.00    -0.258 OA
ATOM     29  O   UNL A   1      29.144  30.874  22.919  1.00  0.00    -0.258 OA
ENDBRANCH  24  27
ENDBRANCH  18  20
ENDBRANCH  14  18
ENDBRANCH   3   5
ENDBRANCH   2   3
ENDBRANCH   1   2
BRANCH   1  30
ATOM     30  C   UNL A   1      31.568  30.732  26.214  1.00  0.00     0.275 C 
BRANCH  30  31
ATOM     31  O   UNL A   1      32.564  30.529  27.233  1.00  0.00    -0.458 OA
BRANCH  31  32
ATOM     32  C   UNL A   1      33.347  31.606  27.466  1.00  0.00     0.338 C 
ATOM     33  O   UNL A   1      33.065  32.776  27.216  1.00  0.00    -0.246 OA
BRANCH  32  34
ATOM     34  C   UNL A   1      34.669  31.195  27.984  1.00  0.00     0.060 A 
ATOM     35  C   UNL A   1      35.007  29.857  28.209  1.00  0.00     0.016 A 
ATOM     36  C   UNL A   1      35.580  32.203  28.307  1.00  0.00     0.016 A 
ATOM     37  C   UNL A   1      36.227  29.531  28.815  1.00  0.00     0.010 A 
ATOM     38  C   UNL A   1      36.823  31.874  28.851  1.00  0.00     0.010 A 
ATOM     39  C   UNL A   1      37.145  30.540  29.147  1.00  0.00    -0.014 A 
BRANCH  39  40
ATOM     40  C   UNL A   1      38.433  30.240  29.829  1.00  0.00     0.031 A 
ATOM     41  C   UNL A   1      39.405  29.276  29.199  1.00  0.00     0.074 A 
ATOM     42  C   UNL A   1      38.693  30.757  31.045  1.00  0.00     0.049 A 
ATOM     43  N   UNL A   1      40.493  28.751  29.699  1.00  0.00    -0.248 NA
ATOM     44  C   UNL A   1      39.102  28.831  27.827  1.00  0.00     0.031 C 
ATOM     45  C   UNL A   1      37.824  31.681  31.772  1.00  0.00     0.029 A 
ATOM     46  N   UNL A   1      39.748  30.548  31.898  1.00  0.00    -0.354 N 
ATOM     47  C   UNL A   1      40.973  27.873  28.734  1.00  0.00     0.074 A 
ATOM     48  C   UNL A   1      40.059  27.937  27.613  1.00  0.00     0.031 C 
ATOM     49  C   UNL A   1      38.372  31.948  32.969  1.00  0.00     0.029 A 
ATOM     50  C   UNL A   1      39.606  31.182  33.112  1.00  0.00     0.049 A 
ATOM     51  H   UNL A   1      40.530  29.997  31.666  1.00  0.00     0.167 HD
ATOM     52  C   UNL A   1      42.080  27.094  28.769  1.00  0.00     0.034 A 
ATOM     53  C   UNL A   1      40.367  31.132  34.224  1.00  0.00     0.034 A 
ATOM     54  C   UNL A   1      43.021  27.076  29.858  1.00  0.00     0.049 A 
ATOM     55  C   UNL A   1      41.610  30.285  34.225  1.00  0.00     0.074 A 
ATOM     56  C   UNL A   1      44.206  26.369  29.960  1.00  0.00     0.029 A 
ATOM     57  N   UNL A   1      42.885  27.801  31.031  1.00  0.00    -0.354 N 
ATOM     58  N   UNL A   1      42.101  29.542  33.263  1.00  0.00    -0.248 NA
ATOM     59  C   UNL A   1      42.417  30.288  35.454  1.00  0.00     0.031 C 
ATOM     60  C   UNL A   1      44.788  26.667  31.198  1.00  0.00     0.029 A 
ATOM     61  C   UNL A   1      43.965  27.561  31.863  1.00  0.00     0.049 A 
ATOM     62  H   UNL A   1      42.132  28.399  31.241  1.00  0.00     0.167 HD
ATOM     63  C   UNL A   1      43.282  29.004  33.761  1.00  0.00     0.074 A 
ATOM     64  C   UNL A   1      43.447  29.529  35.101  1.00  0.00     0.031 C 
ATOM     65  C   UNL A   1      44.141  28.137  33.172  1.00  0.00     0.034 A 
BRANCH  52  66
ATOM     66  C   UNL A   1      42.369  26.230  27.570  1.00  0.00     0.023 A 
ATOM     67  C   UNL A   1      43.084  26.773  26.484  1.00  0.00     0.012 A 
ATOM     68  C   UNL A   1      41.991  24.874  27.540  1.00  0.00     0.148 A 
ATOM     69  C   UNL A   1      43.397  25.985  25.376  1.00  0.00     0.002 A 
ATOM     70  C   UNL A   1      42.338  24.085  26.448  1.00  0.00     0.091 A 
ATOM     71  F   UNL A   1      41.287  24.382  28.570  1.00  0.00    -0.205 F 
ATOM     72  C   UNL A   1      43.035  24.641  25.363  1.00  0.00     0.022 A 
BRANCH  70  73
ATOM     73  S   UNL A   1      41.970  22.327  26.377  1.00  0.00     0.127 S 
ATOM     74  O   UNL A   1      40.510  22.326  26.443  1.00  0.00    -0.237 OA
ATOM     75  O   UNL A   1      42.520  21.945  25.075  1.00  0.00    -0.237 OA
ATOM     76  O   UNL A   1      42.655  21.734  27.517  1.00  0.00    -0.744 OA
ENDBRANCH  70  73
ENDBRANCH  52  66
BRANCH  53  77
ATOM     77  C   UNL A   1      39.992  31.954  35.408  1.00  0.00     0.023 A 
ATOM     78  C   UNL A   1      40.513  33.256  35.534  1.00  0.00     0.012 A 
ATOM     79  C   UNL A   1      39.077  31.485  36.371  1.00  0.00     0.148 A 
ATOM     80  C   UNL A   1      40.139  34.071  36.602  1.00  0.00     0.002 A 
ATOM     81  C   UNL A   1      38.666  32.323  37.402  1.00  0.00     0.091 A 
ATOM     82  F   UNL A   1      38.611  30.233  36.253  1.00  0.00    -0.205 F 
ATOM     83  C   UNL A   1      39.205  33.613  37.527  1.00  0.00     0.022 A 
BRANCH  81  84
ATOM     84  S   UNL A   1      37.356  31.852  38.540  1.00  0.00     0.127 S 
ATOM     85  O   UNL A   1      37.997  32.053  39.836  1.00  0.00    -0.237 OA
ATOM     86  O   UNL A   1      36.303  32.816  38.218  1.00  0.00    -0.237 OA
ATOM     87  O   UNL A   1      37.027  30.477  38.192  1.00  0.00    -0.744 OA
ENDBRANCH  81  84
ENDBRANCH  53  77
BRANCH  65  88
ATOM     88  C   UNL A   1      45.346  27.707  33.963  1.00  0.00     0.023 A 
ATOM     89  C   UNL A   1      46.524  28.475  33.898  1.00  0.00     0.012 A 
ATOM     90  C   UNL A   1      45.291  26.593  34.822  1.00  0.00     0.148 A 
ATOM     91  C   UNL A   1      47.640  28.128  34.658  1.00  0.00     0.002 A 
ATOM     92  C   UNL A   1      46.396  26.273  35.606  1.00  0.00     0.091 A 
ATOM     93  F   UNL A   1      44.169  25.859  34.853  1.00  0.00    -0.205 F 
ATOM     94  C   UNL A   1      47.572  27.034  35.519  1.00  0.00     0.022 A 
BRANCH  92  95
ATOM     95  S   UNL A   1      46.355  24.928  36.796  1.00  0.00     0.127 S 
ATOM     96  O   UNL A   1      45.242  25.321  37.657  1.00  0.00    -0.237 OA
ATOM     97  O   UNL A   1      46.088  23.763  35.950  1.00  0.00    -0.237 OA
ATOM     98  O   UNL A   1      47.670  24.921  37.423  1.00  0.00    -0.744 OA
ENDBRANCH  92  95
ENDBRANCH  65  88
ENDBRANCH  39  40
ENDBRANCH  32  34
ENDBRANCH  31  32
ENDBRANCH  30  31
ENDBRANCH   1  30
TORSDOF 18
ENDMDL
MODEL 2
REMARK VINA RESULT:     -12.0      2.426      3.941
REMARK SMILES CC[NH+]1CCC2(CC1)OC[C@@H](C(=O)OCCOC(=O)c1ccc(-c3c4nc(c(-c5cccc(S(=O)(=O)[O-])c5F)c5ccc([nH]5)c(-c5cccc(S(=O)(=O)[O-])c5F)c5nc(c(-c6cccc(S(=O)(=O)[O-])c6F)c6ccc3[nH]6)C=C5)C=C4)cc1)N2C(=O)c1ccc(Cl)c([N+](=O)[O-])c1
REMARK SMILES IDX 15 1 14 2 12 3 13 4 11 5 3 6 4 7 8 8 5 10 7 11 6 12 9 13
REMARK SMILES IDX 83 14 10 15 2 16 1 17 84 18 85 19 86 20 87 21 95 22 88 23
REMARK SMILES IDX 91 24 89 25 90 26 92 27 93 28 94 29 16 30 17 31 18 32 19 33
REMARK SMILES IDX 20 34 21 35 82 36 22 37 81 38 23 39 24 40 25 41 75 42 26 43
REMARK SMILES IDX 80 44 74 45 76 46 27 47 79 48 73 49 72 50 28 52 60 53 40 54
REMARK SMILES IDX 59 55 41 56 44 57 58 58 77 59 42 60 43 61 57 63 78 64 45 65
REMARK SMILES IDX 29 66 30 67 38 68 31 69 33 70 39 71 32 72 34 73 35 74 36 75
REMARK SMILES IDX 37 76 61 77 62 78 70 79 63 80 65 81 71 82 64 83 66 84 67 85
REMARK SMILES IDX 68 86 69 87 46 88 47 89 55 90 48 91 50 92 56 93 49 94 51 95
REMARK SMILES IDX 52 96 53 97 54 98
REMARK H PARENT 3 9 76 51 44 62
REMARK Flexibility Score: inf
ROOT
ATOM      1  C   UNL A   1      32.581  28.974  24.553  1.00  0.00     0.274 C 
ENDROOT
BRANCH   1   2
ATOM      2  O   UNL A   1      32.048  27.661  24.822  1.00  0.00    -0.460 OA
BRANCH   2   3
ATOM      3  C   UNL A   1      32.961  26.799  25.329  1.00  0.00     0.331 C 
ATOM      4  O   UNL A   1      34.045  27.138  25.801  1.00  0.00    -0.250 OA
BRANCH   3   5
ATOM      5  C   UNL A   1      32.548  25.329  25.302  1.00  0.00     0.224 C 
ATOM      6  N   UNL A   1      33.097  20.220  25.363  1.00  0.00    -0.335 N 
ATOM      7  C   UNL A   1      32.133  20.999  24.615  1.00  0.00     0.267 C 
ATOM      8  C   UNL A   1      33.842  20.801  26.463  1.00  0.00     0.267 C 
ATOM      9  H   UNL A   1      33.807  20.300  24.636  1.00  0.00     0.348 HD
ATOM     10  C   UNL A   1      31.677  22.326  25.193  1.00  0.00     0.120 C 
ATOM     11  C   UNL A   1      33.424  22.155  27.012  1.00  0.00     0.120 C 
ATOM     12  C   UNL A   1      32.677  23.088  26.073  1.00  0.00     0.155 C 
ATOM     13  O   UNL A   1      31.827  23.842  26.991  1.00  0.00    -0.352 OA
ATOM     14  N   UNL A   1      33.414  24.154  25.375  1.00  0.00    -0.293 N 
ATOM     15  C   UNL A   1      31.624  25.160  26.488  1.00  0.00     0.200 C 
BRANCH   6  16
ATOM     16  C   UNL A   1      32.822  18.791  25.517  1.00  0.00     0.258 C 
ATOM     17  C   UNL A   1      33.661  17.867  24.640  1.00  0.00     0.071 C 
ENDBRANCH   6  16
BRANCH  14  18
ATOM     18  C   UNL A   1      34.431  24.076  24.438  1.00  0.00     0.257 C 
ATOM     19  O   UNL A   1      34.328  24.528  23.301  1.00  0.00    -0.269 OA
BRANCH  18  20
ATOM     20  C   UNL A   1      35.721  23.449  24.738  1.00  0.00     0.047 A 
ATOM     21  C   UNL A   1      35.996  22.142  24.325  1.00  0.00     0.016 A 
ATOM     22  C   UNL A   1      36.589  24.108  25.607  1.00  0.00     0.101 A 
ATOM     23  C   UNL A   1      37.190  21.526  24.726  1.00  0.00     0.028 A 
ATOM     24  C   UNL A   1      37.809  23.508  25.953  1.00  0.00     0.288 A 
ATOM     25  C   UNL A   1      38.114  22.211  25.529  1.00  0.00     0.118 A 
ATOM     26  Cl  UNL A   1      39.538  21.346  25.988  1.00  0.00    -0.077 Cl
BRANCH  24  27
ATOM     27  N   UNL A   1      38.743  24.300  26.736  1.00  0.00     0.064 N 
ATOM     28  O   UNL A   1      39.553  25.011  26.127  1.00  0.00    -0.258 OA
ATOM     29  O   UNL A   1      38.623  24.256  27.967  1.00  0.00    -0.258 OA
ENDBRANCH  24  27
ENDBRANCH  18  20
ENDBRANCH  14  18
ENDBRANCH   3   5
ENDBRANCH   2   3
ENDBRANCH   1   2
BRANCH   1  30
ATOM     30  C   UNL A   1      31.917  29.999  25.474  1.00  0.00     0.275 C 
BRANCH  30  31
ATOM     31  O   UNL A   1      32.509  29.944  26.785  1.00  0.00    -0.458 OA
BRANCH  31  32
ATOM     32  C   UNL A   1      33.071  31.106  27.189  1.00  0.00     0.338 C 
ATOM     33  O   UNL A   1      32.585  32.228  27.067  1.00  0.00    -0.246 OA
BRANCH  32  34
ATOM     34  C   UNL A   1      34.428  30.877  27.728  1.00  0.00     0.060 A 
ATOM     35  C   UNL A   1      34.868  29.619  28.152  1.00  0.00     0.016 A 
ATOM     36  C   UNL A   1      35.268  31.984  27.861  1.00  0.00     0.016 A 
ATOM     37  C   UNL A   1      36.119  29.479  28.766  1.00  0.00     0.010 A 
ATOM     38  C   UNL A   1      36.541  31.834  28.415  1.00  0.00     0.010 A 
ATOM     39  C   UNL A   1      36.965  30.590  28.908  1.00  0.00    -0.014 A 
BRANCH  39  40
ATOM     40  C   UNL A   1      38.283  30.493  29.591  1.00  0.00     0.031 A 
ATOM     41  C   UNL A   1      39.387  29.675  28.973  1.00  0.00     0.074 A 
ATOM     42  C   UNL A   1      38.465  31.060  30.799  1.00  0.00     0.049 A 
ATOM     43  N   UNL A   1      40.541  29.323  29.478  1.00  0.00    -0.248 NA
ATOM     44  C   UNL A   1      39.154  29.169  27.609  1.00  0.00     0.031 C 
ATOM     45  C   UNL A   1      37.469  31.857  31.515  1.00  0.00     0.029 A 
ATOM     46  N   UNL A   1      39.539  31.022  31.653  1.00  0.00    -0.354 N 
ATOM     47  C   UNL A   1      41.145  28.512  28.525  1.00  0.00     0.074 A 
ATOM     48  C   UNL A   1      40.233  28.424  27.405  1.00  0.00     0.031 C 
ATOM     49  C   UNL A   1      37.971  32.219  32.706  1.00  0.00     0.029 A 
ATOM     50  C   UNL A   1      39.305  31.645  32.858  1.00  0.00     0.049 A 
ATOM     51  H   UNL A   1      40.394  30.589  31.427  1.00  0.00     0.167 HD
ATOM     52  C   UNL A   1      42.356  27.905  28.568  1.00  0.00     0.034 A 
ATOM     53  C   UNL A   1      40.064  31.724  33.969  1.00  0.00     0.034 A 
ATOM     54  C   UNL A   1      43.289  28.042  29.656  1.00  0.00     0.049 A 
ATOM     55  C   UNL A   1      41.420  31.070  33.979  1.00  0.00     0.074 A 
ATOM     56  C   UNL A   1      44.566  27.519  29.765  1.00  0.00     0.029 A 
ATOM     57  N   UNL A   1      43.047  28.756  30.819  1.00  0.00    -0.354 N 
ATOM     58  N   UNL A   1      42.014  30.393  33.027  1.00  0.00    -0.248 NA
ATOM     59  C   UNL A   1      42.217  31.209  35.207  1.00  0.00     0.031 C 
ATOM     60  C   UNL A   1      45.096  27.917  30.998  1.00  0.00     0.029 A 
ATOM     61  C   UNL A   1      44.150  28.690  31.652  1.00  0.00     0.049 A 
ATOM     62  H   UNL A   1      42.214  29.239  31.022  1.00  0.00     0.167 HD
ATOM     63  C   UNL A   1      43.262  30.044  33.531  1.00  0.00     0.074 A 
ATOM     64  C   UNL A   1      43.348  30.606  34.863  1.00  0.00     0.031 C 
ATOM     65  C   UNL A   1      44.240  29.304  32.952  1.00  0.00     0.034 A 
BRANCH  52  66
ATOM     66  C   UNL A   1      42.768  27.076  27.381  1.00  0.00     0.023 A 
ATOM     67  C   UNL A   1      43.319  27.714  26.252  1.00  0.00     0.012 A 
ATOM     68  C   UNL A   1      42.671  25.672  27.403  1.00  0.00     0.148 A 
ATOM     69  C   UNL A   1      43.744  26.968  25.153  1.00  0.00     0.002 A 
ATOM     70  C   UNL A   1      43.130  24.932  26.318  1.00  0.00     0.091 A 
ATOM     71  F   UNL A   1      42.120  25.084  28.475  1.00  0.00    -0.205 F 
ATOM     72  C   UNL A   1      43.660  25.579  25.190  1.00  0.00     0.022 A 
BRANCH  70  73
ATOM     73  S   UNL A   1      43.123  23.134  26.309  1.00  0.00     0.127 S 
ATOM     74  O   UNL A   1      42.725  22.845  24.933  1.00  0.00    -0.237 OA
ATOM     75  O   UNL A   1      44.517  22.814  26.620  1.00  0.00    -0.237 OA
ATOM     76  O   UNL A   1      42.172  22.738  27.339  1.00  0.00    -0.744 OA
ENDBRANCH  70  73
ENDBRANCH  52  66
BRANCH  53  77
ATOM     77  C   UNL A   1      39.572  32.499  35.142  1.00  0.00     0.023 A 
ATOM     78  C   UNL A   1      39.709  33.900  35.147  1.00  0.00     0.012 A 
ATOM     79  C   UNL A   1      38.913  31.870  36.217  1.00  0.00     0.148 A 
ATOM     80  C   UNL A   1      39.211  34.659  36.206  1.00  0.00     0.002 A 
ATOM     81  C   UNL A   1      38.369  32.638  37.241  1.00  0.00     0.091 A 
ATOM     82  F   UNL A   1      38.815  30.532  36.211  1.00  0.00    -0.205 F 
ATOM     83  C   UNL A   1      38.527  34.032  37.244  1.00  0.00     0.022 A 
BRANCH  81  84
ATOM     84  S   UNL A   1      37.349  31.911  38.530  1.00  0.00     0.127 S 
ATOM     85  O   UNL A   1      36.156  32.750  38.480  1.00  0.00    -0.237 OA
ATOM     86  O   UNL A   1      37.160  30.543  38.042  1.00  0.00    -0.237 OA
ATOM     87  O   UNL A   1      38.148  32.001  39.744  1.00  0.00    -0.744 OA
ENDBRANCH  81  84
ENDBRANCH  53  77
BRANCH  65  88
ATOM     88  C   UNL A   1      45.495  29.068  33.747  1.00  0.00     0.023 A 
ATOM     89  C   UNL A   1      46.576  29.961  33.610  1.00  0.00     0.012 A 
ATOM     90  C   UNL A   1      45.579  28.015  34.677  1.00  0.00     0.148 A 
ATOM     91  C   UNL A   1      47.733  29.794  34.370  1.00  0.00     0.002 A 
ATOM     92  C   UNL A   1      46.721  27.876  35.458  1.00  0.00     0.091 A 
ATOM     93  F   UNL A   1      44.549  27.161  34.776  1.00  0.00    -0.205 F 
ATOM     94  C   UNL A   1      47.801  28.759  35.301  1.00  0.00     0.022 A 
BRANCH  92  95
ATOM     95  S   UNL A   1      46.849  26.617  36.734  1.00  0.00     0.127 S 
ATOM     96  O   UNL A   1      48.156  26.913  37.318  1.00  0.00    -0.237 OA
ATOM     97  O   UNL A   1      45.711  26.926  37.601  1.00  0.00    -0.237 OA
ATOM     98  O   UNL A   1      46.741  25.343  36.037  1.00  0.00    -0.744 OA
ENDBRANCH  92  95
ENDBRANCH  65  88
ENDBRANCH  39  40
ENDBRANCH  32  34
ENDBRANCH  31  32
ENDBRANCH  30  31
ENDBRANCH   1  30
TORSDOF 18
ENDMDL
MODEL 3
REMARK VINA RESULT:     -11.9      2.400      3.795
REMARK SMILES CC[NH+]1CCC2(CC1)OC[C@@H](C(=O)OCCOC(=O)c1ccc(-c3c4nc(c(-c5cccc(S(=O)(=O)[O-])c5F)c5ccc([nH]5)c(-c5cccc(S(=O)(=O)[O-])c5F)c5nc(c(-c6cccc(S(=O)(=O)[O-])c6F)c6ccc3[nH]6)C=C5)C=C4)cc1)N2C(=O)c1ccc(Cl)c([N+](=O)[O-])c1
REMARK SMILES IDX 15 1 14 2 12 3 13 4 11 5 3 6 4 7 8 8 5 10 7 11 6 12 9 13
REMARK SMILES IDX 83 14 10 15 2 16 1 17 84 18 85 19 86 20 87 21 95 22 88 23
REMARK SMILES IDX 91 24 89 25 90 26 92 27 93 28 94 29 16 30 17 31 18 32 19 33
REMARK SMILES IDX 20 34 21 35 82 36 22 37 81 38 23 39 24 40 25 41 75 42 26 43
REMARK SMILES IDX 80 44 74 45 76 46 27 47 79 48 73 49 72 50 28 52 60 53 40 54
REMARK SMILES IDX 59 55 41 56 44 57 58 58 77 59 42 60 43 61 57 63 78 64 45 65
REMARK SMILES IDX 29 66 30 67 38 68 31 69 33 70 39 71 32 72 34 73 35 74 36 75
REMARK SMILES IDX 37 76 61 77 62 78 70 79 63 80 65 81 71 82 64 83 66 84 67 85
REMARK SMILES IDX 68 86 69 87 46 88 47 89 55 90 48 91 50 92 56 93 49 94 51 95
REMARK SMILES IDX 52 96 53 97 54 98
REMARK H PARENT 3 9 76 51 44 62
REMARK Flexibility Score: inf
ROOT
ATOM      1  C   UNL A   1      31.029  28.779  24.955  1.00  0.00     0.274 C 
ENDROOT
BRANCH   1   2
ATOM      2  O   UNL A   1      30.723  27.422  25.338  1.00  0.00    -0.460 OA
BRANCH   2   3
ATOM      3  C   UNL A   1      31.177  26.496  24.461  1.00  0.00     0.331 C 
ATOM      4  O   UNL A   1      30.612  26.204  23.409  1.00  0.00    -0.250 OA
BRANCH   3   5
ATOM      5  C   UNL A   1      32.492  25.825  24.853  1.00  0.00     0.224 C 
ATOM      6  N   UNL A   1      36.102  22.175  25.068  1.00  0.00    -0.335 N 
ATOM      7  C   UNL A   1      35.705  23.092  26.116  1.00  0.00     0.267 C 
ATOM      8  C   UNL A   1      35.724  22.402  23.687  1.00  0.00     0.267 C 
ATOM      9  H   UNL A   1      35.384  21.495  25.315  1.00  0.00     0.348 HD
ATOM     10  C   UNL A   1      35.169  24.453  25.714  1.00  0.00     0.120 C 
ATOM     11  C   UNL A   1      35.136  23.745  23.287  1.00  0.00     0.120 C 
ATOM     12  C   UNL A   1      34.433  24.548  24.370  1.00  0.00     0.155 C 
ATOM     13  O   UNL A   1      34.670  25.924  23.943  1.00  0.00    -0.352 OA
ATOM     14  N   UNL A   1      32.966  24.495  24.473  1.00  0.00    -0.293 N 
ATOM     15  C   UNL A   1      33.573  26.747  24.334  1.00  0.00     0.200 C 
BRANCH   6  16
ATOM     16  C   UNL A   1      37.388  21.494  25.230  1.00  0.00     0.258 C 
ATOM     17  C   UNL A   1      37.362  19.988  24.996  1.00  0.00     0.071 C 
ENDBRANCH   6  16
BRANCH  14  18
ATOM     18  C   UNL A   1      32.125  23.433  24.759  1.00  0.00     0.257 C 
ATOM     19  O   UNL A   1      31.237  23.493  25.606  1.00  0.00    -0.269 OA
BRANCH  18  20
ATOM     20  C   UNL A   1      32.226  22.148  24.062  1.00  0.00     0.047 A 
ATOM     21  C   UNL A   1      31.858  22.031  22.718  1.00  0.00     0.016 A 
ATOM     22  C   UNL A   1      32.511  21.010  24.814  1.00  0.00     0.101 A 
ATOM     23  C   UNL A   1      31.853  20.768  22.110  1.00  0.00     0.028 A 
ATOM     24  C   UNL A   1      32.563  19.759  24.182  1.00  0.00     0.288 A 
ATOM     25  C   UNL A   1      32.223  19.624  22.833  1.00  0.00     0.118 A 
ATOM     26  Cl  UNL A   1      32.153  18.115  21.993  1.00  0.00    -0.077 Cl
BRANCH  24  27
ATOM     27  N   UNL A   1      33.014  18.628  24.977  1.00  0.00     0.064 N 
ATOM     28  O   UNL A   1      34.227  18.390  25.012  1.00  0.00    -0.258 OA
ATOM     29  O   UNL A   1      32.152  18.015  25.620  1.00  0.00    -0.258 OA
ENDBRANCH  24  27
ENDBRANCH  18  20
ENDBRANCH  14  18
ENDBRANCH   3   5
ENDBRANCH   2   3
ENDBRANCH   1   2
BRANCH   1  30
ATOM     30  C   UNL A   1      31.461  29.578  26.186  1.00  0.00     0.275 C 
BRANCH  30  31
ATOM     31  O   UNL A   1      32.678  30.296  25.910  1.00  0.00    -0.458 OA
BRANCH  31  32
ATOM     32  C   UNL A   1      33.017  31.199  26.856  1.00  0.00     0.338 C 
ATOM     33  O   UNL A   1      32.391  32.217  27.145  1.00  0.00    -0.246 OA
BRANCH  32  34
ATOM     34  C   UNL A   1      34.324  30.866  27.461  1.00  0.00     0.060 A 
ATOM     35  C   UNL A   1      34.715  29.551  27.730  1.00  0.00     0.016 A 
ATOM     36  C   UNL A   1      35.161  31.924  27.819  1.00  0.00     0.016 A 
ATOM     37  C   UNL A   1      35.911  29.298  28.415  1.00  0.00     0.010 A 
ATOM     38  C   UNL A   1      36.383  31.668  28.444  1.00  0.00     0.010 A 
ATOM     39  C   UNL A   1      36.754  30.357  28.783  1.00  0.00    -0.014 A 
BRANCH  39  40
ATOM     40  C   UNL A   1      38.011  30.135  29.546  1.00  0.00     0.031 A 
ATOM     41  C   UNL A   1      39.070  29.218  28.991  1.00  0.00     0.074 A 
ATOM     42  C   UNL A   1      38.168  30.678  30.768  1.00  0.00     0.049 A 
ATOM     43  N   UNL A   1      40.153  28.758  29.564  1.00  0.00    -0.248 NA
ATOM     44  C   UNL A   1      38.878  28.742  27.610  1.00  0.00     0.031 C 
ATOM     45  C   UNL A   1      37.208  31.563  31.428  1.00  0.00     0.029 A 
ATOM     46  N   UNL A   1      39.178  30.537  31.688  1.00  0.00    -0.354 N 
ATOM     47  C   UNL A   1      40.737  27.897  28.643  1.00  0.00     0.074 A 
ATOM     48  C   UNL A   1      39.893  27.899  27.468  1.00  0.00     0.031 C 
ATOM     49  C   UNL A   1      37.666  31.872  32.652  1.00  0.00     0.029 A 
ATOM     50  C   UNL A   1      38.928  31.175  32.881  1.00  0.00     0.049 A 
ATOM     51  H   UNL A   1      40.001  30.026  31.512  1.00  0.00     0.167 HD
ATOM     52  C   UNL A   1      41.880  27.179  28.757  1.00  0.00     0.034 A 
ATOM     53  C   UNL A   1      39.619  31.178  34.038  1.00  0.00     0.034 A 
ATOM     54  C   UNL A   1      42.751  27.224  29.902  1.00  0.00     0.049 A 
ATOM     55  C   UNL A   1      40.904  30.400  34.127  1.00  0.00     0.074 A 
ATOM     56  C   UNL A   1      43.964  26.583  30.086  1.00  0.00     0.029 A 
ATOM     57  N   UNL A   1      42.504  27.954  31.054  1.00  0.00    -0.354 N 
ATOM     58  N   UNL A   1      41.492  29.674  33.208  1.00  0.00    -0.248 NA
ATOM     59  C   UNL A   1      41.631  30.460  35.404  1.00  0.00     0.031 C 
ATOM     60  C   UNL A   1      44.451  26.926  31.353  1.00  0.00     0.029 A 
ATOM     61  C   UNL A   1      43.542  27.782  31.954  1.00  0.00     0.049 A 
ATOM     62  H   UNL A   1      41.709  28.512  31.209  1.00  0.00     0.167 HD
ATOM     63  C   UNL A   1      42.667  29.206  33.786  1.00  0.00     0.074 A 
ATOM     64  C   UNL A   1      42.720  29.754  35.126  1.00  0.00     0.031 C 
ATOM     65  C   UNL A   1      43.606  28.380  33.262  1.00  0.00     0.034 A 
BRANCH  52  66
ATOM     66  C   UNL A   1      42.288  26.319  27.590  1.00  0.00     0.023 A 
ATOM     67  C   UNL A   1      43.105  26.866  26.582  1.00  0.00     0.012 A 
ATOM     68  C   UNL A   1      41.918  24.962  27.520  1.00  0.00     0.148 A 
ATOM     69  C   UNL A   1      43.529  26.082  25.509  1.00  0.00     0.002 A 
ATOM     70  C   UNL A   1      42.373  24.177  26.466  1.00  0.00     0.091 A 
ATOM     71  F   UNL A   1      41.117  24.466  28.475  1.00  0.00    -0.205 F 
ATOM     72  C   UNL A   1      43.173  24.738  25.456  1.00  0.00     0.022 A 
BRANCH  70  73
ATOM     73  S   UNL A   1      42.018  22.418  26.354  1.00  0.00     0.127 S 
ATOM     74  O   UNL A   1      40.568  22.396  26.532  1.00  0.00    -0.237 OA
ATOM     75  O   UNL A   1      42.471  22.093  25.001  1.00  0.00    -0.237 OA
ATOM     76  O   UNL A   1      42.795  21.791  27.415  1.00  0.00    -0.744 OA
ENDBRANCH  70  73
ENDBRANCH  52  66
BRANCH  53  77
ATOM     77  C   UNL A   1      39.128  31.992  35.186  1.00  0.00     0.023 A 
ATOM     78  C   UNL A   1      38.212  31.423  36.089  1.00  0.00     0.012 A 
ATOM     79  C   UNL A   1      39.610  33.294  35.424  1.00  0.00     0.148 A 
ATOM     80  C   UNL A   1      37.773  32.140  37.203  1.00  0.00     0.002 A 
ATOM     81  C   UNL A   1      39.212  33.981  36.567  1.00  0.00     0.091 A 
ATOM     82  F   UNL A   1      40.461  33.833  34.539  1.00  0.00    -0.205 F 
ATOM     83  C   UNL A   1      38.285  33.411  37.452  1.00  0.00     0.022 A 
BRANCH  81  84
ATOM     84  S   UNL A   1      39.944  35.558  37.025  1.00  0.00     0.127 S 
ATOM     85  O   UNL A   1      39.265  35.850  38.284  1.00  0.00    -0.237 OA
ATOM     86  O   UNL A   1      41.361  35.217  37.155  1.00  0.00    -0.237 OA
ATOM     87  O   UNL A   1      39.649  36.451  35.914  1.00  0.00    -0.744 OA
ENDBRANCH  81  84
ENDBRANCH  53  77
BRANCH  65  88
ATOM     88  C   UNL A   1      44.780  28.025  34.132  1.00  0.00     0.023 A 
ATOM     89  C   UNL A   1      45.924  28.847  34.117  1.00  0.00     0.012 A 
ATOM     90  C   UNL A   1      44.727  26.928  35.012  1.00  0.00     0.148 A 
ATOM     91  C   UNL A   1      47.008  28.569  34.949  1.00  0.00     0.002 A 
ATOM     92  C   UNL A   1      45.797  26.677  35.866  1.00  0.00     0.091 A 
ATOM     93  F   UNL A   1      43.641  26.142  34.996  1.00  0.00    -0.205 F 
ATOM     94  C   UNL A   1      46.940  27.492  35.830  1.00  0.00     0.022 A 
BRANCH  92  95
ATOM     95  S   UNL A   1      45.749  25.356  37.083  1.00  0.00     0.127 S 
ATOM     96  O   UNL A   1      44.576  25.720  37.875  1.00  0.00    -0.237 OA
ATOM     97  O   UNL A   1      45.576  24.164  36.251  1.00  0.00    -0.237 OA
ATOM     98  O   UNL A   1      47.028  25.418  37.778  1.00  0.00    -0.744 OA
ENDBRANCH  92  95
ENDBRANCH  65  88
ENDBRANCH  39  40
ENDBRANCH  32  34
ENDBRANCH  31  32
ENDBRANCH  30  31
ENDBRANCH   1  30
TORSDOF 18
ENDMDL
