MODEL 1
REMARK VINA RESULT:     -11.7      0.000      0.000
REMARK SMILES CC[C@@](C)(NC(=O)c1c(C)cc(C)[nH]c1=O)C(=O)OCCOC(=O)c1ccc(-c2c3nc(c(-c4cccc(S(=O)(=O)[O-])c4F)c4ccc([nH]4)c(-c4cccc(S(=O)(=O)[O-])c4F)c4nc(c(-c5cccc(S(=O)(=O)[O-])c5F)c5ccc2[nH]5)C=C4)C=C3)cc1
REMARK SMILES IDX 21 1 20 2 19 3 17 4 18 5 3 6 4 7 2 8 1 9 5 10 6 11 7 13 8 14
REMARK SMILES IDX 9 15 15 16 10 17 11 18 14 19 16 20 12 21 13 23 22 24 23 25
REMARK SMILES IDX 24 26 25 27 26 28 87 29 27 30 86 31 28 32 29 33 30 34 80 35
REMARK SMILES IDX 31 36 85 37 79 38 81 39 32 40 84 41 78 42 77 43 33 45 65 46
REMARK SMILES IDX 45 47 64 48 46 49 49 50 63 51 82 52 47 53 48 54 62 56 83 57
REMARK SMILES IDX 50 58 34 59 35 60 43 61 36 62 38 63 44 64 37 65 39 66 40 67
REMARK SMILES IDX 41 68 42 69 66 70 67 71 75 72 68 73 70 74 76 75 69 76 71 77
REMARK SMILES IDX 72 78 73 79 74 80 51 81 52 82 60 83 53 84 55 85 61 86 54 87
REMARK SMILES IDX 56 88 57 89 58 90 59 91
REMARK H PARENT 5 12 14 22 81 44 49 55
REMARK Flexibility Score: inf
ROOT
ATOM      1  C   UNL A   1      36.226  21.307  24.703  1.00  0.00     0.275 C 
ENDROOT
BRANCH   1   2
ATOM      2  C   UNL A   1      34.888  20.746  25.159  1.00  0.00     0.274 C 
BRANCH   2   3
ATOM      3  O   UNL A   1      33.839  21.180  24.262  1.00  0.00    -0.460 OA
BRANCH   3   4
ATOM      4  C   UNL A   1      32.657  21.493  24.840  1.00  0.00     0.331 C 
ATOM      5  O   UNL A   1      31.831  20.643  25.166  1.00  0.00    -0.249 OA
BRANCH   4   6
ATOM      6  C   UNL A   1      32.367  23.021  24.943  1.00  0.00     0.135 C 
ATOM      7  C   UNL A   1      31.205  23.268  23.961  1.00  0.00     0.047 C 
BRANCH   6   8
ATOM      8  C   UNL A   1      31.890  23.350  26.406  1.00  0.00     0.037 C 
ATOM      9  C   UNL A   1      30.404  23.304  26.746  1.00  0.00     0.007 C 
ENDBRANCH   6   8
BRANCH   6  10
ATOM     10  N   UNL A   1      33.424  24.070  24.694  1.00  0.00    -0.336 N 
ATOM     11  C   UNL A   1      33.494  25.418  24.881  1.00  0.00     0.258 C 
ATOM     12  H   UNL A   1      34.249  23.695  24.311  1.00  0.00     0.165 HD
ATOM     13  O   UNL A   1      34.513  25.880  25.400  1.00  0.00    -0.269 OA
BRANCH  11  14
ATOM     14  C   UNL A   1      32.548  26.315  24.196  1.00  0.00     0.107 A 
ATOM     15  C   UNL A   1      31.618  26.983  24.919  1.00  0.00    -0.031 A 
ATOM     16  C   UNL A   1      32.508  26.400  22.712  1.00  0.00     0.261 A 
ATOM     17  C   UNL A   1      31.419  26.901  26.412  1.00  0.00     0.045 C 
ATOM     18  C   UNL A   1      30.722  27.916  24.249  1.00  0.00     0.025 A 
ATOM     19  N   UNL A   1      31.604  27.291  22.174  1.00  0.00    -0.326 N 
ATOM     20  O   UNL A   1      33.257  25.746  21.990  1.00  0.00    -0.269 OA
ATOM     21  C   UNL A   1      30.750  28.071  22.918  1.00  0.00     0.015 A 
ATOM     22  H   UNL A   1      31.567  27.374  21.193  1.00  0.00     0.169 HD
ATOM     23  C   UNL A   1      29.972  29.133  22.204  1.00  0.00     0.064 C 
ENDBRANCH  11  14
ENDBRANCH   6  10
ENDBRANCH   4   6
ENDBRANCH   3   4
ENDBRANCH   2   3
ENDBRANCH   1   2
BRANCH   1  24
ATOM     24  O   UNL A   1      36.947  21.726  25.863  1.00  0.00    -0.458 OA
BRANCH  24  25
ATOM     25  C   UNL A   1      38.277  21.490  25.837  1.00  0.00     0.338 C 
ATOM     26  O   UNL A   1      38.868  20.506  25.440  1.00  0.00    -0.246 OA
BRANCH  25  27
ATOM     27  C   UNL A   1      38.937  22.662  26.412  1.00  0.00     0.060 A 
ATOM     28  C   UNL A   1      40.091  22.498  27.180  1.00  0.00     0.016 A 
ATOM     29  C   UNL A   1      38.401  23.921  26.166  1.00  0.00     0.016 A 
ATOM     30  C   UNL A   1      40.718  23.609  27.722  1.00  0.00     0.010 A 
ATOM     31  C   UNL A   1      39.076  25.040  26.638  1.00  0.00     0.010 A 
ATOM     32  C   UNL A   1      40.240  24.889  27.410  1.00  0.00    -0.014 A 
BRANCH  32  33
ATOM     33  C   UNL A   1      41.013  26.080  27.812  1.00  0.00     0.031 A 
ATOM     34  C   UNL A   1      40.358  27.155  28.621  1.00  0.00     0.074 A 
ATOM     35  C   UNL A   1      42.288  26.183  27.393  1.00  0.00     0.049 A 
ATOM     36  N   UNL A   1      40.825  28.326  28.955  1.00  0.00    -0.248 NA
ATOM     37  C   UNL A   1      38.995  26.886  29.112  1.00  0.00     0.031 C 
ATOM     38  C   UNL A   1      42.997  25.171  26.602  1.00  0.00     0.029 A 
ATOM     39  N   UNL A   1      43.214  27.179  27.558  1.00  0.00    -0.354 N 
ATOM     40  C   UNL A   1      39.805  28.952  29.658  1.00  0.00     0.074 A 
ATOM     41  C   UNL A   1      38.691  28.031  29.707  1.00  0.00     0.031 C 
ATOM     42  C   UNL A   1      44.250  25.588  26.370  1.00  0.00     0.029 A 
ATOM     43  C   UNL A   1      44.412  26.922  26.931  1.00  0.00     0.049 A 
ATOM     44  H   UNL A   1      43.039  27.998  28.074  1.00  0.00     0.167 HD
ATOM     45  C   UNL A   1      39.812  30.184  30.215  1.00  0.00     0.034 A 
ATOM     46  C   UNL A   1      45.508  27.694  26.799  1.00  0.00     0.034 A 
ATOM     47  C   UNL A   1      40.947  31.065  30.168  1.00  0.00     0.049 A 
ATOM     48  C   UNL A   1      45.478  29.063  27.420  1.00  0.00     0.074 A 
ATOM     49  C   UNL A   1      41.074  32.335  30.698  1.00  0.00     0.029 A 
ATOM     50  N   UNL A   1      42.156  30.762  29.554  1.00  0.00    -0.354 N 
ATOM     51  N   UNL A   1      44.525  29.621  28.129  1.00  0.00    -0.248 NA
ATOM     52  C   UNL A   1      46.665  29.905  27.232  1.00  0.00     0.031 C 
ATOM     53  C   UNL A   1      42.354  32.805  30.391  1.00  0.00     0.029 A 
ATOM     54  C   UNL A   1      43.033  31.822  29.685  1.00  0.00     0.049 A 
ATOM     55  H   UNL A   1      42.357  29.916  29.091  1.00  0.00     0.167 HD
ATOM     56  C   UNL A   1      44.998  30.878  28.480  1.00  0.00     0.074 A 
ATOM     57  C   UNL A   1      46.339  30.982  27.934  1.00  0.00     0.031 C 
ATOM     58  C   UNL A   1      44.375  31.870  29.162  1.00  0.00     0.034 A 
BRANCH  45  59
ATOM     59  C   UNL A   1      38.575  30.641  30.939  1.00  0.00     0.023 A 
ATOM     60  C   UNL A   1      38.468  30.431  32.329  1.00  0.00     0.012 A 
ATOM     61  C   UNL A   1      37.551  31.332  30.262  1.00  0.00     0.148 A 
ATOM     62  C   UNL A   1      37.352  30.886  33.032  1.00  0.00     0.002 A 
ATOM     63  C   UNL A   1      36.459  31.815  30.976  1.00  0.00     0.091 A 
ATOM     64  F   UNL A   1      37.665  31.504  28.938  1.00  0.00    -0.205 F 
ATOM     65  C   UNL A   1      36.355  31.586  32.358  1.00  0.00     0.022 A 
BRANCH  63  66
ATOM     66  S   UNL A   1      35.146  32.779  30.217  1.00  0.00     0.127 S 
ATOM     67  O   UNL A   1      34.658  31.856  29.191  1.00  0.00    -0.237 OA
ATOM     68  O   UNL A   1      34.230  32.984  31.338  1.00  0.00    -0.237 OA
ATOM     69  O   UNL A   1      35.775  33.990  29.709  1.00  0.00    -0.744 OA
ENDBRANCH  63  66
ENDBRANCH  45  59
BRANCH  46  70
ATOM     70  C   UNL A   1      46.710  27.171  26.089  1.00  0.00     0.023 A 
ATOM     71  C   UNL A   1      46.835  27.379  24.702  1.00  0.00     0.012 A 
ATOM     72  C   UNL A   1      47.762  26.535  26.779  1.00  0.00     0.148 A 
ATOM     73  C   UNL A   1      47.974  26.954  24.016  1.00  0.00     0.002 A 
ATOM     74  C   UNL A   1      48.921  26.170  26.102  1.00  0.00     0.091 A 
ATOM     75  F   UNL A   1      47.621  26.320  28.095  1.00  0.00    -0.205 F 
ATOM     76  C   UNL A   1      49.023  26.365  24.717  1.00  0.00     0.022 A 
BRANCH  74  77
ATOM     77  S   UNL A   1      50.374  25.552  26.962  1.00  0.00     0.127 S 
ATOM     78  O   UNL A   1      51.308  25.344  25.861  1.00  0.00    -0.237 OA
ATOM     79  O   UNL A   1      50.705  26.669  27.848  1.00  0.00    -0.237 OA
ATOM     80  O   UNL A   1      49.929  24.353  27.659  1.00  0.00    -0.744 OA
ENDBRANCH  74  77
ENDBRANCH  46  70
BRANCH  58  81
ATOM     81  C   UNL A   1      45.130  33.156  29.352  1.00  0.00     0.023 A 
ATOM     82  C   UNL A   1      45.981  33.295  30.466  1.00  0.00     0.012 A 
ATOM     83  C   UNL A   1      45.088  34.166  28.374  1.00  0.00     0.148 A 
ATOM     84  C   UNL A   1      46.771  34.433  30.610  1.00  0.00     0.002 A 
ATOM     85  C   UNL A   1      45.914  35.275  28.500  1.00  0.00     0.091 A 
ATOM     86  F   UNL A   1      44.254  34.016  27.335  1.00  0.00    -0.205 F 
ATOM     87  C   UNL A   1      46.749  35.414  29.622  1.00  0.00     0.022 A 
BRANCH  85  88
ATOM     88  S   UNL A   1      46.032  36.533  27.225  1.00  0.00     0.127 S 
ATOM     89  O   UNL A   1      47.025  37.442  27.796  1.00  0.00    -0.237 OA
ATOM     90  O   UNL A   1      46.500  35.764  26.072  1.00  0.00    -0.237 OA
ATOM     91  O   UNL A   1      44.691  37.084  27.081  1.00  0.00    -0.744 OA
ENDBRANCH  85  88
ENDBRANCH  58  81
ENDBRANCH  32  33
ENDBRANCH  25  27
ENDBRANCH  24  25
ENDBRANCH   1  24
TORSDOF 17
ENDMDL
MODEL 2
REMARK VINA RESULT:     -11.7      4.808      9.957
REMARK SMILES CC[C@@](C)(NC(=O)c1c(C)cc(C)[nH]c1=O)C(=O)OCCOC(=O)c1ccc(-c2c3nc(c(-c4cccc(S(=O)(=O)[O-])c4F)c4ccc([nH]4)c(-c4cccc(S(=O)(=O)[O-])c4F)c4nc(c(-c5cccc(S(=O)(=O)[O-])c5F)c5ccc2[nH]5)C=C4)C=C3)cc1
REMARK SMILES IDX 21 1 20 2 19 3 17 4 18 5 3 6 4 7 2 8 1 9 5 10 6 11 7 13 8 14
REMARK SMILES IDX 9 15 15 16 10 17 11 18 14 19 16 20 12 21 13 23 22 24 23 25
REMARK SMILES IDX 24 26 25 27 26 28 87 29 27 30 86 31 28 32 29 33 30 34 80 35
REMARK SMILES IDX 31 36 85 37 79 38 81 39 32 40 84 41 78 42 77 43 33 45 65 46
REMARK SMILES IDX 45 47 64 48 46 49 49 50 63 51 82 52 47 53 48 54 62 56 83 57
REMARK SMILES IDX 50 58 34 59 35 60 43 61 36 62 38 63 44 64 37 65 39 66 40 67
REMARK SMILES IDX 41 68 42 69 66 70 67 71 75 72 68 73 70 74 76 75 69 76 71 77
REMARK SMILES IDX 72 78 73 79 74 80 51 81 52 82 60 83 53 84 55 85 61 86 54 87
REMARK SMILES IDX 56 88 57 89 58 90 59 91
REMARK H PARENT 5 12 14 22 81 44 49 55
REMARK Flexibility Score: inf
ROOT
ATOM      1  C   UNL A   1      32.522  30.017  25.370  1.00  0.00     0.275 C 
ENDROOT
BRANCH   1   2
ATOM      2  C   UNL A   1      31.746  28.747  25.057  1.00  0.00     0.274 C 
BRANCH   2   3
ATOM      3  O   UNL A   1      32.503  27.589  25.479  1.00  0.00    -0.460 OA
BRANCH   3   4
ATOM      4  C   UNL A   1      31.802  26.620  26.111  1.00  0.00     0.331 C 
ATOM      5  O   UNL A   1      31.030  26.855  27.038  1.00  0.00    -0.249 OA
BRANCH   4   6
ATOM      6  C   UNL A   1      32.144  25.169  25.657  1.00  0.00     0.135 C 
ATOM      7  C   UNL A   1      31.240  24.265  26.517  1.00  0.00     0.047 C 
BRANCH   6   8
ATOM      8  C   UNL A   1      31.754  25.005  24.142  1.00  0.00     0.037 C 
ATOM      9  C   UNL A   1      30.327  25.301  23.692  1.00  0.00     0.007 C 
ENDBRANCH   6   8
BRANCH   6  10
ATOM     10  N   UNL A   1      33.546  24.610  25.702  1.00  0.00    -0.336 N 
ATOM     11  C   UNL A   1      34.192  23.598  25.056  1.00  0.00     0.258 C 
ATOM     12  H   UNL A   1      34.124  25.084  26.342  1.00  0.00     0.165 HD
ATOM     13  O   UNL A   1      35.317  23.822  24.605  1.00  0.00    -0.269 OA
BRANCH  11  14
ATOM     14  C   UNL A   1      33.714  22.211  25.180  1.00  0.00     0.107 A 
ATOM     15  C   UNL A   1      33.137  21.605  24.115  1.00  0.00    -0.031 A 
ATOM     16  C   UNL A   1      33.733  21.507  26.489  1.00  0.00     0.261 A 
ATOM     17  C   UNL A   1      32.903  22.219  22.757  1.00  0.00     0.045 C 
ATOM     18  C   UNL A   1      32.719  20.213  24.219  1.00  0.00     0.025 A 
ATOM     19  N   UNL A   1      33.289  20.201  26.488  1.00  0.00    -0.326 N 
ATOM     20  O   UNL A   1      34.151  22.032  27.518  1.00  0.00    -0.269 OA
ATOM     21  C   UNL A   1      32.827  19.542  25.374  1.00  0.00     0.015 A 
ATOM     22  H   UNL A   1      33.302  19.710  27.342  1.00  0.00     0.169 HD
ATOM     23  C   UNL A   1      32.572  18.070  25.488  1.00  0.00     0.064 C 
ENDBRANCH  11  14
ENDBRANCH   6  10
ENDBRANCH   4   6
ENDBRANCH   3   4
ENDBRANCH   2   3
ENDBRANCH   1   2
BRANCH   1  24
ATOM     24  O   UNL A   1      32.573  30.164  26.790  1.00  0.00    -0.458 OA
BRANCH  24  25
ATOM     25  C   UNL A   1      33.122  31.316  27.236  1.00  0.00     0.338 C 
ATOM     26  O   UNL A   1      32.669  32.442  27.190  1.00  0.00    -0.246 OA
BRANCH  25  27
ATOM     27  C   UNL A   1      34.429  30.984  27.800  1.00  0.00     0.060 A 
ATOM     28  C   UNL A   1      35.372  31.993  28.002  1.00  0.00     0.016 A 
ATOM     29  C   UNL A   1      34.698  29.661  28.137  1.00  0.00     0.016 A 
ATOM     30  C   UNL A   1      36.609  31.679  28.540  1.00  0.00     0.010 A 
ATOM     31  C   UNL A   1      35.906  29.360  28.754  1.00  0.00     0.010 A 
ATOM     32  C   UNL A   1      36.862  30.368  28.965  1.00  0.00    -0.014 A 
BRANCH  32  33
ATOM     33  C   UNL A   1      38.093  30.064  29.720  1.00  0.00     0.031 A 
ATOM     34  C   UNL A   1      39.119  29.146  29.133  1.00  0.00     0.074 A 
ATOM     35  C   UNL A   1      38.232  30.593  30.950  1.00  0.00     0.049 A 
ATOM     36  N   UNL A   1      40.192  28.657  29.691  1.00  0.00    -0.248 NA
ATOM     37  C   UNL A   1      38.911  28.713  27.741  1.00  0.00     0.031 C 
ATOM     38  C   UNL A   1      37.273  31.500  31.588  1.00  0.00     0.029 A 
ATOM     39  N   UNL A   1      39.219  30.446  31.888  1.00  0.00    -0.354 N 
ATOM     40  C   UNL A   1      40.766  27.827  28.738  1.00  0.00     0.074 A 
ATOM     41  C   UNL A   1      39.926  27.878  27.563  1.00  0.00     0.031 C 
ATOM     42  C   UNL A   1      37.727  31.845  32.801  1.00  0.00     0.029 A 
ATOM     43  C   UNL A   1      38.971  31.130  33.056  1.00  0.00     0.049 A 
ATOM     44  H   UNL A   1      40.027  29.903  31.741  1.00  0.00     0.167 HD
ATOM     45  C   UNL A   1      41.900  27.097  28.844  1.00  0.00     0.034 A 
ATOM     46  C   UNL A   1      39.657  31.152  34.215  1.00  0.00     0.034 A 
ATOM     47  C   UNL A   1      42.725  27.088  30.022  1.00  0.00     0.049 A 
ATOM     48  C   UNL A   1      40.906  30.319  34.303  1.00  0.00     0.074 A 
ATOM     49  C   UNL A   1      43.897  26.390  30.246  1.00  0.00     0.029 A 
ATOM     50  N   UNL A   1      42.463  27.817  31.174  1.00  0.00    -0.354 N 
ATOM     51  N   UNL A   1      41.467  29.581  33.375  1.00  0.00    -0.248 NA
ATOM     52  C   UNL A   1      41.619  30.323  35.586  1.00  0.00     0.031 C 
ATOM     53  C   UNL A   1      44.335  26.686  31.539  1.00  0.00     0.029 A 
ATOM     54  C   UNL A   1      43.447  27.583  32.117  1.00  0.00     0.049 A 
ATOM     55  H   UNL A   1      41.689  28.412  31.302  1.00  0.00     0.167 HD
ATOM     56  C   UNL A   1      42.604  29.036  33.956  1.00  0.00     0.074 A 
ATOM     57  C   UNL A   1      42.669  29.562  35.308  1.00  0.00     0.031 C 
ATOM     58  C   UNL A   1      43.497  28.159  33.437  1.00  0.00     0.034 A 
BRANCH  45  59
ATOM     59  C   UNL A   1      42.325  26.273  27.659  1.00  0.00     0.023 A 
ATOM     60  C   UNL A   1      43.193  26.833  26.701  1.00  0.00     0.012 A 
ATOM     61  C   UNL A   1      41.922  24.929  27.527  1.00  0.00     0.148 A 
ATOM     62  C   UNL A   1      43.638  26.076  25.617  1.00  0.00     0.002 A 
ATOM     63  C   UNL A   1      42.399  24.170  26.464  1.00  0.00     0.091 A 
ATOM     64  F   UNL A   1      41.081  24.423  28.440  1.00  0.00    -0.205 F 
ATOM     65  C   UNL A   1      43.250  24.743  25.506  1.00  0.00     0.022 A 
BRANCH  63  66
ATOM     66  S   UNL A   1      42.009  22.428  26.258  1.00  0.00     0.127 S 
ATOM     67  O   UNL A   1      42.697  22.118  25.003  1.00  0.00    -0.237 OA
ATOM     68  O   UNL A   1      42.618  21.835  27.449  1.00  0.00    -0.237 OA
ATOM     69  O   UNL A   1      40.557  22.341  26.203  1.00  0.00    -0.744 OA
ENDBRANCH  63  66
ENDBRANCH  45  59
BRANCH  46  70
ATOM     70  C   UNL A   1      39.193  32.009  35.343  1.00  0.00     0.023 A 
ATOM     71  C   UNL A   1      38.309  31.472  36.297  1.00  0.00     0.012 A 
ATOM     72  C   UNL A   1      39.673  33.323  35.522  1.00  0.00     0.148 A 
ATOM     73  C   UNL A   1      37.901  32.228  37.398  1.00  0.00     0.002 A 
ATOM     74  C   UNL A   1      39.312  34.049  36.653  1.00  0.00     0.091 A 
ATOM     75  F   UNL A   1      40.496  33.833  34.594  1.00  0.00    -0.205 F 
ATOM     76  C   UNL A   1      38.414  33.508  37.584  1.00  0.00     0.022 A 
BRANCH  74  77
ATOM     77  S   UNL A   1      40.054  35.639  37.042  1.00  0.00     0.127 S 
ATOM     78  O   UNL A   1      39.647  36.448  35.897  1.00  0.00    -0.237 OA
ATOM     79  O   UNL A   1      39.399  35.984  38.305  1.00  0.00    -0.237 OA
ATOM     80  O   UNL A   1      41.482  35.379  37.166  1.00  0.00    -0.744 OA
ENDBRANCH  74  77
ENDBRANCH  46  70
BRANCH  58  81
ATOM     81  C   UNL A   1      44.616  27.704  34.331  1.00  0.00     0.023 A 
ATOM     82  C   UNL A   1      45.790  28.479  34.410  1.00  0.00     0.012 A 
ATOM     83  C   UNL A   1      44.457  26.588  35.173  1.00  0.00     0.148 A 
ATOM     84  C   UNL A   1      46.799  28.138  35.308  1.00  0.00     0.002 A 
ATOM     85  C   UNL A   1      45.446  26.283  36.099  1.00  0.00     0.091 A 
ATOM     86  F   UNL A   1      43.338  25.857  35.062  1.00  0.00    -0.205 F 
ATOM     87  C   UNL A   1      46.622  27.051  36.161  1.00  0.00     0.022 A 
BRANCH  85  88
ATOM     88  S   UNL A   1      45.256  24.971  37.309  1.00  0.00     0.127 S 
ATOM     89  O   UNL A   1      46.520  25.053  38.038  1.00  0.00    -0.237 OA
ATOM     90  O   UNL A   1      44.085  25.414  38.067  1.00  0.00    -0.237 OA
ATOM     91  O   UNL A   1      45.054  23.748  36.545  1.00  0.00    -0.744 OA
ENDBRANCH  85  88
ENDBRANCH  58  81
ENDBRANCH  32  33
ENDBRANCH  25  27
ENDBRANCH  24  25
ENDBRANCH   1  24
TORSDOF 17
ENDMDL
MODEL 3
REMARK VINA RESULT:     -11.6      1.147      1.749
REMARK SMILES CC[C@@](C)(NC(=O)c1c(C)cc(C)[nH]c1=O)C(=O)OCCOC(=O)c1ccc(-c2c3nc(c(-c4cccc(S(=O)(=O)[O-])c4F)c4ccc([nH]4)c(-c4cccc(S(=O)(=O)[O-])c4F)c4nc(c(-c5cccc(S(=O)(=O)[O-])c5F)c5ccc2[nH]5)C=C4)C=C3)cc1
REMARK SMILES IDX 21 1 20 2 19 3 17 4 18 5 3 6 4 7 2 8 1 9 5 10 6 11 7 13 8 14
REMARK SMILES IDX 9 15 15 16 10 17 11 18 14 19 16 20 12 21 13 23 22 24 23 25
REMARK SMILES IDX 24 26 25 27 26 28 87 29 27 30 86 31 28 32 29 33 30 34 80 35
REMARK SMILES IDX 31 36 85 37 79 38 81 39 32 40 84 41 78 42 77 43 33 45 65 46
REMARK SMILES IDX 45 47 64 48 46 49 49 50 63 51 82 52 47 53 48 54 62 56 83 57
REMARK SMILES IDX 50 58 34 59 35 60 43 61 36 62 38 63 44 64 37 65 39 66 40 67
REMARK SMILES IDX 41 68 42 69 66 70 67 71 75 72 68 73 70 74 76 75 69 76 71 77
REMARK SMILES IDX 72 78 73 79 74 80 51 81 52 82 60 83 53 84 55 85 61 86 54 87
REMARK SMILES IDX 56 88 57 89 58 90 59 91
REMARK H PARENT 5 12 14 22 81 44 49 55
REMARK Flexibility Score: inf
ROOT
ATOM      1  C   UNL A   1      36.511  20.706  25.145  1.00  0.00     0.275 C 
ENDROOT
BRANCH   1   2
ATOM      2  C   UNL A   1      35.459  21.335  26.045  1.00  0.00     0.274 C 
BRANCH   2   3
ATOM      3  O   UNL A   1      34.950  22.545  25.438  1.00  0.00    -0.460 OA
BRANCH   3   4
ATOM      4  C   UNL A   1      33.624  22.768  25.582  1.00  0.00     0.331 C 
ATOM      5  O   UNL A   1      33.105  23.013  26.668  1.00  0.00    -0.249 OA
BRANCH   4   6
ATOM      6  C   UNL A   1      32.785  22.562  24.284  1.00  0.00     0.135 C 
ATOM      7  C   UNL A   1      33.678  23.104  23.150  1.00  0.00     0.047 C 
BRANCH   6   8
ATOM      8  C   UNL A   1      32.551  21.021  24.070  1.00  0.00     0.037 C 
ATOM      9  C   UNL A   1      32.135  20.502  22.697  1.00  0.00     0.007 C 
ENDBRANCH   6   8
BRANCH   6  10
ATOM     10  N   UNL A   1      31.401  23.137  24.107  1.00  0.00    -0.336 N 
ATOM     11  C   UNL A   1      30.909  24.378  23.834  1.00  0.00     0.258 C 
ATOM     12  H   UNL A   1      30.693  22.461  24.214  1.00  0.00     0.165 HD
ATOM     13  O   UNL A   1      30.025  24.477  22.980  1.00  0.00    -0.269 OA
BRANCH  11  14
ATOM     14  C   UNL A   1      31.179  25.504  24.744  1.00  0.00     0.107 A 
ATOM     15  C   UNL A   1      31.998  26.505  24.343  1.00  0.00    -0.031 A 
ATOM     16  C   UNL A   1      30.677  25.496  26.143  1.00  0.00     0.261 A 
ATOM     17  C   UNL A   1      32.709  26.601  23.017  1.00  0.00     0.045 C 
ATOM     18  C   UNL A   1      32.216  27.648  25.220  1.00  0.00     0.025 A 
ATOM     19  N   UNL A   1      30.963  26.612  26.902  1.00  0.00    -0.326 N 
ATOM     20  O   UNL A   1      30.012  24.572  26.604  1.00  0.00    -0.269 OA
ATOM     21  C   UNL A   1      31.682  27.692  26.449  1.00  0.00     0.015 A 
ATOM     22  H   UNL A   1      30.631  26.635  27.829  1.00  0.00     0.169 HD
ATOM     23  C   UNL A   1      31.737  28.910  27.318  1.00  0.00     0.064 C 
ENDBRANCH  11  14
ENDBRANCH   6  10
ENDBRANCH   4   6
ENDBRANCH   3   4
ENDBRANCH   2   3
ENDBRANCH   1   2
BRANCH   1  24
ATOM     24  O   UNL A   1      37.627  21.595  25.082  1.00  0.00    -0.458 OA
BRANCH  24  25
ATOM     25  C   UNL A   1      38.722  21.204  25.772  1.00  0.00     0.338 C 
ATOM     26  O   UNL A   1      39.158  20.083  25.936  1.00  0.00    -0.246 OA
BRANCH  25  27
ATOM     27  C   UNL A   1      39.328  22.407  26.343  1.00  0.00     0.060 A 
ATOM     28  C   UNL A   1      40.464  22.294  27.146  1.00  0.00     0.016 A 
ATOM     29  C   UNL A   1      38.759  23.644  26.057  1.00  0.00     0.016 A 
ATOM     30  C   UNL A   1      41.039  23.435  27.683  1.00  0.00     0.010 A 
ATOM     31  C   UNL A   1      39.385  24.792  26.526  1.00  0.00     0.010 A 
ATOM     32  C   UNL A   1      40.531  24.692  27.333  1.00  0.00    -0.014 A 
BRANCH  32  33
ATOM     33  C   UNL A   1      41.253  25.915  27.734  1.00  0.00     0.031 A 
ATOM     34  C   UNL A   1      40.552  26.968  28.533  1.00  0.00     0.074 A 
ATOM     35  C   UNL A   1      42.526  26.066  27.322  1.00  0.00     0.049 A 
ATOM     36  N   UNL A   1      40.971  28.158  28.863  1.00  0.00    -0.248 NA
ATOM     37  C   UNL A   1      39.198  26.648  29.017  1.00  0.00     0.031 C 
ATOM     38  C   UNL A   1      43.279  25.079  26.541  1.00  0.00     0.029 A 
ATOM     39  N   UNL A   1      43.411  27.098  27.487  1.00  0.00    -0.354 N 
ATOM     40  C   UNL A   1      39.922  28.747  29.557  1.00  0.00     0.074 A 
ATOM     41  C   UNL A   1      38.845  27.784  29.603  1.00  0.00     0.031 C 
ATOM     42  C   UNL A   1      44.516  25.543  26.314  1.00  0.00     0.029 A 
ATOM     43  C   UNL A   1      44.622  26.886  26.869  1.00  0.00     0.049 A 
ATOM     44  H   UNL A   1      43.200  27.913  27.998  1.00  0.00     0.167 HD
ATOM     45  C   UNL A   1      39.877  29.982  30.107  1.00  0.00     0.034 A 
ATOM     46  C   UNL A   1      45.688  27.699  26.740  1.00  0.00     0.034 A 
ATOM     47  C   UNL A   1      40.978  30.906  30.062  1.00  0.00     0.049 A 
ATOM     48  C   UNL A   1      45.600  29.069  27.353  1.00  0.00     0.074 A 
ATOM     49  C   UNL A   1      41.051  32.183  30.586  1.00  0.00     0.029 A 
ATOM     50  N   UNL A   1      42.201  30.647  29.457  1.00  0.00    -0.354 N 
ATOM     51  N   UNL A   1      44.622  29.593  28.054  1.00  0.00    -0.248 NA
ATOM     52  C   UNL A   1      46.755  29.956  27.168  1.00  0.00     0.031 C 
ATOM     53  C   UNL A   1      42.313  32.701  30.285  1.00  0.00     0.029 A 
ATOM     54  C   UNL A   1      43.035  31.742  29.589  1.00  0.00     0.049 A 
ATOM     55  H   UNL A   1      42.438  29.808  29.000  1.00  0.00     0.167 HD
ATOM     56  C   UNL A   1      45.043  30.869  28.400  1.00  0.00     0.074 A 
ATOM     57  C   UNL A   1      46.382  31.023  27.862  1.00  0.00     0.031 C 
ATOM     58  C   UNL A   1      44.378  31.839  29.074  1.00  0.00     0.034 A 
BRANCH  45  59
ATOM     59  C   UNL A   1      38.619  30.393  30.821  1.00  0.00     0.023 A 
ATOM     60  C   UNL A   1      38.476  30.109  32.194  1.00  0.00     0.012 A 
ATOM     61  C   UNL A   1      37.609  31.115  30.155  1.00  0.00     0.148 A 
ATOM     62  C   UNL A   1      37.339  30.520  32.890  1.00  0.00     0.002 A 
ATOM     63  C   UNL A   1      36.495  31.554  30.864  1.00  0.00     0.091 A 
ATOM     64  F   UNL A   1      37.757  31.358  28.846  1.00  0.00    -0.205 F 
ATOM     65  C   UNL A   1      36.356  31.250  32.228  1.00  0.00     0.022 A 
BRANCH  63  66
ATOM     66  S   UNL A   1      35.198  32.552  30.123  1.00  0.00     0.127 S 
ATOM     67  O   UNL A   1      34.274  32.716  31.246  1.00  0.00    -0.237 OA
ATOM     68  O   UNL A   1      35.923  33.765  29.747  1.00  0.00    -0.237 OA
ATOM     69  O   UNL A   1      34.679  31.776  29.005  1.00  0.00    -0.744 OA
ENDBRANCH  63  66
ENDBRANCH  45  59
BRANCH  46  70
ATOM     70  C   UNL A   1      46.914  27.220  26.040  1.00  0.00     0.023 A 
ATOM     71  C   UNL A   1      47.085  27.513  24.674  1.00  0.00     0.012 A 
ATOM     72  C   UNL A   1      47.943  26.542  26.725  1.00  0.00     0.148 A 
ATOM     73  C   UNL A   1      48.248  27.130  24.002  1.00  0.00     0.002 A 
ATOM     74  C   UNL A   1      49.125  26.219  26.066  1.00  0.00     0.091 A 
ATOM     75  F   UNL A   1      47.758  26.246  28.020  1.00  0.00    -0.205 F 
ATOM     76  C   UNL A   1      49.273  26.499  24.700  1.00  0.00     0.022 A 
BRANCH  74  77
ATOM     77  S   UNL A   1      50.548  25.548  26.935  1.00  0.00     0.127 S 
ATOM     78  O   UNL A   1      51.492  25.332  25.843  1.00  0.00    -0.237 OA
ATOM     79  O   UNL A   1      50.898  26.641  27.844  1.00  0.00    -0.237 OA
ATOM     80  O   UNL A   1      50.062  24.350  27.607  1.00  0.00    -0.744 OA
ENDBRANCH  74  77
ENDBRANCH  46  70
BRANCH  58  81
ATOM     81  C   UNL A   1      45.080  33.155  29.261  1.00  0.00     0.023 A 
ATOM     82  C   UNL A   1      45.926  33.330  30.374  1.00  0.00     0.012 A 
ATOM     83  C   UNL A   1      44.996  34.161  28.282  1.00  0.00     0.148 A 
ATOM     84  C   UNL A   1      46.669  34.499  30.516  1.00  0.00     0.002 A 
ATOM     85  C   UNL A   1      45.777  35.303  28.406  1.00  0.00     0.091 A 
ATOM     86  F   UNL A   1      44.168  33.977  27.243  1.00  0.00    -0.205 F 
ATOM     87  C   UNL A   1      46.607  35.477  29.527  1.00  0.00     0.022 A 
BRANCH  85  88
ATOM     88  S   UNL A   1      45.844  36.563  27.129  1.00  0.00     0.127 S 
ATOM     89  O   UNL A   1      46.810  37.505  27.691  1.00  0.00    -0.237 OA
ATOM     90  O   UNL A   1      46.328  35.809  25.973  1.00  0.00    -0.237 OA
ATOM     91  O   UNL A   1      44.484  37.069  26.995  1.00  0.00    -0.744 OA
ENDBRANCH  85  88
ENDBRANCH  58  81
ENDBRANCH  32  33
ENDBRANCH  25  27
ENDBRANCH  24  25
ENDBRANCH   1  24
TORSDOF 17
ENDMDL
