MODEL 1
REMARK VINA RESULT:     -12.4      0.000      0.000
REMARK SMILES O=C(OCCOC(=O)[C@@H]1[C@@H](C(=O)Nc2ccc(F)c(F)c2)[C@H]2CC[C@@H]1O2)c1ccc(-c2c3nc(c(-c4cccc(S(=O)(=O)[O-])c4F)c4ccc([nH]4)c(-c4cccc(S(=O)(=O)[O-])c4F)c4nc(c(-c5cccc(S(=O)(=O)[O-])c5F)c5ccc2[nH]5)C=C4)C=C3)cc1
REMARK SMILES IDX 4 1 3 2 2 3 1 4 27 5 28 6 89 7 29 8 88 9 30 10 31 11 32 12
REMARK SMILES IDX 82 13 33 14 87 15 81 16 83 17 34 18 86 19 80 20 79 21 35 23
REMARK SMILES IDX 67 24 47 25 66 26 48 27 51 28 65 29 84 30 49 31 50 32 64 34
REMARK SMILES IDX 85 35 52 36 36 37 37 38 45 39 38 40 40 41 46 42 39 43 41 44
REMARK SMILES IDX 42 45 43 46 44 47 68 48 69 49 77 50 70 51 72 52 78 53 71 54
REMARK SMILES IDX 73 55 74 56 75 57 76 58 53 59 54 60 62 61 55 62 57 63 63 64
REMARK SMILES IDX 56 65 58 66 59 67 60 68 61 69 5 70 6 71 7 72 8 73 9 74 10 75
REMARK SMILES IDX 25 76 22 77 24 78 26 79 23 80 11 81 12 82 13 83 14 85 15 86
REMARK SMILES IDX 21 87 16 88 19 89 17 90 20 91 18 92
REMARK H PARENT 83 22 51 33 13 84
REMARK Flexibility Score: inf
ROOT
ATOM      1  C   UNL A   1      37.474  21.008  25.339  1.00  0.00     0.275 C 
ENDROOT
BRANCH   1   2
ATOM      2  O   UNL A   1      38.880  21.271  25.328  1.00  0.00    -0.458 OA
BRANCH   2   3
ATOM      3  C   UNL A   1      39.719  21.428  26.379  1.00  0.00     0.338 C 
ATOM      4  O   UNL A   1      40.044  20.427  27.017  1.00  0.00    -0.246 OA
BRANCH   3   5
ATOM      5  C   UNL A   1      40.128  22.769  26.912  1.00  0.00     0.060 A 
ATOM      6  C   UNL A   1      40.926  23.028  28.034  1.00  0.00     0.016 A 
ATOM      7  C   UNL A   1      39.721  23.864  26.139  1.00  0.00     0.016 A 
ATOM      8  C   UNL A   1      41.428  24.312  28.301  1.00  0.00     0.010 A 
ATOM      9  C   UNL A   1      40.268  25.129  26.363  1.00  0.00     0.010 A 
ATOM     10  C   UNL A   1      41.136  25.369  27.446  1.00  0.00    -0.014 A 
BRANCH  10  11
ATOM     11  C   UNL A   1      41.549  26.770  27.723  1.00  0.00     0.031 A 
ATOM     12  C   UNL A   1      43.009  27.067  27.567  1.00  0.00     0.074 A 
ATOM     13  C   UNL A   1      40.719  27.724  28.199  1.00  0.00     0.049 A 
ATOM     14  N   UNL A   1      43.681  28.125  27.917  1.00  0.00    -0.248 NA
ATOM     15  C   UNL A   1      43.828  26.008  26.944  1.00  0.00     0.031 C 
ATOM     16  C   UNL A   1      39.270  27.623  28.337  1.00  0.00     0.029 A 
ATOM     17  N   UNL A   1      41.003  28.957  28.746  1.00  0.00    -0.354 N 
ATOM     18  C   UNL A   1      44.989  27.854  27.552  1.00  0.00     0.074 A 
ATOM     19  C   UNL A   1      45.047  26.480  27.118  1.00  0.00     0.031 C 
ATOM     20  C   UNL A   1      38.816  28.650  29.079  1.00  0.00     0.029 A 
ATOM     21  C   UNL A   1      39.937  29.513  29.423  1.00  0.00     0.049 A 
ATOM     22  H   UNL A   1      41.880  29.397  28.662  1.00  0.00     0.167 HD
ATOM     23  C   UNL A   1      46.030  28.708  27.465  1.00  0.00     0.034 A 
ATOM     24  C   UNL A   1      39.877  30.589  30.234  1.00  0.00     0.034 A 
ATOM     25  C   UNL A   1      45.949  30.079  27.856  1.00  0.00     0.049 A 
ATOM     26  C   UNL A   1      41.081  31.494  30.279  1.00  0.00     0.074 A 
ATOM     27  C   UNL A   1      46.895  31.073  27.726  1.00  0.00     0.029 A 
ATOM     28  N   UNL A   1      44.846  30.641  28.480  1.00  0.00    -0.354 N 
ATOM     29  N   UNL A   1      42.263  31.309  29.744  1.00  0.00    -0.248 NA
ATOM     30  C   UNL A   1      40.914  32.804  30.924  1.00  0.00     0.031 C 
ATOM     31  C   UNL A   1      46.379  32.230  28.318  1.00  0.00     0.029 A 
ATOM     32  C   UNL A   1      45.095  31.965  28.774  1.00  0.00     0.049 A 
ATOM     33  H   UNL A   1      44.008  30.164  28.685  1.00  0.00     0.167 HD
ATOM     34  C   UNL A   1      42.942  32.512  29.890  1.00  0.00     0.074 A 
ATOM     35  C   UNL A   1      42.055  33.405  30.607  1.00  0.00     0.031 C 
ATOM     36  C   UNL A   1      44.174  32.853  29.438  1.00  0.00     0.034 A 
BRANCH  23  37
ATOM     37  C   UNL A   1      47.287  28.148  26.867  1.00  0.00     0.023 A 
ATOM     38  C   UNL A   1      48.411  27.922  27.695  1.00  0.00     0.012 A 
ATOM     39  C   UNL A   1      47.395  27.957  25.482  1.00  0.00     0.148 A 
ATOM     40  C   UNL A   1      49.647  27.602  27.140  1.00  0.00     0.002 A 
ATOM     41  C   UNL A   1      48.617  27.582  24.942  1.00  0.00     0.091 A 
ATOM     42  F   UNL A   1      46.323  28.203  24.716  1.00  0.00    -0.205 F 
ATOM     43  C   UNL A   1      49.748  27.429  25.763  1.00  0.00     0.022 A 
BRANCH  41  44
ATOM     44  S   UNL A   1      48.837  27.273  23.190  1.00  0.00     0.127 S 
ATOM     45  O   UNL A   1      50.296  27.248  23.077  1.00  0.00    -0.237 OA
ATOM     46  O   UNL A   1      48.190  25.970  23.030  1.00  0.00    -0.237 OA
ATOM     47  O   UNL A   1      48.176  28.370  22.501  1.00  0.00    -0.744 OA
ENDBRANCH  41  44
ENDBRANCH  23  37
BRANCH  24  48
ATOM     48  C   UNL A   1      38.620  30.943  30.959  1.00  0.00     0.023 A 
ATOM     49  C   UNL A   1      38.464  30.569  32.308  1.00  0.00     0.012 A 
ATOM     50  C   UNL A   1      37.571  31.639  30.319  1.00  0.00     0.148 A 
ATOM     51  C   UNL A   1      37.278  30.840  32.995  1.00  0.00     0.002 A 
ATOM     52  C   UNL A   1      36.401  31.931  31.019  1.00  0.00     0.091 A 
ATOM     53  F   UNL A   1      37.738  32.001  29.040  1.00  0.00    -0.205 F 
ATOM     54  C   UNL A   1      36.247  31.518  32.352  1.00  0.00     0.022 A 
BRANCH  52  55
ATOM     55  S   UNL A   1      35.034  32.861  30.309  1.00  0.00     0.127 S 
ATOM     56  O   UNL A   1      34.130  32.989  31.453  1.00  0.00    -0.237 OA
ATOM     57  O   UNL A   1      35.699  34.106  29.912  1.00  0.00    -0.237 OA
ATOM     58  O   UNL A   1      34.535  32.058  29.209  1.00  0.00    -0.744 OA
ENDBRANCH  52  55
ENDBRANCH  24  48
BRANCH  36  59
ATOM     59  C   UNL A   1      44.628  34.272  29.618  1.00  0.00     0.023 A 
ATOM     60  C   UNL A   1      45.274  34.665  30.803  1.00  0.00     0.012 A 
ATOM     61  C   UNL A   1      44.548  35.170  28.534  1.00  0.00     0.148 A 
ATOM     62  C   UNL A   1      45.829  35.939  30.910  1.00  0.00     0.002 A 
ATOM     63  C   UNL A   1      45.155  36.413  28.625  1.00  0.00     0.091 A 
ATOM     64  F   UNL A   1      43.908  34.775  27.423  1.00  0.00    -0.205 F 
ATOM     65  C   UNL A   1      45.787  36.803  29.816  1.00  0.00     0.022 A 
BRANCH  63  66
ATOM     66  S   UNL A   1      45.264  37.535  27.228  1.00  0.00     0.127 S 
ATOM     67  O   UNL A   1      43.854  37.752  26.911  1.00  0.00    -0.237 OA
ATOM     68  O   UNL A   1      45.944  38.691  27.815  1.00  0.00    -0.237 OA
ATOM     69  O   UNL A   1      46.030  36.836  26.204  1.00  0.00    -0.744 OA
ENDBRANCH  63  66
ENDBRANCH  36  59
ENDBRANCH  10  11
ENDBRANCH   3   5
ENDBRANCH   2   3
ENDBRANCH   1   2
BRANCH   1  70
ATOM     70  C   UNL A   1      36.591  22.154  25.849  1.00  0.00     0.274 C 
BRANCH  70  71
ATOM     71  O   UNL A   1      36.624  23.368  25.076  1.00  0.00    -0.462 OA
BRANCH  71  72
ATOM     72  C   UNL A   1      35.911  23.373  23.914  1.00  0.00     0.312 C 
ATOM     73  O   UNL A   1      36.435  23.259  22.810  1.00  0.00    -0.252 OA
BRANCH  72  74
ATOM     74  C   UNL A   1      34.406  23.614  24.078  1.00  0.00     0.143 C 
ATOM     75  C   UNL A   1      33.533  22.408  23.718  1.00  0.00     0.124 C 
ATOM     76  C   UNL A   1      33.919  24.632  23.079  1.00  0.00     0.133 C 
ATOM     77  C   UNL A   1      32.739  22.916  22.504  1.00  0.00     0.132 C 
ATOM     78  C   UNL A   1      32.492  25.119  23.312  1.00  0.00     0.036 C 
ATOM     79  O   UNL A   1      33.751  23.784  21.925  1.00  0.00    -0.373 OA
ATOM     80  C   UNL A   1      31.666  23.965  22.752  1.00  0.00     0.035 C 
BRANCH  75  81
ATOM     81  C   UNL A   1      32.648  21.974  24.879  1.00  0.00     0.231 C 
ATOM     82  O   UNL A   1      32.338  22.723  25.801  1.00  0.00    -0.274 OA
ATOM     83  N   UNL A   1      32.165  20.689  24.856  1.00  0.00    -0.326 N 
ATOM     84  H   UNL A   1      31.298  20.528  25.293  1.00  0.00     0.169 HD
BRANCH  83  85
ATOM     85  C   UNL A   1      32.796  19.589  24.266  1.00  0.00     0.044 A 
ATOM     86  C   UNL A   1      32.194  18.924  23.191  1.00  0.00     0.029 A 
ATOM     87  C   UNL A   1      34.016  19.146  24.759  1.00  0.00     0.068 A 
ATOM     88  C   UNL A   1      32.711  17.725  22.711  1.00  0.00     0.044 A 
ATOM     89  C   UNL A   1      34.541  17.953  24.265  1.00  0.00     0.160 A 
ATOM     90  C   UNL A   1      33.878  17.233  23.272  1.00  0.00     0.158 A 
ATOM     91  F   UNL A   1      35.685  17.481  24.777  1.00  0.00    -0.204 F 
ATOM     92  F   UNL A   1      34.366  16.062  22.842  1.00  0.00    -0.204 F 
ENDBRANCH  83  85
ENDBRANCH  75  81
ENDBRANCH  72  74
ENDBRANCH  71  72
ENDBRANCH  70  71
ENDBRANCH   1  70
TORSDOF 16
ENDMDL
MODEL 2
REMARK VINA RESULT:     -12.4      5.973      9.244
REMARK SMILES O=C(OCCOC(=O)[C@@H]1[C@@H](C(=O)Nc2ccc(F)c(F)c2)[C@H]2CC[C@@H]1O2)c1ccc(-c2c3nc(c(-c4cccc(S(=O)(=O)[O-])c4F)c4ccc([nH]4)c(-c4cccc(S(=O)(=O)[O-])c4F)c4nc(c(-c5cccc(S(=O)(=O)[O-])c5F)c5ccc2[nH]5)C=C4)C=C3)cc1
REMARK SMILES IDX 4 1 3 2 2 3 1 4 27 5 28 6 89 7 29 8 88 9 30 10 31 11 32 12
REMARK SMILES IDX 82 13 33 14 87 15 81 16 83 17 34 18 86 19 80 20 79 21 35 23
REMARK SMILES IDX 67 24 47 25 66 26 48 27 51 28 65 29 84 30 49 31 50 32 64 34
REMARK SMILES IDX 85 35 52 36 36 37 37 38 45 39 38 40 40 41 46 42 39 43 41 44
REMARK SMILES IDX 42 45 43 46 44 47 68 48 69 49 77 50 70 51 72 52 78 53 71 54
REMARK SMILES IDX 73 55 74 56 75 57 76 58 53 59 54 60 62 61 55 62 57 63 63 64
REMARK SMILES IDX 56 65 58 66 59 67 60 68 61 69 5 70 6 71 7 72 8 73 9 74 10 75
REMARK SMILES IDX 25 76 22 77 24 78 26 79 23 80 11 81 12 82 13 83 14 85 15 86
REMARK SMILES IDX 21 87 16 88 19 89 17 90 20 91 18 92
REMARK H PARENT 83 22 51 33 13 84
REMARK Flexibility Score: inf
ROOT
ATOM      1  C   UNL A   1      31.834  31.925  26.916  1.00  0.00     0.275 C 
ENDROOT
BRANCH   1   2
ATOM      2  O   UNL A   1      32.418  33.228  27.017  1.00  0.00    -0.458 OA
BRANCH   2   3
ATOM      3  C   UNL A   1      33.012  33.807  28.087  1.00  0.00     0.338 C 
ATOM      4  O   UNL A   1      32.512  34.835  28.542  1.00  0.00    -0.246 OA
BRANCH   3   5
ATOM      5  C   UNL A   1      34.338  33.366  28.630  1.00  0.00     0.060 A 
ATOM      6  C   UNL A   1      35.599  33.896  28.326  1.00  0.00     0.016 A 
ATOM      7  C   UNL A   1      34.275  32.364  29.608  1.00  0.00     0.016 A 
ATOM      8  C   UNL A   1      36.741  33.553  29.068  1.00  0.00     0.010 A 
ATOM      9  C   UNL A   1      35.394  32.067  30.389  1.00  0.00     0.010 A 
ATOM     10  C   UNL A   1      36.643  32.665  30.133  1.00  0.00    -0.014 A 
BRANCH  10  11
ATOM     11  C   UNL A   1      37.826  32.181  30.893  1.00  0.00     0.031 A 
ATOM     12  C   UNL A   1      38.496  30.955  30.352  1.00  0.00     0.074 A 
ATOM     13  C   UNL A   1      38.240  32.708  32.065  1.00  0.00     0.049 A 
ATOM     14  N   UNL A   1      39.411  30.204  30.895  1.00  0.00    -0.248 NA
ATOM     15  C   UNL A   1      38.053  30.503  29.018  1.00  0.00     0.031 C 
ATOM     16  C   UNL A   1      37.750  33.934  32.687  1.00  0.00     0.029 A 
ATOM     17  N   UNL A   1      39.127  32.214  32.998  1.00  0.00    -0.354 N 
ATOM     18  C   UNL A   1      39.648  29.205  29.966  1.00  0.00     0.074 A 
ATOM     19  C   UNL A   1      38.670  29.342  28.915  1.00  0.00     0.031 C 
ATOM     20  C   UNL A   1      38.197  34.006  33.954  1.00  0.00     0.029 A 
ATOM     21  C   UNL A   1      39.053  32.858  34.217  1.00  0.00     0.049 A 
ATOM     22  H   UNL A   1      39.751  31.476  32.814  1.00  0.00     0.167 HD
ATOM     23  C   UNL A   1      40.669  28.324  29.923  1.00  0.00     0.034 A 
ATOM     24  C   UNL A   1      39.605  32.549  35.409  1.00  0.00     0.034 A 
ATOM     25  C   UNL A   1      41.659  28.227  30.949  1.00  0.00     0.049 A 
ATOM     26  C   UNL A   1      40.649  31.464  35.430  1.00  0.00     0.074 A 
ATOM     27  C   UNL A   1      42.798  27.451  30.981  1.00  0.00     0.029 A 
ATOM     28  N   UNL A   1      41.604  28.928  32.144  1.00  0.00    -0.354 N 
ATOM     29  N   UNL A   1      41.007  30.654  34.462  1.00  0.00    -0.248 NA
ATOM     30  C   UNL A   1      41.452  31.327  36.654  1.00  0.00     0.031 C 
ATOM     31  C   UNL A   1      43.410  27.649  32.223  1.00  0.00     0.029 A 
ATOM     32  C   UNL A   1      42.675  28.581  32.941  1.00  0.00     0.049 A 
ATOM     33  H   UNL A   1      40.904  29.576  32.387  1.00  0.00     0.167 HD
ATOM     34  C   UNL A   1      42.140  29.991  34.918  1.00  0.00     0.074 A 
ATOM     35  C   UNL A   1      42.381  30.460  36.268  1.00  0.00     0.031 C 
ATOM     36  C   UNL A   1      42.927  29.104  34.261  1.00  0.00     0.034 A 
BRANCH  23  37
ATOM     37  C   UNL A   1      40.750  27.474  28.690  1.00  0.00     0.023 A 
ATOM     38  C   UNL A   1      39.959  26.306  28.596  1.00  0.00     0.012 A 
ATOM     39  C   UNL A   1      41.682  27.764  27.683  1.00  0.00     0.148 A 
ATOM     40  C   UNL A   1      40.161  25.393  27.565  1.00  0.00     0.002 A 
ATOM     41  C   UNL A   1      41.838  26.878  26.627  1.00  0.00     0.091 A 
ATOM     42  F   UNL A   1      42.438  28.864  27.807  1.00  0.00    -0.205 F 
ATOM     43  C   UNL A   1      41.100  25.681  26.578  1.00  0.00     0.022 A 
BRANCH  41  44
ATOM     44  S   UNL A   1      42.973  27.186  25.275  1.00  0.00     0.127 S 
ATOM     45  O   UNL A   1      42.948  25.904  24.570  1.00  0.00    -0.237 OA
ATOM     46  O   UNL A   1      42.310  28.284  24.569  1.00  0.00    -0.237 OA
ATOM     47  O   UNL A   1      44.244  27.537  25.887  1.00  0.00    -0.744 OA
ENDBRANCH  41  44
ENDBRANCH  23  37
BRANCH  24  48
ATOM     48  C   UNL A   1      39.290  33.339  36.636  1.00  0.00     0.023 A 
ATOM     49  C   UNL A   1      39.805  34.643  36.777  1.00  0.00     0.012 A 
ATOM     50  C   UNL A   1      38.492  32.805  37.672  1.00  0.00     0.148 A 
ATOM     51  C   UNL A   1      39.571  35.384  37.938  1.00  0.00     0.002 A 
ATOM     52  C   UNL A   1      38.239  33.562  38.815  1.00  0.00     0.091 A 
ATOM     53  F   UNL A   1      37.998  31.570  37.519  1.00  0.00    -0.205 F 
ATOM     54  C   UNL A   1      38.790  34.845  38.956  1.00  0.00     0.022 A 
BRANCH  52  55
ATOM     55  S   UNL A   1      37.189  32.992  40.162  1.00  0.00     0.127 S 
ATOM     56  O   UNL A   1      35.927  32.729  39.469  1.00  0.00    -0.237 OA
ATOM     57  O   UNL A   1      37.906  31.792  40.605  1.00  0.00    -0.237 OA
ATOM     58  O   UNL A   1      37.155  34.075  41.126  1.00  0.00    -0.744 OA
ENDBRANCH  52  55
ENDBRANCH  24  48
BRANCH  36  59
ATOM     59  C   UNL A   1      44.179  28.627  34.939  1.00  0.00     0.023 A 
ATOM     60  C   UNL A   1      45.391  29.313  34.753  1.00  0.00     0.012 A 
ATOM     61  C   UNL A   1      44.101  27.586  35.886  1.00  0.00     0.148 A 
ATOM     62  C   UNL A   1      46.516  28.963  35.497  1.00  0.00     0.002 A 
ATOM     63  C   UNL A   1      45.207  27.284  36.666  1.00  0.00     0.091 A 
ATOM     64  F   UNL A   1      42.937  26.935  36.028  1.00  0.00    -0.205 F 
ATOM     65  C   UNL A   1      46.419  27.964  36.466  1.00  0.00     0.022 A 
BRANCH  63  66
ATOM     66  S   UNL A   1      45.136  26.108  38.021  1.00  0.00     0.127 S 
ATOM     67  O   UNL A   1      46.352  26.434  38.762  1.00  0.00    -0.237 OA
ATOM     68  O   UNL A   1      43.891  26.488  38.691  1.00  0.00    -0.237 OA
ATOM     69  O   UNL A   1      45.116  24.785  37.410  1.00  0.00    -0.744 OA
ENDBRANCH  63  66
ENDBRANCH  36  59
ENDBRANCH  10  11
ENDBRANCH   3   5
ENDBRANCH   2   3
ENDBRANCH   1   2
BRANCH   1  70
ATOM     70  C   UNL A   1      32.816  30.780  26.641  1.00  0.00     0.274 C 
BRANCH  70  71
ATOM     71  O   UNL A   1      32.276  29.449  26.728  1.00  0.00    -0.462 OA
BRANCH  71  72
ATOM     72  C   UNL A   1      33.168  28.421  26.660  1.00  0.00     0.312 C 
ATOM     73  O   UNL A   1      34.244  28.431  27.252  1.00  0.00    -0.252 OA
BRANCH  72  74
ATOM     74  C   UNL A   1      32.769  27.276  25.721  1.00  0.00     0.143 C 
ATOM     75  C   UNL A   1      31.449  27.504  24.978  1.00  0.00     0.124 C 
ATOM     76  C   UNL A   1      32.446  26.032  26.508  1.00  0.00     0.133 C 
ATOM     77  C   UNL A   1      30.552  26.385  25.532  1.00  0.00     0.132 C 
ATOM     78  C   UNL A   1      32.270  24.774  25.662  1.00  0.00     0.036 C 
ATOM     79  O   UNL A   1      31.085  26.322  26.883  1.00  0.00    -0.373 OA
ATOM     80  C   UNL A   1      30.862  24.958  25.107  1.00  0.00     0.035 C 
BRANCH  75  81
ATOM     81  C   UNL A   1      31.624  27.444  23.466  1.00  0.00     0.231 C 
ATOM     82  O   UNL A   1      32.638  27.010  22.927  1.00  0.00    -0.274 OA
ATOM     83  N   UNL A   1      30.575  27.875  22.694  1.00  0.00    -0.326 N 
ATOM     84  H   UNL A   1      30.469  27.458  21.808  1.00  0.00     0.169 HD
BRANCH  83  85
ATOM     85  C   UNL A   1      29.642  28.853  23.053  1.00  0.00     0.044 A 
ATOM     86  C   UNL A   1      28.273  28.624  22.869  1.00  0.00     0.029 A 
ATOM     87  C   UNL A   1      30.077  30.062  23.580  1.00  0.00     0.068 A 
ATOM     88  C   UNL A   1      27.346  29.646  23.047  1.00  0.00     0.044 A 
ATOM     89  C   UNL A   1      29.144  31.079  23.774  1.00  0.00     0.160 A 
ATOM     90  C   UNL A   1      27.796  30.882  23.479  1.00  0.00     0.158 A 
ATOM     91  F   UNL A   1      29.560  32.271  24.222  1.00  0.00    -0.204 F 
ATOM     92  F   UNL A   1      26.917  31.884  23.621  1.00  0.00    -0.204 F 
ENDBRANCH  83  85
ENDBRANCH  75  81
ENDBRANCH  72  74
ENDBRANCH  71  72
ENDBRANCH  70  71
ENDBRANCH   1  70
TORSDOF 16
ENDMDL
MODEL 3
REMARK VINA RESULT:     -12.3      1.279      1.582
REMARK SMILES O=C(OCCOC(=O)[C@@H]1[C@@H](C(=O)Nc2ccc(F)c(F)c2)[C@H]2CC[C@@H]1O2)c1ccc(-c2c3nc(c(-c4cccc(S(=O)(=O)[O-])c4F)c4ccc([nH]4)c(-c4cccc(S(=O)(=O)[O-])c4F)c4nc(c(-c5cccc(S(=O)(=O)[O-])c5F)c5ccc2[nH]5)C=C4)C=C3)cc1
REMARK SMILES IDX 4 1 3 2 2 3 1 4 27 5 28 6 89 7 29 8 88 9 30 10 31 11 32 12
REMARK SMILES IDX 82 13 33 14 87 15 81 16 83 17 34 18 86 19 80 20 79 21 35 23
REMARK SMILES IDX 67 24 47 25 66 26 48 27 51 28 65 29 84 30 49 31 50 32 64 34
REMARK SMILES IDX 85 35 52 36 36 37 37 38 45 39 38 40 40 41 46 42 39 43 41 44
REMARK SMILES IDX 42 45 43 46 44 47 68 48 69 49 77 50 70 51 72 52 78 53 71 54
REMARK SMILES IDX 73 55 74 56 75 57 76 58 53 59 54 60 62 61 55 62 57 63 63 64
REMARK SMILES IDX 56 65 58 66 59 67 60 68 61 69 5 70 6 71 7 72 8 73 9 74 10 75
REMARK SMILES IDX 25 76 22 77 24 78 26 79 23 80 11 81 12 82 13 83 14 85 15 86
REMARK SMILES IDX 21 87 16 88 19 89 17 90 20 91 18 92
REMARK H PARENT 83 22 51 33 13 84
REMARK Flexibility Score: inf
ROOT
ATOM      1  C   UNL A   1      37.358  20.736  25.466  1.00  0.00     0.275 C 
ENDROOT
BRANCH   1   2
ATOM      2  O   UNL A   1      38.767  20.960  25.358  1.00  0.00    -0.458 OA
BRANCH   2   3
ATOM      3  C   UNL A   1      39.679  21.098  26.349  1.00  0.00     0.338 C 
ATOM      4  O   UNL A   1      40.046  20.085  26.943  1.00  0.00    -0.246 OA
BRANCH   3   5
ATOM      5  C   UNL A   1      40.129  22.427  26.876  1.00  0.00     0.060 A 
ATOM      6  C   UNL A   1      40.965  22.666  27.974  1.00  0.00     0.016 A 
ATOM      7  C   UNL A   1      39.718  23.535  26.121  1.00  0.00     0.016 A 
ATOM      8  C   UNL A   1      41.497  23.940  28.231  1.00  0.00     0.010 A 
ATOM      9  C   UNL A   1      40.294  24.788  26.334  1.00  0.00     0.010 A 
ATOM     10  C   UNL A   1      41.199  25.007  27.391  1.00  0.00    -0.014 A 
BRANCH  10  11
ATOM     11  C   UNL A   1      41.645  26.399  27.662  1.00  0.00     0.031 A 
ATOM     12  C   UNL A   1      43.100  26.676  27.439  1.00  0.00     0.074 A 
ATOM     13  C   UNL A   1      40.853  27.358  28.188  1.00  0.00     0.049 A 
ATOM     14  N   UNL A   1      43.804  27.721  27.767  1.00  0.00    -0.248 NA
ATOM     15  C   UNL A   1      43.872  25.612  26.766  1.00  0.00     0.031 C 
ATOM     16  C   UNL A   1      39.412  27.277  28.395  1.00  0.00     0.029 A 
ATOM     17  N   UNL A   1      41.182  28.581  28.733  1.00  0.00    -0.354 N 
ATOM     18  C   UNL A   1      45.088  27.435  27.336  1.00  0.00     0.074 A 
ATOM     19  C   UNL A   1      45.105  26.066  26.886  1.00  0.00     0.031 C 
ATOM     20  C   UNL A   1      39.009  28.302  29.170  1.00  0.00     0.029 A 
ATOM     21  C   UNL A   1      40.158  29.145  29.467  1.00  0.00     0.049 A 
ATOM     22  H   UNL A   1      42.059  29.010  28.612  1.00  0.00     0.167 HD
ATOM     23  C   UNL A   1      46.137  28.275  27.208  1.00  0.00     0.034 A 
ATOM     24  C   UNL A   1      40.153  30.213  30.292  1.00  0.00     0.034 A 
ATOM     25  C   UNL A   1      46.094  29.643  27.616  1.00  0.00     0.049 A 
ATOM     26  C   UNL A   1      41.370  31.100  30.287  1.00  0.00     0.074 A 
ATOM     27  C   UNL A   1      47.048  30.625  27.451  1.00  0.00     0.029 A 
ATOM     28  N   UNL A   1      45.031  30.213  28.299  1.00  0.00    -0.354 N 
ATOM     29  N   UNL A   1      42.523  30.904  29.693  1.00  0.00    -0.248 NA
ATOM     30  C   UNL A   1      41.254  32.405  30.953  1.00  0.00     0.031 C 
ATOM     31  C   UNL A   1      46.577  31.783  28.079  1.00  0.00     0.029 A 
ATOM     32  C   UNL A   1      45.314  31.531  28.594  1.00  0.00     0.049 A 
ATOM     33  H   UNL A   1      44.198  29.747  28.539  1.00  0.00     0.167 HD
ATOM     34  C   UNL A   1      43.226  32.096  29.819  1.00  0.00     0.074 A 
ATOM     35  C   UNL A   1      42.387  32.994  30.588  1.00  0.00     0.031 C 
ATOM     36  C   UNL A   1      44.439  32.424  29.311  1.00  0.00     0.034 A 
BRANCH  23  37
ATOM     37  C   UNL A   1      47.354  27.705  26.544  1.00  0.00     0.023 A 
ATOM     38  C   UNL A   1      47.511  27.836  25.144  1.00  0.00     0.012 A 
ATOM     39  C   UNL A   1      48.277  26.945  27.277  1.00  0.00     0.148 A 
ATOM     40  C   UNL A   1      48.516  27.144  24.475  1.00  0.00     0.002 A 
ATOM     41  C   UNL A   1      49.311  26.304  26.610  1.00  0.00     0.091 A 
ATOM     42  F   UNL A   1      48.093  26.814  28.598  1.00  0.00    -0.205 F 
ATOM     43  C   UNL A   1      49.418  26.380  25.209  1.00  0.00     0.022 A 
BRANCH  41  44
ATOM     44  S   UNL A   1      50.561  25.348  27.469  1.00  0.00     0.127 S 
ATOM     45  O   UNL A   1      51.065  26.324  28.436  1.00  0.00    -0.237 OA
ATOM     46  O   UNL A   1      49.766  24.266  28.051  1.00  0.00    -0.237 OA
ATOM     47  O   UNL A   1      51.514  24.926  26.454  1.00  0.00    -0.744 OA
ENDBRANCH  41  44
ENDBRANCH  23  37
BRANCH  24  48
ATOM     48  C   UNL A   1      38.937  30.577  31.080  1.00  0.00     0.023 A 
ATOM     49  C   UNL A   1      38.840  30.187  32.430  1.00  0.00     0.012 A 
ATOM     50  C   UNL A   1      37.870  31.297  30.500  1.00  0.00     0.148 A 
ATOM     51  C   UNL A   1      37.692  30.466  33.176  1.00  0.00     0.002 A 
ATOM     52  C   UNL A   1      36.740  31.598  31.259  1.00  0.00     0.091 A 
ATOM     53  F   UNL A   1      37.982  31.674  29.219  1.00  0.00    -0.205 F 
ATOM     54  C   UNL A   1      36.644  31.170  32.592  1.00  0.00     0.022 A 
BRANCH  52  55
ATOM     55  S   UNL A   1      35.356  32.559  30.626  1.00  0.00     0.127 S 
ATOM     56  O   UNL A   1      35.980  33.861  30.383  1.00  0.00    -0.237 OA
ATOM     57  O   UNL A   1      35.008  31.811  29.415  1.00  0.00    -0.237 OA
ATOM     58  O   UNL A   1      34.348  32.539  31.669  1.00  0.00    -0.744 OA
ENDBRANCH  52  55
ENDBRANCH  24  48
BRANCH  36  59
ATOM     59  C   UNL A   1      44.922  33.835  29.483  1.00  0.00     0.023 A 
ATOM     60  C   UNL A   1      45.644  34.202  30.632  1.00  0.00     0.012 A 
ATOM     61  C   UNL A   1      44.787  34.750  28.420  1.00  0.00     0.148 A 
ATOM     62  C   UNL A   1      46.222  35.467  30.724  1.00  0.00     0.002 A 
ATOM     63  C   UNL A   1      45.415  35.984  28.492  1.00  0.00     0.091 A 
ATOM     64  F   UNL A   1      44.075  34.381  27.344  1.00  0.00    -0.205 F 
ATOM     65  C   UNL A   1      46.124  36.348  29.647  1.00  0.00     0.022 A 
BRANCH  63  66
ATOM     66  S   UNL A   1      45.453  37.126  27.107  1.00  0.00     0.127 S 
ATOM     67  O   UNL A   1      46.376  38.151  27.591  1.00  0.00    -0.237 OA
ATOM     68  O   UNL A   1      45.980  36.286  26.031  1.00  0.00    -0.237 OA
ATOM     69  O   UNL A   1      44.079  37.572  26.910  1.00  0.00    -0.744 OA
ENDBRANCH  63  66
ENDBRANCH  36  59
ENDBRANCH  10  11
ENDBRANCH   3   5
ENDBRANCH   2   3
ENDBRANCH   1   2
BRANCH   1  70
ATOM     70  C   UNL A   1      36.504  21.991  25.684  1.00  0.00     0.274 C 
BRANCH  70  71
ATOM     71  O   UNL A   1      36.729  23.076  24.765  1.00  0.00    -0.462 OA
BRANCH  71  72
ATOM     72  C   UNL A   1      35.904  23.143  23.682  1.00  0.00     0.312 C 
ATOM     73  O   UNL A   1      36.300  22.979  22.532  1.00  0.00    -0.252 OA
BRANCH  72  74
ATOM     74  C   UNL A   1      34.451  23.520  23.997  1.00  0.00     0.143 C 
ATOM     75  C   UNL A   1      33.429  22.441  23.629  1.00  0.00     0.124 C 
ATOM     76  C   UNL A   1      33.997  24.659  23.120  1.00  0.00     0.133 C 
ATOM     77  C   UNL A   1      32.598  23.124  22.530  1.00  0.00     0.132 C 
ATOM     78  C   UNL A   1      32.655  25.267  23.514  1.00  0.00     0.036 C 
ATOM     79  O   UNL A   1      33.647  23.929  21.928  1.00  0.00    -0.373 OA
ATOM     80  C   UNL A   1      31.667  24.251  22.948  1.00  0.00     0.035 C 
BRANCH  75  81
ATOM     81  C   UNL A   1      32.598  22.006  24.830  1.00  0.00     0.231 C 
ATOM     82  O   UNL A   1      32.303  22.763  25.750  1.00  0.00    -0.274 OA
ATOM     83  N   UNL A   1      32.149  20.709  24.847  1.00  0.00    -0.326 N 
ATOM     84  H   UNL A   1      31.303  20.534  25.319  1.00  0.00     0.169 HD
BRANCH  83  85
ATOM     85  C   UNL A   1      32.786  19.615  24.253  1.00  0.00     0.044 A 
ATOM     86  C   UNL A   1      32.206  18.975  23.150  1.00  0.00     0.029 A 
ATOM     87  C   UNL A   1      33.989  19.152  24.768  1.00  0.00     0.068 A 
ATOM     88  C   UNL A   1      32.726  17.781  22.661  1.00  0.00     0.044 A 
ATOM     89  C   UNL A   1      34.516  17.964  24.264  1.00  0.00     0.160 A 
ATOM     90  C   UNL A   1      33.873  17.269  23.242  1.00  0.00     0.158 A 
ATOM     91  F   UNL A   1      35.644  17.473  24.796  1.00  0.00    -0.204 F 
ATOM     92  F   UNL A   1      34.363  16.102  22.802  1.00  0.00    -0.204 F 
ENDBRANCH  83  85
ENDBRANCH  75  81
ENDBRANCH  72  74
ENDBRANCH  71  72
ENDBRANCH  70  71
ENDBRANCH   1  70
TORSDOF 16
ENDMDL
