MODEL 1
REMARK VINA RESULT:     -11.9      0.000      0.000
REMARK SMILES COc1cccc([C@H]2Oc3ccccc3[C@@H]3CC(c4cccs4)=NN23)c1OCC(=O)OCCOC(=O)c1ccc(-c2c3nc(c(-c4cccc(S(=O)(=O)[O-])c4F)c4ccc([nH]4)c(-c4cccc(S(=O)(=O)[O-])c4F)c4nc(c(-c5cccc(S(=O)(=O)[O-])c5F)c5ccc2[nH]5)C=C4)C=C3)cc1
REMARK SMILES IDX 32 1 31 2 29 3 30 4 28 5 27 6 26 7 3 8 4 9 5 10 7 11 6 12
REMARK SMILES IDX 2 13 1 14 8 15 9 16 25 17 10 18 16 19 24 20 11 21 15 22
REMARK SMILES IDX 17 23 18 24 12 25 14 26 13 27 19 28 20 29 23 30 21 31 22 32
REMARK SMILES IDX 33 33 34 34 35 35 36 36 37 37 38 38 99 39 39 40 98 41 40 42
REMARK SMILES IDX 41 43 42 44 92 45 43 46 97 47 91 48 93 49 44 50 96 51 90 52
REMARK SMILES IDX 89 53 45 55 77 56 57 57 76 58 58 59 61 60 75 61 94 62 59 63
REMARK SMILES IDX 60 64 74 66 95 67 62 68 46 69 47 70 55 71 48 72 50 73 56 74
REMARK SMILES IDX 49 75 51 76 52 77 53 78 54 79 78 80 79 81 87 82 80 83 82 84
REMARK SMILES IDX 88 85 81 86 83 87 84 88 85 89 86 90 63 91 64 92 72 93 65 94
REMARK SMILES IDX 67 95 73 96 66 97 68 98 69 99 70 100 71 101
REMARK H PARENT 93 54 61 65
REMARK Flexibility Score: inf
ROOT
ATOM      1  C   UNL A   1      33.709  28.006  24.122  1.00  0.00     0.274 C 
ENDROOT
BRANCH   1   2
ATOM      2  O   UNL A   1      33.391  27.732  22.739  1.00  0.00    -0.460 OA
BRANCH   2   3
ATOM      3  C   UNL A   1      33.408  26.425  22.362  1.00  0.00     0.344 C 
ATOM      4  O   UNL A   1      33.335  26.043  21.197  1.00  0.00    -0.248 OA
BRANCH   3   5
ATOM      5  C   UNL A   1      33.576  25.451  23.536  1.00  0.00     0.352 C 
BRANCH   5   6
ATOM      6  O   UNL A   1      32.733  24.351  23.734  1.00  0.00    -0.477 OA
BRANCH   6   7
ATOM      7  C   UNL A   1      31.840  24.266  24.750  1.00  0.00     0.170 A 
ATOM      8  C   UNL A   1      30.787  25.129  25.080  1.00  0.00     0.161 A 
ATOM      9  C   UNL A   1      29.875  24.802  26.104  1.00  0.00     0.050 A 
ATOM     10  C   UNL A   1      30.020  23.625  26.832  1.00  0.00     0.005 A 
ATOM     11  C   UNL A   1      32.083  23.186  25.594  1.00  0.00     0.061 A 
ATOM     12  C   UNL A   1      31.135  22.837  26.592  1.00  0.00     0.014 A 
BRANCH   8  13
ATOM     13  O   UNL A   1      30.813  26.438  24.668  1.00  0.00    -0.493 OA
ATOM     14  C   UNL A   1      29.697  26.817  23.888  1.00  0.00     0.278 C 
ENDBRANCH   8  13
BRANCH  11  15
ATOM     15  C   UNL A   1      33.369  22.393  25.606  1.00  0.00     0.324 C 
ATOM     16  O   UNL A   1      34.344  23.084  26.451  1.00  0.00    -0.464 OA
ATOM     17  N   UNL A   1      33.493  20.934  25.822  1.00  0.00    -0.246 NA
ATOM     18  C   UNL A   1      35.565  22.916  25.809  1.00  0.00     0.128 A 
ATOM     19  C   UNL A   1      34.920  20.568  25.692  1.00  0.00     0.146 C 
ATOM     20  N   UNL A   1      32.641  19.936  25.431  1.00  0.00    -0.177 NA
ATOM     21  C   UNL A   1      36.282  24.067  25.538  1.00  0.00     0.047 A 
ATOM     22  C   UNL A   1      35.741  21.701  25.119  1.00  0.00     0.019 A 
ATOM     23  C   UNL A   1      34.859  19.242  24.974  1.00  0.00     0.091 C 
ATOM     24  C   UNL A   1      33.407  18.919  25.171  1.00  0.00     0.080 C 
ATOM     25  C   UNL A   1      36.984  24.101  24.344  1.00  0.00     0.004 A 
ATOM     26  C   UNL A   1      36.374  21.777  23.886  1.00  0.00     0.010 A 
ATOM     27  C   UNL A   1      36.956  22.992  23.487  1.00  0.00     0.001 A 
BRANCH  24  28
ATOM     28  C   UNL A   1      33.003  17.541  25.082  1.00  0.00     0.050 A 
ATOM     29  C   UNL A   1      32.194  16.872  25.982  1.00  0.00     0.022 A 
ATOM     30  S   UNL A   1      33.632  16.494  23.896  1.00  0.00    -0.142 S 
ATOM     31  C   UNL A   1      32.146  15.473  25.734  1.00  0.00     0.012 A 
ATOM     32  C   UNL A   1      32.898  15.127  24.633  1.00  0.00     0.065 A 
ENDBRANCH  24  28
ENDBRANCH  11  15
ENDBRANCH   6   7
ENDBRANCH   5   6
ENDBRANCH   3   5
ENDBRANCH   2   3
ENDBRANCH   1   2
BRANCH   1  33
ATOM     33  C   UNL A   1      33.133  29.372  24.514  1.00  0.00     0.275 C 
BRANCH  33  34
ATOM     34  O   UNL A   1      32.786  29.360  25.911  1.00  0.00    -0.458 OA
BRANCH  34  35
ATOM     35  C   UNL A   1      32.987  30.516  26.592  1.00  0.00     0.338 C 
ATOM     36  O   UNL A   1      32.201  31.462  26.638  1.00  0.00    -0.246 OA
BRANCH  35  37
ATOM     37  C   UNL A   1      34.268  30.461  27.351  1.00  0.00     0.060 A 
ATOM     38  C   UNL A   1      34.706  29.266  27.908  1.00  0.00     0.016 A 
ATOM     39  C   UNL A   1      35.032  31.610  27.571  1.00  0.00     0.016 A 
ATOM     40  C   UNL A   1      35.778  29.238  28.799  1.00  0.00     0.010 A 
ATOM     41  C   UNL A   1      36.229  31.537  28.312  1.00  0.00     0.010 A 
ATOM     42  C   UNL A   1      36.622  30.341  28.937  1.00  0.00    -0.014 A 
BRANCH  42  43
ATOM     43  C   UNL A   1      37.956  30.185  29.606  1.00  0.00     0.031 A 
ATOM     44  C   UNL A   1      39.026  29.297  29.023  1.00  0.00     0.074 A 
ATOM     45  C   UNL A   1      38.179  30.798  30.793  1.00  0.00     0.049 A 
ATOM     46  N   UNL A   1      40.097  28.810  29.596  1.00  0.00    -0.248 NA
ATOM     47  C   UNL A   1      38.868  28.892  27.616  1.00  0.00     0.031 C 
ATOM     48  C   UNL A   1      37.254  31.717  31.468  1.00  0.00     0.029 A 
ATOM     49  N   UNL A   1      39.242  30.729  31.665  1.00  0.00    -0.354 N 
ATOM     50  C   UNL A   1      40.691  27.972  28.658  1.00  0.00     0.074 A 
ATOM     51  C   UNL A   1      39.880  28.046  27.460  1.00  0.00     0.031 C 
ATOM     52  C   UNL A   1      37.792  32.147  32.613  1.00  0.00     0.029 A 
ATOM     53  C   UNL A   1      39.026  31.417  32.840  1.00  0.00     0.049 A 
ATOM     54  H   UNL A   1      40.073  30.239  31.469  1.00  0.00     0.167 HD
ATOM     55  C   UNL A   1      41.801  27.206  28.793  1.00  0.00     0.034 A 
ATOM     56  C   UNL A   1      39.673  31.400  34.021  1.00  0.00     0.034 A 
ATOM     57  C   UNL A   1      42.623  27.187  29.978  1.00  0.00     0.049 A 
ATOM     58  C   UNL A   1      40.862  30.503  34.165  1.00  0.00     0.074 A 
ATOM     59  C   UNL A   1      43.785  26.474  30.211  1.00  0.00     0.029 A 
ATOM     60  N   UNL A   1      42.364  27.915  31.132  1.00  0.00    -0.354 N 
ATOM     61  N   UNL A   1      41.420  29.731  33.265  1.00  0.00    -0.248 NA
ATOM     62  C   UNL A   1      41.510  30.469  35.481  1.00  0.00     0.031 C 
ATOM     63  C   UNL A   1      44.208  26.741  31.518  1.00  0.00     0.029 A 
ATOM     64  C   UNL A   1      43.330  27.649  32.088  1.00  0.00     0.049 A 
ATOM     65  H   UNL A   1      41.605  28.530  31.253  1.00  0.00     0.167 HD
ATOM     66  C   UNL A   1      42.494  29.128  33.900  1.00  0.00     0.074 A 
ATOM     67  C   UNL A   1      42.526  29.649  35.253  1.00  0.00     0.031 C 
ATOM     68  C   UNL A   1      43.363  28.209  33.415  1.00  0.00     0.034 A 
BRANCH  55  69
ATOM     69  C   UNL A   1      42.191  26.304  27.645  1.00  0.00     0.023 A 
ATOM     70  C   UNL A   1      43.032  26.778  26.620  1.00  0.00     0.012 A 
ATOM     71  C   UNL A   1      41.764  24.959  27.616  1.00  0.00     0.148 A 
ATOM     72  C   UNL A   1      43.411  25.943  25.567  1.00  0.00     0.002 A 
ATOM     73  C   UNL A   1      42.177  24.121  26.585  1.00  0.00     0.091 A 
ATOM     74  F   UNL A   1      40.956  24.524  28.594  1.00  0.00    -0.205 F 
ATOM     75  C   UNL A   1      42.990  24.616  25.553  1.00  0.00     0.022 A 
BRANCH  73  76
ATOM     76  S   UNL A   1      41.747  22.378  26.514  1.00  0.00     0.127 S 
ATOM     77  O   UNL A   1      42.289  21.889  27.781  1.00  0.00    -0.237 OA
ATOM     78  O   UNL A   1      40.285  22.424  26.456  1.00  0.00    -0.237 OA
ATOM     79  O   UNL A   1      42.388  21.851  25.318  1.00  0.00    -0.744 OA
ENDBRANCH  73  76
ENDBRANCH  55  69
BRANCH  56  80
ATOM     80  C   UNL A   1      39.167  32.221  35.163  1.00  0.00     0.023 A 
ATOM     81  C   UNL A   1      38.237  31.661  36.057  1.00  0.00     0.012 A 
ATOM     82  C   UNL A   1      39.649  33.526  35.403  1.00  0.00     0.148 A 
ATOM     83  C   UNL A   1      37.786  32.389  37.160  1.00  0.00     0.002 A 
ATOM     84  C   UNL A   1      39.248  34.218  36.538  1.00  0.00     0.091 A 
ATOM     85  F   UNL A   1      40.522  34.052  34.531  1.00  0.00    -0.205 F 
ATOM     86  C   UNL A   1      38.301  33.659  37.410  1.00  0.00     0.022 A 
BRANCH  84  87
ATOM     87  S   UNL A   1      39.979  35.788  37.018  1.00  0.00     0.127 S 
ATOM     88  O   UNL A   1      41.391  35.436  37.142  1.00  0.00    -0.237 OA
ATOM     89  O   UNL A   1      39.654  36.638  35.871  1.00  0.00    -0.237 OA
ATOM     90  O   UNL A   1      39.309  36.172  38.254  1.00  0.00    -0.744 OA
ENDBRANCH  84  87
ENDBRANCH  56  80
BRANCH  68  91
ATOM     91  C   UNL A   1      44.441  27.729  34.346  1.00  0.00     0.023 A 
ATOM     92  C   UNL A   1      45.600  28.508  34.534  1.00  0.00     0.012 A 
ATOM     93  C   UNL A   1      44.273  26.541  35.083  1.00  0.00     0.148 A 
ATOM     94  C   UNL A   1      46.589  28.098  35.426  1.00  0.00     0.002 A 
ATOM     95  C   UNL A   1      45.237  26.166  36.008  1.00  0.00     0.091 A 
ATOM     96  F   UNL A   1      43.171  25.808  34.869  1.00  0.00    -0.205 F 
ATOM     97  C   UNL A   1      46.401  26.936  36.172  1.00  0.00     0.022 A 
BRANCH  95  98
ATOM     98  S   UNL A   1      45.040  24.741  37.082  1.00  0.00     0.127 S 
ATOM     99  O   UNL A   1      46.418  24.495  37.505  1.00  0.00    -0.237 OA
ATOM    100  O   UNL A   1      44.164  25.266  38.129  1.00  0.00    -0.237 OA
ATOM    101  O   UNL A   1      44.447  23.694  36.261  1.00  0.00    -0.744 OA
ENDBRANCH  95  98
ENDBRANCH  68  91
ENDBRANCH  42  43
ENDBRANCH  35  37
ENDBRANCH  34  35
ENDBRANCH  33  34
ENDBRANCH   1  33
TORSDOF 19
ENDMDL
MODEL 2
REMARK VINA RESULT:     -11.2      2.424      3.772
REMARK SMILES COc1cccc([C@H]2Oc3ccccc3[C@@H]3CC(c4cccs4)=NN23)c1OCC(=O)OCCOC(=O)c1ccc(-c2c3nc(c(-c4cccc(S(=O)(=O)[O-])c4F)c4ccc([nH]4)c(-c4cccc(S(=O)(=O)[O-])c4F)c4nc(c(-c5cccc(S(=O)(=O)[O-])c5F)c5ccc2[nH]5)C=C4)C=C3)cc1
REMARK SMILES IDX 32 1 31 2 29 3 30 4 28 5 27 6 26 7 3 8 4 9 5 10 7 11 6 12
REMARK SMILES IDX 2 13 1 14 8 15 9 16 25 17 10 18 16 19 24 20 11 21 15 22
REMARK SMILES IDX 17 23 18 24 12 25 14 26 13 27 19 28 20 29 23 30 21 31 22 32
REMARK SMILES IDX 33 33 34 34 35 35 36 36 37 37 38 38 99 39 39 40 98 41 40 42
REMARK SMILES IDX 41 43 42 44 92 45 43 46 97 47 91 48 93 49 44 50 96 51 90 52
REMARK SMILES IDX 89 53 45 55 77 56 57 57 76 58 58 59 61 60 75 61 94 62 59 63
REMARK SMILES IDX 60 64 74 66 95 67 62 68 46 69 47 70 55 71 48 72 50 73 56 74
REMARK SMILES IDX 49 75 51 76 52 77 53 78 54 79 78 80 79 81 87 82 80 83 82 84
REMARK SMILES IDX 88 85 81 86 83 87 84 88 85 89 86 90 63 91 64 92 72 93 65 94
REMARK SMILES IDX 67 95 73 96 66 97 68 98 69 99 70 100 71 101
REMARK H PARENT 93 54 61 65
REMARK Flexibility Score: inf
ROOT
ATOM      1  C   UNL A   1      31.700  28.241  27.342  1.00  0.00     0.274 C 
ENDROOT
BRANCH   1   2
ATOM      2  O   UNL A   1      30.819  27.617  26.381  1.00  0.00    -0.460 OA
BRANCH   2   3
ATOM      3  C   UNL A   1      31.288  26.495  25.771  1.00  0.00     0.344 C 
ATOM      4  O   UNL A   1      30.579  25.684  25.182  1.00  0.00    -0.248 OA
BRANCH   3   5
ATOM      5  C   UNL A   1      32.815  26.350  25.846  1.00  0.00     0.352 C 
BRANCH   5   6
ATOM      6  O   UNL A   1      33.648  26.530  24.735  1.00  0.00    -0.477 OA
BRANCH   6   7
ATOM      7  C   UNL A   1      33.263  26.272  23.462  1.00  0.00     0.170 A 
ATOM      8  C   UNL A   1      32.753  27.148  22.495  1.00  0.00     0.161 A 
ATOM      9  C   UNL A   1      32.531  26.716  21.171  1.00  0.00     0.050 A 
ATOM     10  C   UNL A   1      32.787  25.399  20.803  1.00  0.00     0.005 A 
ATOM     11  C   UNL A   1      33.346  24.921  23.136  1.00  0.00     0.061 A 
ATOM     12  C   UNL A   1      33.167  24.503  21.791  1.00  0.00     0.014 A 
BRANCH   8  13
ATOM     13  O   UNL A   1      32.145  28.317  22.875  1.00  0.00    -0.493 OA
ATOM     14  C   UNL A   1      30.779  28.396  22.520  1.00  0.00     0.278 C 
ENDBRANCH   8  13
BRANCH  11  15
ATOM     15  C   UNL A   1      33.510  23.813  24.150  1.00  0.00     0.324 C 
ATOM     16  O   UNL A   1      32.604  22.717  23.804  1.00  0.00    -0.464 OA
ATOM     17  N   UNL A   1      34.791  23.248  24.626  1.00  0.00    -0.246 NA
ATOM     18  C   UNL A   1      32.139  22.231  25.020  1.00  0.00     0.128 A 
ATOM     19  C   UNL A   1      34.492  22.231  25.658  1.00  0.00     0.146 C 
ATOM     20  N   UNL A   1      35.986  23.885  24.827  1.00  0.00    -0.177 NA
ATOM     21  C   UNL A   1      30.767  22.163  25.172  1.00  0.00     0.047 A 
ATOM     22  C   UNL A   1      33.045  22.284  26.096  1.00  0.00     0.019 A 
ATOM     23  C   UNL A   1      35.594  22.445  26.666  1.00  0.00     0.091 C 
ATOM     24  C   UNL A   1      36.529  23.277  25.838  1.00  0.00     0.080 C 
ATOM     25  C   UNL A   1      30.259  22.460  26.426  1.00  0.00     0.004 A 
ATOM     26  C   UNL A   1      32.524  22.665  27.325  1.00  0.00     0.010 A 
ATOM     27  C   UNL A   1      31.133  22.793  27.471  1.00  0.00     0.001 A 
BRANCH  24  28
ATOM     28  C   UNL A   1      37.918  23.309  26.214  1.00  0.00     0.050 A 
ATOM     29  C   UNL A   1      38.619  24.423  26.639  1.00  0.00     0.022 A 
ATOM     30  S   UNL A   1      38.934  21.958  26.017  1.00  0.00    -0.142 S 
ATOM     31  C   UNL A   1      40.017  24.181  26.736  1.00  0.00     0.012 A 
ATOM     32  C   UNL A   1      40.330  22.879  26.411  1.00  0.00     0.065 A 
ENDBRANCH  24  28
ENDBRANCH  11  15
ENDBRANCH   6   7
ENDBRANCH   5   6
ENDBRANCH   3   5
ENDBRANCH   2   3
ENDBRANCH   1   2
BRANCH   1  33
ATOM     33  C   UNL A   1      32.001  29.678  26.896  1.00  0.00     0.275 C 
BRANCH  33  34
ATOM     34  O   UNL A   1      33.426  29.882  26.878  1.00  0.00    -0.458 OA
BRANCH  34  35
ATOM     35  C   UNL A   1      33.874  31.050  27.404  1.00  0.00     0.338 C 
ATOM     36  O   UNL A   1      33.281  32.127  27.356  1.00  0.00    -0.246 OA
BRANCH  35  37
ATOM     37  C   UNL A   1      35.160  30.840  28.125  1.00  0.00     0.060 A 
ATOM     38  C   UNL A   1      36.113  31.851  28.177  1.00  0.00     0.016 A 
ATOM     39  C   UNL A   1      35.469  29.612  28.718  1.00  0.00     0.016 A 
ATOM     40  C   UNL A   1      37.399  31.602  28.653  1.00  0.00     0.010 A 
ATOM     41  C   UNL A   1      36.703  29.431  29.374  1.00  0.00     0.010 A 
ATOM     42  C   UNL A   1      37.690  30.431  29.354  1.00  0.00    -0.014 A 
BRANCH  42  43
ATOM     43  C   UNL A   1      38.950  30.334  30.161  1.00  0.00     0.031 A 
ATOM     44  C   UNL A   1      40.104  29.473  29.711  1.00  0.00     0.074 A 
ATOM     45  C   UNL A   1      39.029  30.976  31.351  1.00  0.00     0.049 A 
ATOM     46  N   UNL A   1      41.125  29.034  30.403  1.00  0.00    -0.248 NA
ATOM     47  C   UNL A   1      40.107  29.038  28.305  1.00  0.00     0.031 C 
ATOM     48  C   UNL A   1      38.008  31.873  31.907  1.00  0.00     0.029 A 
ATOM     49  N   UNL A   1      39.996  30.959  32.330  1.00  0.00    -0.354 N 
ATOM     50  C   UNL A   1      41.840  28.201  29.549  1.00  0.00     0.074 A 
ATOM     51  C   UNL A   1      41.156  28.225  28.273  1.00  0.00     0.031 C 
ATOM     52  C   UNL A   1      38.410  32.343  33.092  1.00  0.00     0.029 A 
ATOM     53  C   UNL A   1      39.636  31.661  33.461  1.00  0.00     0.049 A 
ATOM     54  H   UNL A   1      40.859  30.495  32.232  1.00  0.00     0.167 HD
ATOM     55  C   UNL A   1      42.955  27.476  29.815  1.00  0.00     0.034 A 
ATOM     56  C   UNL A   1      40.156  31.687  34.703  1.00  0.00     0.034 A 
ATOM     57  C   UNL A   1      43.648  27.507  31.079  1.00  0.00     0.049 A 
ATOM     58  C   UNL A   1      41.353  30.835  34.988  1.00  0.00     0.074 A 
ATOM     59  C   UNL A   1      44.803  26.839  31.447  1.00  0.00     0.029 A 
ATOM     60  N   UNL A   1      43.247  28.246  32.184  1.00  0.00    -0.354 N 
ATOM     61  N   UNL A   1      42.026  30.067  34.168  1.00  0.00    -0.248 NA
ATOM     62  C   UNL A   1      41.861  30.846  36.366  1.00  0.00     0.031 C 
ATOM     63  C   UNL A   1      45.078  27.144  32.784  1.00  0.00     0.029 A 
ATOM     64  C   UNL A   1      44.116  28.031  33.241  1.00  0.00     0.049 A 
ATOM     65  H   UNL A   1      42.460  28.836  32.212  1.00  0.00     0.167 HD
ATOM     66  C   UNL A   1      43.048  29.512  34.924  1.00  0.00     0.074 A 
ATOM     67  C   UNL A   1      42.921  30.058  36.261  1.00  0.00     0.031 C 
ATOM     68  C   UNL A   1      43.992  28.615  34.552  1.00  0.00     0.034 A 
BRANCH  55  69
ATOM     69  C   UNL A   1      43.491  26.568  28.734  1.00  0.00     0.023 A 
ATOM     70  C   UNL A   1      43.027  25.242  28.622  1.00  0.00     0.012 A 
ATOM     71  C   UNL A   1      44.419  27.052  27.786  1.00  0.00     0.148 A 
ATOM     72  C   UNL A   1      43.505  24.403  27.613  1.00  0.00     0.002 A 
ATOM     73  C   UNL A   1      44.860  26.224  26.760  1.00  0.00     0.091 A 
ATOM     74  F   UNL A   1      44.858  28.313  27.910  1.00  0.00    -0.205 F 
ATOM     75  C   UNL A   1      44.414  24.895  26.679  1.00  0.00     0.022 A 
BRANCH  73  76
ATOM     76  S   UNL A   1      45.977  26.784  25.468  1.00  0.00     0.127 S 
ATOM     77  O   UNL A   1      45.211  27.875  24.869  1.00  0.00    -0.237 OA
ATOM     78  O   UNL A   1      47.147  27.212  26.236  1.00  0.00    -0.237 OA
ATOM     79  O   UNL A   1      46.204  25.635  24.603  1.00  0.00    -0.744 OA
ENDBRANCH  73  76
ENDBRANCH  55  69
BRANCH  56  80
ATOM     80  C   UNL A   1      39.507  32.510  35.768  1.00  0.00     0.023 A 
ATOM     81  C   UNL A   1      38.455  31.959  36.521  1.00  0.00     0.012 A 
ATOM     82  C   UNL A   1      39.969  33.807  36.081  1.00  0.00     0.148 A 
ATOM     83  C   UNL A   1      37.864  32.689  37.555  1.00  0.00     0.002 A 
ATOM     84  C   UNL A   1      39.422  34.500  37.154  1.00  0.00     0.091 A 
ATOM     85  F   UNL A   1      40.961  34.325  35.342  1.00  0.00    -0.205 F 
ATOM     86  C   UNL A   1      38.357  33.950  37.881  1.00  0.00     0.022 A 
BRANCH  84  87
ATOM     87  S   UNL A   1      40.100  36.058  37.740  1.00  0.00     0.127 S 
ATOM     88  O   UNL A   1      41.440  35.660  38.166  1.00  0.00    -0.237 OA
ATOM     89  O   UNL A   1      40.058  36.882  36.531  1.00  0.00    -0.237 OA
ATOM     90  O   UNL A   1      39.203  36.503  38.798  1.00  0.00    -0.744 OA
ENDBRANCH  84  87
ENDBRANCH  56  80
BRANCH  68  91
ATOM     91  C   UNL A   1      44.982  28.190  35.600  1.00  0.00     0.023 A 
ATOM     92  C   UNL A   1      46.260  28.782  35.635  1.00  0.00     0.012 A 
ATOM     93  C   UNL A   1      44.621  27.253  36.586  1.00  0.00     0.148 A 
ATOM     94  C   UNL A   1      47.173  28.430  36.627  1.00  0.00     0.002 A 
ATOM     95  C   UNL A   1      45.516  26.946  37.601  1.00  0.00     0.091 A 
ATOM     96  F   UNL A   1      43.406  26.688  36.516  1.00  0.00    -0.205 F 
ATOM     97  C   UNL A   1      46.797  27.524  37.616  1.00  0.00     0.022 A 
BRANCH  95  98
ATOM     98  S   UNL A   1      45.090  25.865  38.969  1.00  0.00     0.127 S 
ATOM     99  O   UNL A   1      44.925  24.579  38.293  1.00  0.00    -0.237 OA
ATOM    100  O   UNL A   1      46.279  25.961  39.817  1.00  0.00    -0.237 OA
ATOM    101  O   UNL A   1      43.878  26.417  39.558  1.00  0.00    -0.744 OA
ENDBRANCH  95  98
ENDBRANCH  68  91
ENDBRANCH  42  43
ENDBRANCH  35  37
ENDBRANCH  34  35
ENDBRANCH  33  34
ENDBRANCH   1  33
TORSDOF 19
ENDMDL
MODEL 3
REMARK VINA RESULT:     -11.1      1.610      2.142
REMARK SMILES COc1cccc([C@H]2Oc3ccccc3[C@@H]3CC(c4cccs4)=NN23)c1OCC(=O)OCCOC(=O)c1ccc(-c2c3nc(c(-c4cccc(S(=O)(=O)[O-])c4F)c4ccc([nH]4)c(-c4cccc(S(=O)(=O)[O-])c4F)c4nc(c(-c5cccc(S(=O)(=O)[O-])c5F)c5ccc2[nH]5)C=C4)C=C3)cc1
REMARK SMILES IDX 32 1 31 2 29 3 30 4 28 5 27 6 26 7 3 8 4 9 5 10 7 11 6 12
REMARK SMILES IDX 2 13 1 14 8 15 9 16 25 17 10 18 16 19 24 20 11 21 15 22
REMARK SMILES IDX 17 23 18 24 12 25 14 26 13 27 19 28 20 29 23 30 21 31 22 32
REMARK SMILES IDX 33 33 34 34 35 35 36 36 37 37 38 38 99 39 39 40 98 41 40 42
REMARK SMILES IDX 41 43 42 44 92 45 43 46 97 47 91 48 93 49 44 50 96 51 90 52
REMARK SMILES IDX 89 53 45 55 77 56 57 57 76 58 58 59 61 60 75 61 94 62 59 63
REMARK SMILES IDX 60 64 74 66 95 67 62 68 46 69 47 70 55 71 48 72 50 73 56 74
REMARK SMILES IDX 49 75 51 76 52 77 53 78 54 79 78 80 79 81 87 82 80 83 82 84
REMARK SMILES IDX 88 85 81 86 83 87 84 88 85 89 86 90 63 91 64 92 72 93 65 94
REMARK SMILES IDX 67 95 73 96 66 97 68 98 69 99 70 100 71 101
REMARK H PARENT 93 54 61 65
REMARK Flexibility Score: inf
ROOT
ATOM      1  C   UNL A   1      31.801  28.874  25.333  1.00  0.00     0.274 C 
ENDROOT
BRANCH   1   2
ATOM      2  O   UNL A   1      31.731  27.909  26.407  1.00  0.00    -0.460 OA
BRANCH   2   3
ATOM      3  C   UNL A   1      32.649  26.905  26.379  1.00  0.00     0.344 C 
ATOM      4  O   UNL A   1      33.835  27.064  26.108  1.00  0.00    -0.248 OA
BRANCH   3   5
ATOM      5  C   UNL A   1      32.071  25.536  26.767  1.00  0.00     0.352 C 
BRANCH   5   6
ATOM      6  O   UNL A   1      31.988  24.466  25.868  1.00  0.00    -0.477 OA
BRANCH   6   7
ATOM      7  C   UNL A   1      32.141  24.601  24.528  1.00  0.00     0.170 A 
ATOM      8  C   UNL A   1      31.251  25.124  23.583  1.00  0.00     0.161 A 
ATOM      9  C   UNL A   1      31.642  25.304  22.240  1.00  0.00     0.050 A 
ATOM     10  C   UNL A   1      32.916  24.938  21.819  1.00  0.00     0.005 A 
ATOM     11  C   UNL A   1      33.344  24.073  24.067  1.00  0.00     0.061 A 
ATOM     12  C   UNL A   1      33.750  24.301  22.725  1.00  0.00     0.014 A 
BRANCH   8  13
ATOM     13  O   UNL A   1      29.904  25.151  23.843  1.00  0.00    -0.493 OA
ATOM     14  C   UNL A   1      29.318  26.431  23.706  1.00  0.00     0.278 C 
ENDBRANCH   8  13
BRANCH  11  15
ATOM     15  C   UNL A   1      34.231  23.155  24.873  1.00  0.00     0.324 C 
ATOM     16  O   UNL A   1      34.686  23.865  26.070  1.00  0.00    -0.464 OA
ATOM     17  N   UNL A   1      33.939  21.749  25.229  1.00  0.00    -0.246 NA
ATOM     18  C   UNL A   1      36.001  23.455  26.258  1.00  0.00     0.128 A 
ATOM     19  C   UNL A   1      35.100  21.209  25.968  1.00  0.00     0.146 C 
ATOM     20  N   UNL A   1      33.277  20.801  24.496  1.00  0.00    -0.177 NA
ATOM     21  C   UNL A   1      36.949  24.456  26.361  1.00  0.00     0.047 A 
ATOM     22  C   UNL A   1      36.297  22.130  25.886  1.00  0.00     0.019 A 
ATOM     23  C   UNL A   1      35.199  19.796  25.446  1.00  0.00     0.091 C 
ATOM     24  C   UNL A   1      33.851  19.675  24.799  1.00  0.00     0.080 C 
ATOM     25  C   UNL A   1      38.185  24.211  25.786  1.00  0.00     0.004 A 
ATOM     26  C   UNL A   1      37.507  21.926  25.237  1.00  0.00     0.010 A 
ATOM     27  C   UNL A   1      38.428  22.983  25.153  1.00  0.00     0.001 A 
BRANCH  24  28
ATOM     28  C   UNL A   1      33.313  18.356  24.597  1.00  0.00     0.050 A 
ATOM     29  C   UNL A   1      32.515  17.660  25.488  1.00  0.00     0.022 A 
ATOM     30  S   UNL A   1      33.748  17.402  23.257  1.00  0.00    -0.142 S 
ATOM     31  C   UNL A   1      32.318  16.307  25.096  1.00  0.00     0.012 A 
ATOM     32  C   UNL A   1      32.947  16.027  23.904  1.00  0.00     0.065 A 
ENDBRANCH  24  28
ENDBRANCH  11  15
ENDBRANCH   6   7
ENDBRANCH   5   6
ENDBRANCH   3   5
ENDBRANCH   2   3
ENDBRANCH   1   2
BRANCH   1  33
ATOM     33  C   UNL A   1      31.818  30.289  25.924  1.00  0.00     0.275 C 
BRANCH  33  34
ATOM     34  O   UNL A   1      32.592  30.289  27.138  1.00  0.00    -0.458 OA
BRANCH  34  35
ATOM     35  C   UNL A   1      33.308  31.413  27.396  1.00  0.00     0.338 C 
ATOM     36  O   UNL A   1      32.894  32.565  27.278  1.00  0.00    -0.246 OA
BRANCH  35  37
ATOM     37  C   UNL A   1      34.658  31.064  27.921  1.00  0.00     0.060 A 
ATOM     38  C   UNL A   1      35.595  32.058  28.175  1.00  0.00     0.016 A 
ATOM     39  C   UNL A   1      35.039  29.734  28.121  1.00  0.00     0.016 A 
ATOM     40  C   UNL A   1      36.923  31.741  28.455  1.00  0.00     0.010 A 
ATOM     41  C   UNL A   1      36.330  29.428  28.597  1.00  0.00     0.010 A 
ATOM     42  C   UNL A   1      37.294  30.434  28.775  1.00  0.00    -0.014 A 
BRANCH  42  43
ATOM     43  C   UNL A   1      38.624  30.169  29.417  1.00  0.00     0.031 A 
ATOM     44  C   UNL A   1      39.603  29.193  28.816  1.00  0.00     0.074 A 
ATOM     45  C   UNL A   1      38.923  30.764  30.596  1.00  0.00     0.049 A 
ATOM     46  N   UNL A   1      40.641  28.619  29.368  1.00  0.00    -0.248 NA
ATOM     47  C   UNL A   1      39.382  28.799  27.414  1.00  0.00     0.031 C 
ATOM     48  C   UNL A   1      38.093  31.758  31.287  1.00  0.00     0.029 A 
ATOM     49  N   UNL A   1      39.995  30.608  31.446  1.00  0.00    -0.354 N 
ATOM     50  C   UNL A   1      41.143  27.732  28.421  1.00  0.00     0.074 A 
ATOM     51  C   UNL A   1      40.315  27.871  27.240  1.00  0.00     0.031 C 
ATOM     52  C   UNL A   1      38.690  32.145  32.419  1.00  0.00     0.029 A 
ATOM     53  C   UNL A   1      39.862  31.315  32.623  1.00  0.00     0.049 A 
ATOM     54  H   UNL A   1      40.777  30.049  31.235  1.00  0.00     0.167 HD
ATOM     55  C   UNL A   1      42.188  26.876  28.536  1.00  0.00     0.034 A 
ATOM     56  C   UNL A   1      40.531  31.246  33.789  1.00  0.00     0.034 A 
ATOM     57  C   UNL A   1      43.030  26.791  29.703  1.00  0.00     0.049 A 
ATOM     58  C   UNL A   1      41.644  30.253  33.912  1.00  0.00     0.074 A 
ATOM     59  C   UNL A   1      44.133  25.983  29.915  1.00  0.00     0.029 A 
ATOM     60  N   UNL A   1      42.858  27.540  30.859  1.00  0.00    -0.354 N 
ATOM     61  N   UNL A   1      42.115  29.435  33.004  1.00  0.00    -0.248 NA
ATOM     62  C   UNL A   1      42.314  30.168  35.215  1.00  0.00     0.031 C 
ATOM     63  C   UNL A   1      44.605  26.217  31.211  1.00  0.00     0.029 A 
ATOM     64  C   UNL A   1      43.818  27.197  31.796  1.00  0.00     0.049 A 
ATOM     65  H   UNL A   1      42.156  28.217  30.993  1.00  0.00     0.167 HD
ATOM     66  C   UNL A   1      43.148  28.745  33.619  1.00  0.00     0.074 A 
ATOM     67  C   UNL A   1      43.253  29.265  34.968  1.00  0.00     0.031 C 
ATOM     68  C   UNL A   1      43.926  27.755  33.120  1.00  0.00     0.034 A 
BRANCH  55  69
ATOM     69  C   UNL A   1      42.475  25.941  27.384  1.00  0.00     0.023 A 
ATOM     70  C   UNL A   1      43.120  26.416  26.225  1.00  0.00     0.012 A 
ATOM     71  C   UNL A   1      42.155  24.570  27.478  1.00  0.00     0.148 A 
ATOM     72  C   UNL A   1      43.406  25.553  25.165  1.00  0.00     0.002 A 
ATOM     73  C   UNL A   1      42.478  23.707  26.435  1.00  0.00     0.091 A 
ATOM     74  F   UNL A   1      41.533  24.133  28.583  1.00  0.00    -0.205 F 
ATOM     75  C   UNL A   1      43.092  24.201  25.273  1.00  0.00     0.022 A 
BRANCH  73  76
ATOM     76  S   UNL A   1      42.179  21.937  26.506  1.00  0.00     0.127 S 
ATOM     77  O   UNL A   1      40.718  21.887  26.548  1.00  0.00    -0.237 OA
ATOM     78  O   UNL A   1      42.766  21.475  25.247  1.00  0.00    -0.237 OA
ATOM     79  O   UNL A   1      42.853  21.460  27.704  1.00  0.00    -0.744 OA
ENDBRANCH  73  76
ENDBRANCH  55  69
BRANCH  56  80
ATOM     80  C   UNL A   1      40.119  32.110  34.938  1.00  0.00     0.023 A 
ATOM     81  C   UNL A   1      40.555  33.447  34.987  1.00  0.00     0.012 A 
ATOM     82  C   UNL A   1      39.250  31.635  35.943  1.00  0.00     0.148 A 
ATOM     83  C   UNL A   1      40.145  34.290  36.022  1.00  0.00     0.002 A 
ATOM     84  C   UNL A   1      38.793  32.497  36.932  1.00  0.00     0.091 A 
ATOM     85  F   UNL A   1      38.858  30.354  35.892  1.00  0.00    -0.205 F 
ATOM     86  C   UNL A   1      39.254  33.821  36.984  1.00  0.00     0.022 A 
BRANCH  84  87
ATOM     87  S   UNL A   1      37.525  32.022  38.114  1.00  0.00     0.127 S 
ATOM     88  O   UNL A   1      37.322  30.613  37.785  1.00  0.00    -0.237 OA
ATOM     89  O   UNL A   1      38.194  32.266  39.392  1.00  0.00    -0.237 OA
ATOM     90  O   UNL A   1      36.395  32.904  37.854  1.00  0.00    -0.744 OA
ENDBRANCH  84  87
ENDBRANCH  56  80
BRANCH  68  91
ATOM     91  C   UNL A   1      44.980  27.188  34.030  1.00  0.00     0.023 A 
ATOM     92  C   UNL A   1      46.253  27.790  34.085  1.00  0.00     0.012 A 
ATOM     93  C   UNL A   1      44.685  26.104  34.877  1.00  0.00     0.148 A 
ATOM     94  C   UNL A   1      47.226  27.304  34.955  1.00  0.00     0.002 A 
ATOM     95  C   UNL A   1      45.642  25.657  35.777  1.00  0.00     0.091 A 
ATOM     96  F   UNL A   1      43.473  25.535  34.788  1.00  0.00    -0.205 F 
ATOM     97  C   UNL A   1      46.917  26.248  35.810  1.00  0.00     0.022 A 
BRANCH  95  98
ATOM     98  S   UNL A   1      45.306  24.369  36.982  1.00  0.00     0.127 S 
ATOM     99  O   UNL A   1      45.017  23.223  36.120  1.00  0.00    -0.237 OA
ATOM    100  O   UNL A   1      46.576  24.286  37.704  1.00  0.00    -0.237 OA
ATOM    101  O   UNL A   1      44.183  24.844  37.780  1.00  0.00    -0.744 OA
ENDBRANCH  95  98
ENDBRANCH  68  91
ENDBRANCH  42  43
ENDBRANCH  35  37
ENDBRANCH  34  35
ENDBRANCH  33  34
ENDBRANCH   1  33
TORSDOF 19
ENDMDL
