MODEL 1
REMARK VINA RESULT:     -11.9      0.000      0.000
REMARK SMILES CCC(CC)COc1cc2c(cc1Cl)C=C(C(=O)OCCOC(=O)c1ccc(-c3c4nc(c(-c5cccc(S(=O)(=O)[O-])c5F)c5ccc([nH]5)c(-c5cccc(S(=O)(=O)[O-])c5F)c5nc(c(-c6cccc(S(=O)(=O)[O-])c6F)c6ccc3[nH]6)C=C5)C=C4)cc1)[C@@H](C(F)(F)F)O2
REMARK SMILES IDX 20 1 19 2 17 3 18 4 16 5 8 6 9 7 13 8 10 9 12 10 14 11 11 12
REMARK SMILES IDX 93 13 15 14 88 15 7 16 6 17 3 18 2 19 1 20 4 21 5 22 89 23
REMARK SMILES IDX 90 24 91 25 92 26 21 27 22 28 23 29 24 30 25 31 26 32 87 33
REMARK SMILES IDX 27 34 86 35 28 36 29 37 30 38 80 39 31 40 85 41 79 42 81 43
REMARK SMILES IDX 32 44 84 45 78 46 77 47 33 49 65 50 45 51 64 52 46 53 49 54
REMARK SMILES IDX 63 55 82 56 47 57 48 58 62 60 83 61 50 62 34 63 35 64 43 65
REMARK SMILES IDX 36 66 38 67 44 68 37 69 39 70 40 71 41 72 42 73 66 74 67 75
REMARK SMILES IDX 75 76 68 77 70 78 76 79 69 80 71 81 72 82 73 83 74 84 51 85
REMARK SMILES IDX 52 86 60 87 53 88 55 89 61 90 54 91 56 92 57 93 58 94 59 95
REMARK H PARENT 81 48 49 59
REMARK Flexibility Score: inf
ROOT
ATOM      1  C   UNL A   1      32.351  29.671  25.112  1.00  0.00     0.275 C 
ENDROOT
BRANCH   1   2
ATOM      2  O   UNL A   1      32.227  28.231  25.162  1.00  0.00    -0.459 OA
BRANCH   2   3
ATOM      3  C   UNL A   1      33.410  27.578  25.278  1.00  0.00     0.338 C 
ATOM      4  O   UNL A   1      34.463  28.084  25.615  1.00  0.00    -0.246 OA
BRANCH   3   5
ATOM      5  C   UNL A   1      33.287  26.135  24.979  1.00  0.00     0.087 C 
ATOM      6  C   UNL A   1      34.202  21.208  24.747  1.00  0.00     0.141 A 
ATOM      7  C   UNL A   1      33.077  21.982  24.415  1.00  0.00     0.095 A 
ATOM      8  C   UNL A   1      35.398  21.841  25.106  1.00  0.00     0.083 A 
ATOM      9  C   UNL A   1      33.129  23.374  24.563  1.00  0.00     0.131 A 
ATOM     10  C   UNL A   1      35.402  23.200  25.384  1.00  0.00     0.036 A 
ATOM     11  Cl  UNL A   1      36.909  21.016  25.187  1.00  0.00    -0.080 Cl
ATOM     12  C   UNL A   1      34.262  23.957  25.132  1.00  0.00     0.019 A 
ATOM     13  O   UNL A   1      32.048  24.127  24.172  1.00  0.00    -0.475 OA
ATOM     14  C   UNL A   1      34.265  25.364  25.466  1.00  0.00     0.027 C 
ATOM     15  C   UNL A   1      32.267  25.574  24.028  1.00  0.00     0.316 C 
BRANCH   6  16
ATOM     16  O   UNL A   1      34.146  19.842  24.652  1.00  0.00    -0.492 OA
BRANCH  16  17
ATOM     17  C   UNL A   1      32.938  19.276  25.225  1.00  0.00     0.233 C 
BRANCH  17  18
ATOM     18  C   UNL A   1      32.541  17.901  24.619  1.00  0.00     0.026 C 
BRANCH  18  19
ATOM     19  C   UNL A   1      33.133  17.730  23.200  1.00  0.00     0.003 C 
ATOM     20  C   UNL A   1      32.227  18.262  22.097  1.00  0.00     0.004 C 
ENDBRANCH  18  19
BRANCH  18  21
ATOM     21  C   UNL A   1      32.893  16.716  25.546  1.00  0.00     0.003 C 
ATOM     22  C   UNL A   1      34.248  16.069  25.306  1.00  0.00     0.004 C 
ENDBRANCH  18  21
ENDBRANCH  17  18
ENDBRANCH  16  17
ENDBRANCH   6  16
BRANCH  15  23
ATOM     23  C   UNL A   1      32.679  25.933  22.587  1.00  0.00     0.430 C 
ATOM     24  F   UNL A   1      34.010  25.786  22.389  1.00  0.00    -0.167 F 
ATOM     25  F   UNL A   1      32.062  25.124  21.688  1.00  0.00    -0.167 F 
ATOM     26  F   UNL A   1      32.359  27.206  22.256  1.00  0.00    -0.167 F 
ENDBRANCH  15  23
ENDBRANCH   3   5
ENDBRANCH   2   3
ENDBRANCH   1   2
BRANCH   1  27
ATOM     27  C   UNL A   1      31.832  30.362  26.378  1.00  0.00     0.275 C 
BRANCH  27  28
ATOM     28  O   UNL A   1      32.809  30.376  27.436  1.00  0.00    -0.458 OA
BRANCH  28  29
ATOM     29  C   UNL A   1      33.560  31.497  27.505  1.00  0.00     0.338 C 
ATOM     30  O   UNL A   1      33.175  32.648  27.350  1.00  0.00    -0.246 OA
BRANCH  29  31
ATOM     31  C   UNL A   1      34.923  31.171  27.948  1.00  0.00     0.060 A 
ATOM     32  C   UNL A   1      35.922  32.132  28.068  1.00  0.00     0.016 A 
ATOM     33  C   UNL A   1      35.151  29.873  28.395  1.00  0.00     0.016 A 
ATOM     34  C   UNL A   1      37.161  31.759  28.610  1.00  0.00     0.010 A 
ATOM     35  C   UNL A   1      36.357  29.519  28.993  1.00  0.00     0.010 A 
ATOM     36  C   UNL A   1      37.393  30.451  29.091  1.00  0.00    -0.014 A 
BRANCH  36  37
ATOM     37  C   UNL A   1      38.693  30.084  29.725  1.00  0.00     0.031 A 
ATOM     38  C   UNL A   1      39.081  30.592  31.094  1.00  0.00     0.074 A 
ATOM     39  C   UNL A   1      39.557  29.299  29.049  1.00  0.00     0.049 A 
ATOM     40  N   UNL A   1      40.104  30.244  31.835  1.00  0.00    -0.248 NA
ATOM     41  C   UNL A   1      38.250  31.646  31.701  1.00  0.00     0.031 C 
ATOM     42  C   UNL A   1      39.394  28.868  27.658  1.00  0.00     0.029 A 
ATOM     43  N   UNL A   1      40.734  28.706  29.439  1.00  0.00    -0.354 N 
ATOM     44  C   UNL A   1      40.051  31.046  32.969  1.00  0.00     0.074 A 
ATOM     45  C   UNL A   1      38.929  31.940  32.802  1.00  0.00     0.031 C 
ATOM     46  C   UNL A   1      40.382  28.016  27.341  1.00  0.00     0.029 A 
ATOM     47  C   UNL A   1      41.256  27.848  28.498  1.00  0.00     0.049 A 
ATOM     48  H   UNL A   1      41.162  28.878  30.309  1.00  0.00     0.167 HD
ATOM     49  C   UNL A   1      40.827  31.008  34.077  1.00  0.00     0.034 A 
ATOM     50  C   UNL A   1      42.292  26.988  28.568  1.00  0.00     0.034 A 
ATOM     51  C   UNL A   1      41.881  30.055  34.286  1.00  0.00     0.049 A 
ATOM     52  C   UNL A   1      43.061  26.863  29.852  1.00  0.00     0.074 A 
ATOM     53  C   UNL A   1      42.630  29.841  35.429  1.00  0.00     0.029 A 
ATOM     54  N   UNL A   1      42.326  29.153  33.335  1.00  0.00    -0.354 N 
ATOM     55  N   UNL A   1      42.869  27.494  30.985  1.00  0.00    -0.248 NA
ATOM     56  C   UNL A   1      44.165  25.892  29.885  1.00  0.00     0.031 C 
ATOM     57  C   UNL A   1      43.531  28.806  35.169  1.00  0.00     0.029 A 
ATOM     58  C   UNL A   1      43.339  28.378  33.864  1.00  0.00     0.049 A 
ATOM     59  H   UNL A   1      41.973  29.074  32.419  1.00  0.00     0.167 HD
ATOM     60  C   UNL A   1      43.817  26.992  31.867  1.00  0.00     0.074 A 
ATOM     61  C   UNL A   1      44.573  25.988  31.145  1.00  0.00     0.031 C 
ATOM     62  C   UNL A   1      44.050  27.348  33.152  1.00  0.00     0.034 A 
BRANCH  49  63
ATOM     63  C   UNL A   1      40.498  31.939  35.214  1.00  0.00     0.023 A 
ATOM     64  C   UNL A   1      41.236  33.133  35.347  1.00  0.00     0.012 A 
ATOM     65  C   UNL A   1      39.406  31.699  36.070  1.00  0.00     0.148 A 
ATOM     66  C   UNL A   1      40.906  34.066  36.328  1.00  0.00     0.002 A 
ATOM     67  C   UNL A   1      39.064  32.651  37.027  1.00  0.00     0.091 A 
ATOM     68  F   UNL A   1      38.720  30.557  35.926  1.00  0.00    -0.205 F 
ATOM     69  C   UNL A   1      39.816  33.829  37.159  1.00  0.00     0.022 A 
BRANCH  67  70
ATOM     70  S   UNL A   1      37.642  32.480  38.113  1.00  0.00     0.127 S 
ATOM     71  O   UNL A   1      37.978  33.415  39.186  1.00  0.00    -0.237 OA
ATOM     72  O   UNL A   1      36.544  32.914  37.248  1.00  0.00    -0.237 OA
ATOM     73  O   UNL A   1      37.597  31.079  38.505  1.00  0.00    -0.744 OA
ENDBRANCH  67  70
ENDBRANCH  49  63
BRANCH  50  74
ATOM     74  C   UNL A   1      42.561  26.084  27.414  1.00  0.00     0.023 A 
ATOM     75  C   UNL A   1      43.378  26.543  26.362  1.00  0.00     0.012 A 
ATOM     76  C   UNL A   1      42.096  24.756  27.398  1.00  0.00     0.148 A 
ATOM     77  C   UNL A   1      43.724  25.695  25.310  1.00  0.00     0.002 A 
ATOM     78  C   UNL A   1      42.476  23.905  26.366  1.00  0.00     0.091 A 
ATOM     79  F   UNL A   1      41.319  24.345  28.410  1.00  0.00    -0.205 F 
ATOM     80  C   UNL A   1      43.283  24.374  25.318  1.00  0.00     0.022 A 
BRANCH  78  81
ATOM     81  S   UNL A   1      42.052  22.159  26.342  1.00  0.00     0.127 S 
ATOM     82  O   UNL A   1      42.525  21.719  27.652  1.00  0.00    -0.237 OA
ATOM     83  O   UNL A   1      40.597  22.206  26.195  1.00  0.00    -0.237 OA
ATOM     84  O   UNL A   1      42.758  21.597  25.199  1.00  0.00    -0.744 OA
ENDBRANCH  78  81
ENDBRANCH  50  74
BRANCH  62  85
ATOM     85  C   UNL A   1      45.167  26.674  33.896  1.00  0.00     0.023 A 
ATOM     86  C   UNL A   1      46.444  27.265  33.884  1.00  0.00     0.012 A 
ATOM     87  C   UNL A   1      44.904  25.588  34.754  1.00  0.00     0.148 A 
ATOM     88  C   UNL A   1      47.448  26.788  34.725  1.00  0.00     0.002 A 
ATOM     89  C   UNL A   1      45.900  25.140  35.612  1.00  0.00     0.091 A 
ATOM     90  F   UNL A   1      43.676  25.050  34.744  1.00  0.00    -0.205 F 
ATOM     91  C   UNL A   1      47.172  25.737  35.598  1.00  0.00     0.022 A 
BRANCH  89  92
ATOM     92  S   UNL A   1      45.622  23.851  36.833  1.00  0.00     0.127 S 
ATOM     93  O   UNL A   1      46.948  23.720  37.435  1.00  0.00    -0.237 OA
ATOM     94  O   UNL A   1      44.614  24.461  37.699  1.00  0.00    -0.237 OA
ATOM     95  O   UNL A   1      45.167  22.682  36.092  1.00  0.00    -0.744 OA
ENDBRANCH  89  92
ENDBRANCH  62  85
ENDBRANCH  36  37
ENDBRANCH  29  31
ENDBRANCH  28  29
ENDBRANCH  27  28
ENDBRANCH   1  27
TORSDOF 20
ENDMDL
MODEL 2
REMARK VINA RESULT:     -11.9      5.121     10.315
REMARK SMILES CCC(CC)COc1cc2c(cc1Cl)C=C(C(=O)OCCOC(=O)c1ccc(-c3c4nc(c(-c5cccc(S(=O)(=O)[O-])c5F)c5ccc([nH]5)c(-c5cccc(S(=O)(=O)[O-])c5F)c5nc(c(-c6cccc(S(=O)(=O)[O-])c6F)c6ccc3[nH]6)C=C5)C=C4)cc1)[C@@H](C(F)(F)F)O2
REMARK SMILES IDX 20 1 19 2 17 3 18 4 16 5 8 6 9 7 13 8 10 9 12 10 14 11 11 12
REMARK SMILES IDX 93 13 15 14 88 15 7 16 6 17 3 18 2 19 1 20 4 21 5 22 89 23
REMARK SMILES IDX 90 24 91 25 92 26 21 27 22 28 23 29 24 30 25 31 26 32 87 33
REMARK SMILES IDX 27 34 86 35 28 36 29 37 30 38 80 39 31 40 85 41 79 42 81 43
REMARK SMILES IDX 32 44 84 45 78 46 77 47 33 49 65 50 45 51 64 52 46 53 49 54
REMARK SMILES IDX 63 55 82 56 47 57 48 58 62 60 83 61 50 62 34 63 35 64 43 65
REMARK SMILES IDX 36 66 38 67 44 68 37 69 39 70 40 71 41 72 42 73 66 74 67 75
REMARK SMILES IDX 75 76 68 77 70 78 76 79 69 80 71 81 72 82 73 83 74 84 51 85
REMARK SMILES IDX 52 86 60 87 53 88 55 89 61 90 54 91 56 92 57 93 58 94 59 95
REMARK H PARENT 81 48 49 59
REMARK Flexibility Score: inf
ROOT
ATOM      1  C   UNL A   1      34.750  21.062  24.628  1.00  0.00     0.275 C 
ENDROOT
BRANCH   1   2
ATOM      2  O   UNL A   1      34.701  22.491  24.846  1.00  0.00    -0.459 OA
BRANCH   2   3
ATOM      3  C   UNL A   1      34.878  23.228  23.721  1.00  0.00     0.338 C 
ATOM      4  O   UNL A   1      35.693  22.997  22.850  1.00  0.00    -0.246 OA
BRANCH   3   5
ATOM      5  C   UNL A   1      33.927  24.358  23.634  1.00  0.00     0.087 C 
ATOM      6  C   UNL A   1      31.502  28.647  24.576  1.00  0.00     0.141 A 
ATOM      7  C   UNL A   1      31.464  27.753  23.493  1.00  0.00     0.095 A 
ATOM      8  C   UNL A   1      32.231  28.315  25.725  1.00  0.00     0.083 A 
ATOM      9  C   UNL A   1      32.252  26.595  23.527  1.00  0.00     0.131 A 
ATOM     10  C   UNL A   1      33.112  27.244  25.696  1.00  0.00     0.036 A 
ATOM     11  Cl  UNL A   1      32.063  29.157  27.219  1.00  0.00    -0.080 Cl
ATOM     12  C   UNL A   1      33.135  26.401  24.589  1.00  0.00     0.019 A 
ATOM     13  O   UNL A   1      32.156  25.693  22.494  1.00  0.00    -0.475 OA
ATOM     14  C   UNL A   1      34.089  25.314  24.554  1.00  0.00     0.027 C 
ATOM     15  C   UNL A   1      32.730  24.359  22.725  1.00  0.00     0.316 C 
BRANCH   6  16
ATOM     16  O   UNL A   1      30.773  29.807  24.533  1.00  0.00    -0.492 OA
BRANCH  16  17
ATOM     17  C   UNL A   1      29.907  29.896  23.372  1.00  0.00     0.233 C 
BRANCH  17  18
ATOM     18  C   UNL A   1      28.910  31.087  23.423  1.00  0.00     0.026 C 
BRANCH  18  19
ATOM     19  C   UNL A   1      29.187  32.091  22.279  1.00  0.00     0.003 C 
ATOM     20  C   UNL A   1      27.923  32.706  21.693  1.00  0.00     0.004 C 
ENDBRANCH  18  19
BRANCH  18  21
ATOM     21  C   UNL A   1      27.434  30.631  23.456  1.00  0.00     0.003 C 
ATOM     22  C   UNL A   1      27.183  29.178  23.087  1.00  0.00     0.004 C 
ENDBRANCH  18  21
ENDBRANCH  17  18
ENDBRANCH  16  17
ENDBRANCH   6  16
BRANCH  15  23
ATOM     23  C   UNL A   1      31.673  23.391  23.292  1.00  0.00     0.430 C 
ATOM     24  F   UNL A   1      31.702  23.343  24.644  1.00  0.00    -0.167 F 
ATOM     25  F   UNL A   1      30.419  23.780  22.945  1.00  0.00    -0.167 F 
ATOM     26  F   UNL A   1      31.832  22.125  22.840  1.00  0.00    -0.167 F 
ENDBRANCH  15  23
ENDBRANCH   3   5
ENDBRANCH   2   3
ENDBRANCH   1   2
BRANCH   1  27
ATOM     27  C   UNL A   1      36.088  20.438  25.040  1.00  0.00     0.275 C 
BRANCH  27  28
ATOM     28  O   UNL A   1      36.882  21.325  25.850  1.00  0.00    -0.458 OA
BRANCH  28  29
ATOM     29  C   UNL A   1      38.207  21.060  25.857  1.00  0.00     0.338 C 
ATOM     30  O   UNL A   1      38.747  20.010  25.534  1.00  0.00    -0.246 OA
BRANCH  29  31
ATOM     31  C   UNL A   1      38.969  22.276  26.176  1.00  0.00     0.060 A 
ATOM     32  C   UNL A   1      38.467  23.554  25.950  1.00  0.00     0.016 A 
ATOM     33  C   UNL A   1      40.170  22.112  26.859  1.00  0.00     0.016 A 
ATOM     34  C   UNL A   1      39.207  24.662  26.390  1.00  0.00     0.010 A 
ATOM     35  C   UNL A   1      40.872  23.208  27.353  1.00  0.00     0.010 A 
ATOM     36  C   UNL A   1      40.414  24.505  27.108  1.00  0.00    -0.014 A 
BRANCH  36  37
ATOM     37  C   UNL A   1      41.159  25.688  27.629  1.00  0.00     0.031 A 
ATOM     38  C   UNL A   1      42.598  25.952  27.251  1.00  0.00     0.074 A 
ATOM     39  C   UNL A   1      40.542  26.530  28.484  1.00  0.00     0.049 A 
ATOM     40  N   UNL A   1      43.328  27.010  27.504  1.00  0.00    -0.248 NA
ATOM     41  C   UNL A   1      43.329  24.893  26.533  1.00  0.00     0.031 C 
ATOM     42  C   UNL A   1      39.215  26.317  29.068  1.00  0.00     0.029 A 
ATOM     43  N   UNL A   1      40.934  27.744  28.997  1.00  0.00    -0.354 N 
ATOM     44  C   UNL A   1      44.595  26.733  27.003  1.00  0.00     0.074 A 
ATOM     45  C   UNL A   1      44.558  25.388  26.478  1.00  0.00     0.031 C 
ATOM     46  C   UNL A   1      38.870  27.396  29.787  1.00  0.00     0.029 A 
ATOM     47  C   UNL A   1      39.952  28.374  29.728  1.00  0.00     0.049 A 
ATOM     48  H   UNL A   1      41.830  28.125  28.855  1.00  0.00     0.167 HD
ATOM     49  C   UNL A   1      45.678  27.542  26.931  1.00  0.00     0.034 A 
ATOM     50  C   UNL A   1      39.905  29.616  30.253  1.00  0.00     0.034 A 
ATOM     51  C   UNL A   1      45.687  28.911  27.364  1.00  0.00     0.049 A 
ATOM     52  C   UNL A   1      41.066  30.547  30.048  1.00  0.00     0.074 A 
ATOM     53  C   UNL A   1      46.686  29.854  27.204  1.00  0.00     0.029 A 
ATOM     54  N   UNL A   1      44.644  29.533  28.029  1.00  0.00    -0.354 N 
ATOM     55  N   UNL A   1      42.183  30.330  29.398  1.00  0.00    -0.248 NA
ATOM     56  C   UNL A   1      40.954  31.898  30.618  1.00  0.00     0.031 C 
ATOM     57  C   UNL A   1      46.247  31.051  27.775  1.00  0.00     0.029 A 
ATOM     58  C   UNL A   1      44.975  30.849  28.288  1.00  0.00     0.049 A 
ATOM     59  H   UNL A   1      43.795  29.103  28.280  1.00  0.00     0.167 HD
ATOM     60  C   UNL A   1      42.902  31.517  29.470  1.00  0.00     0.074 A 
ATOM     61  C   UNL A   1      42.087  32.459  30.210  1.00  0.00     0.031 C 
ATOM     62  C   UNL A   1      44.135  31.791  28.982  1.00  0.00     0.034 A 
BRANCH  49  63
ATOM     63  C   UNL A   1      46.917  27.020  26.251  1.00  0.00     0.023 A 
ATOM     64  C   UNL A   1      47.059  27.215  24.862  1.00  0.00     0.012 A 
ATOM     65  C   UNL A   1      47.975  26.449  26.984  1.00  0.00     0.148 A 
ATOM     66  C   UNL A   1      48.228  26.831  24.207  1.00  0.00     0.002 A 
ATOM     67  C   UNL A   1      49.150  26.096  26.328  1.00  0.00     0.091 A 
ATOM     68  F   UNL A   1      47.815  26.272  28.303  1.00  0.00    -0.205 F 
ATOM     69  C   UNL A   1      49.275  26.281  24.941  1.00  0.00     0.022 A 
BRANCH  67  70
ATOM     70  S   UNL A   1      50.588  25.436  27.182  1.00  0.00     0.127 S 
ATOM     71  O   UNL A   1      50.039  24.222  27.784  1.00  0.00    -0.237 OA
ATOM     72  O   UNL A   1      51.517  25.202  26.076  1.00  0.00    -0.237 OA
ATOM     73  O   UNL A   1      51.004  26.462  28.127  1.00  0.00    -0.744 OA
ENDBRANCH  67  70
ENDBRANCH  49  63
BRANCH  50  74
ATOM     74  C   UNL A   1      38.647  30.079  30.903  1.00  0.00     0.023 A 
ATOM     75  C   UNL A   1      38.490  29.901  32.291  1.00  0.00     0.012 A 
ATOM     76  C   UNL A   1      37.658  30.770  30.179  1.00  0.00     0.148 A 
ATOM     77  C   UNL A   1      37.366  30.401  32.948  1.00  0.00     0.002 A 
ATOM     78  C   UNL A   1      36.559  31.299  30.846  1.00  0.00     0.091 A 
ATOM     79  F   UNL A   1      37.831  30.924  28.859  1.00  0.00    -0.205 F 
ATOM     80  C   UNL A   1      36.407  31.109  32.229  1.00  0.00     0.022 A 
BRANCH  78  81
ATOM     81  S   UNL A   1      35.326  32.320  30.029  1.00  0.00     0.127 S 
ATOM     82  O   UNL A   1      34.388  32.583  31.118  1.00  0.00    -0.237 OA
ATOM     83  O   UNL A   1      36.123  33.473  29.609  1.00  0.00    -0.237 OA
ATOM     84  O   UNL A   1      34.806  31.512  28.934  1.00  0.00    -0.744 OA
ENDBRANCH  78  81
ENDBRANCH  50  74
BRANCH  62  85
ATOM     85  C   UNL A   1      44.718  33.153  29.219  1.00  0.00     0.023 A 
ATOM     86  C   UNL A   1      45.492  33.369  30.374  1.00  0.00     0.012 A 
ATOM     87  C   UNL A   1      44.667  34.140  28.215  1.00  0.00     0.148 A 
ATOM     88  C   UNL A   1      46.218  34.549  30.525  1.00  0.00     0.002 A 
ATOM     89  C   UNL A   1      45.418  35.300  28.358  1.00  0.00     0.091 A 
ATOM     90  F   UNL A   1      43.923  33.903  27.125  1.00  0.00    -0.205 F 
ATOM     91  C   UNL A   1      46.193  35.506  29.512  1.00  0.00     0.022 A 
BRANCH  89  92
ATOM     92  S   UNL A   1      45.522  36.554  27.077  1.00  0.00     0.127 S 
ATOM     93  O   UNL A   1      45.947  35.766  25.921  1.00  0.00    -0.237 OA
ATOM     94  O   UNL A   1      44.144  37.041  27.011  1.00  0.00    -0.237 OA
ATOM     95  O   UNL A   1      46.495  37.532  27.544  1.00  0.00    -0.744 OA
ENDBRANCH  89  92
ENDBRANCH  62  85
ENDBRANCH  36  37
ENDBRANCH  29  31
ENDBRANCH  28  29
ENDBRANCH  27  28
ENDBRANCH   1  27
TORSDOF 20
ENDMDL
MODEL 3
REMARK VINA RESULT:     -11.8      5.098     10.382
REMARK SMILES CCC(CC)COc1cc2c(cc1Cl)C=C(C(=O)OCCOC(=O)c1ccc(-c3c4nc(c(-c5cccc(S(=O)(=O)[O-])c5F)c5ccc([nH]5)c(-c5cccc(S(=O)(=O)[O-])c5F)c5nc(c(-c6cccc(S(=O)(=O)[O-])c6F)c6ccc3[nH]6)C=C5)C=C4)cc1)[C@@H](C(F)(F)F)O2
REMARK SMILES IDX 20 1 19 2 17 3 18 4 16 5 8 6 9 7 13 8 10 9 12 10 14 11 11 12
REMARK SMILES IDX 93 13 15 14 88 15 7 16 6 17 3 18 2 19 1 20 4 21 5 22 89 23
REMARK SMILES IDX 90 24 91 25 92 26 21 27 22 28 23 29 24 30 25 31 26 32 87 33
REMARK SMILES IDX 27 34 86 35 28 36 29 37 30 38 80 39 31 40 85 41 79 42 81 43
REMARK SMILES IDX 32 44 84 45 78 46 77 47 33 49 65 50 45 51 64 52 46 53 49 54
REMARK SMILES IDX 63 55 82 56 47 57 48 58 62 60 83 61 50 62 34 63 35 64 43 65
REMARK SMILES IDX 36 66 38 67 44 68 37 69 39 70 40 71 41 72 42 73 66 74 67 75
REMARK SMILES IDX 75 76 68 77 70 78 76 79 69 80 71 81 72 82 73 83 74 84 51 85
REMARK SMILES IDX 52 86 60 87 53 88 55 89 61 90 54 91 56 92 57 93 58 94 59 95
REMARK H PARENT 81 48 49 59
REMARK Flexibility Score: inf
ROOT
ATOM      1  C   UNL A   1      35.669  21.257  24.904  1.00  0.00     0.275 C 
ENDROOT
BRANCH   1   2
ATOM      2  O   UNL A   1      35.492  22.691  24.873  1.00  0.00    -0.459 OA
BRANCH   2   3
ATOM      3  C   UNL A   1      35.344  23.203  23.625  1.00  0.00     0.338 C 
ATOM      4  O   UNL A   1      35.977  22.863  22.645  1.00  0.00    -0.246 OA
BRANCH   3   5
ATOM      5  C   UNL A   1      34.276  24.225  23.560  1.00  0.00     0.087 C 
ATOM      6  C   UNL A   1      31.438  28.241  24.551  1.00  0.00     0.141 A 
ATOM      7  C   UNL A   1      31.464  27.339  23.474  1.00  0.00     0.095 A 
ATOM      8  C   UNL A   1      32.230  27.998  25.679  1.00  0.00     0.083 A 
ATOM      9  C   UNL A   1      32.371  26.271  23.490  1.00  0.00     0.131 A 
ATOM     10  C   UNL A   1      33.219  27.026  25.630  1.00  0.00     0.036 A 
ATOM     11  Cl  UNL A   1      32.017  28.830  27.173  1.00  0.00    -0.080 Cl
ATOM     12  C   UNL A   1      33.300  26.181  24.527  1.00  0.00     0.019 A 
ATOM     13  O   UNL A   1      32.342  25.355  22.465  1.00  0.00    -0.475 OA
ATOM     14  C   UNL A   1      34.362  25.201  24.470  1.00  0.00     0.027 C 
ATOM     15  C   UNL A   1      33.060  24.092  22.687  1.00  0.00     0.316 C 
BRANCH   6  16
ATOM     16  O   UNL A   1      30.589  29.317  24.523  1.00  0.00    -0.492 OA
BRANCH  16  17
ATOM     17  C   UNL A   1      29.979  29.532  23.223  1.00  0.00     0.233 C 
BRANCH  17  18
ATOM     18  C   UNL A   1      28.859  30.609  23.227  1.00  0.00     0.026 C 
BRANCH  18  19
ATOM     19  C   UNL A   1      29.068  31.630  22.083  1.00  0.00     0.003 C 
ATOM     20  C   UNL A   1      27.998  31.557  21.003  1.00  0.00     0.004 C 
ENDBRANCH  18  19
BRANCH  18  21
ATOM     21  C   UNL A   1      27.440  29.997  23.212  1.00  0.00     0.003 C 
ATOM     22  C   UNL A   1      27.376  28.480  23.135  1.00  0.00     0.004 C 
ENDBRANCH  18  21
ENDBRANCH  17  18
ENDBRANCH  16  17
ENDBRANCH   6  16
BRANCH  15  23
ATOM     23  C   UNL A   1      32.129  23.022  23.289  1.00  0.00     0.430 C 
ATOM     24  F   UNL A   1      30.827  23.271  23.015  1.00  0.00    -0.167 F 
ATOM     25  F   UNL A   1      32.404  21.793  22.781  1.00  0.00    -0.167 F 
ATOM     26  F   UNL A   1      32.247  22.927  24.634  1.00  0.00    -0.167 F 
ENDBRANCH  15  23
ENDBRANCH   3   5
ENDBRANCH   2   3
ENDBRANCH   1   2
BRANCH   1  27
ATOM     27  C   UNL A   1      37.141  20.835  24.986  1.00  0.00     0.275 C 
BRANCH  27  28
ATOM     28  O   UNL A   1      38.010  21.936  25.311  1.00  0.00    -0.458 OA
BRANCH  28  29
ATOM     29  C   UNL A   1      39.094  21.609  26.050  1.00  0.00     0.338 C 
ATOM     30  O   UNL A   1      39.658  20.524  26.084  1.00  0.00    -0.246 OA
BRANCH  29  31
ATOM     31  C   UNL A   1      39.625  22.800  26.729  1.00  0.00     0.060 A 
ATOM     32  C   UNL A   1      40.671  22.736  27.644  1.00  0.00     0.016 A 
ATOM     33  C   UNL A   1      39.141  24.037  26.312  1.00  0.00     0.016 A 
ATOM     34  C   UNL A   1      41.197  23.931  28.158  1.00  0.00     0.010 A 
ATOM     35  C   UNL A   1      39.707  25.222  26.772  1.00  0.00     0.010 A 
ATOM     36  C   UNL A   1      40.731  25.191  27.721  1.00  0.00    -0.014 A 
BRANCH  36  37
ATOM     37  C   UNL A   1      41.343  26.455  28.225  1.00  0.00     0.031 A 
ATOM     38  C   UNL A   1      42.788  26.803  27.953  1.00  0.00     0.074 A 
ATOM     39  C   UNL A   1      40.596  27.298  28.968  1.00  0.00     0.049 A 
ATOM     40  N   UNL A   1      43.418  27.925  28.198  1.00  0.00    -0.248 NA
ATOM     41  C   UNL A   1      43.652  25.761  27.371  1.00  0.00     0.031 C 
ATOM     42  C   UNL A   1      39.240  27.021  29.450  1.00  0.00     0.029 A 
ATOM     43  N   UNL A   1      40.855  28.565  29.432  1.00  0.00    -0.354 N 
ATOM     44  C   UNL A   1      44.741  27.715  27.825  1.00  0.00     0.074 A 
ATOM     45  C   UNL A   1      44.843  26.342  27.388  1.00  0.00     0.031 C 
ATOM     46  C   UNL A   1      38.759  28.113  30.065  1.00  0.00     0.029 A 
ATOM     47  C   UNL A   1      39.772  29.163  30.034  1.00  0.00     0.049 A 
ATOM     48  H   UNL A   1      41.732  29.004  29.342  1.00  0.00     0.167 HD
ATOM     49  C   UNL A   1      45.768  28.597  27.792  1.00  0.00     0.034 A 
ATOM     50  C   UNL A   1      39.592  30.427  30.471  1.00  0.00     0.034 A 
ATOM     51  C   UNL A   1      45.643  29.985  28.134  1.00  0.00     0.049 A 
ATOM     52  C   UNL A   1      40.699  31.428  30.305  1.00  0.00     0.074 A 
ATOM     53  C   UNL A   1      46.585  30.989  27.999  1.00  0.00     0.029 A 
ATOM     54  N   UNL A   1      44.505  30.566  28.666  1.00  0.00    -0.354 N 
ATOM     55  N   UNL A   1      41.882  31.257  29.767  1.00  0.00    -0.248 NA
ATOM     56  C   UNL A   1      40.444  32.799  30.774  1.00  0.00     0.031 C 
ATOM     57  C   UNL A   1      46.015  32.182  28.451  1.00  0.00     0.029 A 
ATOM     58  C   UNL A   1      44.719  31.916  28.866  1.00  0.00     0.049 A 
ATOM     59  H   UNL A   1      43.668  30.089  28.872  1.00  0.00     0.167 HD
ATOM     60  C   UNL A   1      42.508  32.497  29.822  1.00  0.00     0.074 A 
ATOM     61  C   UNL A   1      41.567  33.417  30.428  1.00  0.00     0.031 C 
ATOM     62  C   UNL A   1      43.758  32.832  29.423  1.00  0.00     0.034 A 
BRANCH  49  63
ATOM     63  C   UNL A   1      47.095  28.129  27.256  1.00  0.00     0.023 A 
ATOM     64  C   UNL A   1      48.114  27.792  28.170  1.00  0.00     0.012 A 
ATOM     65  C   UNL A   1      47.300  27.917  25.879  1.00  0.00     0.148 A 
ATOM     66  C   UNL A   1      49.326  27.269  27.722  1.00  0.00     0.002 A 
ATOM     67  C   UNL A   1      48.500  27.365  25.442  1.00  0.00     0.091 A 
ATOM     68  F   UNL A   1      46.318  28.246  25.029  1.00  0.00    -0.205 F 
ATOM     69  C   UNL A   1      49.514  27.048  26.362  1.00  0.00     0.022 A 
BRANCH  67  70
ATOM     70  S   UNL A   1      48.831  26.979  23.718  1.00  0.00     0.127 S 
ATOM     71  O   UNL A   1      50.269  26.713  23.748  1.00  0.00    -0.237 OA
ATOM     72  O   UNL A   1      47.996  25.796  23.506  1.00  0.00    -0.237 OA
ATOM     73  O   UNL A   1      48.436  28.155  22.957  1.00  0.00    -0.744 OA
ENDBRANCH  67  70
ENDBRANCH  49  63
BRANCH  50  74
ATOM     74  C   UNL A   1      38.252  30.832  30.980  1.00  0.00     0.023 A 
ATOM     75  C   UNL A   1      37.940  30.609  32.335  1.00  0.00     0.012 A 
ATOM     76  C   UNL A   1      37.331  31.514  30.164  1.00  0.00     0.148 A 
ATOM     77  C   UNL A   1      36.731  31.055  32.869  1.00  0.00     0.002 A 
ATOM     78  C   UNL A   1      36.145  31.990  30.710  1.00  0.00     0.091 A 
ATOM     79  F   UNL A   1      37.652  31.712  28.877  1.00  0.00    -0.205 F 
ATOM     80  C   UNL A   1      35.839  31.755  32.060  1.00  0.00     0.022 A 
BRANCH  78  81
ATOM     81  S   UNL A   1      34.983  32.997  29.781  1.00  0.00     0.127 S 
ATOM     82  O   UNL A   1      34.327  31.997  28.942  1.00  0.00    -0.237 OA
ATOM     83  O   UNL A   1      34.148  33.552  30.847  1.00  0.00    -0.237 OA
ATOM     84  O   UNL A   1      35.790  33.980  29.071  1.00  0.00    -0.744 OA
ENDBRANCH  78  81
ENDBRANCH  50  74
BRANCH  62  85
ATOM     85  C   UNL A   1      44.222  34.246  29.619  1.00  0.00     0.023 A 
ATOM     86  C   UNL A   1      45.111  34.528  30.673  1.00  0.00     0.012 A 
ATOM     87  C   UNL A   1      43.941  35.233  28.655  1.00  0.00     0.148 A 
ATOM     88  C   UNL A   1      45.723  35.777  30.762  1.00  0.00     0.002 A 
ATOM     89  C   UNL A   1      44.580  36.464  28.732  1.00  0.00     0.091 A 
ATOM     90  F   UNL A   1      43.093  34.931  27.661  1.00  0.00    -0.205 F 
ATOM     91  C   UNL A   1      45.470  36.738  29.784  1.00  0.00     0.022 A 
BRANCH  89  92
ATOM     92  S   UNL A   1      44.389  37.738  27.479  1.00  0.00     0.127 S 
ATOM     93  O   UNL A   1      45.550  37.493  26.625  1.00  0.00    -0.237 OA
ATOM     94  O   UNL A   1      43.103  37.386  26.878  1.00  0.00    -0.237 OA
ATOM     95  O   UNL A   1      44.407  39.010  28.188  1.00  0.00    -0.744 OA
ENDBRANCH  89  92
ENDBRANCH  62  85
ENDBRANCH  36  37
ENDBRANCH  29  31
ENDBRANCH  28  29
ENDBRANCH  27  28
ENDBRANCH   1  27
TORSDOF 20
ENDMDL
