MODEL 1
REMARK VINA RESULT:     -11.6      0.000      0.000
REMARK SMILES C[C@@H]1CN(C(=O)NC(=O)CCCCC(=O)OCCOC(=O)c2ccc(-c3c4nc(c(-c5cccc(S(=O)(=O)[O-])c5F)c5ccc([nH]5)c(-c5cccc(S(=O)(=O)[O-])c5F)c5nc(c(-c6cccc(S(=O)(=O)[O-])c6F)c6ccc3[nH]6)C=C5)C=C4)cc2)CCO1
REMARK SMILES IDX 17 1 16 2 14 3 15 4 13 5 12 6 11 7 10 8 8 9 5 10 6 11 7 12
REMARK SMILES IDX 9 14 4 15 1 16 2 17 3 18 87 19 86 20 85 21 18 22 19 23 20 24
REMARK SMILES IDX 21 25 22 26 23 27 84 28 24 29 83 30 25 31 26 32 27 33 77 34
REMARK SMILES IDX 28 35 82 36 76 37 78 38 29 39 81 40 75 41 74 42 30 44 62 45
REMARK SMILES IDX 42 46 61 47 43 48 46 49 60 50 79 51 44 52 45 53 59 55 80 56
REMARK SMILES IDX 47 57 31 58 32 59 40 60 33 61 35 62 41 63 34 64 36 65 37 66
REMARK SMILES IDX 38 67 39 68 63 69 64 70 72 71 65 72 67 73 73 74 66 75 68 76
REMARK SMILES IDX 69 77 70 78 71 79 48 80 49 81 57 82 50 83 52 84 58 85 51 86
REMARK SMILES IDX 53 87 54 88 55 89 56 90
REMARK H PARENT 7 13 78 43 46 54
REMARK Flexibility Score: inf
ROOT
ATOM      1  C   UNL A   1      35.905  20.403  25.036  1.00  0.00     0.274 C 
ENDROOT
BRANCH   1   2
ATOM      2  O   UNL A   1      35.419  21.711  24.672  1.00  0.00    -0.462 OA
BRANCH   2   3
ATOM      3  C   UNL A   1      34.613  22.275  25.602  1.00  0.00     0.305 C 
ATOM      4  O   UNL A   1      34.766  22.145  26.810  1.00  0.00    -0.252 OA
BRANCH   3   5
ATOM      5  C   UNL A   1      33.559  23.194  25.037  1.00  0.00     0.123 C 
BRANCH   5   6
ATOM      6  C   UNL A   1      32.944  22.868  23.687  1.00  0.00     0.012 C 
BRANCH   6   7
ATOM      7  C   UNL A   1      33.518  23.532  22.438  1.00  0.00     0.010 C 
BRANCH   7   8
ATOM      8  C   UNL A   1      33.576  25.054  22.337  1.00  0.00     0.100 C 
BRANCH   8   9
ATOM      9  C   UNL A   1      32.697  25.722  21.311  1.00  0.00     0.227 C 
ATOM     10  C   UNL A   1      30.955  27.327  22.526  1.00  0.00     0.324 C 
ATOM     11  O   UNL A   1      30.473  28.370  22.069  1.00  0.00    -0.248 OA
ATOM     12  N   UNL A   1      31.606  26.534  21.596  1.00  0.00    -0.278 N 
ATOM     13  H   UNL A   1      31.057  26.557  20.779  1.00  0.00     0.174 HD
ATOM     14  O   UNL A   1      32.963  25.557  20.112  1.00  0.00    -0.275 OA
BRANCH  10  15
ATOM     15  N   UNL A   1      30.857  27.018  23.851  1.00  0.00    -0.320 N 
ATOM     16  C   UNL A   1      31.524  28.195  27.417  1.00  0.00     0.040 C 
ATOM     17  C   UNL A   1      31.487  27.141  26.311  1.00  0.00     0.134 C 
ATOM     18  C   UNL A   1      31.296  27.839  24.959  1.00  0.00     0.153 C 
ATOM     19  O   UNL A   1      30.404  26.256  26.601  1.00  0.00    -0.375 OA
ATOM     20  C   UNL A   1      30.284  25.263  25.580  1.00  0.00     0.182 C 
ATOM     21  C   UNL A   1      29.993  25.880  24.209  1.00  0.00     0.150 C 
ENDBRANCH  10  15
ENDBRANCH   8   9
ENDBRANCH   7   8
ENDBRANCH   6   7
ENDBRANCH   5   6
ENDBRANCH   3   5
ENDBRANCH   2   3
ENDBRANCH   1   2
BRANCH   1  22
ATOM     22  C   UNL A   1      37.431  20.317  24.955  1.00  0.00     0.275 C 
BRANCH  22  23
ATOM     23  O   UNL A   1      38.068  21.519  25.434  1.00  0.00    -0.458 OA
BRANCH  23  24
ATOM     24  C   UNL A   1      39.238  21.326  26.079  1.00  0.00     0.338 C 
ATOM     25  O   UNL A   1      39.890  20.293  26.133  1.00  0.00    -0.246 OA
BRANCH  24  26
ATOM     26  C   UNL A   1      39.675  22.565  26.734  1.00  0.00     0.060 A 
ATOM     27  C   UNL A   1      39.168  23.801  26.315  1.00  0.00     0.016 A 
ATOM     28  C   UNL A   1      40.716  22.505  27.663  1.00  0.00     0.016 A 
ATOM     29  C   UNL A   1      39.742  24.982  26.784  1.00  0.00     0.010 A 
ATOM     30  C   UNL A   1      41.252  23.689  28.168  1.00  0.00     0.010 A 
ATOM     31  C   UNL A   1      40.796  24.937  27.707  1.00  0.00    -0.014 A 
BRANCH  31  32
ATOM     32  C   UNL A   1      41.477  26.175  28.165  1.00  0.00     0.031 A 
ATOM     33  C   UNL A   1      40.686  27.228  28.892  1.00  0.00     0.074 A 
ATOM     34  C   UNL A   1      42.772  26.390  27.865  1.00  0.00     0.049 A 
ATOM     35  N   UNL A   1      41.012  28.463  29.170  1.00  0.00    -0.248 NA
ATOM     36  C   UNL A   1      39.340  26.844  29.353  1.00  0.00     0.031 C 
ATOM     37  C   UNL A   1      43.649  25.444  27.174  1.00  0.00     0.029 A 
ATOM     38  N   UNL A   1      43.563  27.493  28.066  1.00  0.00    -0.354 N 
ATOM     39  C   UNL A   1      39.889  29.027  29.764  1.00  0.00     0.074 A 
ATOM     40  C   UNL A   1      38.881  27.992  29.835  1.00  0.00     0.031 C 
ATOM     41  C   UNL A   1      44.848  26.017  26.983  1.00  0.00     0.029 A 
ATOM     42  C   UNL A   1      44.808  27.387  27.489  1.00  0.00     0.049 A 
ATOM     43  H   UNL A   1      43.269  28.284  28.575  1.00  0.00     0.167 HD
ATOM     44  C   UNL A   1      39.718  30.292  30.213  1.00  0.00     0.034 A 
ATOM     45  C   UNL A   1      45.785  28.302  27.339  1.00  0.00     0.034 A 
ATOM     46  C   UNL A   1      40.749  31.295  30.212  1.00  0.00     0.049 A 
ATOM     47  C   UNL A   1      45.575  29.694  27.875  1.00  0.00     0.074 A 
ATOM     48  C   UNL A   1      40.690  32.588  30.704  1.00  0.00     0.029 A 
ATOM     49  N   UNL A   1      42.025  31.115  29.704  1.00  0.00    -0.354 N 
ATOM     50  N   UNL A   1      44.541  30.186  28.512  1.00  0.00    -0.248 NA
ATOM     51  C   UNL A   1      46.675  30.652  27.688  1.00  0.00     0.031 C 
ATOM     52  C   UNL A   1      41.934  33.192  30.489  1.00  0.00     0.029 A 
ATOM     53  C   UNL A   1      42.765  32.273  29.869  1.00  0.00     0.049 A 
ATOM     54  H   UNL A   1      42.356  30.287  29.290  1.00  0.00     0.167 HD
ATOM     55  C   UNL A   1      44.873  31.500  28.822  1.00  0.00     0.074 A 
ATOM     56  C   UNL A   1      46.216  31.720  28.327  1.00  0.00     0.031 C 
ATOM     57  C   UNL A   1      44.125  32.449  29.435  1.00  0.00     0.034 A 
BRANCH  44  58
ATOM     58  C   UNL A   1      38.374  30.670  30.771  1.00  0.00     0.023 A 
ATOM     59  C   UNL A   1      38.090  30.431  32.129  1.00  0.00     0.012 A 
ATOM     60  C   UNL A   1      37.428  31.342  29.971  1.00  0.00     0.148 A 
ATOM     61  C   UNL A   1      36.877  30.842  32.681  1.00  0.00     0.002 A 
ATOM     62  C   UNL A   1      36.235  31.780  30.537  1.00  0.00     0.091 A 
ATOM     63  F   UNL A   1      37.712  31.541  28.676  1.00  0.00    -0.205 F 
ATOM     64  C   UNL A   1      35.956  31.525  31.889  1.00  0.00     0.022 A 
BRANCH  62  65
ATOM     65  S   UNL A   1      35.015  32.725  29.618  1.00  0.00     0.127 S 
ATOM     66  O   UNL A   1      34.077  33.103  30.675  1.00  0.00    -0.237 OA
ATOM     67  O   UNL A   1      35.814  33.829  29.089  1.00  0.00    -0.237 OA
ATOM     68  O   UNL A   1      34.482  31.821  28.607  1.00  0.00    -0.744 OA
ENDBRANCH  62  65
ENDBRANCH  44  58
BRANCH  45  69
ATOM     69  C   UNL A   1      47.059  27.931  26.660  1.00  0.00     0.023 A 
ATOM     70  C   UNL A   1      48.156  27.513  27.437  1.00  0.00     0.012 A 
ATOM     71  C   UNL A   1      47.186  27.966  25.259  1.00  0.00     0.148 A 
ATOM     72  C   UNL A   1      49.365  27.167  26.831  1.00  0.00     0.002 A 
ATOM     73  C   UNL A   1      48.375  27.565  24.659  1.00  0.00     0.091 A 
ATOM     74  F   UNL A   1      46.143  28.393  24.531  1.00  0.00    -0.205 F 
ATOM     75  C   UNL A   1      49.471  27.180  25.443  1.00  0.00     0.022 A 
BRANCH  73  76
ATOM     76  S   UNL A   1      48.515  27.424  22.873  1.00  0.00     0.127 S 
ATOM     77  O   UNL A   1      48.383  25.985  22.671  1.00  0.00    -0.237 OA
ATOM     78  O   UNL A   1      47.378  28.217  22.402  1.00  0.00    -0.237 OA
ATOM     79  O   UNL A   1      49.813  28.006  22.556  1.00  0.00    -0.744 OA
ENDBRANCH  73  76
ENDBRANCH  45  69
BRANCH  57  80
ATOM     80  C   UNL A   1      44.746  33.805  29.638  1.00  0.00     0.023 A 
ATOM     81  C   UNL A   1      45.457  34.068  30.824  1.00  0.00     0.012 A 
ATOM     82  C   UNL A   1      44.698  34.781  28.625  1.00  0.00     0.148 A 
ATOM     83  C   UNL A   1      46.096  35.294  31.008  1.00  0.00     0.002 A 
ATOM     84  C   UNL A   1      45.370  35.985  28.800  1.00  0.00     0.091 A 
ATOM     85  F   UNL A   1      43.996  34.519  27.512  1.00  0.00    -0.205 F 
ATOM     86  C   UNL A   1      46.063  36.247  29.992  1.00  0.00     0.022 A 
BRANCH  84  87
ATOM     87  S   UNL A   1      45.448  37.226  27.502  1.00  0.00     0.127 S 
ATOM     88  O   UNL A   1      44.038  37.564  27.325  1.00  0.00    -0.237 OA
ATOM     89  O   UNL A   1      46.254  38.281  28.120  1.00  0.00    -0.237 OA
ATOM     90  O   UNL A   1      46.089  36.571  26.370  1.00  0.00    -0.744 OA
ENDBRANCH  84  87
ENDBRANCH  57  80
ENDBRANCH  31  32
ENDBRANCH  24  26
ENDBRANCH  23  24
ENDBRANCH  22  23
ENDBRANCH   1  22
TORSDOF 19
ENDMDL
MODEL 2
REMARK VINA RESULT:     -11.6      1.287      2.460
REMARK SMILES C[C@@H]1CN(C(=O)NC(=O)CCCCC(=O)OCCOC(=O)c2ccc(-c3c4nc(c(-c5cccc(S(=O)(=O)[O-])c5F)c5ccc([nH]5)c(-c5cccc(S(=O)(=O)[O-])c5F)c5nc(c(-c6cccc(S(=O)(=O)[O-])c6F)c6ccc3[nH]6)C=C5)C=C4)cc2)CCO1
REMARK SMILES IDX 17 1 16 2 14 3 15 4 13 5 12 6 11 7 10 8 8 9 5 10 6 11 7 12
REMARK SMILES IDX 9 14 4 15 1 16 2 17 3 18 87 19 86 20 85 21 18 22 19 23 20 24
REMARK SMILES IDX 21 25 22 26 23 27 84 28 24 29 83 30 25 31 26 32 27 33 77 34
REMARK SMILES IDX 28 35 82 36 76 37 78 38 29 39 81 40 75 41 74 42 30 44 62 45
REMARK SMILES IDX 42 46 61 47 43 48 46 49 60 50 79 51 44 52 45 53 59 55 80 56
REMARK SMILES IDX 47 57 31 58 32 59 40 60 33 61 35 62 41 63 34 64 36 65 37 66
REMARK SMILES IDX 38 67 39 68 63 69 64 70 72 71 65 72 67 73 73 74 66 75 68 76
REMARK SMILES IDX 69 77 70 78 71 79 48 80 49 81 57 82 50 83 52 84 58 85 51 86
REMARK SMILES IDX 53 87 54 88 55 89 56 90
REMARK H PARENT 7 13 78 43 46 54
REMARK Flexibility Score: inf
ROOT
ATOM      1  C   UNL A   1      35.941  20.735  24.993  1.00  0.00     0.274 C 
ENDROOT
BRANCH   1   2
ATOM      2  O   UNL A   1      35.641  22.125  25.238  1.00  0.00    -0.462 OA
BRANCH   2   3
ATOM      3  C   UNL A   1      34.901  22.338  26.351  1.00  0.00     0.305 C 
ATOM      4  O   UNL A   1      34.610  21.464  27.159  1.00  0.00    -0.252 OA
BRANCH   3   5
ATOM      5  C   UNL A   1      34.548  23.784  26.597  1.00  0.00     0.123 C 
BRANCH   5   6
ATOM      6  C   UNL A   1      34.440  24.727  25.412  1.00  0.00     0.012 C 
BRANCH   6   7
ATOM      7  C   UNL A   1      33.967  26.159  25.652  1.00  0.00     0.010 C 
BRANCH   7   8
ATOM      8  C   UNL A   1      32.530  26.557  25.325  1.00  0.00     0.100 C 
BRANCH   8   9
ATOM      9  C   UNL A   1      31.484  26.339  26.388  1.00  0.00     0.227 C 
ATOM     10  C   UNL A   1      30.812  23.764  26.477  1.00  0.00     0.324 C 
ATOM     11  O   UNL A   1      30.436  23.136  27.473  1.00  0.00    -0.248 OA
ATOM     12  N   UNL A   1      30.823  25.141  26.631  1.00  0.00    -0.278 N 
ATOM     13  H   UNL A   1      30.008  25.371  27.131  1.00  0.00     0.174 HD
ATOM     14  O   UNL A   1      31.188  27.290  27.125  1.00  0.00    -0.275 OA
BRANCH  10  15
ATOM     15  N   UNL A   1      31.200  23.125  25.336  1.00  0.00    -0.320 N 
ATOM     16  C   UNL A   1      32.443  19.849  23.830  1.00  0.00     0.040 C 
ATOM     17  C   UNL A   1      32.431  21.370  23.969  1.00  0.00     0.134 C 
ATOM     18  C   UNL A   1      31.650  21.753  25.231  1.00  0.00     0.153 C 
ATOM     19  O   UNL A   1      31.819  21.902  22.792  1.00  0.00    -0.375 OA
ATOM     20  C   UNL A   1      31.737  23.327  22.873  1.00  0.00     0.182 C 
ATOM     21  C   UNL A   1      30.886  23.788  24.059  1.00  0.00     0.150 C 
ENDBRANCH  10  15
ENDBRANCH   8   9
ENDBRANCH   7   8
ENDBRANCH   6   7
ENDBRANCH   5   6
ENDBRANCH   3   5
ENDBRANCH   2   3
ENDBRANCH   1   2
BRANCH   1  22
ATOM     22  C   UNL A   1      37.448  20.467  24.995  1.00  0.00     0.275 C 
BRANCH  22  23
ATOM     23  O   UNL A   1      38.208  21.642  25.343  1.00  0.00    -0.458 OA
BRANCH  23  24
ATOM     24  C   UNL A   1      39.297  21.410  26.107  1.00  0.00     0.338 C 
ATOM     25  O   UNL A   1      39.887  20.349  26.249  1.00  0.00    -0.246 OA
BRANCH  24  26
ATOM     26  C   UNL A   1      39.729  22.645  26.775  1.00  0.00     0.060 A 
ATOM     27  C   UNL A   1      39.159  23.874  26.421  1.00  0.00     0.016 A 
ATOM     28  C   UNL A   1      40.820  22.594  27.645  1.00  0.00     0.016 A 
ATOM     29  C   UNL A   1      39.720  25.061  26.894  1.00  0.00     0.010 A 
ATOM     30  C   UNL A   1      41.344  23.781  28.155  1.00  0.00     0.010 A 
ATOM     31  C   UNL A   1      40.823  25.025  27.757  1.00  0.00    -0.014 A 
BRANCH  31  32
ATOM     32  C   UNL A   1      41.488  26.273  28.215  1.00  0.00     0.031 A 
ATOM     33  C   UNL A   1      40.680  27.320  28.932  1.00  0.00     0.074 A 
ATOM     34  C   UNL A   1      42.782  26.500  27.924  1.00  0.00     0.049 A 
ATOM     35  N   UNL A   1      40.990  28.559  29.207  1.00  0.00    -0.248 NA
ATOM     36  C   UNL A   1      39.335  26.923  29.385  1.00  0.00     0.031 C 
ATOM     37  C   UNL A   1      43.675  25.561  27.243  1.00  0.00     0.029 A 
ATOM     38  N   UNL A   1      43.560  27.612  28.127  1.00  0.00    -0.354 N 
ATOM     39  C   UNL A   1      39.857  29.113  29.791  1.00  0.00     0.074 A 
ATOM     40  C   UNL A   1      38.860  28.067  29.859  1.00  0.00     0.031 C 
ATOM     41  C   UNL A   1      44.869  26.146  27.059  1.00  0.00     0.029 A 
ATOM     42  C   UNL A   1      44.810  27.517  27.558  1.00  0.00     0.049 A 
ATOM     43  H   UNL A   1      43.254  28.402  28.630  1.00  0.00     0.167 HD
ATOM     44  C   UNL A   1      39.670  30.378  30.233  1.00  0.00     0.034 A 
ATOM     45  C   UNL A   1      45.778  28.442  27.412  1.00  0.00     0.034 A 
ATOM     46  C   UNL A   1      40.689  31.392  30.236  1.00  0.00     0.049 A 
ATOM     47  C   UNL A   1      45.550  29.833  27.941  1.00  0.00     0.074 A 
ATOM     48  C   UNL A   1      40.614  32.686  30.722  1.00  0.00     0.029 A 
ATOM     49  N   UNL A   1      41.971  31.224  29.739  1.00  0.00    -0.354 N 
ATOM     50  N   UNL A   1      44.506  30.317  28.568  1.00  0.00    -0.248 NA
ATOM     51  C   UNL A   1      46.641  30.803  27.758  1.00  0.00     0.031 C 
ATOM     52  C   UNL A   1      41.852  33.302  30.514  1.00  0.00     0.029 A 
ATOM     53  C   UNL A   1      42.697  32.390  29.904  1.00  0.00     0.049 A 
ATOM     54  H   UNL A   1      42.315  30.398  29.330  1.00  0.00     0.167 HD
ATOM     55  C   UNL A   1      44.822  31.635  28.875  1.00  0.00     0.074 A 
ATOM     56  C   UNL A   1      46.166  31.868  28.389  1.00  0.00     0.031 C 
ATOM     57  C   UNL A   1      44.059  32.579  29.479  1.00  0.00     0.034 A 
BRANCH  44  58
ATOM     58  C   UNL A   1      38.317  30.744  30.780  1.00  0.00     0.023 A 
ATOM     59  C   UNL A   1      38.007  30.456  32.123  1.00  0.00     0.012 A 
ATOM     60  C   UNL A   1      37.390  31.452  29.989  1.00  0.00     0.148 A 
ATOM     61  C   UNL A   1      36.786  30.855  32.667  1.00  0.00     0.002 A 
ATOM     62  C   UNL A   1      36.190  31.876  30.548  1.00  0.00     0.091 A 
ATOM     63  F   UNL A   1      37.700  31.697  28.707  1.00  0.00    -0.205 F 
ATOM     64  C   UNL A   1      35.884  31.572  31.884  1.00  0.00     0.022 A 
BRANCH  62  65
ATOM     65  S   UNL A   1      34.993  32.862  29.643  1.00  0.00     0.127 S 
ATOM     66  O   UNL A   1      35.839  33.915  29.083  1.00  0.00    -0.237 OA
ATOM     67  O   UNL A   1      34.482  31.904  28.662  1.00  0.00    -0.237 OA
ATOM     68  O   UNL A   1      34.012  33.307  30.624  1.00  0.00    -0.744 OA
ENDBRANCH  62  65
ENDBRANCH  44  58
BRANCH  45  69
ATOM     69  C   UNL A   1      47.061  28.082  26.744  1.00  0.00     0.023 A 
ATOM     70  C   UNL A   1      48.177  27.743  27.533  1.00  0.00     0.012 A 
ATOM     71  C   UNL A   1      47.180  28.050  25.342  1.00  0.00     0.148 A 
ATOM     72  C   UNL A   1      49.394  27.409  26.937  1.00  0.00     0.002 A 
ATOM     73  C   UNL A   1      48.379  27.660  24.755  1.00  0.00     0.091 A 
ATOM     74  F   UNL A   1      46.118  28.402  24.601  1.00  0.00    -0.205 F 
ATOM     75  C   UNL A   1      49.492  27.355  25.549  1.00  0.00     0.022 A 
BRANCH  73  76
ATOM     76  S   UNL A   1      48.515  27.434  22.978  1.00  0.00     0.127 S 
ATOM     77  O   UNL A   1      49.869  27.909  22.714  1.00  0.00    -0.237 OA
ATOM     78  O   UNL A   1      48.330  25.989  22.827  1.00  0.00    -0.237 OA
ATOM     79  O   UNL A   1      47.429  28.229  22.418  1.00  0.00    -0.744 OA
ENDBRANCH  73  76
ENDBRANCH  45  69
BRANCH  57  80
ATOM     80  C   UNL A   1      44.664  33.942  29.681  1.00  0.00     0.023 A 
ATOM     81  C   UNL A   1      45.375  34.213  30.866  1.00  0.00     0.012 A 
ATOM     82  C   UNL A   1      44.601  34.918  28.669  1.00  0.00     0.148 A 
ATOM     83  C   UNL A   1      45.999  35.447  31.049  1.00  0.00     0.002 A 
ATOM     84  C   UNL A   1      45.259  36.131  28.842  1.00  0.00     0.091 A 
ATOM     85  F   UNL A   1      43.899  34.648  27.558  1.00  0.00    -0.205 F 
ATOM     86  C   UNL A   1      45.952  36.400  30.033  1.00  0.00     0.022 A 
BRANCH  84  87
ATOM     87  S   UNL A   1      45.319  37.373  27.545  1.00  0.00     0.127 S 
ATOM     88  O   UNL A   1      46.050  38.454  28.200  1.00  0.00    -0.237 OA
ATOM     89  O   UNL A   1      46.063  36.689  26.485  1.00  0.00    -0.237 OA
ATOM     90  O   UNL A   1      43.931  37.660  27.211  1.00  0.00    -0.744 OA
ENDBRANCH  84  87
ENDBRANCH  57  80
ENDBRANCH  31  32
ENDBRANCH  24  26
ENDBRANCH  23  24
ENDBRANCH  22  23
ENDBRANCH   1  22
TORSDOF 19
ENDMDL
MODEL 3
REMARK VINA RESULT:     -11.5      5.210     10.182
REMARK SMILES C[C@@H]1CN(C(=O)NC(=O)CCCCC(=O)OCCOC(=O)c2ccc(-c3c4nc(c(-c5cccc(S(=O)(=O)[O-])c5F)c5ccc([nH]5)c(-c5cccc(S(=O)(=O)[O-])c5F)c5nc(c(-c6cccc(S(=O)(=O)[O-])c6F)c6ccc3[nH]6)C=C5)C=C4)cc2)CCO1
REMARK SMILES IDX 17 1 16 2 14 3 15 4 13 5 12 6 11 7 10 8 8 9 5 10 6 11 7 12
REMARK SMILES IDX 9 14 4 15 1 16 2 17 3 18 87 19 86 20 85 21 18 22 19 23 20 24
REMARK SMILES IDX 21 25 22 26 23 27 84 28 24 29 83 30 25 31 26 32 27 33 77 34
REMARK SMILES IDX 28 35 82 36 76 37 78 38 29 39 81 40 75 41 74 42 30 44 62 45
REMARK SMILES IDX 42 46 61 47 43 48 46 49 60 50 79 51 44 52 45 53 59 55 80 56
REMARK SMILES IDX 47 57 31 58 32 59 40 60 33 61 35 62 41 63 34 64 36 65 37 66
REMARK SMILES IDX 38 67 39 68 63 69 64 70 72 71 65 72 67 73 73 74 66 75 68 76
REMARK SMILES IDX 69 77 70 78 71 79 48 80 49 81 57 82 50 83 52 84 58 85 51 86
REMARK SMILES IDX 53 87 54 88 55 89 56 90
REMARK H PARENT 7 13 78 43 46 54
REMARK Flexibility Score: inf
ROOT
ATOM      1  C   UNL A   1      31.279  29.856  24.702  1.00  0.00     0.274 C 
ENDROOT
BRANCH   1   2
ATOM      2  O   UNL A   1      31.942  28.637  25.097  1.00  0.00    -0.462 OA
BRANCH   2   3
ATOM      3  C   UNL A   1      32.935  28.256  24.260  1.00  0.00     0.305 C 
ATOM      4  O   UNL A   1      33.586  29.032  23.572  1.00  0.00    -0.252 OA
BRANCH   3   5
ATOM      5  C   UNL A   1      33.270  26.787  24.320  1.00  0.00     0.123 C 
BRANCH   5   6
ATOM      6  C   UNL A   1      33.229  26.076  25.662  1.00  0.00     0.012 C 
BRANCH   6   7
ATOM      7  C   UNL A   1      31.956  25.336  26.064  1.00  0.00     0.010 C 
BRANCH   7   8
ATOM      8  C   UNL A   1      32.027  24.157  27.031  1.00  0.00     0.100 C 
BRANCH   8   9
ATOM      9  C   UNL A   1      31.059  23.020  26.821  1.00  0.00     0.227 C 
ATOM     10  C   UNL A   1      32.077  21.279  25.084  1.00  0.00     0.324 C 
ATOM     11  O   UNL A   1      31.872  20.060  25.058  1.00  0.00    -0.248 OA
ATOM     12  N   UNL A   1      31.214  21.994  25.897  1.00  0.00    -0.278 N 
ATOM     13  H   UNL A   1      30.320  21.606  25.763  1.00  0.00     0.174 HD
ATOM     14  O   UNL A   1      30.046  22.973  27.533  1.00  0.00    -0.275 OA
BRANCH  10  15
ATOM     15  N   UNL A   1      33.095  21.845  24.373  1.00  0.00    -0.320 N 
ATOM     16  C   UNL A   1      36.877  22.097  23.947  1.00  0.00     0.040 C 
ATOM     17  C   UNL A   1      35.465  22.681  23.987  1.00  0.00     0.134 C 
ATOM     18  C   UNL A   1      34.511  21.645  24.595  1.00  0.00     0.153 C 
ATOM     19  O   UNL A   1      35.099  23.006  22.645  1.00  0.00    -0.375 OA
ATOM     20  C   UNL A   1      33.766  23.521  22.602  1.00  0.00     0.182 C 
ATOM     21  C   UNL A   1      32.739  22.503  23.105  1.00  0.00     0.150 C 
ENDBRANCH  10  15
ENDBRANCH   8   9
ENDBRANCH   7   8
ENDBRANCH   6   7
ENDBRANCH   5   6
ENDBRANCH   3   5
ENDBRANCH   2   3
ENDBRANCH   1   2
BRANCH   1  22
ATOM     22  C   UNL A   1      31.363  30.931  25.788  1.00  0.00     0.275 C 
BRANCH  22  23
ATOM     23  O   UNL A   1      32.407  30.655  26.745  1.00  0.00    -0.458 OA
BRANCH  23  24
ATOM     24  C   UNL A   1      33.047  31.745  27.218  1.00  0.00     0.338 C 
ATOM     25  O   UNL A   1      32.607  32.883  27.301  1.00  0.00    -0.246 OA
BRANCH  24  26
ATOM     26  C   UNL A   1      34.403  31.393  27.661  1.00  0.00     0.060 A 
ATOM     27  C   UNL A   1      34.733  30.059  27.927  1.00  0.00     0.016 A 
ATOM     28  C   UNL A   1      35.300  32.419  27.963  1.00  0.00     0.016 A 
ATOM     29  C   UNL A   1      35.942  29.754  28.552  1.00  0.00     0.010 A 
ATOM     30  C   UNL A   1      36.530  32.104  28.541  1.00  0.00     0.010 A 
ATOM     31  C   UNL A   1      36.846  30.775  28.874  1.00  0.00    -0.014 A 
BRANCH  31  32
ATOM     32  C   UNL A   1      38.107  30.490  29.608  1.00  0.00     0.031 A 
ATOM     33  C   UNL A   1      39.116  29.550  29.007  1.00  0.00     0.074 A 
ATOM     34  C   UNL A   1      38.310  31.005  30.836  1.00  0.00     0.049 A 
ATOM     35  N   UNL A   1      40.154  28.985  29.563  1.00  0.00    -0.248 NA
ATOM     36  C   UNL A   1      38.919  29.185  27.593  1.00  0.00     0.031 C 
ATOM     37  C   UNL A   1      37.414  31.935  31.523  1.00  0.00     0.029 A 
ATOM     38  N   UNL A   1      39.319  30.782  31.740  1.00  0.00    -0.354 N 
ATOM     39  C   UNL A   1      40.688  28.139  28.598  1.00  0.00     0.074 A 
ATOM     40  C   UNL A   1      39.877  28.286  27.409  1.00  0.00     0.031 C 
ATOM     41  C   UNL A   1      37.896  32.181  32.752  1.00  0.00     0.029 A 
ATOM     42  C   UNL A   1      39.104  31.387  32.957  1.00  0.00     0.049 A 
ATOM     43  H   UNL A   1      40.118  30.243  31.537  1.00  0.00     0.167 HD
ATOM     44  C   UNL A   1      41.759  27.318  28.696  1.00  0.00     0.034 A 
ATOM     45  C   UNL A   1      39.775  31.275  34.121  1.00  0.00     0.034 A 
ATOM     46  C   UNL A   1      42.609  27.234  29.853  1.00  0.00     0.049 A 
ATOM     47  C   UNL A   1      40.981  30.376  34.189  1.00  0.00     0.074 A 
ATOM     48  C   UNL A   1      43.756  26.477  30.025  1.00  0.00     0.029 A 
ATOM     49  N   UNL A   1      42.410  27.935  31.031  1.00  0.00    -0.354 N 
ATOM     50  N   UNL A   1      41.524  29.650  33.243  1.00  0.00    -0.248 NA
ATOM     51  C   UNL A   1      41.678  30.294  35.482  1.00  0.00     0.031 C 
ATOM     52  C   UNL A   1      44.249  26.720  31.311  1.00  0.00     0.029 A 
ATOM     53  C   UNL A   1      43.412  27.630  31.936  1.00  0.00     0.049 A 
ATOM     54  H   UNL A   1      41.668  28.559  31.199  1.00  0.00     0.167 HD
ATOM     55  C   UNL A   1      42.636  29.045  33.817  1.00  0.00     0.074 A 
ATOM     56  C   UNL A   1      42.706  29.511  35.186  1.00  0.00     0.031 C 
ATOM     57  C   UNL A   1      43.506  28.161  33.270  1.00  0.00     0.034 A 
BRANCH  44  58
ATOM     58  C   UNL A   1      42.101  26.455  27.512  1.00  0.00     0.023 A 
ATOM     59  C   UNL A   1      42.845  26.996  26.447  1.00  0.00     0.012 A 
ATOM     60  C   UNL A   1      41.762  25.087  27.499  1.00  0.00     0.148 A 
ATOM     61  C   UNL A   1      43.234  26.191  25.376  1.00  0.00     0.002 A 
ATOM     62  C   UNL A   1      42.183  24.284  26.446  1.00  0.00     0.091 A 
ATOM     63  F   UNL A   1      41.036  24.599  28.516  1.00  0.00    -0.205 F 
ATOM     64  C   UNL A   1      42.913  24.836  25.381  1.00  0.00     0.022 A 
BRANCH  62  65
ATOM     65  S   UNL A   1      41.877  22.515  26.392  1.00  0.00     0.127 S 
ATOM     66  O   UNL A   1      40.419  22.469  26.305  1.00  0.00    -0.237 OA
ATOM     67  O   UNL A   1      42.573  22.119  25.168  1.00  0.00    -0.237 OA
ATOM     68  O   UNL A   1      42.446  21.970  27.617  1.00  0.00    -0.744 OA
ENDBRANCH  62  65
ENDBRANCH  44  58
BRANCH  45  69
ATOM     69  C   UNL A   1      39.330  32.045  35.316  1.00  0.00     0.023 A 
ATOM     70  C   UNL A   1      38.476  31.431  36.252  1.00  0.00     0.012 A 
ATOM     71  C   UNL A   1      39.758  33.366  35.546  1.00  0.00     0.148 A 
ATOM     72  C   UNL A   1      38.034  32.129  37.377  1.00  0.00     0.002 A 
ATOM     73  C   UNL A   1      39.361  34.036  36.698  1.00  0.00     0.091 A 
ATOM     74  F   UNL A   1      40.550  33.951  34.633  1.00  0.00    -0.205 F 
ATOM     75  C   UNL A   1      38.486  33.426  37.607  1.00  0.00     0.022 A 
BRANCH  73  76
ATOM     76  S   UNL A   1      40.031  35.650  37.114  1.00  0.00     0.127 S 
ATOM     77  O   UNL A   1      39.586  36.463  35.987  1.00  0.00    -0.237 OA
ATOM     78  O   UNL A   1      39.369  35.949  38.386  1.00  0.00    -0.237 OA
ATOM     79  O   UNL A   1      41.467  35.437  37.232  1.00  0.00    -0.744 OA
ENDBRANCH  73  76
ENDBRANCH  45  69
BRANCH  57  80
ATOM     80  C   UNL A   1      44.629  27.659  34.136  1.00  0.00     0.023 A 
ATOM     81  C   UNL A   1      45.829  28.394  34.205  1.00  0.00     0.012 A 
ATOM     82  C   UNL A   1      44.467  26.516  34.941  1.00  0.00     0.148 A 
ATOM     83  C   UNL A   1      46.860  27.986  35.049  1.00  0.00     0.002 A 
ATOM     84  C   UNL A   1      45.485  26.138  35.809  1.00  0.00     0.091 A 
ATOM     85  F   UNL A   1      43.326  25.818  34.843  1.00  0.00    -0.205 F 
ATOM     86  C   UNL A   1      46.684  26.866  35.860  1.00  0.00     0.022 A 
BRANCH  84  87
ATOM     87  S   UNL A   1      45.298  24.761  36.949  1.00  0.00     0.127 S 
ATOM     88  O   UNL A   1      44.850  23.693  36.058  1.00  0.00    -0.237 OA
ATOM     89  O   UNL A   1      46.657  24.591  37.467  1.00  0.00    -0.237 OA
ATOM     90  O   UNL A   1      44.330  25.202  37.943  1.00  0.00    -0.744 OA
ENDBRANCH  84  87
ENDBRANCH  57  80
ENDBRANCH  31  32
ENDBRANCH  24  26
ENDBRANCH  23  24
ENDBRANCH  22  23
ENDBRANCH   1  22
TORSDOF 19
ENDMDL
