MODEL 1
REMARK VINA RESULT:     -12.3      0.000      0.000
REMARK SMILES C[C@H](NC(=O)c1c(C(=O)OCCOC(=O)c2ccc(-c3c4nc(c(-c5cccc(S(=O)(=O)[O-])c5F)c5ccc([nH]5)c(-c5cccc(S(=O)(=O)[O-])c5F)c5nc(c(-c6cccc(S(=O)(=O)[O-])c6F)c6ccc3[nH]6)C=C5)C=C4)cc2)cnn1C)[C@]12C[C@H]3C[C@H](C[C@H](C3)C1)C2
REMARK SMILES IDX 11 1 10 2 8 3 9 4 7 5 6 6 81 7 79 8 80 9 82 10 4 11 3 12
REMARK SMILES IDX 5 14 2 15 1 16 83 17 84 18 91 19 92 20 85 21 89 22 87 23
REMARK SMILES IDX 86 24 90 25 88 26 12 27 13 28 14 29 15 30 16 31 17 32 78 33
REMARK SMILES IDX 18 34 77 35 19 36 20 37 21 38 71 39 22 40 76 41 70 42 72 43
REMARK SMILES IDX 23 44 75 45 69 46 68 47 24 49 56 50 36 51 55 52 37 53 40 54
REMARK SMILES IDX 54 55 73 56 38 57 39 58 53 60 74 61 41 62 25 63 26 64 34 65
REMARK SMILES IDX 27 66 29 67 35 68 28 69 30 70 31 71 32 72 33 73 57 74 58 75
REMARK SMILES IDX 66 76 59 77 61 78 67 79 60 80 62 81 63 82 64 83 65 84 42 85
REMARK SMILES IDX 43 86 51 87 44 88 46 89 52 90 45 91 47 92 48 93 49 94 50 95
REMARK H PARENT 3 13 72 48 40 59
REMARK Flexibility Score: inf
ROOT
ATOM      1  C   UNL A   1      36.650  22.900  23.614  1.00  0.00     0.275 C 
ENDROOT
BRANCH   1   2
ATOM      2  O   UNL A   1      35.687  22.942  22.540  1.00  0.00    -0.458 OA
BRANCH   2   3
ATOM      3  C   UNL A   1      34.477  23.462  22.887  1.00  0.00     0.342 C 
ATOM      4  O   UNL A   1      34.084  24.574  22.538  1.00  0.00    -0.246 OA
BRANCH   3   5
ATOM      5  C   UNL A   1      33.633  22.588  23.674  1.00  0.00     0.111 A 
ATOM      6  C   UNL A   1      33.276  22.650  25.019  1.00  0.00     0.140 A 
ATOM      7  N   UNL A   1      32.197  21.795  25.106  1.00  0.00    -0.262 N 
ATOM      8  C   UNL A   1      32.886  21.497  23.163  1.00  0.00     0.151 A 
ATOM      9  N   UNL A   1      32.101  20.941  24.076  1.00  0.00    -0.180 NA
ATOM     10  C   UNL A   1      31.074  21.837  26.015  1.00  0.00     0.174 C 
BRANCH   6  11
ATOM     11  C   UNL A   1      33.663  23.593  26.031  1.00  0.00     0.270 C 
ATOM     12  N   UNL A   1      33.047  24.824  26.087  1.00  0.00    -0.348 N 
ATOM     13  H   UNL A   1      33.424  25.447  26.749  1.00  0.00     0.164 HD
ATOM     14  O   UNL A   1      34.563  23.356  26.834  1.00  0.00    -0.267 OA
BRANCH  12  15
ATOM     15  C   UNL A   1      31.912  25.352  25.314  1.00  0.00     0.085 C 
ATOM     16  C   UNL A   1      30.640  25.184  26.154  1.00  0.00     0.031 C 
BRANCH  15  17
ATOM     17  C   UNL A   1      32.134  26.829  24.805  1.00  0.00    -0.009 C 
ATOM     18  C   UNL A   1      31.522  27.012  23.397  1.00  0.00     0.012 C 
ATOM     19  C   UNL A   1      33.617  27.284  24.728  1.00  0.00     0.012 C 
ATOM     20  C   UNL A   1      31.392  27.813  25.760  1.00  0.00     0.012 C 
ATOM     21  C   UNL A   1      31.625  28.447  22.880  1.00  0.00    -0.010 C 
ATOM     22  C   UNL A   1      33.723  28.743  24.223  1.00  0.00    -0.010 C 
ATOM     23  C   UNL A   1      31.482  29.263  25.249  1.00  0.00    -0.010 C 
ATOM     24  C   UNL A   1      30.860  29.359  23.846  1.00  0.00     0.007 C 
ATOM     25  C   UNL A   1      33.102  28.851  22.821  1.00  0.00     0.007 C 
ATOM     26  C   UNL A   1      32.957  29.679  25.175  1.00  0.00     0.007 C 
ENDBRANCH  15  17
ENDBRANCH  12  15
ENDBRANCH   6  11
ENDBRANCH   3   5
ENDBRANCH   2   3
ENDBRANCH   1   2
BRANCH   1  27
ATOM     27  C   UNL A   1      36.829  21.491  24.186  1.00  0.00     0.275 C 
BRANCH  27  28
ATOM     28  O   UNL A   1      37.182  21.524  25.581  1.00  0.00    -0.458 OA
BRANCH  28  29
ATOM     29  C   UNL A   1      38.482  21.256  25.855  1.00  0.00     0.338 C 
ATOM     30  O   UNL A   1      39.113  20.268  25.525  1.00  0.00    -0.246 OA
BRANCH  29  31
ATOM     31  C   UNL A   1      39.108  22.406  26.526  1.00  0.00     0.060 A 
ATOM     32  C   UNL A   1      38.626  23.670  26.211  1.00  0.00     0.016 A 
ATOM     33  C   UNL A   1      40.256  22.275  27.301  1.00  0.00     0.016 A 
ATOM     34  C   UNL A   1      39.324  24.814  26.578  1.00  0.00     0.010 A 
ATOM     35  C   UNL A   1      40.911  23.431  27.755  1.00  0.00     0.010 A 
ATOM     36  C   UNL A   1      40.477  24.714  27.365  1.00  0.00    -0.014 A 
BRANCH  36  37
ATOM     37  C   UNL A   1      41.235  25.945  27.730  1.00  0.00     0.031 A 
ATOM     38  C   UNL A   1      40.592  27.006  28.587  1.00  0.00     0.074 A 
ATOM     39  C   UNL A   1      42.506  26.117  27.307  1.00  0.00     0.049 A 
ATOM     40  N   UNL A   1      41.033  28.199  28.897  1.00  0.00    -0.248 NA
ATOM     41  C   UNL A   1      39.275  26.689  29.161  1.00  0.00     0.031 C 
ATOM     42  C   UNL A   1      43.268  25.159  26.504  1.00  0.00     0.029 A 
ATOM     43  N   UNL A   1      43.381  27.159  27.491  1.00  0.00    -0.354 N 
ATOM     44  C   UNL A   1      40.013  28.806  29.623  1.00  0.00     0.074 A 
ATOM     45  C   UNL A   1      38.938  27.843  29.721  1.00  0.00     0.031 C 
ATOM     46  C   UNL A   1      44.501  25.642  26.291  1.00  0.00     0.029 A 
ATOM     47  C   UNL A   1      44.593  26.979  26.863  1.00  0.00     0.049 A 
ATOM     48  H   UNL A   1      43.162  27.960  28.023  1.00  0.00     0.167 HD
ATOM     49  C   UNL A   1      39.977  30.048  30.162  1.00  0.00     0.034 A 
ATOM     50  C   UNL A   1      45.646  27.807  26.726  1.00  0.00     0.034 A 
ATOM     51  C   UNL A   1      41.079  30.974  30.132  1.00  0.00     0.049 A 
ATOM     52  C   UNL A   1      45.577  29.183  27.326  1.00  0.00     0.074 A 
ATOM     53  C   UNL A   1      41.163  32.230  30.708  1.00  0.00     0.029 A 
ATOM     54  N   UNL A   1      42.290  30.745  29.497  1.00  0.00    -0.354 N 
ATOM     55  N   UNL A   1      44.627  29.720  28.053  1.00  0.00    -0.248 NA
ATOM     56  C   UNL A   1      46.728  30.065  27.094  1.00  0.00     0.031 C 
ATOM     57  C   UNL A   1      42.413  32.773  30.395  1.00  0.00     0.029 A 
ATOM     58  C   UNL A   1      43.121  31.843  29.651  1.00  0.00     0.049 A 
ATOM     59  H   UNL A   1      42.525  29.924  29.009  1.00  0.00     0.167 HD
ATOM     60  C   UNL A   1      45.078  30.990  28.390  1.00  0.00     0.074 A 
ATOM     61  C   UNL A   1      46.395  31.134  27.805  1.00  0.00     0.031 C 
ATOM     62  C   UNL A   1      44.450  31.956  29.107  1.00  0.00     0.034 A 
BRANCH  49  63
ATOM     63  C   UNL A   1      38.698  30.485  30.829  1.00  0.00     0.023 A 
ATOM     64  C   UNL A   1      38.488  30.237  32.201  1.00  0.00     0.012 A 
ATOM     65  C   UNL A   1      37.712  31.180  30.098  1.00  0.00     0.148 A 
ATOM     66  C   UNL A   1      37.303  30.632  32.822  1.00  0.00     0.002 A 
ATOM     67  C   UNL A   1      36.554  31.612  30.735  1.00  0.00     0.091 A 
ATOM     68  F   UNL A   1      37.915  31.389  28.789  1.00  0.00    -0.205 F 
ATOM     69  C   UNL A   1      36.342  31.327  32.092  1.00  0.00     0.022 A 
BRANCH  67  70
ATOM     70  S   UNL A   1      35.299  32.585  29.893  1.00  0.00     0.127 S 
ATOM     71  O   UNL A   1      34.855  31.657  28.854  1.00  0.00    -0.237 OA
ATOM     72  O   UNL A   1      34.322  32.818  30.958  1.00  0.00    -0.237 OA
ATOM     73  O   UNL A   1      35.974  33.784  29.420  1.00  0.00    -0.744 OA
ENDBRANCH  67  70
ENDBRANCH  49  63
BRANCH  50  74
ATOM     74  C   UNL A   1      46.867  27.346  26.003  1.00  0.00     0.023 A 
ATOM     75  C   UNL A   1      46.995  27.615  24.627  1.00  0.00     0.012 A 
ATOM     76  C   UNL A   1      47.914  26.681  26.672  1.00  0.00     0.148 A 
ATOM     77  C   UNL A   1      48.134  27.215  23.926  1.00  0.00     0.002 A 
ATOM     78  C   UNL A   1      49.070  26.338  25.982  1.00  0.00     0.091 A 
ATOM     79  F   UNL A   1      47.764  26.416  27.978  1.00  0.00    -0.205 F 
ATOM     80  C   UNL A   1      49.176  26.590  24.606  1.00  0.00     0.022 A 
BRANCH  78  81
ATOM     81  S   UNL A   1      50.515  25.653  26.801  1.00  0.00     0.127 S 
ATOM     82  O   UNL A   1      49.947  24.498  27.493  1.00  0.00    -0.237 OA
ATOM     83  O   UNL A   1      51.378  25.326  25.665  1.00  0.00    -0.237 OA
ATOM     84  O   UNL A   1      51.024  26.714  27.658  1.00  0.00    -0.744 OA
ENDBRANCH  78  81
ENDBRANCH  50  74
BRANCH  62  85
ATOM     85  C   UNL A   1      45.194  33.246  29.336  1.00  0.00     0.023 A 
ATOM     86  C   UNL A   1      45.972  33.410  30.499  1.00  0.00     0.012 A 
ATOM     87  C   UNL A   1      45.172  34.269  28.368  1.00  0.00     0.148 A 
ATOM     88  C   UNL A   1      46.692  34.587  30.709  1.00  0.00     0.002 A 
ATOM     89  C   UNL A   1      45.932  35.416  28.560  1.00  0.00     0.091 A 
ATOM     90  F   UNL A   1      44.409  34.102  27.278  1.00  0.00    -0.205 F 
ATOM     91  C   UNL A   1      46.681  35.582  29.735  1.00  0.00     0.022 A 
BRANCH  89  92
ATOM     92  S   UNL A   1      46.056  36.707  27.316  1.00  0.00     0.127 S 
ATOM     93  O   UNL A   1      44.658  37.103  27.157  1.00  0.00    -0.237 OA
ATOM     94  O   UNL A   1      46.899  37.700  27.983  1.00  0.00    -0.237 OA
ATOM     95  O   UNL A   1      46.666  36.083  26.150  1.00  0.00    -0.744 OA
ENDBRANCH  89  92
ENDBRANCH  62  85
ENDBRANCH  36  37
ENDBRANCH  29  31
ENDBRANCH  28  29
ENDBRANCH  27  28
ENDBRANCH   1  27
TORSDOF 17
ENDMDL
MODEL 2
REMARK VINA RESULT:     -12.1      5.178      7.981
REMARK SMILES C[C@H](NC(=O)c1c(C(=O)OCCOC(=O)c2ccc(-c3c4nc(c(-c5cccc(S(=O)(=O)[O-])c5F)c5ccc([nH]5)c(-c5cccc(S(=O)(=O)[O-])c5F)c5nc(c(-c6cccc(S(=O)(=O)[O-])c6F)c6ccc3[nH]6)C=C5)C=C4)cc2)cnn1C)[C@]12C[C@H]3C[C@H](C[C@H](C3)C1)C2
REMARK SMILES IDX 11 1 10 2 8 3 9 4 7 5 6 6 81 7 79 8 80 9 82 10 4 11 3 12
REMARK SMILES IDX 5 14 2 15 1 16 83 17 84 18 91 19 92 20 85 21 89 22 87 23
REMARK SMILES IDX 86 24 90 25 88 26 12 27 13 28 14 29 15 30 16 31 17 32 78 33
REMARK SMILES IDX 18 34 77 35 19 36 20 37 21 38 71 39 22 40 76 41 70 42 72 43
REMARK SMILES IDX 23 44 75 45 69 46 68 47 24 49 56 50 36 51 55 52 37 53 40 54
REMARK SMILES IDX 54 55 73 56 38 57 39 58 53 60 74 61 41 62 25 63 26 64 34 65
REMARK SMILES IDX 27 66 29 67 35 68 28 69 30 70 31 71 32 72 33 73 57 74 58 75
REMARK SMILES IDX 66 76 59 77 61 78 67 79 60 80 62 81 63 82 64 83 65 84 42 85
REMARK SMILES IDX 43 86 51 87 44 88 46 89 52 90 45 91 47 92 48 93 49 94 50 95
REMARK H PARENT 3 13 72 48 40 59
REMARK Flexibility Score: inf
ROOT
ATOM      1  C   UNL A   1      31.624  30.605  26.232  1.00  0.00     0.275 C 
ENDROOT
BRANCH   1   2
ATOM      2  O   UNL A   1      32.054  29.701  27.272  1.00  0.00    -0.458 OA
BRANCH   2   3
ATOM      3  C   UNL A   1      31.739  28.395  27.051  1.00  0.00     0.342 C 
ATOM      4  O   UNL A   1      30.956  27.751  27.746  1.00  0.00    -0.246 OA
BRANCH   3   5
ATOM      5  C   UNL A   1      32.362  27.801  25.886  1.00  0.00     0.111 A 
ATOM      6  C   UNL A   1      31.827  26.978  24.897  1.00  0.00     0.140 A 
ATOM      7  N   UNL A   1      32.764  27.036  23.887  1.00  0.00    -0.262 N 
ATOM      8  C   UNL A   1      33.689  28.048  25.455  1.00  0.00     0.151 A 
ATOM      9  N   UNL A   1      33.965  27.475  24.291  1.00  0.00    -0.180 NA
ATOM     10  C   UNL A   1      32.574  26.894  22.462  1.00  0.00     0.174 C 
BRANCH   6  11
ATOM     11  C   UNL A   1      30.497  26.454  24.758  1.00  0.00     0.270 C 
ATOM     12  N   UNL A   1      30.214  25.184  25.212  1.00  0.00    -0.348 N 
ATOM     13  H   UNL A   1      29.307  24.862  25.005  1.00  0.00     0.164 HD
ATOM     14  O   UNL A   1      29.599  27.088  24.208  1.00  0.00    -0.267 OA
BRANCH  12  15
ATOM     15  C   UNL A   1      31.054  24.235  25.959  1.00  0.00     0.085 C 
ATOM     16  C   UNL A   1      30.140  23.386  26.851  1.00  0.00     0.031 C 
BRANCH  15  17
ATOM     17  C   UNL A   1      32.000  23.374  25.034  1.00  0.00    -0.009 C 
ATOM     18  C   UNL A   1      31.887  21.875  25.395  1.00  0.00     0.012 C 
ATOM     19  C   UNL A   1      33.505  23.752  25.097  1.00  0.00     0.012 C 
ATOM     20  C   UNL A   1      31.542  23.527  23.553  1.00  0.00     0.012 C 
ATOM     21  C   UNL A   1      32.714  20.974  24.478  1.00  0.00    -0.010 C 
ATOM     22  C   UNL A   1      34.342  22.854  24.156  1.00  0.00    -0.010 C 
ATOM     23  C   UNL A   1      32.362  22.620  22.617  1.00  0.00    -0.010 C 
ATOM     24  C   UNL A   1      32.201  21.152  23.044  1.00  0.00     0.007 C 
ATOM     25  C   UNL A   1      34.187  21.383  24.573  1.00  0.00     0.007 C 
ATOM     26  C   UNL A   1      33.843  23.012  22.709  1.00  0.00     0.007 C 
ENDBRANCH  15  17
ENDBRANCH  12  15
ENDBRANCH   6  11
ENDBRANCH   3   5
ENDBRANCH   2   3
ENDBRANCH   1   2
BRANCH   1  27
ATOM     27  C   UNL A   1      31.504  32.050  26.724  1.00  0.00     0.275 C 
BRANCH  27  28
ATOM     28  O   UNL A   1      32.733  32.777  26.546  1.00  0.00    -0.458 OA
BRANCH  28  29
ATOM     29  C   UNL A   1      33.228  33.360  27.665  1.00  0.00     0.338 C 
ATOM     30  O   UNL A   1      32.693  34.218  28.344  1.00  0.00    -0.246 OA
BRANCH  29  31
ATOM     31  C   UNL A   1      34.495  32.719  28.054  1.00  0.00     0.060 A 
ATOM     32  C   UNL A   1      34.452  31.375  28.400  1.00  0.00     0.016 A 
ATOM     33  C   UNL A   1      35.661  33.451  28.256  1.00  0.00     0.016 A 
ATOM     34  C   UNL A   1      35.527  30.765  29.034  1.00  0.00     0.010 A 
ATOM     35  C   UNL A   1      36.782  32.811  28.809  1.00  0.00     0.010 A 
ATOM     36  C   UNL A   1      36.716  31.473  29.243  1.00  0.00    -0.014 A 
BRANCH  36  37
ATOM     37  C   UNL A   1      37.854  30.817  29.950  1.00  0.00     0.031 A 
ATOM     38  C   UNL A   1      38.141  31.144  31.394  1.00  0.00     0.074 A 
ATOM     39  C   UNL A   1      38.630  29.918  29.309  1.00  0.00     0.049 A 
ATOM     40  N   UNL A   1      39.156  30.788  32.138  1.00  0.00    -0.248 NA
ATOM     41  C   UNL A   1      37.162  31.996  32.089  1.00  0.00     0.031 C 
ATOM     42  C   UNL A   1      38.449  29.476  27.925  1.00  0.00     0.029 A 
ATOM     43  N   UNL A   1      39.730  29.214  29.736  1.00  0.00    -0.354 N 
ATOM     44  C   UNL A   1      38.987  31.441  33.354  1.00  0.00     0.074 A 
ATOM     45  C   UNL A   1      37.761  32.203  33.253  1.00  0.00     0.031 C 
ATOM     46  C   UNL A   1      39.381  28.559  27.628  1.00  0.00     0.029 A 
ATOM     47  C   UNL A   1      40.281  28.409  28.765  1.00  0.00     0.049 A 
ATOM     48  H   UNL A   1      40.090  29.280  30.651  1.00  0.00     0.167 HD
ATOM     49  C   UNL A   1      39.776  31.406  34.454  1.00  0.00     0.034 A 
ATOM     50  C   UNL A   1      41.404  27.665  28.769  1.00  0.00     0.034 A 
ATOM     51  C   UNL A   1      40.951  30.584  34.580  1.00  0.00     0.049 A 
ATOM     52  C   UNL A   1      42.266  27.650  30.000  1.00  0.00     0.074 A 
ATOM     53  C   UNL A   1      41.779  30.428  35.679  1.00  0.00     0.029 A 
ATOM     54  N   UNL A   1      41.464  29.775  33.577  1.00  0.00    -0.354 N 
ATOM     55  N   UNL A   1      42.063  28.231  31.157  1.00  0.00    -0.248 NA
ATOM     56  C   UNL A   1      43.509  26.870  29.928  1.00  0.00     0.031 C 
ATOM     57  C   UNL A   1      42.810  29.549  35.330  1.00  0.00     0.029 A 
ATOM     58  C   UNL A   1      42.607  29.132  34.024  1.00  0.00     0.049 A 
ATOM     59  H   UNL A   1      41.074  29.673  32.679  1.00  0.00     0.167 HD
ATOM     60  C   UNL A   1      43.135  27.863  31.961  1.00  0.00     0.074 A 
ATOM     61  C   UNL A   1      43.974  26.993  31.163  1.00  0.00     0.031 C 
ATOM     62  C   UNL A   1      43.407  28.228  33.239  1.00  0.00     0.034 A 
BRANCH  49  63
ATOM     63  C   UNL A   1      39.398  32.289  35.616  1.00  0.00     0.023 A 
ATOM     64  C   UNL A   1      39.826  33.631  35.662  1.00  0.00     0.012 A 
ATOM     65  C   UNL A   1      38.580  31.793  36.653  1.00  0.00     0.148 A 
ATOM     66  C   UNL A   1      39.486  34.450  36.738  1.00  0.00     0.002 A 
ATOM     67  C   UNL A   1      38.206  32.628  37.699  1.00  0.00     0.091 A 
ATOM     68  F   UNL A   1      38.199  30.508  36.608  1.00  0.00    -0.205 F 
ATOM     69  C   UNL A   1      38.669  33.952  37.750  1.00  0.00     0.022 A 
BRANCH  67  70
ATOM     70  S   UNL A   1      37.090  32.096  39.004  1.00  0.00     0.127 S 
ATOM     71  O   UNL A   1      37.639  32.796  40.164  1.00  0.00    -0.237 OA
ATOM     72  O   UNL A   1      35.801  32.610  38.537  1.00  0.00    -0.237 OA
ATOM     73  O   UNL A   1      37.183  30.644  39.041  1.00  0.00    -0.744 OA
ENDBRANCH  67  70
ENDBRANCH  49  63
BRANCH  50  74
ATOM     74  C   UNL A   1      41.764  26.855  27.570  1.00  0.00     0.023 A 
ATOM     75  C   UNL A   1      42.373  27.488  26.469  1.00  0.00     0.012 A 
ATOM     76  C   UNL A   1      41.546  25.462  27.526  1.00  0.00     0.148 A 
ATOM     77  C   UNL A   1      42.741  26.754  25.340  1.00  0.00     0.002 A 
ATOM     78  C   UNL A   1      41.969  24.729  26.425  1.00  0.00     0.091 A 
ATOM     79  F   UNL A   1      40.947  24.882  28.575  1.00  0.00    -0.205 F 
ATOM     80  C   UNL A   1      42.553  25.374  25.324  1.00  0.00     0.022 A 
BRANCH  78  81
ATOM     81  S   UNL A   1      41.890  22.935  26.372  1.00  0.00     0.127 S 
ATOM     82  O   UNL A   1      40.448  22.699  26.395  1.00  0.00    -0.237 OA
ATOM     83  O   UNL A   1      42.540  22.643  25.093  1.00  0.00    -0.237 OA
ATOM     84  O   UNL A   1      42.624  22.472  27.540  1.00  0.00    -0.744 OA
ENDBRANCH  78  81
ENDBRANCH  50  74
BRANCH  62  85
ATOM     85  C   UNL A   1      44.646  27.655  33.876  1.00  0.00     0.023 A 
ATOM     86  C   UNL A   1      45.846  28.395  33.870  1.00  0.00     0.012 A 
ATOM     87  C   UNL A   1      44.604  26.411  34.537  1.00  0.00     0.148 A 
ATOM     88  C   UNL A   1      46.991  27.891  34.485  1.00  0.00     0.002 A 
ATOM     89  C   UNL A   1      45.735  25.939  35.190  1.00  0.00     0.091 A 
ATOM     90  F   UNL A   1      43.459  25.713  34.512  1.00  0.00    -0.205 F 
ATOM     91  C   UNL A   1      46.933  26.671  35.154  1.00  0.00     0.022 A 
BRANCH  89  92
ATOM     92  S   UNL A   1      45.726  24.426  36.159  1.00  0.00     0.127 S 
ATOM     93  O   UNL A   1      45.205  23.458  35.195  1.00  0.00    -0.237 OA
ATOM     94  O   UNL A   1      47.142  24.259  36.487  1.00  0.00    -0.237 OA
ATOM     95  O   UNL A   1      44.868  24.690  37.306  1.00  0.00    -0.744 OA
ENDBRANCH  89  92
ENDBRANCH  62  85
ENDBRANCH  36  37
ENDBRANCH  29  31
ENDBRANCH  28  29
ENDBRANCH  27  28
ENDBRANCH   1  27
TORSDOF 17
ENDMDL
MODEL 3
REMARK VINA RESULT:     -12.0      1.079      7.807
REMARK SMILES C[C@H](NC(=O)c1c(C(=O)OCCOC(=O)c2ccc(-c3c4nc(c(-c5cccc(S(=O)(=O)[O-])c5F)c5ccc([nH]5)c(-c5cccc(S(=O)(=O)[O-])c5F)c5nc(c(-c6cccc(S(=O)(=O)[O-])c6F)c6ccc3[nH]6)C=C5)C=C4)cc2)cnn1C)[C@]12C[C@H]3C[C@H](C[C@H](C3)C1)C2
REMARK SMILES IDX 11 1 10 2 8 3 9 4 7 5 6 6 81 7 79 8 80 9 82 10 4 11 3 12
REMARK SMILES IDX 5 14 2 15 1 16 83 17 84 18 91 19 92 20 85 21 89 22 87 23
REMARK SMILES IDX 86 24 90 25 88 26 12 27 13 28 14 29 15 30 16 31 17 32 78 33
REMARK SMILES IDX 18 34 77 35 19 36 20 37 21 38 71 39 22 40 76 41 70 42 72 43
REMARK SMILES IDX 23 44 75 45 69 46 68 47 24 49 56 50 36 51 55 52 37 53 40 54
REMARK SMILES IDX 54 55 73 56 38 57 39 58 53 60 74 61 41 62 25 63 26 64 34 65
REMARK SMILES IDX 27 66 29 67 35 68 28 69 30 70 31 71 32 72 33 73 57 74 58 75
REMARK SMILES IDX 66 76 59 77 61 78 67 79 60 80 62 81 63 82 64 83 65 84 42 85
REMARK SMILES IDX 43 86 51 87 44 88 46 89 52 90 45 91 47 92 48 93 49 94 50 95
REMARK H PARENT 3 13 72 48 40 59
REMARK Flexibility Score: inf
ROOT
ATOM      1  C   UNL A   1      36.613  20.734  24.619  1.00  0.00     0.275 C 
ENDROOT
BRANCH   1   2
ATOM      2  O   UNL A   1      37.110  21.920  23.962  1.00  0.00    -0.458 OA
BRANCH   2   3
ATOM      3  C   UNL A   1      36.140  22.768  23.519  1.00  0.00     0.342 C 
ATOM      4  O   UNL A   1      36.092  23.215  22.375  1.00  0.00    -0.246 OA
BRANCH   3   5
ATOM      5  C   UNL A   1      35.111  23.086  24.487  1.00  0.00     0.111 A 
ATOM      6  C   UNL A   1      33.724  23.001  24.389  1.00  0.00     0.140 A 
ATOM      7  N   UNL A   1      33.304  23.077  25.701  1.00  0.00    -0.262 N 
ATOM      8  C   UNL A   1      35.346  23.467  25.831  1.00  0.00     0.151 A 
ATOM      9  N   UNL A   1      34.226  23.579  26.534  1.00  0.00    -0.180 NA
ATOM     10  C   UNL A   1      32.122  22.511  26.311  1.00  0.00     0.174 C 
BRANCH   6  11
ATOM     11  C   UNL A   1      32.903  22.595  23.283  1.00  0.00     0.270 C 
ATOM     12  N   UNL A   1      32.455  23.538  22.385  1.00  0.00    -0.348 N 
ATOM     13  H   UNL A   1      31.828  23.200  21.705  1.00  0.00     0.164 HD
ATOM     14  O   UNL A   1      32.548  21.429  23.126  1.00  0.00    -0.267 OA
BRANCH  12  15
ATOM     15  C   UNL A   1      32.766  24.972  22.281  1.00  0.00     0.085 C 
ATOM     16  C   UNL A   1      32.830  25.343  20.794  1.00  0.00     0.031 C 
BRANCH  15  17
ATOM     17  C   UNL A   1      31.786  25.888  23.112  1.00  0.00    -0.009 C 
ATOM     18  C   UNL A   1      30.552  25.078  23.573  1.00  0.00     0.012 C 
ATOM     19  C   UNL A   1      31.260  27.143  22.361  1.00  0.00     0.012 C 
ATOM     20  C   UNL A   1      32.516  26.385  24.396  1.00  0.00     0.012 C 
ATOM     21  C   UNL A   1      29.602  25.884  24.458  1.00  0.00    -0.010 C 
ATOM     22  C   UNL A   1      30.313  27.970  23.261  1.00  0.00    -0.010 C 
ATOM     23  C   UNL A   1      31.570  27.194  25.301  1.00  0.00    -0.010 C 
ATOM     24  C   UNL A   1      30.371  26.323  25.710  1.00  0.00     0.007 C 
ATOM     25  C   UNL A   1      29.111  27.108  23.678  1.00  0.00     0.007 C 
ATOM     26  C   UNL A   1      31.061  28.419  24.529  1.00  0.00     0.007 C 
ENDBRANCH  15  17
ENDBRANCH  12  15
ENDBRANCH   6  11
ENDBRANCH   3   5
ENDBRANCH   2   3
ENDBRANCH   1   2
BRANCH   1  27
ATOM     27  C   UNL A   1      37.716  19.965  25.352  1.00  0.00     0.275 C 
BRANCH  27  28
ATOM     28  O   UNL A   1      38.967  20.677  25.327  1.00  0.00    -0.458 OA
BRANCH  28  29
ATOM     29  C   UNL A   1      39.727  20.552  26.442  1.00  0.00     0.338 C 
ATOM     30  O   UNL A   1      40.165  19.521  26.921  1.00  0.00    -0.246 OA
BRANCH  29  31
ATOM     31  C   UNL A   1      40.080  21.881  26.967  1.00  0.00     0.060 A 
ATOM     32  C   UNL A   1      39.482  22.984  26.373  1.00  0.00     0.016 A 
ATOM     33  C   UNL A   1      41.106  22.061  27.891  1.00  0.00     0.016 A 
ATOM     34  C   UNL A   1      39.953  24.269  26.612  1.00  0.00     0.010 A 
ATOM     35  C   UNL A   1      41.519  23.365  28.206  1.00  0.00     0.010 A 
ATOM     36  C   UNL A   1      40.977  24.482  27.541  1.00  0.00    -0.014 A 
BRANCH  36  37
ATOM     37  C   UNL A   1      41.495  25.862  27.769  1.00  0.00     0.031 A 
ATOM     38  C   UNL A   1      42.854  26.259  27.249  1.00  0.00     0.074 A 
ATOM     39  C   UNL A   1      40.749  26.772  28.432  1.00  0.00     0.049 A 
ATOM     40  N   UNL A   1      43.532  27.358  27.460  1.00  0.00    -0.248 NA
ATOM     41  C   UNL A   1      43.545  25.287  26.387  1.00  0.00     0.031 C 
ATOM     42  C   UNL A   1      39.403  26.541  28.959  1.00  0.00     0.029 A 
ATOM     43  N   UNL A   1      41.018  28.073  28.778  1.00  0.00    -0.354 N 
ATOM     44  C   UNL A   1      44.762  27.173  26.837  1.00  0.00     0.074 A 
ATOM     45  C   UNL A   1      44.729  25.863  26.225  1.00  0.00     0.031 C 
ATOM     46  C   UNL A   1      38.953  27.666  29.533  1.00  0.00     0.029 A 
ATOM     47  C   UNL A   1      40.007  28.673  29.495  1.00  0.00     0.049 A 
ATOM     48  H   UNL A   1      41.854  28.534  28.537  1.00  0.00     0.167 HD
ATOM     49  C   UNL A   1      45.819  28.018  26.776  1.00  0.00     0.034 A 
ATOM     50  C   UNL A   1      39.945  29.879  30.092  1.00  0.00     0.034 A 
ATOM     51  C   UNL A   1      45.819  29.353  27.316  1.00  0.00     0.049 A 
ATOM     52  C   UNL A   1      41.134  30.794  30.016  1.00  0.00     0.074 A 
ATOM     53  C   UNL A   1      46.817  30.309  27.245  1.00  0.00     0.029 A 
ATOM     54  N   UNL A   1      44.770  29.922  28.021  1.00  0.00    -0.354 N 
ATOM     55  N   UNL A   1      42.267  30.624  29.378  1.00  0.00    -0.248 NA
ATOM     56  C   UNL A   1      41.034  32.071  30.736  1.00  0.00     0.031 C 
ATOM     57  C   UNL A   1      46.384  31.446  27.936  1.00  0.00     0.029 A 
ATOM     58  C   UNL A   1      45.103  31.210  28.409  1.00  0.00     0.049 A 
ATOM     59  H   UNL A   1      43.915  29.477  28.219  1.00  0.00     0.167 HD
ATOM     60  C   UNL A   1      43.002  31.783  29.594  1.00  0.00     0.074 A 
ATOM     61  C   UNL A   1      42.178  32.655  30.404  1.00  0.00     0.031 C 
ATOM     62  C   UNL A   1      44.255  32.089  29.172  1.00  0.00     0.034 A 
BRANCH  49  63
ATOM     63  C   UNL A   1      47.074  27.523  26.102  1.00  0.00     0.023 A 
ATOM     64  C   UNL A   1      47.308  27.798  24.739  1.00  0.00     0.012 A 
ATOM     65  C   UNL A   1      48.045  26.811  26.836  1.00  0.00     0.148 A 
ATOM     66  C   UNL A   1      48.462  27.335  24.109  1.00  0.00     0.002 A 
ATOM     67  C   UNL A   1      49.215  26.394  26.213  1.00  0.00     0.091 A 
ATOM     68  F   UNL A   1      47.798  26.538  28.126  1.00  0.00    -0.205 F 
ATOM     69  C   UNL A   1      49.419  26.643  24.847  1.00  0.00     0.022 A 
BRANCH  67  70
ATOM     70  S   UNL A   1      50.539  25.567  27.104  1.00  0.00     0.127 S 
ATOM     71  O   UNL A   1      51.536  25.388  26.051  1.00  0.00    -0.237 OA
ATOM     72  O   UNL A   1      50.896  26.560  28.119  1.00  0.00    -0.237 OA
ATOM     73  O   UNL A   1      49.957  24.343  27.636  1.00  0.00    -0.744 OA
ENDBRANCH  67  70
ENDBRANCH  49  63
BRANCH  50  74
ATOM     74  C   UNL A   1      38.699  30.297  30.798  1.00  0.00     0.023 A 
ATOM     75  C   UNL A   1      38.562  30.023  32.172  1.00  0.00     0.012 A 
ATOM     76  C   UNL A   1      37.671  30.995  30.131  1.00  0.00     0.148 A 
ATOM     77  C   UNL A   1      37.417  30.419  32.866  1.00  0.00     0.002 A 
ATOM     78  C   UNL A   1      36.563  31.439  30.841  1.00  0.00     0.091 A 
ATOM     79  F   UNL A   1      37.812  31.228  28.819  1.00  0.00    -0.205 F 
ATOM     80  C   UNL A   1      36.426  31.139  32.204  1.00  0.00     0.022 A 
BRANCH  78  81
ATOM     81  S   UNL A   1      35.301  32.486  30.104  1.00  0.00     0.127 S 
ATOM     82  O   UNL A   1      34.331  32.593  31.191  1.00  0.00    -0.237 OA
ATOM     83  O   UNL A   1      36.052  33.711  29.825  1.00  0.00    -0.237 OA
ATOM     84  O   UNL A   1      34.843  31.777  28.917  1.00  0.00    -0.744 OA
ENDBRANCH  78  81
ENDBRANCH  50  74
BRANCH  62  85
ATOM     85  C   UNL A   1      44.802  33.443  29.543  1.00  0.00     0.023 A 
ATOM     86  C   UNL A   1      45.546  33.599  30.730  1.00  0.00     0.012 A 
ATOM     87  C   UNL A   1      44.633  34.545  28.682  1.00  0.00     0.148 A 
ATOM     88  C   UNL A   1      46.085  34.840  31.068  1.00  0.00     0.002 A 
ATOM     89  C   UNL A   1      45.216  35.765  29.001  1.00  0.00     0.091 A 
ATOM     90  F   UNL A   1      43.904  34.382  27.568  1.00  0.00    -0.205 F 
ATOM     91  C   UNL A   1      45.931  35.918  30.200  1.00  0.00     0.022 A 
BRANCH  89  92
ATOM     92  S   UNL A   1      45.152  37.181  27.897  1.00  0.00     0.127 S 
ATOM     93  O   UNL A   1      43.730  37.516  27.923  1.00  0.00    -0.237 OA
ATOM     94  O   UNL A   1      46.018  38.144  28.577  1.00  0.00    -0.237 OA
ATOM     95  O   UNL A   1      45.661  36.712  26.614  1.00  0.00    -0.744 OA
ENDBRANCH  89  92
ENDBRANCH  62  85
ENDBRANCH  36  37
ENDBRANCH  29  31
ENDBRANCH  28  29
ENDBRANCH  27  28
ENDBRANCH   1  27
TORSDOF 17
ENDMDL
