MODEL 1
REMARK VINA RESULT:     -12.0      0.000      0.000
REMARK SMILES CCCN1CCC[C@@]2(CCN(c3ccc(C(=O)OCCOC(=O)c4ccc(-c5c6nc(c(-c7cccc(S(=O)(=O)[O-])c7F)c7ccc([nH]7)c(-c7cccc(S(=O)(=O)[O-])c7F)c7nc(c(-c8cccc(S(=O)(=O)[O-])c8F)c8ccc5[nH]8)C=C7)C=C6)cc4)cn3)C2)C1=O
REMARK SMILES IDX 19 1 18 2 16 3 17 4 15 5 12 6 13 7 88 8 14 9 87 10 11 11
REMARK SMILES IDX 4 12 5 13 90 14 6 15 8 16 91 17 7 18 9 19 89 20 10 21 3 22
REMARK SMILES IDX 2 23 1 24 20 25 21 26 22 27 23 28 24 29 25 30 86 31 26 32
REMARK SMILES IDX 85 33 27 34 28 35 29 36 79 37 30 38 84 39 78 40 80 41 31 42
REMARK SMILES IDX 83 43 77 44 76 45 32 47 64 48 44 49 63 50 45 51 48 52 62 53
REMARK SMILES IDX 81 54 46 55 47 56 61 58 82 59 49 60 33 61 34 62 42 63 35 64
REMARK SMILES IDX 37 65 43 66 36 67 38 68 39 69 40 70 41 71 65 72 66 73 74 74
REMARK SMILES IDX 67 75 69 76 75 77 68 78 70 79 71 80 72 81 73 82 50 83 51 84
REMARK SMILES IDX 59 85 52 86 54 87 60 88 53 89 55 90 56 91 57 92 58 93
REMARK H PARENT 80 46 48 57
REMARK Flexibility Score: inf
ROOT
ATOM      1  C   UNL A   1      37.600  19.491  24.704  1.00  0.00     0.275 C 
ENDROOT
BRANCH   1   2
ATOM      2  O   UNL A   1      36.710  20.465  25.287  1.00  0.00    -0.458 OA
BRANCH   2   3
ATOM      3  C   UNL A   1      35.390  20.287  25.030  1.00  0.00     0.339 C 
ATOM      4  O   UNL A   1      34.854  19.256  24.667  1.00  0.00    -0.246 OA
BRANCH   3   5
ATOM      5  C   UNL A   1      34.635  21.525  25.287  1.00  0.00     0.078 A 
ATOM      6  C   UNL A   1      33.082  23.704  25.974  1.00  0.00     0.128 A 
ATOM      7  C   UNL A   1      33.212  23.330  24.632  1.00  0.00     0.048 A 
ATOM      8  N   UNL A   1      33.711  23.033  26.948  1.00  0.00    -0.238 NA
ATOM      9  C   UNL A   1      34.011  22.242  24.278  1.00  0.00     0.021 A 
ATOM     10  C   UNL A   1      34.440  21.951  26.592  1.00  0.00     0.129 A 
BRANCH   6  11
ATOM     11  N   UNL A   1      32.193  24.703  26.322  1.00  0.00    -0.356 N 
ATOM     12  N   UNL A   1      32.560  28.580  24.672  1.00  0.00    -0.342 N 
ATOM     13  C   UNL A   1      32.779  29.569  25.720  1.00  0.00     0.119 C 
ATOM     14  C   UNL A   1      31.455  27.752  24.869  1.00  0.00     0.230 C 
ATOM     15  C   UNL A   1      32.768  28.965  27.123  1.00  0.00     0.023 C 
ATOM     16  C   UNL A   1      31.508  26.986  26.189  1.00  0.00     0.069 C 
ATOM     17  O   UNL A   1      30.521  27.679  24.079  1.00  0.00    -0.274 OA
ATOM     18  C   UNL A   1      31.581  28.018  27.321  1.00  0.00     0.021 C 
ATOM     19  C   UNL A   1      30.308  26.023  26.321  1.00  0.00     0.040 C 
ATOM     20  C   UNL A   1      32.743  26.050  26.194  1.00  0.00     0.135 C 
ATOM     21  C   UNL A   1      30.849  24.705  25.761  1.00  0.00     0.119 C 
BRANCH  12  22
ATOM     22  C   UNL A   1      32.946  28.938  23.307  1.00  0.00     0.119 C 
BRANCH  22  23
ATOM     23  C   UNL A   1      32.978  27.754  22.324  1.00  0.00     0.018 C 
ATOM     24  C   UNL A   1      33.891  26.606  22.737  1.00  0.00     0.006 C 
ENDBRANCH  22  23
ENDBRANCH  12  22
ENDBRANCH   6  11
ENDBRANCH   3   5
ENDBRANCH   2   3
ENDBRANCH   1   2
BRANCH   1  25
ATOM     25  C   UNL A   1      38.849  19.278  25.563  1.00  0.00     0.275 C 
BRANCH  25  26
ATOM     26  O   UNL A   1      39.558  20.513  25.763  1.00  0.00    -0.458 OA
BRANCH  26  27
ATOM     27  C   UNL A   1      40.400  20.514  26.820  1.00  0.00     0.338 C 
ATOM     28  O   UNL A   1      41.004  19.559  27.282  1.00  0.00    -0.246 OA
BRANCH  27  29
ATOM     29  C   UNL A   1      40.607  21.880  27.314  1.00  0.00     0.060 A 
ATOM     30  C   UNL A   1      39.942  22.906  26.656  1.00  0.00     0.016 A 
ATOM     31  C   UNL A   1      41.596  22.175  28.246  1.00  0.00     0.016 A 
ATOM     32  C   UNL A   1      40.377  24.218  26.784  1.00  0.00     0.010 A 
ATOM     33  C   UNL A   1      41.923  23.515  28.493  1.00  0.00     0.010 A 
ATOM     34  C   UNL A   1      41.357  24.552  27.724  1.00  0.00    -0.014 A 
BRANCH  34  35
ATOM     35  C   UNL A   1      41.785  25.971  27.890  1.00  0.00     0.031 A 
ATOM     36  C   UNL A   1      43.145  26.425  27.421  1.00  0.00     0.074 A 
ATOM     37  C   UNL A   1      40.953  26.862  28.472  1.00  0.00     0.049 A 
ATOM     38  N   UNL A   1      43.755  27.563  27.631  1.00  0.00    -0.248 NA
ATOM     39  C   UNL A   1      43.933  25.463  26.634  1.00  0.00     0.031 C 
ATOM     40  C   UNL A   1      39.600  26.571  28.954  1.00  0.00     0.029 A 
ATOM     41  N   UNL A   1      41.124  28.193  28.766  1.00  0.00    -0.354 N 
ATOM     42  C   UNL A   1      45.023  27.427  27.075  1.00  0.00     0.074 A 
ATOM     43  C   UNL A   1      45.094  26.093  26.518  1.00  0.00     0.031 C 
ATOM     44  C   UNL A   1      39.054  27.689  29.451  1.00  0.00     0.029 A 
ATOM     45  C   UNL A   1      40.050  28.751  29.422  1.00  0.00     0.049 A 
ATOM     46  H   UNL A   1      41.936  28.699  28.532  1.00  0.00     0.167 HD
ATOM     47  C   UNL A   1      46.033  28.330  27.028  1.00  0.00     0.034 A 
ATOM     48  C   UNL A   1      39.892  29.962  29.988  1.00  0.00     0.034 A 
ATOM     49  C   UNL A   1      45.930  29.677  27.527  1.00  0.00     0.049 A 
ATOM     50  C   UNL A   1      41.028  30.941  29.935  1.00  0.00     0.074 A 
ATOM     51  C   UNL A   1      46.876  30.687  27.482  1.00  0.00     0.029 A 
ATOM     52  N   UNL A   1      44.814  30.206  28.160  1.00  0.00    -0.354 N 
ATOM     53  N   UNL A   1      42.204  30.808  29.372  1.00  0.00    -0.248 NA
ATOM     54  C   UNL A   1      40.811  32.240  30.582  1.00  0.00     0.031 C 
ATOM     55  C   UNL A   1      46.345  31.813  28.120  1.00  0.00     0.029 A 
ATOM     56  C   UNL A   1      45.053  31.521  28.525  1.00  0.00     0.049 A 
ATOM     57  H   UNL A   1      43.976  29.718  28.326  1.00  0.00     0.167 HD
ATOM     58  C   UNL A   1      42.858  32.018  29.569  1.00  0.00     0.074 A 
ATOM     59  C   UNL A   1      41.937  32.877  30.287  1.00  0.00     0.031 C 
ATOM     60  C   UNL A   1      44.112  32.379  29.200  1.00  0.00     0.034 A 
BRANCH  47  61
ATOM     61  C   UNL A   1      47.342  27.891  26.416  1.00  0.00     0.023 A 
ATOM     62  C   UNL A   1      48.406  27.470  27.238  1.00  0.00     0.012 A 
ATOM     63  C   UNL A   1      47.504  27.864  25.015  1.00  0.00     0.148 A 
ATOM     64  C   UNL A   1      49.625  27.079  26.681  1.00  0.00     0.002 A 
ATOM     65  C   UNL A   1      48.703  27.426  24.466  1.00  0.00     0.091 A 
ATOM     66  F   UNL A   1      46.489  28.283  24.245  1.00  0.00    -0.205 F 
ATOM     67  C   UNL A   1      49.770  27.049  25.296  1.00  0.00     0.022 A 
BRANCH  65  68
ATOM     68  S   UNL A   1      48.957  27.270  22.693  1.00  0.00     0.127 S 
ATOM     69  O   UNL A   1      48.353  25.966  22.421  1.00  0.00    -0.237 OA
ATOM     70  O   UNL A   1      48.202  28.410  22.172  1.00  0.00    -0.237 OA
ATOM     71  O   UNL A   1      50.395  27.350  22.484  1.00  0.00    -0.744 OA
ENDBRANCH  65  68
ENDBRANCH  47  61
BRANCH  48  72
ATOM     72  C   UNL A   1      38.600  30.307  30.647  1.00  0.00     0.023 A 
ATOM     73  C   UNL A   1      38.402  29.969  31.999  1.00  0.00     0.012 A 
ATOM     74  C   UNL A   1      37.594  31.019  29.962  1.00  0.00     0.148 A 
ATOM     75  C   UNL A   1      37.218  30.313  32.651  1.00  0.00     0.002 A 
ATOM     76  C   UNL A   1      36.445  31.413  30.634  1.00  0.00     0.091 A 
ATOM     77  F   UNL A   1      37.798  31.322  28.673  1.00  0.00    -0.205 F 
ATOM     78  C   UNL A   1      36.246  31.047  31.974  1.00  0.00     0.022 A 
BRANCH  76  79
ATOM     79  S   UNL A   1      35.204  32.478  29.888  1.00  0.00     0.127 S 
ATOM     80  O   UNL A   1      34.686  31.629  28.818  1.00  0.00    -0.237 OA
ATOM     81  O   UNL A   1      34.285  32.694  31.005  1.00  0.00    -0.237 OA
ATOM     82  O   UNL A   1      35.916  33.672  29.455  1.00  0.00    -0.744 OA
ENDBRANCH  76  79
ENDBRANCH  48  72
BRANCH  60  83
ATOM     83  C   UNL A   1      44.550  33.783  29.524  1.00  0.00     0.023 A 
ATOM     84  C   UNL A   1      45.216  34.054  30.737  1.00  0.00     0.012 A 
ATOM     85  C   UNL A   1      44.352  34.824  28.596  1.00  0.00     0.148 A 
ATOM     86  C   UNL A   1      45.644  35.346  31.036  1.00  0.00     0.002 A 
ATOM     87  C   UNL A   1      44.829  36.098  28.878  1.00  0.00     0.091 A 
ATOM     88  F   UNL A   1      43.700  34.550  27.458  1.00  0.00    -0.205 F 
ATOM     89  C   UNL A   1      45.462  36.365  30.103  1.00  0.00     0.022 A 
BRANCH  87  90
ATOM     90  S   UNL A   1      44.730  37.447  27.696  1.00  0.00     0.127 S 
ATOM     91  O   UNL A   1      44.988  38.607  28.548  1.00  0.00    -0.237 OA
ATOM     92  O   UNL A   1      45.811  37.123  26.765  1.00  0.00    -0.237 OA
ATOM     93  O   UNL A   1      43.394  37.381  27.120  1.00  0.00    -0.744 OA
ENDBRANCH  87  90
ENDBRANCH  60  83
ENDBRANCH  34  35
ENDBRANCH  27  29
ENDBRANCH  26  27
ENDBRANCH  25  26
ENDBRANCH   1  25
TORSDOF 17
ENDMDL
MODEL 2
REMARK VINA RESULT:     -11.8      6.426     11.818
REMARK SMILES CCCN1CCC[C@@]2(CCN(c3ccc(C(=O)OCCOC(=O)c4ccc(-c5c6nc(c(-c7cccc(S(=O)(=O)[O-])c7F)c7ccc([nH]7)c(-c7cccc(S(=O)(=O)[O-])c7F)c7nc(c(-c8cccc(S(=O)(=O)[O-])c8F)c8ccc5[nH]8)C=C7)C=C6)cc4)cn3)C2)C1=O
REMARK SMILES IDX 19 1 18 2 16 3 17 4 15 5 12 6 13 7 88 8 14 9 87 10 11 11
REMARK SMILES IDX 4 12 5 13 90 14 6 15 8 16 91 17 7 18 9 19 89 20 10 21 3 22
REMARK SMILES IDX 2 23 1 24 20 25 21 26 22 27 23 28 24 29 25 30 86 31 26 32
REMARK SMILES IDX 85 33 27 34 28 35 29 36 79 37 30 38 84 39 78 40 80 41 31 42
REMARK SMILES IDX 83 43 77 44 76 45 32 47 64 48 44 49 63 50 45 51 48 52 62 53
REMARK SMILES IDX 81 54 46 55 47 56 61 58 82 59 49 60 33 61 34 62 42 63 35 64
REMARK SMILES IDX 37 65 43 66 36 67 38 68 39 69 40 70 41 71 65 72 66 73 74 74
REMARK SMILES IDX 67 75 69 76 75 77 68 78 70 79 71 80 72 81 73 82 50 83 51 84
REMARK SMILES IDX 59 85 52 86 54 87 60 88 53 89 55 90 56 91 57 92 58 93
REMARK H PARENT 80 46 48 57
REMARK Flexibility Score: inf
ROOT
ATOM      1  C   UNL A   1      34.246  34.934  28.587  1.00  0.00     0.275 C 
ENDROOT
BRANCH   1   2
ATOM      2  O   UNL A   1      33.956  33.523  28.502  1.00  0.00    -0.458 OA
BRANCH   2   3
ATOM      3  C   UNL A   1      34.901  32.762  27.895  1.00  0.00     0.339 C 
ATOM      4  O   UNL A   1      36.024  33.112  27.582  1.00  0.00    -0.246 OA
BRANCH   3   5
ATOM      5  C   UNL A   1      34.409  31.390  27.680  1.00  0.00     0.078 A 
ATOM      6  C   UNL A   1      33.691  28.790  27.082  1.00  0.00     0.128 A 
ATOM      7  C   UNL A   1      32.716  29.791  27.141  1.00  0.00     0.048 A 
ATOM      8  N   UNL A   1      34.981  29.060  27.326  1.00  0.00    -0.238 NA
ATOM      9  C   UNL A   1      33.071  31.103  27.461  1.00  0.00     0.021 A 
ATOM     10  C   UNL A   1      35.314  30.344  27.585  1.00  0.00     0.129 A 
BRANCH   6  11
ATOM     11  N   UNL A   1      33.348  27.527  26.644  1.00  0.00    -0.356 N 
ATOM     12  N   UNL A   1      30.528  27.024  23.531  1.00  0.00    -0.342 N 
ATOM     13  C   UNL A   1      29.377  26.261  23.995  1.00  0.00     0.119 C 
ATOM     14  C   UNL A   1      31.765  26.426  23.773  1.00  0.00     0.230 C 
ATOM     15  C   UNL A   1      29.508  25.804  25.446  1.00  0.00     0.023 C 
ATOM     16  C   UNL A   1      32.005  26.126  25.251  1.00  0.00     0.069 C 
ATOM     17  O   UNL A   1      32.557  26.138  22.884  1.00  0.00    -0.274 OA
ATOM     18  C   UNL A   1      30.885  25.191  25.723  1.00  0.00     0.021 C 
ATOM     19  C   UNL A   1      33.418  25.544  25.477  1.00  0.00     0.040 C 
ATOM     20  C   UNL A   1      32.013  27.452  26.053  1.00  0.00     0.135 C 
ATOM     21  C   UNL A   1      34.264  26.780  25.792  1.00  0.00     0.119 C 
BRANCH  12  22
ATOM     22  C   UNL A   1      30.360  27.850  22.335  1.00  0.00     0.119 C 
BRANCH  22  23
ATOM     23  C   UNL A   1      29.787  29.252  22.607  1.00  0.00     0.018 C 
ATOM     24  C   UNL A   1      28.268  29.311  22.717  1.00  0.00     0.006 C 
ENDBRANCH  22  23
ENDBRANCH  12  22
ENDBRANCH   6  11
ENDBRANCH   3   5
ENDBRANCH   2   3
ENDBRANCH   1   2
BRANCH   1  25
ATOM     25  C   UNL A   1      33.076  35.718  29.187  1.00  0.00     0.275 C 
BRANCH  25  26
ATOM     26  O   UNL A   1      32.571  35.074  30.369  1.00  0.00    -0.458 OA
BRANCH  26  27
ATOM     27  C   UNL A   1      32.782  35.756  31.516  1.00  0.00     0.338 C 
ATOM     28  O   UNL A   1      32.179  36.741  31.910  1.00  0.00    -0.246 OA
BRANCH  27  29
ATOM     29  C   UNL A   1      33.798  35.085  32.336  1.00  0.00     0.060 A 
ATOM     30  C   UNL A   1      35.077  35.625  32.338  1.00  0.00     0.016 A 
ATOM     31  C   UNL A   1      33.566  33.837  32.906  1.00  0.00     0.016 A 
ATOM     32  C   UNL A   1      36.161  34.857  32.740  1.00  0.00     0.010 A 
ATOM     33  C   UNL A   1      34.642  33.130  33.459  1.00  0.00     0.010 A 
ATOM     34  C   UNL A   1      35.963  33.606  33.332  1.00  0.00    -0.014 A 
BRANCH  34  35
ATOM     35  C   UNL A   1      37.130  32.807  33.806  1.00  0.00     0.031 A 
ATOM     36  C   UNL A   1      37.813  33.141  35.109  1.00  0.00     0.074 A 
ATOM     37  C   UNL A   1      37.591  31.779  33.061  1.00  0.00     0.049 A 
ATOM     38  N   UNL A   1      38.935  32.677  35.599  1.00  0.00    -0.248 NA
ATOM     39  C   UNL A   1      37.161  34.146  35.964  1.00  0.00     0.031 C 
ATOM     40  C   UNL A   1      37.017  31.328  31.790  1.00  0.00     0.029 A 
ATOM     41  N   UNL A   1      38.653  30.931  33.258  1.00  0.00    -0.354 N 
ATOM     42  C   UNL A   1      39.165  33.388  36.771  1.00  0.00     0.074 A 
ATOM     43  C   UNL A   1      38.064  34.316  36.921  1.00  0.00     0.031 C 
ATOM     44  C   UNL A   1      37.707  30.272  31.340  1.00  0.00     0.029 A 
ATOM     45  C   UNL A   1      38.835  30.034  32.229  1.00  0.00     0.049 A 
ATOM     46  H   UNL A   1      39.228  30.960  34.057  1.00  0.00     0.167 HD
ATOM     47  C   UNL A   1      40.195  33.276  37.646  1.00  0.00     0.034 A 
ATOM     48  C   UNL A   1      39.824  29.153  31.990  1.00  0.00     0.034 A 
ATOM     49  C   UNL A   1      41.251  32.305  37.524  1.00  0.00     0.049 A 
ATOM     50  C   UNL A   1      40.960  29.054  32.966  1.00  0.00     0.074 A 
ATOM     51  C   UNL A   1      42.312  32.074  38.382  1.00  0.00     0.029 A 
ATOM     52  N   UNL A   1      41.380  31.401  36.479  1.00  0.00    -0.354 N 
ATOM     53  N   UNL A   1      41.141  29.707  34.088  1.00  0.00    -0.248 NA
ATOM     54  C   UNL A   1      42.020  28.090  32.650  1.00  0.00     0.031 C 
ATOM     55  C   UNL A   1      43.102  31.056  37.837  1.00  0.00     0.029 A 
ATOM     56  C   UNL A   1      42.511  30.622  36.662  1.00  0.00     0.049 A 
ATOM     57  H   UNL A   1      40.760  31.325  35.719  1.00  0.00     0.167 HD
ATOM     58  C   UNL A   1      42.319  29.211  34.630  1.00  0.00     0.074 A 
ATOM     59  C   UNL A   1      42.798  28.189  33.720  1.00  0.00     0.031 C 
ATOM     60  C   UNL A   1      42.953  29.578  35.771  1.00  0.00     0.034 A 
BRANCH  47  61
ATOM     61  C   UNL A   1      40.230  34.230  38.816  1.00  0.00     0.023 A 
ATOM     62  C   UNL A   1      41.046  35.378  38.774  1.00  0.00     0.012 A 
ATOM     63  C   UNL A   1      39.424  34.002  39.951  1.00  0.00     0.148 A 
ATOM     64  C   UNL A   1      41.098  36.256  39.858  1.00  0.00     0.002 A 
ATOM     65  C   UNL A   1      39.443  34.907  41.006  1.00  0.00     0.091 A 
ATOM     66  F   UNL A   1      38.665  32.897  39.986  1.00  0.00    -0.205 F 
ATOM     67  C   UNL A   1      40.291  36.025  40.970  1.00  0.00     0.022 A 
BRANCH  65  68
ATOM     68  S   UNL A   1      38.376  34.741  42.443  1.00  0.00     0.127 S 
ATOM     69  O   UNL A   1      37.051  34.714  41.826  1.00  0.00    -0.237 OA
ATOM     70  O   UNL A   1      38.812  33.463  43.005  1.00  0.00    -0.237 OA
ATOM     71  O   UNL A   1      38.651  35.897  43.284  1.00  0.00    -0.744 OA
ENDBRANCH  65  68
ENDBRANCH  47  61
BRANCH  48  72
ATOM     72  C   UNL A   1      39.769  28.292  30.774  1.00  0.00     0.023 A 
ATOM     73  C   UNL A   1      38.997  27.115  30.794  1.00  0.00     0.012 A 
ATOM     74  C   UNL A   1      40.427  28.662  29.583  1.00  0.00     0.148 A 
ATOM     75  C   UNL A   1      38.897  26.311  29.659  1.00  0.00     0.002 A 
ATOM     76  C   UNL A   1      40.273  27.891  28.438  1.00  0.00     0.091 A 
ATOM     77  F   UNL A   1      41.166  29.780  29.587  1.00  0.00    -0.205 F 
ATOM     78  C   UNL A   1      39.523  26.705  28.478  1.00  0.00     0.022 A 
BRANCH  76  79
ATOM     79  S   UNL A   1      40.923  28.390  26.839  1.00  0.00     0.127 S 
ATOM     80  O   UNL A   1      40.935  27.123  26.113  1.00  0.00    -0.237 OA
ATOM     81  O   UNL A   1      39.913  29.348  26.392  1.00  0.00    -0.237 OA
ATOM     82  O   UNL A   1      42.230  28.974  27.108  1.00  0.00    -0.744 OA
ENDBRANCH  76  79
ENDBRANCH  48  72
BRANCH  60  83
ATOM     83  C   UNL A   1      44.215  28.838  36.130  1.00  0.00     0.023 A 
ATOM     84  C   UNL A   1      45.470  29.355  35.750  1.00  0.00     0.012 A 
ATOM     85  C   UNL A   1      44.156  27.657  36.896  1.00  0.00     0.148 A 
ATOM     86  C   UNL A   1      46.645  28.688  36.096  1.00  0.00     0.002 A 
ATOM     87  C   UNL A   1      45.332  27.027  37.282  1.00  0.00     0.091 A 
ATOM     88  F   UNL A   1      42.952  27.171  37.230  1.00  0.00    -0.205 F 
ATOM     89  C   UNL A   1      46.576  27.532  36.871  1.00  0.00     0.022 A 
BRANCH  87  90
ATOM     90  S   UNL A   1      45.347  25.593  38.363  1.00  0.00     0.127 S 
ATOM     91  O   UNL A   1      44.671  26.109  39.551  1.00  0.00    -0.237 OA
ATOM     92  O   UNL A   1      44.570  24.619  37.595  1.00  0.00    -0.237 OA
ATOM     93  O   UNL A   1      46.749  25.240  38.545  1.00  0.00    -0.744 OA
ENDBRANCH  87  90
ENDBRANCH  60  83
ENDBRANCH  34  35
ENDBRANCH  27  29
ENDBRANCH  26  27
ENDBRANCH  25  26
ENDBRANCH   1  25
TORSDOF 17
ENDMDL
MODEL 3
REMARK VINA RESULT:     -11.7      5.081      7.327
REMARK SMILES CCCN1CCC[C@@]2(CCN(c3ccc(C(=O)OCCOC(=O)c4ccc(-c5c6nc(c(-c7cccc(S(=O)(=O)[O-])c7F)c7ccc([nH]7)c(-c7cccc(S(=O)(=O)[O-])c7F)c7nc(c(-c8cccc(S(=O)(=O)[O-])c8F)c8ccc5[nH]8)C=C7)C=C6)cc4)cn3)C2)C1=O
REMARK SMILES IDX 19 1 18 2 16 3 17 4 15 5 12 6 13 7 88 8 14 9 87 10 11 11
REMARK SMILES IDX 4 12 5 13 90 14 6 15 8 16 91 17 7 18 9 19 89 20 10 21 3 22
REMARK SMILES IDX 2 23 1 24 20 25 21 26 22 27 23 28 24 29 25 30 86 31 26 32
REMARK SMILES IDX 85 33 27 34 28 35 29 36 79 37 30 38 84 39 78 40 80 41 31 42
REMARK SMILES IDX 83 43 77 44 76 45 32 47 64 48 44 49 63 50 45 51 48 52 62 53
REMARK SMILES IDX 81 54 46 55 47 56 61 58 82 59 49 60 33 61 34 62 42 63 35 64
REMARK SMILES IDX 37 65 43 66 36 67 38 68 39 69 40 70 41 71 65 72 66 73 74 74
REMARK SMILES IDX 67 75 69 76 75 77 68 78 70 79 71 80 72 81 73 82 50 83 51 84
REMARK SMILES IDX 59 85 52 86 54 87 60 88 53 89 55 90 56 91 57 92 58 93
REMARK H PARENT 80 46 48 57
REMARK Flexibility Score: inf
ROOT
ATOM      1  C   UNL A   1      42.836  20.697  26.125  1.00  0.00     0.275 C 
ENDROOT
BRANCH   1   2
ATOM      2  O   UNL A   1      41.540  21.177  25.711  1.00  0.00    -0.458 OA
BRANCH   2   3
ATOM      3  C   UNL A   1      40.604  21.268  26.689  1.00  0.00     0.339 C 
ATOM      4  O   UNL A   1      40.752  20.985  27.863  1.00  0.00    -0.246 OA
BRANCH   3   5
ATOM      5  C   UNL A   1      39.342  21.808  26.157  1.00  0.00     0.078 A 
ATOM      6  C   UNL A   1      36.922  22.919  25.420  1.00  0.00     0.128 A 
ATOM      7  C   UNL A   1      37.227  21.603  25.062  1.00  0.00     0.048 A 
ATOM      8  N   UNL A   1      37.790  23.672  26.110  1.00  0.00    -0.238 NA
ATOM      9  C   UNL A   1      38.456  21.042  25.414  1.00  0.00     0.021 A 
ATOM     10  C   UNL A   1      38.954  23.098  26.487  1.00  0.00     0.129 A 
BRANCH   6  11
ATOM     11  N   UNL A   1      35.657  23.419  25.175  1.00  0.00    -0.356 N 
ATOM     12  N   UNL A   1      32.568  20.874  23.809  1.00  0.00    -0.342 N 
ATOM     13  C   UNL A   1      32.077  21.309  22.508  1.00  0.00     0.119 C 
ATOM     14  C   UNL A   1      32.592  21.867  24.789  1.00  0.00     0.230 C 
ATOM     15  C   UNL A   1      32.759  22.580  22.006  1.00  0.00     0.023 C 
ATOM     16  C   UNL A   1      33.428  23.081  24.390  1.00  0.00     0.069 C 
ATOM     17  O   UNL A   1      31.973  21.785  25.843  1.00  0.00    -0.274 OA
ATOM     18  C   UNL A   1      32.829  23.652  23.098  1.00  0.00     0.021 C 
ATOM     19  C   UNL A   1      33.493  24.112  25.538  1.00  0.00     0.040 C 
ATOM     20  C   UNL A   1      34.902  22.649  24.189  1.00  0.00     0.135 C 
ATOM     21  C   UNL A   1      34.770  23.726  26.288  1.00  0.00     0.119 C 
BRANCH  12  22
ATOM     22  C   UNL A   1      32.308  19.490  24.206  1.00  0.00     0.119 C 
BRANCH  22  23
ATOM     23  C   UNL A   1      33.211  18.451  23.518  1.00  0.00     0.018 C 
ATOM     24  C   UNL A   1      33.298  17.107  24.231  1.00  0.00     0.006 C 
ENDBRANCH  22  23
ENDBRANCH  12  22
ENDBRANCH   6  11
ENDBRANCH   3   5
ENDBRANCH   2   3
ENDBRANCH   1   2
BRANCH   1  25
ATOM     25  C   UNL A   1      43.969  21.488  25.468  1.00  0.00     0.275 C 
BRANCH  25  26
ATOM     26  O   UNL A   1      44.234  22.707  26.184  1.00  0.00    -0.458 OA
BRANCH  26  27
ATOM     27  C   UNL A   1      43.950  23.836  25.498  1.00  0.00     0.338 C 
ATOM     28  O   UNL A   1      44.167  24.056  24.317  1.00  0.00    -0.246 OA
BRANCH  27  29
ATOM     29  C   UNL A   1      43.212  24.782  26.344  1.00  0.00     0.060 A 
ATOM     30  C   UNL A   1      43.574  26.120  26.272  1.00  0.00     0.016 A 
ATOM     31  C   UNL A   1      42.349  24.345  27.344  1.00  0.00     0.016 A 
ATOM     32  C   UNL A   1      43.229  26.995  27.293  1.00  0.00     0.010 A 
ATOM     33  C   UNL A   1      41.871  25.268  28.283  1.00  0.00     0.010 A 
ATOM     34  C   UNL A   1      42.349  26.594  28.304  1.00  0.00    -0.014 A 
BRANCH  34  35
ATOM     35  C   UNL A   1      41.945  27.555  29.370  1.00  0.00     0.031 A 
ATOM     36  C   UNL A   1      42.717  27.639  30.663  1.00  0.00     0.074 A 
ATOM     37  C   UNL A   1      40.872  28.354  29.185  1.00  0.00     0.049 A 
ATOM     38  N   UNL A   1      42.421  28.282  31.764  1.00  0.00    -0.248 NA
ATOM     39  C   UNL A   1      43.977  26.882  30.737  1.00  0.00     0.031 C 
ATOM     40  C   UNL A   1      40.043  28.398  27.978  1.00  0.00     0.029 A 
ATOM     41  N   UNL A   1      40.287  29.280  30.015  1.00  0.00    -0.354 N 
ATOM     42  C   UNL A   1      43.407  27.943  32.684  1.00  0.00     0.074 A 
ATOM     43  C   UNL A   1      44.313  27.038  32.011  1.00  0.00     0.031 C 
ATOM     44  C   UNL A   1      39.083  29.319  28.129  1.00  0.00     0.029 A 
ATOM     45  C   UNL A   1      39.158  29.859  29.479  1.00  0.00     0.049 A 
ATOM     46  H   UNL A   1      40.640  29.508  30.905  1.00  0.00     0.167 HD
ATOM     47  C   UNL A   1      43.550  28.353  33.969  1.00  0.00     0.034 A 
ATOM     48  C   UNL A   1      38.249  30.689  30.023  1.00  0.00     0.034 A 
ATOM     49  C   UNL A   1      42.680  29.305  34.610  1.00  0.00     0.049 A 
ATOM     50  C   UNL A   1      38.420  31.119  31.450  1.00  0.00     0.074 A 
ATOM     51  C   UNL A   1      42.767  29.825  35.889  1.00  0.00     0.029 A 
ATOM     52  N   UNL A   1      41.565  29.883  34.020  1.00  0.00    -0.354 N 
ATOM     53  N   UNL A   1      39.379  30.820  32.291  1.00  0.00    -0.248 NA
ATOM     54  C   UNL A   1      37.391  32.011  31.999  1.00  0.00     0.031 C 
ATOM     55  C   UNL A   1      41.684  30.690  36.085  1.00  0.00     0.029 A 
ATOM     56  C   UNL A   1      40.946  30.742  34.914  1.00  0.00     0.049 A 
ATOM     57  H   UNL A   1      41.258  29.709  33.101  1.00  0.00     0.167 HD
ATOM     58  C   UNL A   1      39.089  31.511  33.460  1.00  0.00     0.074 A 
ATOM     59  C   UNL A   1      37.873  32.259  33.209  1.00  0.00     0.031 C 
ATOM     60  C   UNL A   1      39.761  31.515  34.638  1.00  0.00     0.034 A 
BRANCH  47  61
ATOM     61  C   UNL A   1      44.689  27.770  34.770  1.00  0.00     0.023 A 
ATOM     62  C   UNL A   1      45.935  28.427  34.816  1.00  0.00     0.012 A 
ATOM     63  C   UNL A   1      44.513  26.581  35.508  1.00  0.00     0.148 A 
ATOM     64  C   UNL A   1      47.000  27.887  35.538  1.00  0.00     0.002 A 
ATOM     65  C   UNL A   1      45.562  26.076  36.267  1.00  0.00     0.091 A 
ATOM     66  F   UNL A   1      43.328  25.958  35.443  1.00  0.00    -0.205 F 
ATOM     67  C   UNL A   1      46.811  26.716  36.270  1.00  0.00     0.022 A 
BRANCH  65  68
ATOM     68  S   UNL A   1      45.390  24.622  37.310  1.00  0.00     0.127 S 
ATOM     69  O   UNL A   1      44.157  24.924  38.036  1.00  0.00    -0.237 OA
ATOM     70  O   UNL A   1      45.268  23.548  36.325  1.00  0.00    -0.237 OA
ATOM     71  O   UNL A   1      46.596  24.565  38.122  1.00  0.00    -0.744 OA
ENDBRANCH  65  68
ENDBRANCH  47  61
BRANCH  48  72
ATOM     72  C   UNL A   1      37.101  31.167  29.200  1.00  0.00     0.023 A 
ATOM     73  C   UNL A   1      37.027  32.527  28.842  1.00  0.00     0.012 A 
ATOM     74  C   UNL A   1      36.118  30.277  28.722  1.00  0.00     0.148 A 
ATOM     75  C   UNL A   1      35.985  32.995  28.042  1.00  0.00     0.002 A 
ATOM     76  C   UNL A   1      35.119  30.737  27.875  1.00  0.00     0.091 A 
ATOM     77  F   UNL A   1      36.201  28.989  29.083  1.00  0.00    -0.205 F 
ATOM     78  C   UNL A   1      35.039  32.099  27.547  1.00  0.00     0.022 A 
BRANCH  76  79
ATOM     79  S   UNL A   1      33.943  29.638  27.077  1.00  0.00     0.127 S 
ATOM     80  O   UNL A   1      33.174  30.568  26.255  1.00  0.00    -0.237 OA
ATOM     81  O   UNL A   1      34.828  28.742  26.333  1.00  0.00    -0.237 OA
ATOM     82  O   UNL A   1      33.206  28.995  28.157  1.00  0.00    -0.744 OA
ENDBRANCH  76  79
ENDBRANCH  48  72
BRANCH  60  83
ATOM     83  C   UNL A   1      39.224  32.393  35.737  1.00  0.00     0.023 A 
ATOM     84  C   UNL A   1      38.259  31.892  36.634  1.00  0.00     0.012 A 
ATOM     85  C   UNL A   1      39.723  33.698  35.915  1.00  0.00     0.148 A 
ATOM     86  C   UNL A   1      37.772  32.691  37.668  1.00  0.00     0.002 A 
ATOM     87  C   UNL A   1      39.272  34.469  36.979  1.00  0.00     0.091 A 
ATOM     88  F   UNL A   1      40.625  34.163  35.040  1.00  0.00    -0.205 F 
ATOM     89  C   UNL A   1      38.286  33.973  37.848  1.00  0.00     0.022 A 
BRANCH  87  90
ATOM     90  S   UNL A   1      39.949  36.091  37.349  1.00  0.00     0.127 S 
ATOM     91  O   UNL A   1      41.316  35.760  37.745  1.00  0.00    -0.237 OA
ATOM     92  O   UNL A   1      39.836  36.775  36.061  1.00  0.00    -0.237 OA
ATOM     93  O   UNL A   1      39.111  36.646  38.404  1.00  0.00    -0.744 OA
ENDBRANCH  87  90
ENDBRANCH  60  83
ENDBRANCH  34  35
ENDBRANCH  27  29
ENDBRANCH  26  27
ENDBRANCH  25  26
ENDBRANCH   1  25
TORSDOF 17
ENDMDL
