MODEL 1
REMARK VINA RESULT:     -12.9      0.000      0.000
REMARK SMILES CC(C)N1C(=O)C[C@@H]([N@@H+]2CC[C@H](C(=O)OCCOC(=O)c3ccc(-c4c5nc(c(-c6cccc(S(=O)(=O)[O-])c6F)c6ccc([nH]6)c(-c6cccc(S(=O)(=O)[O-])c6F)c6nc(c(-c7cccc(S(=O)(=O)[O-])c7F)c7ccc4[nH]7)C=C6)C=C5)cc3)[C@@H]2C)C1=O
REMARK SMILES IDX 17 1 16 2 15 3 13 4 14 5 12 6 9 7 10 8 84 9 11 11 85 12 8 13
REMARK SMILES IDX 4 14 5 15 86 16 6 17 7 18 87 19 2 20 1 21 3 22 18 23 19 24
REMARK SMILES IDX 20 25 21 26 22 27 83 28 23 29 82 30 24 31 25 32 26 33 76 34
REMARK SMILES IDX 27 35 81 36 75 37 77 38 28 39 80 40 74 41 73 42 29 44 61 45
REMARK SMILES IDX 41 46 60 47 42 48 45 49 59 50 78 51 43 52 44 53 58 55 79 56
REMARK SMILES IDX 46 57 30 58 31 59 39 60 32 61 34 62 40 63 33 64 35 65 36 66
REMARK SMILES IDX 37 67 38 68 62 69 63 70 71 71 64 72 66 73 72 74 65 75 67 76
REMARK SMILES IDX 68 77 69 78 70 79 47 80 48 81 56 82 49 83 51 84 57 85 50 86
REMARK SMILES IDX 52 87 53 88 54 89 55 90
REMARK H PARENT 9 10 77 43 45 54
REMARK Flexibility Score: inf
ROOT
ATOM      1  C   UNL A   1      35.500  20.841  25.062  1.00  0.00     0.275 C 
ENDROOT
BRANCH   1   2
ATOM      2  C   UNL A   1      34.374  21.744  24.549  1.00  0.00     0.274 C 
BRANCH   2   3
ATOM      3  O   UNL A   1      34.698  23.152  24.718  1.00  0.00    -0.462 OA
BRANCH   3   4
ATOM      4  C   UNL A   1      33.753  23.917  25.328  1.00  0.00     0.315 C 
ATOM      5  O   UNL A   1      34.007  24.992  25.866  1.00  0.00    -0.252 OA
BRANCH   4   6
ATOM      6  C   UNL A   1      32.390  23.234  25.460  1.00  0.00     0.162 C 
ATOM      7  N   UNL A   1      30.176  24.270  25.562  1.00  0.00    -0.321 N 
ATOM      8  C   UNL A   1      30.389  23.583  26.834  1.00  0.00     0.264 C 
ATOM      9  C   UNL A   1      31.147  23.655  24.631  1.00  0.00     0.196 C 
ATOM     10  H   UNL A   1      29.239  24.136  25.183  1.00  0.00     0.349 HD
ATOM     11  C   UNL A   1      31.891  23.331  26.914  1.00  0.00     0.083 C 
ATOM     12  C   UNL A   1      31.346  24.161  23.210  1.00  0.00     0.076 C 
BRANCH   7  13
ATOM     13  C   UNL A   1      29.752  25.718  25.514  1.00  0.00     0.284 C 
ATOM     14  N   UNL A   1      31.356  28.086  24.465  1.00  0.00    -0.275 N 
ATOM     15  C   UNL A   1      30.063  28.004  23.149  1.00  0.00     0.236 C 
ATOM     16  C   UNL A   1      31.270  26.947  25.798  1.00  0.00     0.288 C 
ATOM     17  O   UNL A   1      30.210  28.684  22.132  1.00  0.00    -0.274 OA
ATOM     18  C   UNL A   1      28.797  26.313  23.852  1.00  0.00     0.176 C 
ATOM     19  O   UNL A   1      32.123  26.824  26.668  1.00  0.00    -0.267 OA
BRANCH  14  20
ATOM     20  C   UNL A   1      32.585  28.856  24.235  1.00  0.00     0.087 C 
ATOM     21  C   UNL A   1      33.004  29.701  25.441  1.00  0.00     0.031 C 
ATOM     22  C   UNL A   1      33.736  27.919  23.859  1.00  0.00     0.031 C 
ENDBRANCH  14  20
ENDBRANCH   7  13
ENDBRANCH   4   6
ENDBRANCH   3   4
ENDBRANCH   2   3
ENDBRANCH   1   2
BRANCH   1  23
ATOM     23  O   UNL A   1      36.752  21.501  24.850  1.00  0.00    -0.458 OA
BRANCH  23  24
ATOM     24  C   UNL A   1      37.832  20.791  25.257  1.00  0.00     0.338 C 
ATOM     25  O   UNL A   1      38.091  19.637  24.965  1.00  0.00    -0.246 OA
BRANCH  24  26
ATOM     26  C   UNL A   1      38.816  21.777  25.754  1.00  0.00     0.060 A 
ATOM     27  C   UNL A   1      40.222  21.212  26.458  1.00  0.00     0.016 A 
ATOM     28  C   UNL A   1      38.221  23.347  25.923  1.00  0.00     0.016 A 
ATOM     29  C   UNL A   1      41.050  22.278  27.534  1.00  0.00     0.010 A 
ATOM     30  C   UNL A   1      38.915  24.550  26.829  1.00  0.00     0.010 A 
ATOM     31  C   UNL A   1      40.352  24.188  27.752  1.00  0.00    -0.014 A 
BRANCH  31  32
ATOM     32  C   UNL A   1      40.917  25.728  27.995  1.00  0.00     0.031 A 
ATOM     33  C   UNL A   1      40.284  26.757  28.913  1.00  0.00     0.074 A 
ATOM     34  C   UNL A   1      41.757  26.325  27.091  1.00  0.00     0.049 A 
ATOM     35  N   UNL A   1      40.789  27.897  29.327  1.00  0.00    -0.248 NA
ATOM     36  C   UNL A   1      38.881  26.559  29.293  1.00  0.00     0.031 C 
ATOM     37  C   UNL A   1      42.148  25.808  25.782  1.00  0.00     0.029 A 
ATOM     38  N   UNL A   1      42.566  27.448  27.207  1.00  0.00    -0.354 N 
ATOM     39  C   UNL A   1      39.746  28.601  29.918  1.00  0.00     0.074 A 
ATOM     40  C   UNL A   1      38.601  27.710  29.903  1.00  0.00     0.031 C 
ATOM     41  C   UNL A   1      43.298  26.369  25.392  1.00  0.00     0.029 A 
ATOM     42  C   UNL A   1      43.672  27.369  26.367  1.00  0.00     0.049 A 
ATOM     43  H   UNL A   1      42.379  28.205  27.808  1.00  0.00     0.167 HD
ATOM     44  C   UNL A   1      39.720  29.887  30.358  1.00  0.00     0.034 A 
ATOM     45  C   UNL A   1      44.891  27.940  26.447  1.00  0.00     0.034 A 
ATOM     46  C   UNL A   1      40.842  30.799  30.358  1.00  0.00     0.049 A 
ATOM     47  C   UNL A   1      45.088  29.081  27.390  1.00  0.00     0.074 A 
ATOM     48  C   UNL A   1      40.905  32.099  30.844  1.00  0.00     0.029 A 
ATOM     49  N   UNL A   1      42.093  30.523  29.836  1.00  0.00    -0.354 N 
ATOM     50  N   UNL A   1      44.235  29.582  28.243  1.00  0.00    -0.248 NA
ATOM     51  C   UNL A   1      46.387  29.768  27.352  1.00  0.00     0.031 C 
ATOM     52  C   UNL A   1      42.197  32.599  30.626  1.00  0.00     0.029 A 
ATOM     53  C   UNL A   1      42.936  31.615  29.998  1.00  0.00     0.049 A 
ATOM     54  H   UNL A   1      42.349  29.674  29.409  1.00  0.00     0.167 HD
ATOM     55  C   UNL A   1      44.862  30.690  28.787  1.00  0.00     0.074 A 
ATOM     56  C   UNL A   1      46.212  30.716  28.265  1.00  0.00     0.031 C 
ATOM     57  C   UNL A   1      44.308  31.648  29.566  1.00  0.00     0.034 A 
BRANCH  44  58
ATOM     58  C   UNL A   1      38.423  30.424  30.909  1.00  0.00     0.023 A 
ATOM     59  C   UNL A   1      38.191  30.354  32.295  1.00  0.00     0.012 A 
ATOM     60  C   UNL A   1      37.504  31.108  30.084  1.00  0.00     0.148 A 
ATOM     61  C   UNL A   1      37.060  30.949  32.855  1.00  0.00     0.002 A 
ATOM     62  C   UNL A   1      36.391  31.721  30.653  1.00  0.00     0.091 A 
ATOM     63  F   UNL A   1      37.737  31.152  28.765  1.00  0.00    -0.205 F 
ATOM     64  C   UNL A   1      36.168  31.640  32.037  1.00  0.00     0.022 A 
BRANCH  62  65
ATOM     65  S   UNL A   1      35.220  32.688  29.689  1.00  0.00     0.127 S 
ATOM     66  O   UNL A   1      34.701  31.684  28.761  1.00  0.00    -0.237 OA
ATOM     67  O   UNL A   1      34.263  33.129  30.706  1.00  0.00    -0.237 OA
ATOM     68  O   UNL A   1      35.994  33.764  29.084  1.00  0.00    -0.744 OA
ENDBRANCH  62  65
ENDBRANCH  44  58
BRANCH  45  69
ATOM     69  C   UNL A   1      46.075  27.267  25.829  1.00  0.00     0.023 A 
ATOM     70  C   UNL A   1      46.491  26.050  26.419  1.00  0.00     0.012 A 
ATOM     71  C   UNL A   1      46.743  27.711  24.679  1.00  0.00     0.148 A 
ATOM     72  C   UNL A   1      47.528  25.292  25.877  1.00  0.00     0.002 A 
ATOM     73  C   UNL A   1      47.752  26.927  24.115  1.00  0.00     0.091 A 
ATOM     74  F   UNL A   1      46.384  28.880  24.130  1.00  0.00    -0.205 F 
ATOM     75  C   UNL A   1      48.151  25.722  24.713  1.00  0.00     0.022 A 
BRANCH  73  76
ATOM     76  S   UNL A   1      48.486  27.419  22.552  1.00  0.00     0.127 S 
ATOM     77  O   UNL A   1      49.710  28.089  22.976  1.00  0.00    -0.237 OA
ATOM     78  O   UNL A   1      48.695  26.146  21.862  1.00  0.00    -0.237 OA
ATOM     79  O   UNL A   1      47.454  28.259  21.952  1.00  0.00    -0.744 OA
ENDBRANCH  73  76
ENDBRANCH  45  69
BRANCH  57  80
ATOM     80  C   UNL A   1      45.143  32.862  29.858  1.00  0.00     0.023 A 
ATOM     81  C   UNL A   1      45.912  32.886  31.042  1.00  0.00     0.012 A 
ATOM     82  C   UNL A   1      45.200  33.954  28.976  1.00  0.00     0.148 A 
ATOM     83  C   UNL A   1      46.701  33.991  31.355  1.00  0.00     0.002 A 
ATOM     84  C   UNL A   1      46.014  35.043  29.282  1.00  0.00     0.091 A 
ATOM     85  F   UNL A   1      44.439  33.934  27.871  1.00  0.00    -0.205 F 
ATOM     86  C   UNL A   1      46.760  35.066  30.472  1.00  0.00     0.022 A 
BRANCH  84  87
ATOM     87  S   UNL A   1      46.173  36.429  28.148  1.00  0.00     0.127 S 
ATOM     88  O   UNL A   1      47.176  37.256  28.816  1.00  0.00    -0.237 OA
ATOM     89  O   UNL A   1      46.637  35.792  26.914  1.00  0.00    -0.237 OA
ATOM     90  O   UNL A   1      44.833  36.995  28.056  1.00  0.00    -0.744 OA
ENDBRANCH  84  87
ENDBRANCH  57  80
ENDBRANCH  31  32
ENDBRANCH  24  26
ENDBRANCH  23  24
ENDBRANCH   1  23
TORSDOF 16
ENDMDL
MODEL 2
REMARK VINA RESULT:     -12.7      5.230     10.271
REMARK SMILES CC(C)N1C(=O)C[C@@H]([N@@H+]2CC[C@H](C(=O)OCCOC(=O)c3ccc(-c4c5nc(c(-c6cccc(S(=O)(=O)[O-])c6F)c6ccc([nH]6)c(-c6cccc(S(=O)(=O)[O-])c6F)c6nc(c(-c7cccc(S(=O)(=O)[O-])c7F)c7ccc4[nH]7)C=C6)C=C5)cc3)[C@@H]2C)C1=O
REMARK SMILES IDX 17 1 16 2 15 3 13 4 14 5 12 6 9 7 10 8 84 9 11 11 85 12 8 13
REMARK SMILES IDX 4 14 5 15 86 16 6 17 7 18 87 19 2 20 1 21 3 22 18 23 19 24
REMARK SMILES IDX 20 25 21 26 22 27 83 28 23 29 82 30 24 31 25 32 26 33 76 34
REMARK SMILES IDX 27 35 81 36 75 37 77 38 28 39 80 40 74 41 73 42 29 44 61 45
REMARK SMILES IDX 41 46 60 47 42 48 45 49 59 50 78 51 43 52 44 53 58 55 79 56
REMARK SMILES IDX 46 57 30 58 31 59 39 60 32 61 34 62 40 63 33 64 35 65 36 66
REMARK SMILES IDX 37 67 38 68 62 69 63 70 71 71 64 72 66 73 72 74 65 75 67 76
REMARK SMILES IDX 68 77 69 78 70 79 47 80 48 81 56 82 49 83 51 84 57 85 50 86
REMARK SMILES IDX 52 87 53 88 54 89 55 90
REMARK H PARENT 9 10 77 43 45 54
REMARK Flexibility Score: inf
ROOT
ATOM      1  C   UNL A   1      31.029  31.376  25.958  1.00  0.00     0.275 C 
ENDROOT
BRANCH   1   2
ATOM      2  C   UNL A   1      31.208  30.303  24.880  1.00  0.00     0.274 C 
BRANCH   2   3
ATOM      3  O   UNL A   1      32.552  29.750  24.892  1.00  0.00    -0.462 OA
BRANCH   3   4
ATOM      4  C   UNL A   1      32.652  28.407  24.700  1.00  0.00     0.315 C 
ATOM      5  O   UNL A   1      33.678  27.862  24.302  1.00  0.00    -0.252 OA
BRANCH   4   6
ATOM      6  C   UNL A   1      31.323  27.660  24.835  1.00  0.00     0.162 C 
ATOM      7  N   UNL A   1      30.912  25.456  25.813  1.00  0.00    -0.321 N 
ATOM      8  C   UNL A   1      30.557  25.372  24.398  1.00  0.00     0.264 C 
ATOM      9  C   UNL A   1      30.902  26.902  26.122  1.00  0.00     0.196 C 
ATOM     10  H   UNL A   1      30.243  24.992  26.426  1.00  0.00     0.349 HD
ATOM     11  C   UNL A   1      31.214  26.581  23.740  1.00  0.00     0.083 C 
ATOM     12  C   UNL A   1      31.336  27.449  27.474  1.00  0.00     0.076 C 
BRANCH   7  13
ATOM     13  C   UNL A   1      31.851  24.457  26.446  1.00  0.00     0.284 C 
ATOM     14  N   UNL A   1      32.556  21.674  25.426  1.00  0.00    -0.275 N 
ATOM     15  C   UNL A   1      34.174  22.512  25.128  1.00  0.00     0.236 C 
ATOM     16  C   UNL A   1      31.257  22.596  26.162  1.00  0.00     0.288 C 
ATOM     17  O   UNL A   1      35.031  21.925  24.465  1.00  0.00    -0.274 OA
ATOM     18  C   UNL A   1      33.776  24.566  25.889  1.00  0.00     0.176 C 
ATOM     19  O   UNL A   1      30.110  22.194  26.308  1.00  0.00    -0.267 OA
BRANCH  14  20
ATOM     20  C   UNL A   1      32.269  20.388  24.777  1.00  0.00     0.087 C 
ATOM     21  C   UNL A   1      32.329  20.456  23.249  1.00  0.00     0.031 C 
ATOM     22  C   UNL A   1      33.245  19.316  25.267  1.00  0.00     0.031 C 
ENDBRANCH  14  20
ENDBRANCH   7  13
ENDBRANCH   4   6
ENDBRANCH   3   4
ENDBRANCH   2   3
ENDBRANCH   1   2
BRANCH   1  23
ATOM     23  O   UNL A   1      32.190  31.384  26.796  1.00  0.00    -0.458 OA
BRANCH  23  24
ATOM     24  C   UNL A   1      32.584  32.619  27.191  1.00  0.00     0.338 C 
ATOM     25  O   UNL A   1      31.891  33.621  27.230  1.00  0.00    -0.246 OA
BRANCH  24  26
ATOM     26  C   UNL A   1      33.845  32.434  27.941  1.00  0.00     0.060 A 
ATOM     27  C   UNL A   1      34.766  33.783  28.292  1.00  0.00     0.016 A 
ATOM     28  C   UNL A   1      34.409  30.844  27.996  1.00  0.00     0.016 A 
ATOM     29  C   UNL A   1      36.444  33.531  28.610  1.00  0.00     0.010 A 
ATOM     30  C   UNL A   1      35.956  30.382  28.372  1.00  0.00     0.010 A 
ATOM     31  C   UNL A   1      37.152  31.614  28.687  1.00  0.00    -0.014 A 
BRANCH  31  32
ATOM     32  C   UNL A   1      38.275  30.705  29.501  1.00  0.00     0.031 A 
ATOM     33  C   UNL A   1      39.291  29.784  28.851  1.00  0.00     0.074 A 
ATOM     34  C   UNL A   1      38.115  30.405  30.829  1.00  0.00     0.049 A 
ATOM     35  N   UNL A   1      40.342  29.218  29.400  1.00  0.00    -0.248 NA
ATOM     36  C   UNL A   1      39.024  29.333  27.482  1.00  0.00     0.031 C 
ATOM     37  C   UNL A   1      36.943  30.680  31.656  1.00  0.00     0.029 A 
ATOM     38  N   UNL A   1      39.021  29.927  31.767  1.00  0.00    -0.354 N 
ATOM     39  C   UNL A   1      40.797  28.267  28.494  1.00  0.00     0.074 A 
ATOM     40  C   UNL A   1      39.969  28.410  27.312  1.00  0.00     0.031 C 
ATOM     41  C   UNL A   1      37.288  30.702  32.948  1.00  0.00     0.029 A 
ATOM     42  C   UNL A   1      38.682  30.332  33.054  1.00  0.00     0.049 A 
ATOM     43  H   UNL A   1      39.803  29.371  31.549  1.00  0.00     0.167 HD
ATOM     44  C   UNL A   1      41.757  27.317  28.657  1.00  0.00     0.034 A 
ATOM     45  C   UNL A   1      39.436  30.506  34.158  1.00  0.00     0.034 A 
ATOM     46  C   UNL A   1      42.576  27.142  29.836  1.00  0.00     0.049 A 
ATOM     47  C   UNL A   1      40.810  29.923  34.187  1.00  0.00     0.074 A 
ATOM     48  C   UNL A   1      43.609  26.239  30.049  1.00  0.00     0.029 A 
ATOM     49  N   UNL A   1      42.450  27.866  31.007  1.00  0.00    -0.354 N 
ATOM     50  N   UNL A   1      41.447  29.305  33.229  1.00  0.00    -0.248 NA
ATOM     51  C   UNL A   1      41.552  30.012  35.454  1.00  0.00     0.031 C 
ATOM     52  C   UNL A   1      44.114  26.429  31.343  1.00  0.00     0.029 A 
ATOM     53  C   UNL A   1      43.391  27.444  31.939  1.00  0.00     0.049 A 
ATOM     54  H   UNL A   1      41.788  28.578  31.159  1.00  0.00     0.167 HD
ATOM     55  C   UNL A   1      42.630  28.861  33.796  1.00  0.00     0.074 A 
ATOM     56  C   UNL A   1      42.683  29.389  35.142  1.00  0.00     0.031 C 
ATOM     57  C   UNL A   1      43.526  28.001  33.258  1.00  0.00     0.034 A 
BRANCH  44  58
ATOM     58  C   UNL A   1      42.014  26.364  27.517  1.00  0.00     0.023 A 
ATOM     59  C   UNL A   1      42.855  26.770  26.465  1.00  0.00     0.012 A 
ATOM     60  C   UNL A   1      41.537  25.035  27.552  1.00  0.00     0.148 A 
ATOM     61  C   UNL A   1      43.213  25.874  25.458  1.00  0.00     0.002 A 
ATOM     62  C   UNL A   1      41.919  24.139  26.557  1.00  0.00     0.091 A 
ATOM     63  F   UNL A   1      40.726  24.671  28.556  1.00  0.00    -0.205 F 
ATOM     64  C   UNL A   1      42.754  24.559  25.509  1.00  0.00     0.022 A 
BRANCH  62  65
ATOM     65  S   UNL A   1      41.431  22.408  26.574  1.00  0.00     0.127 S 
ATOM     66  O   UNL A   1      39.980  22.509  26.421  1.00  0.00    -0.237 OA
ATOM     67  O   UNL A   1      42.129  21.872  25.403  1.00  0.00    -0.237 OA
ATOM     68  O   UNL A   1      41.895  21.876  27.848  1.00  0.00    -0.744 OA
ENDBRANCH  62  65
ENDBRANCH  44  58
BRANCH  45  69
ATOM     69  C   UNL A   1      39.021  31.497  35.200  1.00  0.00     0.023 A 
ATOM     70  C   UNL A   1      39.154  32.864  34.862  1.00  0.00     0.012 A 
ATOM     71  C   UNL A   1      38.450  31.170  36.438  1.00  0.00     0.148 A 
ATOM     72  C   UNL A   1      38.721  33.874  35.720  1.00  0.00     0.002 A 
ATOM     73  C   UNL A   1      37.977  32.183  37.274  1.00  0.00     0.091 A 
ATOM     74  F   UNL A   1      38.350  29.879  36.787  1.00  0.00    -0.205 F 
ATOM     75  C   UNL A   1      38.116  33.534  36.923  1.00  0.00     0.022 A 
BRANCH  73  76
ATOM     76  S   UNL A   1      37.096  31.751  38.777  1.00  0.00     0.127 S 
ATOM     77  O   UNL A   1      35.969  32.678  38.760  1.00  0.00    -0.237 OA
ATOM     78  O   UNL A   1      36.734  30.349  38.564  1.00  0.00    -0.237 OA
ATOM     79  O   UNL A   1      38.097  31.956  39.819  1.00  0.00    -0.744 OA
ENDBRANCH  73  76
ENDBRANCH  45  69
BRANCH  57  80
ATOM     80  C   UNL A   1      44.627  27.510  34.155  1.00  0.00     0.023 A 
ATOM     81  C   UNL A   1      45.851  28.212  34.172  1.00  0.00     0.012 A 
ATOM     82  C   UNL A   1      44.461  26.393  34.992  1.00  0.00     0.148 A 
ATOM     83  C   UNL A   1      46.901  27.794  34.987  1.00  0.00     0.002 A 
ATOM     84  C   UNL A   1      45.505  25.998  35.826  1.00  0.00     0.091 A 
ATOM     85  F   UNL A   1      43.305  25.713  34.942  1.00  0.00    -0.205 F 
ATOM     86  C   UNL A   1      46.726  26.692  35.821  1.00  0.00     0.022 A 
BRANCH  84  87
ATOM     87  S   UNL A   1      45.311  24.620  36.964  1.00  0.00     0.127 S 
ATOM     88  O   UNL A   1      44.262  25.106  37.856  1.00  0.00    -0.237 OA
ATOM     89  O   UNL A   1      44.900  23.524  36.084  1.00  0.00    -0.237 OA
ATOM     90  O   UNL A   1      46.629  24.437  37.561  1.00  0.00    -0.744 OA
ENDBRANCH  84  87
ENDBRANCH  57  80
ENDBRANCH  31  32
ENDBRANCH  24  26
ENDBRANCH  23  24
ENDBRANCH   1  23
TORSDOF 16
ENDMDL
MODEL 3
REMARK VINA RESULT:     -12.7      1.627      2.322
REMARK SMILES CC(C)N1C(=O)C[C@@H]([N@@H+]2CC[C@H](C(=O)OCCOC(=O)c3ccc(-c4c5nc(c(-c6cccc(S(=O)(=O)[O-])c6F)c6ccc([nH]6)c(-c6cccc(S(=O)(=O)[O-])c6F)c6nc(c(-c7cccc(S(=O)(=O)[O-])c7F)c7ccc4[nH]7)C=C6)C=C5)cc3)[C@@H]2C)C1=O
REMARK SMILES IDX 17 1 16 2 15 3 13 4 14 5 12 6 9 7 10 8 84 9 11 11 85 12 8 13
REMARK SMILES IDX 4 14 5 15 86 16 6 17 7 18 87 19 2 20 1 21 3 22 18 23 19 24
REMARK SMILES IDX 20 25 21 26 22 27 83 28 23 29 82 30 24 31 25 32 26 33 76 34
REMARK SMILES IDX 27 35 81 36 75 37 77 38 28 39 80 40 74 41 73 42 29 44 61 45
REMARK SMILES IDX 41 46 60 47 42 48 45 49 59 50 78 51 43 52 44 53 58 55 79 56
REMARK SMILES IDX 46 57 30 58 31 59 39 60 32 61 34 62 40 63 33 64 35 65 36 66
REMARK SMILES IDX 37 67 38 68 62 69 63 70 71 71 64 72 66 73 72 74 65 75 67 76
REMARK SMILES IDX 68 77 69 78 70 79 47 80 48 81 56 82 49 83 51 84 57 85 50 86
REMARK SMILES IDX 52 87 53 88 54 89 55 90
REMARK H PARENT 9 10 77 43 45 54
REMARK Flexibility Score: inf
ROOT
ATOM      1  C   UNL A   1      37.007  19.831  24.778  1.00  0.00     0.275 C 
ENDROOT
BRANCH   1   2
ATOM      2  C   UNL A   1      35.565  20.217  25.121  1.00  0.00     0.274 C 
BRANCH   2   3
ATOM      3  O   UNL A   1      35.517  21.284  26.108  1.00  0.00    -0.462 OA
BRANCH   3   4
ATOM      4  C   UNL A   1      34.499  22.177  25.978  1.00  0.00     0.315 C 
ATOM      5  O   UNL A   1      34.050  22.823  26.922  1.00  0.00    -0.252 OA
BRANCH   4   6
ATOM      6  C   UNL A   1      33.832  22.164  24.601  1.00  0.00     0.162 C 
ATOM      7  N   UNL A   1      33.314  24.060  23.146  1.00  0.00    -0.321 N 
ATOM      8  C   UNL A   1      32.042  23.443  23.516  1.00  0.00     0.264 C 
ATOM      9  C   UNL A   1      34.333  23.020  23.407  1.00  0.00     0.196 C 
ATOM     10  H   UNL A   1      33.365  24.319  22.161  1.00  0.00     0.349 HD
ATOM     11  C   UNL A   1      32.352  22.572  24.729  1.00  0.00     0.083 C 
ATOM     12  C   UNL A   1      35.824  23.287  23.266  1.00  0.00     0.076 C 
BRANCH   7  13
ATOM     13  C   UNL A   1      33.546  25.542  23.321  1.00  0.00     0.284 C 
ATOM     14  N   UNL A   1      31.449  27.705  23.772  1.00  0.00    -0.275 N 
ATOM     15  C   UNL A   1      32.243  27.716  25.440  1.00  0.00     0.236 C 
ATOM     16  C   UNL A   1      32.084  26.619  22.548  1.00  0.00     0.288 C 
ATOM     17  O   UNL A   1      31.702  28.349  26.348  1.00  0.00    -0.274 OA
ATOM     18  C   UNL A   1      33.838  26.183  25.200  1.00  0.00     0.176 C 
ATOM     19  O   UNL A   1      31.580  26.436  21.448  1.00  0.00    -0.267 OA
BRANCH  14  20
ATOM     20  C   UNL A   1      30.139  28.340  23.583  1.00  0.00     0.087 C 
ATOM     21  C   UNL A   1      30.065  29.211  22.326  1.00  0.00     0.031 C 
ATOM     22  C   UNL A   1      29.038  27.278  23.518  1.00  0.00     0.031 C 
ENDBRANCH  14  20
ENDBRANCH   7  13
ENDBRANCH   4   6
ENDBRANCH   3   4
ENDBRANCH   2   3
ENDBRANCH   1   2
BRANCH   1  23
ATOM     23  O   UNL A   1      37.894  20.774  25.389  1.00  0.00    -0.458 OA
BRANCH  23  24
ATOM     24  C   UNL A   1      39.068  20.243  25.810  1.00  0.00     0.338 C 
ATOM     25  O   UNL A   1      39.495  19.133  25.548  1.00  0.00    -0.246 OA
BRANCH  24  26
ATOM     26  C   UNL A   1      39.895  21.378  26.275  1.00  0.00     0.060 A 
ATOM     27  C   UNL A   1      41.238  21.050  27.212  1.00  0.00     0.016 A 
ATOM     28  C   UNL A   1      39.155  22.890  26.150  1.00  0.00     0.016 A 
ATOM     29  C   UNL A   1      41.829  22.324  28.216  1.00  0.00     0.010 A 
ATOM     30  C   UNL A   1      39.624  24.262  26.954  1.00  0.00     0.010 A 
ATOM     31  C   UNL A   1      40.954  24.167  28.080  1.00  0.00    -0.014 A 
BRANCH  31  32
ATOM     32  C   UNL A   1      41.355  25.774  28.169  1.00  0.00     0.031 A 
ATOM     33  C   UNL A   1      40.627  26.811  29.004  1.00  0.00     0.074 A 
ATOM     34  C   UNL A   1      42.115  26.369  27.196  1.00  0.00     0.049 A 
ATOM     35  N   UNL A   1      41.012  28.032  29.300  1.00  0.00    -0.248 NA
ATOM     36  C   UNL A   1      39.258  26.503  29.432  1.00  0.00     0.031 C 
ATOM     37  C   UNL A   1      42.542  25.777  25.931  1.00  0.00     0.029 A 
ATOM     38  N   UNL A   1      42.800  27.577  27.191  1.00  0.00    -0.354 N 
ATOM     39  C   UNL A   1      39.908  28.674  29.847  1.00  0.00     0.074 A 
ATOM     40  C   UNL A   1      38.864  27.670  29.940  1.00  0.00     0.031 C 
ATOM     41  C   UNL A   1      43.620  26.417  25.465  1.00  0.00     0.029 A 
ATOM     42  C   UNL A   1      43.897  27.537  26.337  1.00  0.00     0.049 A 
ATOM     43  H   UNL A   1      42.541  28.363  27.724  1.00  0.00     0.167 HD
ATOM     44  C   UNL A   1      39.749  29.986  30.169  1.00  0.00     0.034 A 
ATOM     45  C   UNL A   1      45.049  28.238  26.337  1.00  0.00     0.034 A 
ATOM     46  C   UNL A   1      40.768  31.007  30.061  1.00  0.00     0.049 A 
ATOM     47  C   UNL A   1      45.135  29.477  27.167  1.00  0.00     0.074 A 
ATOM     48  C   UNL A   1      40.697  32.346  30.424  1.00  0.00     0.029 A 
ATOM     49  N   UNL A   1      42.034  30.817  29.538  1.00  0.00    -0.354 N 
ATOM     50  N   UNL A   1      44.245  29.962  27.990  1.00  0.00    -0.248 NA
ATOM     51  C   UNL A   1      46.353  30.290  27.038  1.00  0.00     0.031 C 
ATOM     52  C   UNL A   1      41.926  32.957  30.133  1.00  0.00     0.029 A 
ATOM     53  C   UNL A   1      42.758  32.002  29.581  1.00  0.00     0.049 A 
ATOM     54  H   UNL A   1      42.374  29.963  29.185  1.00  0.00     0.167 HD
ATOM     55  C   UNL A   1      44.756  31.176  28.416  1.00  0.00     0.074 A 
ATOM     56  C   UNL A   1      46.089  31.295  27.864  1.00  0.00     0.031 C 
ATOM     57  C   UNL A   1      44.112  32.138  29.117  1.00  0.00     0.034 A 
BRANCH  44  58
ATOM     58  C   UNL A   1      38.410  30.432  30.698  1.00  0.00     0.023 A 
ATOM     59  C   UNL A   1      38.145  30.308  32.074  1.00  0.00     0.012 A 
ATOM     60  C   UNL A   1      37.476  31.087  29.867  1.00  0.00     0.148 A 
ATOM     61  C   UNL A   1      36.968  30.822  32.618  1.00  0.00     0.002 A 
ATOM     62  C   UNL A   1      36.315  31.620  30.421  1.00  0.00     0.091 A 
ATOM     63  F   UNL A   1      37.740  31.183  28.556  1.00  0.00    -0.205 F 
ATOM     64  C   UNL A   1      36.059  31.485  31.795  1.00  0.00     0.022 A 
BRANCH  62  65
ATOM     65  S   UNL A   1      35.116  32.546  29.451  1.00  0.00     0.127 S 
ATOM     66  O   UNL A   1      34.613  31.518  28.541  1.00  0.00    -0.237 OA
ATOM     67  O   UNL A   1      34.156  32.980  30.467  1.00  0.00    -0.237 OA
ATOM     68  O   UNL A   1      35.862  33.630  28.826  1.00  0.00    -0.744 OA
ENDBRANCH  62  65
ENDBRANCH  44  58
BRANCH  45  69
ATOM     69  C   UNL A   1      46.291  27.639  25.756  1.00  0.00     0.023 A 
ATOM     70  C   UNL A   1      46.538  27.897  24.388  1.00  0.00     0.012 A 
ATOM     71  C   UNL A   1      47.248  26.915  26.480  1.00  0.00     0.148 A 
ATOM     72  C   UNL A   1      47.704  27.462  23.761  1.00  0.00     0.002 A 
ATOM     73  C   UNL A   1      48.435  26.519  25.860  1.00  0.00     0.091 A 
ATOM     74  F   UNL A   1      47.011  26.632  27.770  1.00  0.00    -0.205 F 
ATOM     75  C   UNL A   1      48.665  26.785  24.501  1.00  0.00     0.022 A 
BRANCH  73  76
ATOM     76  S   UNL A   1      49.727  25.741  26.835  1.00  0.00     0.127 S 
ATOM     77  O   UNL A   1      49.974  26.730  27.878  1.00  0.00    -0.237 OA
ATOM     78  O   UNL A   1      49.097  24.506  27.303  1.00  0.00    -0.237 OA
ATOM     79  O   UNL A   1      50.796  25.533  25.862  1.00  0.00    -0.744 OA
ENDBRANCH  73  76
ENDBRANCH  45  69
BRANCH  57  80
ATOM     80  C   UNL A   1      44.817  33.455  29.278  1.00  0.00     0.023 A 
ATOM     81  C   UNL A   1      45.560  33.686  30.455  1.00  0.00     0.012 A 
ATOM     82  C   UNL A   1      44.777  34.446  28.282  1.00  0.00     0.148 A 
ATOM     83  C   UNL A   1      46.230  34.893  30.650  1.00  0.00     0.002 A 
ATOM     84  C   UNL A   1      45.473  35.638  28.471  1.00  0.00     0.091 A 
ATOM     85  F   UNL A   1      44.040  34.229  27.182  1.00  0.00    -0.205 F 
ATOM     86  C   UNL A   1      46.194  35.866  29.654  1.00  0.00     0.022 A 
BRANCH  84  87
ATOM     87  S   UNL A   1      45.510  36.903  27.193  1.00  0.00     0.127 S 
ATOM     88  O   UNL A   1      46.161  36.202  26.089  1.00  0.00    -0.237 OA
ATOM     89  O   UNL A   1      44.090  37.191  26.976  1.00  0.00    -0.237 OA
ATOM     90  O   UNL A   1      46.256  38.009  27.780  1.00  0.00    -0.744 OA
ENDBRANCH  84  87
ENDBRANCH  57  80
ENDBRANCH  31  32
ENDBRANCH  24  26
ENDBRANCH  23  24
ENDBRANCH   1  23
TORSDOF 16
ENDMDL
