MODEL 1
REMARK VINA RESULT:     -11.5      0.000      0.000
REMARK SMILES O=C(C[C@@H]([NH2+]Cc1ccccc1)C(=O)OCCOC(=O)c1ccc(-c2c3nc(c(-c4cccc(S(=O)(=O)[O-])c4F)c4ccc([nH]4)c(-c4cccc(S(=O)(=O)[O-])c4F)c4nc(c(-c5cccc(S(=O)(=O)[O-])c5F)c5ccc2[nH]5)C=C4)C=C3)cc1)Nc1cccc(Cl)c1Cl
REMARK SMILES IDX 16 1 15 2 13 3 14 4 4 5 3 6 2 7 1 8 84 9 85 11 86 12 91 13
REMARK SMILES IDX 87 14 89 15 92 16 88 17 90 18 5 19 6 22 7 23 8 24 12 25 9 26
REMARK SMILES IDX 11 27 10 28 17 29 18 30 19 31 20 32 21 33 22 34 83 35 23 36
REMARK SMILES IDX 82 37 24 38 25 39 26 40 76 41 27 42 81 43 75 44 77 45 28 46
REMARK SMILES IDX 80 47 74 48 73 49 29 51 61 52 41 53 60 54 42 55 45 56 59 57
REMARK SMILES IDX 78 58 43 59 44 60 58 62 79 63 46 64 30 65 31 66 39 67 32 68
REMARK SMILES IDX 34 69 40 70 33 71 35 72 36 73 37 74 38 75 62 76 63 77 71 78
REMARK SMILES IDX 64 79 66 80 72 81 65 82 67 83 68 84 69 85 70 86 47 87 48 88
REMARK SMILES IDX 56 89 49 90 51 91 57 92 50 93 52 94 53 95 54 96 55 97
REMARK H PARENT 84 10 5 20 5 21 77 50 45 61
REMARK Flexibility Score: inf
ROOT
ATOM      1  C   UNL A   1      37.004  22.393  23.616  1.00  0.00     0.274 C 
ENDROOT
BRANCH   1   2
ATOM      2  O   UNL A   1      36.161  23.338  24.306  1.00  0.00    -0.458 OA
BRANCH   2   3
ATOM      3  C   UNL A   1      34.843  23.286  23.968  1.00  0.00     0.365 C 
ATOM      4  O   UNL A   1      34.402  23.775  22.933  1.00  0.00    -0.245 OA
BRANCH   3   5
ATOM      5  C   UNL A   1      33.959  22.553  25.002  1.00  0.00     0.303 C 
BRANCH   5   6
ATOM      6  C   UNL A   1      33.750  23.400  26.268  1.00  0.00     0.177 C 
BRANCH   6   7
ATOM      7  C   UNL A   1      32.721  24.485  26.047  1.00  0.00     0.231 C 
ATOM      8  O   UNL A   1      31.535  24.316  26.311  1.00  0.00    -0.274 OA
ATOM      9  N   UNL A   1      33.251  25.603  25.424  1.00  0.00    -0.325 N 
ATOM     10  H   UNL A   1      34.200  25.583  25.166  1.00  0.00     0.169 HD
BRANCH   9  11
ATOM     11  C   UNL A   1      32.511  26.771  25.133  1.00  0.00     0.061 A 
ATOM     12  C   UNL A   1      32.526  27.765  26.122  1.00  0.00     0.028 A 
ATOM     13  C   UNL A   1      31.747  26.963  23.962  1.00  0.00     0.083 A 
ATOM     14  C   UNL A   1      31.856  28.971  25.930  1.00  0.00     0.004 A 
ATOM     15  C   UNL A   1      31.057  28.177  23.788  1.00  0.00     0.061 A 
ATOM     16  Cl  UNL A   1      31.476  25.655  22.849  1.00  0.00    -0.080 Cl
ATOM     17  C   UNL A   1      31.127  29.178  24.763  1.00  0.00     0.022 A 
ATOM     18  Cl  UNL A   1      30.050  28.493  22.415  1.00  0.00    -0.083 Cl
ENDBRANCH   9  11
ENDBRANCH   6   7
ENDBRANCH   5   6
BRANCH   5  19
ATOM     19  N   UNL A   1      32.630  22.121  24.456  1.00  0.00    -0.330 N 
ATOM     20  H   UNL A   1      32.723  22.007  23.446  1.00  0.00     0.347 HD
ATOM     21  H   UNL A   1      31.962  22.846  24.717  1.00  0.00     0.347 HD
BRANCH  19  22
ATOM     22  C   UNL A   1      32.114  20.856  25.015  1.00  0.00     0.298 C 
BRANCH  22  23
ATOM     23  C   UNL A   1      32.669  19.625  24.340  1.00  0.00     0.006 A 
ATOM     24  C   UNL A   1      33.711  18.895  24.926  1.00  0.00     0.009 A 
ATOM     25  C   UNL A   1      32.149  19.184  23.112  1.00  0.00     0.009 A 
ATOM     26  C   UNL A   1      34.211  17.748  24.311  1.00  0.00     0.001 A 
ATOM     27  C   UNL A   1      32.654  18.035  22.498  1.00  0.00     0.001 A 
ATOM     28  C   UNL A   1      33.681  17.313  23.102  1.00  0.00     0.000 A 
ENDBRANCH  22  23
ENDBRANCH  19  22
ENDBRANCH   5  19
ENDBRANCH   3   5
ENDBRANCH   2   3
ENDBRANCH   1   2
BRANCH   1  29
ATOM     29  C   UNL A   1      37.327  21.154  24.462  1.00  0.00     0.275 C 
BRANCH  29  30
ATOM     30  O   UNL A   1      37.672  21.470  25.824  1.00  0.00    -0.458 OA
BRANCH  30  31
ATOM     31  C   UNL A   1      38.989  21.332  26.122  1.00  0.00     0.338 C 
ATOM     32  O   UNL A   1      39.691  20.376  25.839  1.00  0.00    -0.246 OA
BRANCH  31  33
ATOM     33  C   UNL A   1      39.532  22.567  26.725  1.00  0.00     0.060 A 
ATOM     34  C   UNL A   1      39.004  23.787  26.287  1.00  0.00     0.016 A 
ATOM     35  C   UNL A   1      40.588  22.546  27.639  1.00  0.00     0.016 A 
ATOM     36  C   UNL A   1      39.519  24.989  26.769  1.00  0.00     0.010 A 
ATOM     37  C   UNL A   1      41.128  23.755  28.097  1.00  0.00     0.010 A 
ATOM     38  C   UNL A   1      40.604  24.981  27.655  1.00  0.00    -0.014 A 
BRANCH  38  39
ATOM     39  C   UNL A   1      41.231  26.269  28.032  1.00  0.00     0.031 A 
ATOM     40  C   UNL A   1      42.636  26.563  27.596  1.00  0.00     0.074 A 
ATOM     41  C   UNL A   1      40.531  27.186  28.724  1.00  0.00     0.049 A 
ATOM     42  N   UNL A   1      43.350  27.642  27.785  1.00  0.00    -0.248 NA
ATOM     43  C   UNL A   1      43.331  25.501  26.851  1.00  0.00     0.031 C 
ATOM     44  C   UNL A   1      39.163  27.005  29.203  1.00  0.00     0.029 A 
ATOM     45  N   UNL A   1      40.869  28.447  29.143  1.00  0.00    -0.354 N 
ATOM     46  C   UNL A   1      44.586  27.382  27.206  1.00  0.00     0.074 A 
ATOM     47  C   UNL A   1      44.525  26.044  26.657  1.00  0.00     0.031 C 
ATOM     48  C   UNL A   1      38.770  28.121  29.839  1.00  0.00     0.029 A 
ATOM     49  C   UNL A   1      39.870  29.083  29.842  1.00  0.00     0.049 A 
ATOM     50  H   UNL A   1      41.746  28.857  28.962  1.00  0.00     0.167 HD
ATOM     51  C   UNL A   1      45.671  28.190  27.135  1.00  0.00     0.034 A 
ATOM     52  C   UNL A   1      39.852  30.299  30.424  1.00  0.00     0.034 A 
ATOM     53  C   UNL A   1      45.727  29.520  27.676  1.00  0.00     0.049 A 
ATOM     54  C   UNL A   1      41.075  31.174  30.327  1.00  0.00     0.074 A 
ATOM     55  C   UNL A   1      46.782  30.416  27.654  1.00  0.00     0.029 A 
ATOM     56  N   UNL A   1      44.685  30.147  28.342  1.00  0.00    -0.354 N 
ATOM     57  N   UNL A   1      42.201  30.953  29.692  1.00  0.00    -0.248 NA
ATOM     58  C   UNL A   1      41.017  32.476  31.008  1.00  0.00     0.031 C 
ATOM     59  C   UNL A   1      46.382  31.580  28.318  1.00  0.00     0.029 A 
ATOM     60  C   UNL A   1      45.071  31.416  28.739  1.00  0.00     0.049 A 
ATOM     61  H   UNL A   1      43.801  29.748  28.510  1.00  0.00     0.167 HD
ATOM     62  C   UNL A   1      42.975  32.093  29.877  1.00  0.00     0.074 A 
ATOM     63  C   UNL A   1      42.176  33.017  30.656  1.00  0.00     0.031 C 
ATOM     64  C   UNL A   1      44.241  32.345  29.461  1.00  0.00     0.034 A 
BRANCH  51  65
ATOM     65  C   UNL A   1      46.886  27.656  26.424  1.00  0.00     0.023 A 
ATOM     66  C   UNL A   1      47.078  27.953  25.060  1.00  0.00     0.012 A 
ATOM     67  C   UNL A   1      47.856  26.903  27.112  1.00  0.00     0.148 A 
ATOM     68  C   UNL A   1      48.205  27.487  24.385  1.00  0.00     0.002 A 
ATOM     69  C   UNL A   1      48.995  26.473  26.443  1.00  0.00     0.091 A 
ATOM     70  F   UNL A   1      47.641  26.610  28.403  1.00  0.00    -0.205 F 
ATOM     71  C   UNL A   1      49.167  26.757  25.078  1.00  0.00     0.022 A 
BRANCH  69  72
ATOM     72  S   UNL A   1      50.320  25.580  27.265  1.00  0.00     0.127 S 
ATOM     73  O   UNL A   1      49.661  24.322  27.609  1.00  0.00    -0.237 OA
ATOM     74  O   UNL A   1      51.324  25.471  26.205  1.00  0.00    -0.237 OA
ATOM     75  O   UNL A   1      50.721  26.407  28.393  1.00  0.00    -0.744 OA
ENDBRANCH  69  72
ENDBRANCH  51  65
BRANCH  52  76
ATOM     76  C   UNL A   1      38.622  30.783  31.116  1.00  0.00     0.023 A 
ATOM     77  C   UNL A   1      38.505  30.623  32.511  1.00  0.00     0.012 A 
ATOM     78  C   UNL A   1      37.577  31.405  30.408  1.00  0.00     0.148 A 
ATOM     79  C   UNL A   1      37.357  31.048  33.183  1.00  0.00     0.002 A 
ATOM     80  C   UNL A   1      36.462  31.878  31.092  1.00  0.00     0.091 A 
ATOM     81  F   UNL A   1      37.689  31.525  29.078  1.00  0.00    -0.205 F 
ATOM     82  C   UNL A   1      36.342  31.686  32.477  1.00  0.00     0.022 A 
BRANCH  80  83
ATOM     83  S   UNL A   1      35.178  32.831  30.271  1.00  0.00     0.127 S 
ATOM     84  O   UNL A   1      34.245  33.084  31.366  1.00  0.00    -0.237 OA
ATOM     85  O   UNL A   1      35.915  34.006  29.806  1.00  0.00    -0.237 OA
ATOM     86  O   UNL A   1      34.690  31.973  29.200  1.00  0.00    -0.744 OA
ENDBRANCH  80  83
ENDBRANCH  52  76
BRANCH  64  87
ATOM     87  C   UNL A   1      44.839  33.681  29.819  1.00  0.00     0.023 A 
ATOM     88  C   UNL A   1      45.630  33.802  30.979  1.00  0.00     0.012 A 
ATOM     89  C   UNL A   1      44.680  34.795  28.970  1.00  0.00     0.148 A 
ATOM     90  C   UNL A   1      46.229  35.019  31.305  1.00  0.00     0.002 A 
ATOM     91  C   UNL A   1      45.316  35.992  29.279  1.00  0.00     0.091 A 
ATOM     92  F   UNL A   1      43.907  34.666  27.883  1.00  0.00    -0.205 F 
ATOM     93  C   UNL A   1      46.083  36.109  30.449  1.00  0.00     0.022 A 
BRANCH  91  94
ATOM     94  S   UNL A   1      45.253  37.416  28.185  1.00  0.00     0.127 S 
ATOM     95  O   UNL A   1      45.829  36.875  26.956  1.00  0.00    -0.237 OA
ATOM     96  O   UNL A   1      43.817  37.694  28.114  1.00  0.00    -0.237 OA
ATOM     97  O   UNL A   1      46.033  38.456  28.843  1.00  0.00    -0.744 OA
ENDBRANCH  91  94
ENDBRANCH  64  87
ENDBRANCH  38  39
ENDBRANCH  31  33
ENDBRANCH  30  31
ENDBRANCH  29  30
ENDBRANCH   1  29
TORSDOF 20
ENDMDL
MODEL 2
REMARK VINA RESULT:     -11.0      4.754     10.440
REMARK SMILES O=C(C[C@@H]([NH2+]Cc1ccccc1)C(=O)OCCOC(=O)c1ccc(-c2c3nc(c(-c4cccc(S(=O)(=O)[O-])c4F)c4ccc([nH]4)c(-c4cccc(S(=O)(=O)[O-])c4F)c4nc(c(-c5cccc(S(=O)(=O)[O-])c5F)c5ccc2[nH]5)C=C4)C=C3)cc1)Nc1cccc(Cl)c1Cl
REMARK SMILES IDX 16 1 15 2 13 3 14 4 4 5 3 6 2 7 1 8 84 9 85 11 86 12 91 13
REMARK SMILES IDX 87 14 89 15 92 16 88 17 90 18 5 19 6 22 7 23 8 24 12 25 9 26
REMARK SMILES IDX 11 27 10 28 17 29 18 30 19 31 20 32 21 33 22 34 83 35 23 36
REMARK SMILES IDX 82 37 24 38 25 39 26 40 76 41 27 42 81 43 75 44 77 45 28 46
REMARK SMILES IDX 80 47 74 48 73 49 29 51 61 52 41 53 60 54 42 55 45 56 59 57
REMARK SMILES IDX 78 58 43 59 44 60 58 62 79 63 46 64 30 65 31 66 39 67 32 68
REMARK SMILES IDX 34 69 40 70 33 71 35 72 36 73 37 74 38 75 62 76 63 77 71 78
REMARK SMILES IDX 64 79 66 80 72 81 65 82 67 83 68 84 69 85 70 86 47 87 48 88
REMARK SMILES IDX 56 89 49 90 51 91 57 92 50 93 52 94 53 95 54 96 55 97
REMARK H PARENT 84 10 5 20 5 21 77 50 45 61
REMARK Flexibility Score: inf
ROOT
ATOM      1  C   UNL A   1      31.805  30.548  26.404  1.00  0.00     0.274 C 
ENDROOT
BRANCH   1   2
ATOM      2  O   UNL A   1      31.897  29.142  26.708  1.00  0.00    -0.458 OA
BRANCH   2   3
ATOM      3  C   UNL A   1      32.499  28.385  25.748  1.00  0.00     0.365 C 
ATOM      4  O   UNL A   1      33.668  28.544  25.413  1.00  0.00    -0.245 OA
BRANCH   3   5
ATOM      5  C   UNL A   1      31.579  27.311  25.128  1.00  0.00     0.303 C 
BRANCH   5   6
ATOM      6  C   UNL A   1      30.897  26.458  26.211  1.00  0.00     0.177 C 
BRANCH   6   7
ATOM      7  C   UNL A   1      31.487  25.068  26.277  1.00  0.00     0.231 C 
ATOM      8  O   UNL A   1      31.512  24.424  27.321  1.00  0.00    -0.274 OA
ATOM      9  N   UNL A   1      32.079  24.682  25.085  1.00  0.00    -0.325 N 
ATOM     10  H   UNL A   1      32.087  25.329  24.343  1.00  0.00     0.169 HD
BRANCH   9  11
ATOM     11  C   UNL A   1      32.673  23.419  24.869  1.00  0.00     0.061 A 
ATOM     12  C   UNL A   1      31.786  22.365  24.606  1.00  0.00     0.028 A 
ATOM     13  C   UNL A   1      34.058  23.163  24.948  1.00  0.00     0.083 A 
ATOM     14  C   UNL A   1      32.263  21.081  24.348  1.00  0.00     0.004 A 
ATOM     15  C   UNL A   1      34.527  21.859  24.707  1.00  0.00     0.061 A 
ATOM     16  Cl  UNL A   1      35.157  24.373  25.544  1.00  0.00    -0.080 Cl
ATOM     17  C   UNL A   1      33.632  20.830  24.394  1.00  0.00     0.022 A 
ATOM     18  Cl  UNL A   1      36.200  21.426  24.830  1.00  0.00    -0.083 Cl
ENDBRANCH   9  11
ENDBRANCH   6   7
ENDBRANCH   5   6
BRANCH   5  19
ATOM     19  N   UNL A   1      30.544  27.872  24.199  1.00  0.00    -0.330 N 
ATOM     20  H   UNL A   1      29.718  28.111  24.749  1.00  0.00     0.347 HD
ATOM     21  H   UNL A   1      30.364  27.152  23.499  1.00  0.00     0.347 HD
BRANCH  19  22
ATOM     22  C   UNL A   1      30.967  29.076  23.458  1.00  0.00     0.298 C 
BRANCH  22  23
ATOM     23  C   UNL A   1      29.817  29.949  23.015  1.00  0.00     0.006 A 
ATOM     24  C   UNL A   1      29.178  29.725  21.789  1.00  0.00     0.009 A 
ATOM     25  C   UNL A   1      29.361  31.002  23.826  1.00  0.00     0.009 A 
ATOM     26  C   UNL A   1      28.104  30.519  21.389  1.00  0.00     0.001 A 
ATOM     27  C   UNL A   1      28.286  31.797  23.421  1.00  0.00     0.001 A 
ATOM     28  C   UNL A   1      27.653  31.550  22.204  1.00  0.00     0.000 A 
ENDBRANCH  22  23
ENDBRANCH  19  22
ENDBRANCH   5  19
ENDBRANCH   3   5
ENDBRANCH   2   3
ENDBRANCH   1   2
BRANCH   1  29
ATOM     29  C   UNL A   1      32.816  31.395  27.189  1.00  0.00     0.275 C 
BRANCH  29  30
ATOM     30  O   UNL A   1      32.599  32.812  27.051  1.00  0.00    -0.458 OA
BRANCH  30  31
ATOM     31  C   UNL A   1      33.299  33.581  27.922  1.00  0.00     0.338 C 
ATOM     32  O   UNL A   1      32.931  34.644  28.395  1.00  0.00    -0.246 OA
BRANCH  31  33
ATOM     33  C   UNL A   1      34.537  32.903  28.357  1.00  0.00     0.060 A 
ATOM     34  C   UNL A   1      34.406  31.801  29.210  1.00  0.00     0.016 A 
ATOM     35  C   UNL A   1      35.805  33.374  28.009  1.00  0.00     0.016 A 
ATOM     36  C   UNL A   1      35.538  31.159  29.707  1.00  0.00     0.010 A 
ATOM     37  C   UNL A   1      36.943  32.749  28.536  1.00  0.00     0.010 A 
ATOM     38  C   UNL A   1      36.813  31.646  29.397  1.00  0.00    -0.014 A 
BRANCH  38  39
ATOM     39  C   UNL A   1      37.993  31.042  30.060  1.00  0.00     0.031 A 
ATOM     40  C   UNL A   1      38.327  31.430  31.470  1.00  0.00     0.074 A 
ATOM     41  C   UNL A   1      38.732  30.120  29.417  1.00  0.00     0.049 A 
ATOM     42  N   UNL A   1      39.288  30.990  32.241  1.00  0.00    -0.248 NA
ATOM     43  C   UNL A   1      37.472  32.452  32.094  1.00  0.00     0.031 C 
ATOM     44  C   UNL A   1      38.501  29.673  28.046  1.00  0.00     0.029 A 
ATOM     45  N   UNL A   1      39.822  29.397  29.827  1.00  0.00    -0.354 N 
ATOM     46  C   UNL A   1      39.169  31.695  33.431  1.00  0.00     0.074 A 
ATOM     47  C   UNL A   1      38.042  32.593  33.283  1.00  0.00     0.031 C 
ATOM     48  C   UNL A   1      39.412  28.738  27.731  1.00  0.00     0.029 A 
ATOM     49  C   UNL A   1      40.313  28.546  28.865  1.00  0.00     0.049 A 
ATOM     50  H   UNL A   1      40.217  29.481  30.725  1.00  0.00     0.167 HD
ATOM     51  C   UNL A   1      39.927  31.599  34.549  1.00  0.00     0.034 A 
ATOM     52  C   UNL A   1      41.374  27.714  28.897  1.00  0.00     0.034 A 
ATOM     53  C   UNL A   1      41.042  30.704  34.697  1.00  0.00     0.049 A 
ATOM     54  C   UNL A   1      42.199  27.630  30.155  1.00  0.00     0.074 A 
ATOM     55  C   UNL A   1      41.873  30.534  35.791  1.00  0.00     0.029 A 
ATOM     56  N   UNL A   1      41.487  29.828  33.717  1.00  0.00    -0.354 N 
ATOM     57  N   UNL A   1      42.014  28.232  31.307  1.00  0.00    -0.248 NA
ATOM     58  C   UNL A   1      43.365  26.735  30.127  1.00  0.00     0.031 C 
ATOM     59  C   UNL A   1      42.828  29.565  35.468  1.00  0.00     0.029 A 
ATOM     60  C   UNL A   1      42.582  29.117  34.179  1.00  0.00     0.049 A 
ATOM     61  H   UNL A   1      41.085  29.728  32.825  1.00  0.00     0.167 HD
ATOM     62  C   UNL A   1      43.025  27.772  32.144  1.00  0.00     0.074 A 
ATOM     63  C   UNL A   1      43.799  26.816  31.379  1.00  0.00     0.031 C 
ATOM     64  C   UNL A   1      43.303  28.126  33.424  1.00  0.00     0.034 A 
BRANCH  51  65
ATOM     65  C   UNL A   1      39.560  32.479  35.714  1.00  0.00     0.023 A 
ATOM     66  C   UNL A   1      38.811  31.942  36.779  1.00  0.00     0.012 A 
ATOM     67  C   UNL A   1      39.991  33.818  35.776  1.00  0.00     0.148 A 
ATOM     68  C   UNL A   1      38.475  32.731  37.878  1.00  0.00     0.002 A 
ATOM     69  C   UNL A   1      39.684  34.588  36.891  1.00  0.00     0.091 A 
ATOM     70  F   UNL A   1      40.681  34.316  34.740  1.00  0.00    -0.205 F 
ATOM     71  C   UNL A   1      38.920  34.049  37.939  1.00  0.00     0.022 A 
BRANCH  69  72
ATOM     72  S   UNL A   1      40.266  36.277  37.089  1.00  0.00     0.127 S 
ATOM     73  O   UNL A   1      41.702  36.076  37.272  1.00  0.00    -0.237 OA
ATOM     74  O   UNL A   1      39.894  36.884  35.810  1.00  0.00    -0.237 OA
ATOM     75  O   UNL A   1      39.557  36.812  38.241  1.00  0.00    -0.744 OA
ENDBRANCH  69  72
ENDBRANCH  51  65
BRANCH  52  76
ATOM     76  C   UNL A   1      41.697  26.861  27.716  1.00  0.00     0.023 A 
ATOM     77  C   UNL A   1      42.372  27.429  26.617  1.00  0.00     0.012 A 
ATOM     78  C   UNL A   1      41.350  25.498  27.677  1.00  0.00     0.148 A 
ATOM     79  C   UNL A   1      42.668  26.660  25.490  1.00  0.00     0.002 A 
ATOM     80  C   UNL A   1      41.701  24.725  26.576  1.00  0.00     0.091 A 
ATOM     81  F   UNL A   1      40.683  24.979  28.717  1.00  0.00    -0.205 F 
ATOM     82  C   UNL A   1      42.344  25.307  25.474  1.00  0.00     0.022 A 
BRANCH  80  83
ATOM     83  S   UNL A   1      41.439  22.947  26.542  1.00  0.00     0.127 S 
ATOM     84  O   UNL A   1      42.079  22.525  27.785  1.00  0.00    -0.237 OA
ATOM     85  O   UNL A   1      39.979  22.850  26.538  1.00  0.00    -0.237 OA
ATOM     86  O   UNL A   1      42.068  22.491  25.310  1.00  0.00    -0.744 OA
ENDBRANCH  80  83
ENDBRANCH  52  76
BRANCH  64  87
ATOM     87  C   UNL A   1      44.480  27.463  34.090  1.00  0.00     0.023 A 
ATOM     88  C   UNL A   1      45.755  28.056  34.003  1.00  0.00     0.012 A 
ATOM     89  C   UNL A   1      44.311  26.296  34.862  1.00  0.00     0.148 A 
ATOM     90  C   UNL A   1      46.850  27.482  34.648  1.00  0.00     0.002 A 
ATOM     91  C   UNL A   1      45.398  25.755  35.538  1.00  0.00     0.091 A 
ATOM     92  F   UNL A   1      43.096  25.733  34.915  1.00  0.00    -0.205 F 
ATOM     93  C   UNL A   1      46.670  26.340  35.426  1.00  0.00     0.022 A 
BRANCH  91  94
ATOM     94  S   UNL A   1      45.234  24.338  36.632  1.00  0.00     0.127 S 
ATOM     95  O   UNL A   1      46.615  24.134  37.066  1.00  0.00    -0.237 OA
ATOM     96  O   UNL A   1      44.337  24.846  37.671  1.00  0.00    -0.237 OA
ATOM     97  O   UNL A   1      44.665  23.273  35.817  1.00  0.00    -0.744 OA
ENDBRANCH  91  94
ENDBRANCH  64  87
ENDBRANCH  38  39
ENDBRANCH  31  33
ENDBRANCH  30  31
ENDBRANCH  29  30
ENDBRANCH   1  29
TORSDOF 20
ENDMDL
MODEL 3
REMARK VINA RESULT:     -11.0      4.545      9.451
REMARK SMILES O=C(C[C@@H]([NH2+]Cc1ccccc1)C(=O)OCCOC(=O)c1ccc(-c2c3nc(c(-c4cccc(S(=O)(=O)[O-])c4F)c4ccc([nH]4)c(-c4cccc(S(=O)(=O)[O-])c4F)c4nc(c(-c5cccc(S(=O)(=O)[O-])c5F)c5ccc2[nH]5)C=C4)C=C3)cc1)Nc1cccc(Cl)c1Cl
REMARK SMILES IDX 16 1 15 2 13 3 14 4 4 5 3 6 2 7 1 8 84 9 85 11 86 12 91 13
REMARK SMILES IDX 87 14 89 15 92 16 88 17 90 18 5 19 6 22 7 23 8 24 12 25 9 26
REMARK SMILES IDX 11 27 10 28 17 29 18 30 19 31 20 32 21 33 22 34 83 35 23 36
REMARK SMILES IDX 82 37 24 38 25 39 26 40 76 41 27 42 81 43 75 44 77 45 28 46
REMARK SMILES IDX 80 47 74 48 73 49 29 51 61 52 41 53 60 54 42 55 45 56 59 57
REMARK SMILES IDX 78 58 43 59 44 60 58 62 79 63 46 64 30 65 31 66 39 67 32 68
REMARK SMILES IDX 34 69 40 70 33 71 35 72 36 73 37 74 38 75 62 76 63 77 71 78
REMARK SMILES IDX 64 79 66 80 72 81 65 82 67 83 68 84 69 85 70 86 47 87 48 88
REMARK SMILES IDX 56 89 49 90 51 91 57 92 50 93 52 94 53 95 54 96 55 97
REMARK H PARENT 84 10 5 20 5 21 77 50 45 61
REMARK Flexibility Score: inf
ROOT
ATOM      1  C   UNL A   1      33.162  29.540  24.732  1.00  0.00     0.274 C 
ENDROOT
BRANCH   1   2
ATOM      2  O   UNL A   1      33.737  28.315  25.229  1.00  0.00    -0.458 OA
BRANCH   2   3
ATOM      3  C   UNL A   1      33.649  27.253  24.380  1.00  0.00     0.365 C 
ATOM      4  O   UNL A   1      33.860  27.347  23.175  1.00  0.00    -0.245 OA
BRANCH   3   5
ATOM      5  C   UNL A   1      33.264  25.927  25.072  1.00  0.00     0.303 C 
BRANCH   5   6
ATOM      6  C   UNL A   1      31.898  25.413  24.587  1.00  0.00     0.177 C 
BRANCH   6   7
ATOM      7  C   UNL A   1      30.838  26.488  24.669  1.00  0.00     0.231 C 
ATOM      8  O   UNL A   1      30.426  26.910  25.744  1.00  0.00    -0.274 OA
ATOM      9  N   UNL A   1      30.331  26.832  23.426  1.00  0.00    -0.325 N 
ATOM     10  H   UNL A   1      30.670  26.349  22.639  1.00  0.00     0.169 HD
BRANCH   9  11
ATOM     11  C   UNL A   1      29.356  27.834  23.220  1.00  0.00     0.061 A 
ATOM     12  C   UNL A   1      28.039  27.480  23.547  1.00  0.00     0.028 A 
ATOM     13  C   UNL A   1      29.623  29.109  22.677  1.00  0.00     0.083 A 
ATOM     14  C   UNL A   1      27.001  28.400  23.412  1.00  0.00     0.004 A 
ATOM     15  C   UNL A   1      28.563  30.022  22.525  1.00  0.00     0.061 A 
ATOM     16  Cl  UNL A   1      31.181  29.484  22.002  1.00  0.00    -0.080 Cl
ATOM     17  C   UNL A   1      27.264  29.670  22.907  1.00  0.00     0.022 A 
ATOM     18  Cl  UNL A   1      28.771  31.591  21.821  1.00  0.00    -0.083 Cl
ENDBRANCH   9  11
ENDBRANCH   6   7
ENDBRANCH   5   6
BRANCH   5  19
ATOM     19  N   UNL A   1      34.295  24.848  24.917  1.00  0.00    -0.330 N 
ATOM     20  H   UNL A   1      34.346  24.329  25.793  1.00  0.00     0.347 HD
ATOM     21  H   UNL A   1      35.169  25.318  24.677  1.00  0.00     0.347 HD
BRANCH  19  22
ATOM     22  C   UNL A   1      34.026  23.888  23.829  1.00  0.00     0.298 C 
BRANCH  22  23
ATOM     23  C   UNL A   1      34.247  22.448  24.225  1.00  0.00     0.006 A 
ATOM     24  C   UNL A   1      35.514  22.000  24.619  1.00  0.00     0.009 A 
ATOM     25  C   UNL A   1      33.186  21.529  24.210  1.00  0.00     0.009 A 
ATOM     26  C   UNL A   1      35.714  20.675  25.003  1.00  0.00     0.001 A 
ATOM     27  C   UNL A   1      33.389  20.200  24.593  1.00  0.00     0.001 A 
ATOM     28  C   UNL A   1      34.654  19.776  24.996  1.00  0.00     0.000 A 
ENDBRANCH  22  23
ENDBRANCH  19  22
ENDBRANCH   5  19
ENDBRANCH   3   5
ENDBRANCH   2   3
ENDBRANCH   1   2
BRANCH   1  29
ATOM     29  C   UNL A   1      32.039  30.079  25.630  1.00  0.00     0.275 C 
BRANCH  29  30
ATOM     30  O   UNL A   1      32.437  30.234  27.005  1.00  0.00    -0.458 OA
BRANCH  30  31
ATOM     31  C   UNL A   1      33.156  31.355  27.264  1.00  0.00     0.338 C 
ATOM     32  O   UNL A   1      32.742  32.502  27.204  1.00  0.00    -0.246 OA
BRANCH  31  33
ATOM     33  C   UNL A   1      34.500  31.021  27.776  1.00  0.00     0.060 A 
ATOM     34  C   UNL A   1      34.757  29.682  28.094  1.00  0.00     0.016 A 
ATOM     35  C   UNL A   1      35.469  31.998  28.019  1.00  0.00     0.016 A 
ATOM     36  C   UNL A   1      35.984  29.313  28.643  1.00  0.00     0.010 A 
ATOM     37  C   UNL A   1      36.689  31.631  28.602  1.00  0.00     0.010 A 
ATOM     38  C   UNL A   1      36.947  30.288  28.927  1.00  0.00    -0.014 A 
BRANCH  38  39
ATOM     39  C   UNL A   1      38.178  29.893  29.650  1.00  0.00     0.031 A 
ATOM     40  C   UNL A   1      38.411  30.396  31.044  1.00  0.00     0.074 A 
ATOM     41  C   UNL A   1      39.059  29.053  29.076  1.00  0.00     0.049 A 
ATOM     42  N   UNL A   1      39.399  30.137  31.860  1.00  0.00    -0.248 NA
ATOM     43  C   UNL A   1      37.401  31.317  31.590  1.00  0.00     0.031 C 
ATOM     44  C   UNL A   1      38.935  28.508  27.727  1.00  0.00     0.029 A 
ATOM     45  N   UNL A   1      40.227  28.514  29.551  1.00  0.00    -0.354 N 
ATOM     46  C   UNL A   1      39.145  30.878  33.007  1.00  0.00     0.074 A 
ATOM     47  C   UNL A   1      37.909  31.598  32.782  1.00  0.00     0.031 C 
ATOM     48  C   UNL A   1      39.979  27.697  27.485  1.00  0.00     0.029 A 
ATOM     49  C   UNL A   1      40.862  27.693  28.649  1.00  0.00     0.049 A 
ATOM     50  H   UNL A   1      40.578  28.699  30.452  1.00  0.00     0.167 HD
ATOM     51  C   UNL A   1      39.874  30.948  34.146  1.00  0.00     0.034 A 
ATOM     52  C   UNL A   1      42.027  27.023  28.752  1.00  0.00     0.034 A 
ATOM     53  C   UNL A   1      41.099  30.228  34.369  1.00  0.00     0.049 A 
ATOM     54  C   UNL A   1      42.816  27.121  30.033  1.00  0.00     0.074 A 
ATOM     55  C   UNL A   1      41.910  30.234  35.490  1.00  0.00     0.029 A 
ATOM     56  N   UNL A   1      41.693  29.375  33.450  1.00  0.00    -0.354 N 
ATOM     57  N   UNL A   1      42.513  27.748  31.144  1.00  0.00    -0.248 NA
ATOM     58  C   UNL A   1      44.097  26.400  30.081  1.00  0.00     0.031 C 
ATOM     59  C   UNL A   1      43.002  29.395  35.244  1.00  0.00     0.029 A 
ATOM     60  C   UNL A   1      42.861  28.851  33.976  1.00  0.00     0.049 A 
ATOM     61  H   UNL A   1      41.336  29.173  32.555  1.00  0.00     0.167 HD
ATOM     62  C   UNL A   1      43.551  27.480  32.029  1.00  0.00     0.074 A 
ATOM     63  C   UNL A   1      44.475  26.606  31.336  1.00  0.00     0.031 C 
ATOM     64  C   UNL A   1      43.738  27.935  33.294  1.00  0.00     0.034 A 
BRANCH  51  65
ATOM     65  C   UNL A   1      39.351  31.825  35.251  1.00  0.00     0.023 A 
ATOM     66  C   UNL A   1      38.397  31.311  36.152  1.00  0.00     0.012 A 
ATOM     67  C   UNL A   1      39.833  33.136  35.426  1.00  0.00     0.148 A 
ATOM     68  C   UNL A   1      37.912  32.098  37.196  1.00  0.00     0.002 A 
ATOM     69  C   UNL A   1      39.372  33.902  36.490  1.00  0.00     0.091 A 
ATOM     70  F   UNL A   1      40.721  33.615  34.543  1.00  0.00    -0.205 F 
ATOM     71  C   UNL A   1      38.406  33.387  37.371  1.00  0.00     0.022 A 
BRANCH  69  72
ATOM     72  S   UNL A   1      39.995  35.552  36.836  1.00  0.00     0.127 S 
ATOM     73  O   UNL A   1      39.277  35.889  38.063  1.00  0.00    -0.237 OA
ATOM     74  O   UNL A   1      41.428  35.310  37.015  1.00  0.00    -0.237 OA
ATOM     75  O   UNL A   1      39.659  36.358  35.672  1.00  0.00    -0.744 OA
ENDBRANCH  69  72
ENDBRANCH  51  65
BRANCH  52  76
ATOM     76  C   UNL A   1      42.503  26.165  27.628  1.00  0.00     0.023 A 
ATOM     77  C   UNL A   1      43.421  26.691  26.697  1.00  0.00     0.012 A 
ATOM     78  C   UNL A   1      42.062  24.836  27.479  1.00  0.00     0.148 A 
ATOM     79  C   UNL A   1      43.868  25.918  25.624  1.00  0.00     0.002 A 
ATOM     80  C   UNL A   1      42.557  24.055  26.441  1.00  0.00     0.091 A 
ATOM     81  F   UNL A   1      41.167  24.359  28.355  1.00  0.00    -0.205 F 
ATOM     82  C   UNL A   1      43.446  24.598  25.502  1.00  0.00     0.022 A 
BRANCH  80  83
ATOM     83  S   UNL A   1      42.165  22.306  26.300  1.00  0.00     0.127 S 
ATOM     84  O   UNL A   1      40.714  22.336  26.130  1.00  0.00    -0.237 OA
ATOM     85  O   UNL A   1      42.916  21.917  25.106  1.00  0.00    -0.237 OA
ATOM     86  O   UNL A   1      42.653  21.703  27.532  1.00  0.00    -0.744 OA
ENDBRANCH  80  83
ENDBRANCH  52  76
BRANCH  64  87
ATOM     87  C   UNL A   1      44.975  27.480  34.023  1.00  0.00     0.023 A 
ATOM     88  C   UNL A   1      46.143  28.267  33.971  1.00  0.00     0.012 A 
ATOM     89  C   UNL A   1      44.959  26.317  34.817  1.00  0.00     0.148 A 
ATOM     90  C   UNL A   1      47.285  27.887  34.674  1.00  0.00     0.002 A 
ATOM     91  C   UNL A   1      46.088  25.968  35.551  1.00  0.00     0.091 A 
ATOM     92  F   UNL A   1      43.846  25.569  34.837  1.00  0.00    -0.205 F 
ATOM     93  C   UNL A   1      47.254  26.746  35.474  1.00  0.00     0.022 A 
BRANCH  91  94
ATOM     94  S   UNL A   1      46.102  24.565  36.673  1.00  0.00     0.127 S 
ATOM     95  O   UNL A   1      47.258  23.810  36.193  1.00  0.00    -0.237 OA
ATOM     96  O   UNL A   1      46.291  25.206  37.976  1.00  0.00    -0.237 OA
ATOM     97  O   UNL A   1      44.809  23.913  36.507  1.00  0.00    -0.744 OA
ENDBRANCH  91  94
ENDBRANCH  64  87
ENDBRANCH  38  39
ENDBRANCH  31  33
ENDBRANCH  30  31
ENDBRANCH  29  30
ENDBRANCH   1  29
TORSDOF 20
ENDMDL
