MODEL 1
REMARK VINA RESULT:     -14.9      0.000      0.000
REMARK SMILES O=C(OCCOC(=O)c1ccc(-c2c3nc(c(-c4cccc(S(=O)(=O)[O-])c4F)c4ccc([nH]4)c(-c4cccc(S(=O)(=O)[O-])c4F)c4nc(c(-c5cccc(S(=O)(=O)[O-])c5F)c5ccc2[nH]5)C=C4)C=C3)cc1)C1=Cc2cc(Cl)cc(-c3ccccc3)c2O[C@@H]1C(F)(F)F
REMARK SMILES IDX 5 1 4 2 3 3 2 4 1 5 72 6 73 7 88 8 74 9 87 10 75 11 86 12
REMARK SMILES IDX 76 13 79 14 77 15 78 16 89 17 90 18 91 19 92 20 80 21 81 22
REMARK SMILES IDX 85 23 82 24 84 25 83 26 6 27 7 28 8 29 9 30 10 31 71 32
REMARK SMILES IDX 11 33 70 34 12 35 13 36 14 37 64 38 15 39 69 40 63 41 65 42
REMARK SMILES IDX 16 43 68 44 62 45 61 46 17 48 49 49 29 50 48 51 30 52 33 53
REMARK SMILES IDX 47 54 66 55 31 56 32 57 46 59 67 60 34 61 18 62 19 63 27 64
REMARK SMILES IDX 20 65 22 66 28 67 21 68 23 69 24 70 25 71 26 72 50 73 51 74
REMARK SMILES IDX 59 75 52 76 54 77 60 78 53 79 55 80 56 81 57 82 58 83 35 84
REMARK SMILES IDX 36 85 44 86 37 87 39 88 45 89 38 90 40 91 41 92 42 93 43 94
REMARK H PARENT 65 47 33 58
REMARK Flexibility Score: inf
ROOT
ATOM      1  C   UNL A   1      37.363  20.122  24.964  1.00  0.00     0.275 C 
ENDROOT
BRANCH   1   2
ATOM      2  C   UNL A   1      35.528  21.271  24.967  1.00  0.00     0.275 C 
BRANCH   2   3
ATOM      3  O   UNL A   1      35.405  22.820  24.943  1.00  0.00    -0.459 OA
BRANCH   3   4
ATOM      4  C   UNL A   1      34.356  23.255  24.231  1.00  0.00     0.338 C 
ATOM      5  O   UNL A   1      34.291  23.542  23.065  1.00  0.00    -0.246 OA
BRANCH   4   6
ATOM      6  C   UNL A   1      33.568  23.625  25.383  1.00  0.00     0.087 C 
ATOM      7  C   UNL A   1      33.996  24.873  25.990  1.00  0.00     0.027 C 
ATOM      8  C   UNL A   1      31.860  23.299  24.558  1.00  0.00     0.316 C 
ATOM      9  C   UNL A   1      33.052  26.391  25.878  1.00  0.00     0.019 A 
ATOM     10  O   UNL A   1      30.858  24.949  24.341  1.00  0.00    -0.475 OA
ATOM     11  C   UNL A   1      33.685  27.515  26.337  1.00  0.00     0.032 A 
ATOM     12  C   UNL A   1      31.566  26.517  24.973  1.00  0.00     0.135 A 
ATOM     13  C   UNL A   1      33.057  28.711  26.006  1.00  0.00     0.042 A 
ATOM     14  C   UNL A   1      31.064  27.756  24.635  1.00  0.00     0.026 A 
ATOM     15  Cl  UNL A   1      33.831  30.175  26.517  1.00  0.00    -0.084 Cl
ATOM     16  C   UNL A   1      31.851  28.818  25.214  1.00  0.00     0.033 A 
BRANCH   8  17
ATOM     17  C   UNL A   1      31.653  21.920  25.349  1.00  0.00     0.430 C 
ATOM     18  F   UNL A   1      32.325  21.922  26.507  1.00  0.00    -0.167 F 
ATOM     19  F   UNL A   1      30.347  21.824  25.751  1.00  0.00    -0.167 F 
ATOM     20  F   UNL A   1      31.822  20.770  24.680  1.00  0.00    -0.167 F 
ENDBRANCH   8  17
BRANCH  14  21
ATOM     21  C   UNL A   1      30.008  28.159  23.717  1.00  0.00    -0.015 A 
ATOM     22  C   UNL A   1      30.222  29.279  22.881  1.00  0.00     0.009 A 
ATOM     23  C   UNL A   1      28.712  27.649  23.815  1.00  0.00     0.009 A 
ATOM     24  C   UNL A   1      29.174  29.879  22.182  1.00  0.00     0.001 A 
ATOM     25  C   UNL A   1      27.661  28.250  23.114  1.00  0.00     0.001 A 
ATOM     26  C   UNL A   1      27.889  29.365  22.304  1.00  0.00     0.000 A 
ENDBRANCH  14  21
ENDBRANCH   4   6
ENDBRANCH   3   4
ENDBRANCH   2   3
ENDBRANCH   1   2
BRANCH   1  27
ATOM     27  O   UNL A   1      38.947  20.765  25.332  1.00  0.00    -0.458 OA
BRANCH  27  28
ATOM     28  C   UNL A   1      39.997  20.708  26.223  1.00  0.00     0.338 C 
ATOM     29  O   UNL A   1      40.964  19.968  26.227  1.00  0.00    -0.246 OA
BRANCH  28  30
ATOM     30  C   UNL A   1      39.991  22.012  26.981  1.00  0.00     0.060 A 
ATOM     31  C   UNL A   1      41.003  22.243  27.933  1.00  0.00     0.016 A 
ATOM     32  C   UNL A   1      39.272  23.097  26.480  1.00  0.00     0.016 A 
ATOM     33  C   UNL A   1      41.466  23.559  28.164  1.00  0.00     0.010 A 
ATOM     34  C   UNL A   1      39.727  24.401  26.726  1.00  0.00     0.010 A 
ATOM     35  C   UNL A   1      40.884  24.642  27.490  1.00  0.00    -0.014 A 
BRANCH  35  36
ATOM     36  C   UNL A   1      41.327  26.053  27.706  1.00  0.00     0.031 A 
ATOM     37  C   UNL A   1      42.706  26.388  27.220  1.00  0.00     0.074 A 
ATOM     38  C   UNL A   1      40.624  26.977  28.404  1.00  0.00     0.049 A 
ATOM     39  N   UNL A   1      43.401  27.481  27.372  1.00  0.00    -0.248 NA
ATOM     40  C   UNL A   1      43.403  25.317  26.489  1.00  0.00     0.031 C 
ATOM     41  C   UNL A   1      39.287  26.800  28.967  1.00  0.00     0.029 A 
ATOM     42  N   UNL A   1      40.968  28.258  28.795  1.00  0.00    -0.354 N 
ATOM     43  C   UNL A   1      44.630  27.216  26.786  1.00  0.00     0.074 A 
ATOM     44  C   UNL A   1      44.594  25.855  26.302  1.00  0.00     0.031 C 
ATOM     45  C   UNL A   1      38.938  27.909  29.653  1.00  0.00     0.029 A 
ATOM     46  C   UNL A   1      40.029  28.879  29.599  1.00  0.00     0.049 A 
ATOM     47  H   UNL A   1      41.810  28.691  28.525  1.00  0.00     0.167 HD
ATOM     48  C   UNL A   1      45.698  28.030  26.643  1.00  0.00     0.034 A 
ATOM     49  C   UNL A   1      40.057  30.082  30.222  1.00  0.00     0.034 A 
ATOM     50  C   UNL A   1      45.754  29.378  27.124  1.00  0.00     0.049 A 
ATOM     51  C   UNL A   1      41.275  30.972  30.054  1.00  0.00     0.074 A 
ATOM     52  C   UNL A   1      46.779  30.293  26.985  1.00  0.00     0.029 A 
ATOM     53  N   UNL A   1      44.755  29.994  27.857  1.00  0.00    -0.354 N 
ATOM     54  N   UNL A   1      42.361  30.768  29.347  1.00  0.00    -0.248 NA
ATOM     55  C   UNL A   1      41.258  32.276  30.743  1.00  0.00     0.031 C 
ATOM     56  C   UNL A   1      46.412  31.459  27.663  1.00  0.00     0.029 A 
ATOM     57  C   UNL A   1      45.142  31.278  28.189  1.00  0.00     0.049 A 
ATOM     58  H   UNL A   1      43.896  29.580  28.105  1.00  0.00     0.167 HD
ATOM     59  C   UNL A   1      43.126  31.927  29.468  1.00  0.00     0.074 A 
ATOM     60  C   UNL A   1      42.373  32.840  30.299  1.00  0.00     0.031 C 
ATOM     61  C   UNL A   1      44.349  32.205  28.952  1.00  0.00     0.034 A 
BRANCH  48  62
ATOM     62  C   UNL A   1      46.882  27.463  25.919  1.00  0.00     0.023 A 
ATOM     63  C   UNL A   1      47.793  26.642  26.614  1.00  0.00     0.012 A 
ATOM     64  C   UNL A   1      47.102  27.759  24.562  1.00  0.00     0.148 A 
ATOM     65  C   UNL A   1      48.933  26.158  25.980  1.00  0.00     0.002 A 
ATOM     66  C   UNL A   1      48.215  27.230  23.923  1.00  0.00     0.091 A 
ATOM     67  F   UNL A   1      46.236  28.566  23.933  1.00  0.00    -0.205 F 
ATOM     68  C   UNL A   1      49.140  26.445  24.633  1.00  0.00     0.022 A 
BRANCH  66  69
ATOM     69  S   UNL A   1      48.538  27.481  22.176  1.00  0.00     0.127 S 
ATOM     70  O   UNL A   1      49.795  28.228  22.213  1.00  0.00    -0.237 OA
ATOM     71  O   UNL A   1      48.658  26.107  21.692  1.00  0.00    -0.237 OA
ATOM     72  O   UNL A   1      47.396  28.219  21.654  1.00  0.00    -0.744 OA
ENDBRANCH  66  69
ENDBRANCH  48  62
BRANCH  49  73
ATOM     73  C   UNL A   1      38.903  30.580  31.046  1.00  0.00     0.023 A 
ATOM     74  C   UNL A   1      38.822  30.219  32.410  1.00  0.00     0.012 A 
ATOM     75  C   UNL A   1      37.842  31.317  30.482  1.00  0.00     0.148 A 
ATOM     76  C   UNL A   1      37.691  30.526  33.173  1.00  0.00     0.002 A 
ATOM     77  C   UNL A   1      36.741  31.667  31.264  1.00  0.00     0.091 A 
ATOM     78  F   UNL A   1      37.912  31.637  29.182  1.00  0.00    -0.205 F 
ATOM     79  C   UNL A   1      36.653  31.254  32.601  1.00  0.00     0.022 A 
BRANCH  77  80
ATOM     80  S   UNL A   1      35.389  32.681  30.645  1.00  0.00     0.127 S 
ATOM     81  O   UNL A   1      36.062  33.949  30.373  1.00  0.00    -0.237 OA
ATOM     82  O   UNL A   1      34.975  31.939  29.454  1.00  0.00    -0.237 OA
ATOM     83  O   UNL A   1      34.398  32.709  31.712  1.00  0.00    -0.744 OA
ENDBRANCH  77  80
ENDBRANCH  49  73
BRANCH  61  84
ATOM     84  C   UNL A   1      44.945  33.567  29.208  1.00  0.00     0.023 A 
ATOM     85  C   UNL A   1      45.770  33.779  30.329  1.00  0.00     0.012 A 
ATOM     86  C   UNL A   1      44.789  34.599  28.259  1.00  0.00     0.148 A 
ATOM     87  C   UNL A   1      46.410  35.005  30.514  1.00  0.00     0.002 A 
ATOM     88  C   UNL A   1      45.473  35.797  28.422  1.00  0.00     0.091 A 
ATOM     89  F   UNL A   1      43.988  34.382  27.205  1.00  0.00    -0.205 F 
ATOM     90  C   UNL A   1      46.275  36.006  29.555  1.00  0.00     0.022 A 
BRANCH  88  91
ATOM     91  S   UNL A   1      45.451  37.095  27.181  1.00  0.00     0.127 S 
ATOM     92  O   UNL A   1      46.146  38.179  27.872  1.00  0.00    -0.237 OA
ATOM     93  O   UNL A   1      46.207  36.489  26.084  1.00  0.00    -0.237 OA
ATOM     94  O   UNL A   1      44.048  37.345  26.881  1.00  0.00    -0.744 OA
ENDBRANCH  88  91
ENDBRANCH  61  84
ENDBRANCH  35  36
ENDBRANCH  28  30
ENDBRANCH  27  28
ENDBRANCH   1  27
TORSDOF 16
ENDMDL
MODEL 2
REMARK VINA RESULT:     -14.8      5.255     10.692
REMARK SMILES O=C(OCCOC(=O)c1ccc(-c2c3nc(c(-c4cccc(S(=O)(=O)[O-])c4F)c4ccc([nH]4)c(-c4cccc(S(=O)(=O)[O-])c4F)c4nc(c(-c5cccc(S(=O)(=O)[O-])c5F)c5ccc2[nH]5)C=C4)C=C3)cc1)C1=Cc2cc(Cl)cc(-c3ccccc3)c2O[C@@H]1C(F)(F)F
REMARK SMILES IDX 5 1 4 2 3 3 2 4 1 5 72 6 73 7 88 8 74 9 87 10 75 11 86 12
REMARK SMILES IDX 76 13 79 14 77 15 78 16 89 17 90 18 91 19 92 20 80 21 81 22
REMARK SMILES IDX 85 23 82 24 84 25 83 26 6 27 7 28 8 29 9 30 10 31 71 32
REMARK SMILES IDX 11 33 70 34 12 35 13 36 14 37 64 38 15 39 69 40 63 41 65 42
REMARK SMILES IDX 16 43 68 44 62 45 61 46 17 48 49 49 29 50 48 51 30 52 33 53
REMARK SMILES IDX 47 54 66 55 31 56 32 57 46 59 67 60 34 61 18 62 19 63 27 64
REMARK SMILES IDX 20 65 22 66 28 67 21 68 23 69 24 70 25 71 26 72 50 73 51 74
REMARK SMILES IDX 59 75 52 76 54 77 60 78 53 79 55 80 56 81 57 82 58 83 35 84
REMARK SMILES IDX 36 85 44 86 37 87 39 88 45 89 38 90 40 91 41 92 42 93 43 94
REMARK H PARENT 65 47 33 58
REMARK Flexibility Score: inf
ROOT
ATOM      1  C   UNL A   1      31.790  29.589  26.207  1.00  0.00     0.275 C 
ENDROOT
BRANCH   1   2
ATOM      2  C   UNL A   1      31.435  27.471  26.476  1.00  0.00     0.275 C 
BRANCH   2   3
ATOM      3  O   UNL A   1      32.514  26.366  26.652  1.00  0.00    -0.459 OA
BRANCH   3   4
ATOM      4  C   UNL A   1      32.043  25.130  26.437  1.00  0.00     0.338 C 
ATOM      5  O   UNL A   1      31.561  24.349  27.215  1.00  0.00    -0.246 OA
BRANCH   4   6
ATOM      6  C   UNL A   1      32.687  24.972  25.154  1.00  0.00     0.087 C 
ATOM      7  C   UNL A   1      34.127  24.808  25.256  1.00  0.00     0.027 C 
ATOM      8  C   UNL A   1      31.449  23.664  24.477  1.00  0.00     0.316 C 
ATOM      9  C   UNL A   1      34.960  23.252  24.949  1.00  0.00     0.019 A 
ATOM     10  O   UNL A   1      32.312  21.942  24.226  1.00  0.00    -0.475 OA
ATOM     11  C   UNL A   1      36.290  23.221  25.273  1.00  0.00     0.032 A 
ATOM     12  C   UNL A   1      34.106  21.781  24.563  1.00  0.00     0.135 A 
ATOM     13  C   UNL A   1      36.856  21.950  25.281  1.00  0.00     0.042 A 
ATOM     14  C   UNL A   1      34.742  20.563  24.671  1.00  0.00     0.026 A 
ATOM     15  Cl  UNL A   1      38.526  21.833  25.729  1.00  0.00    -0.084 Cl
ATOM     16  C   UNL A   1      36.136  20.725  25.008  1.00  0.00     0.033 A 
BRANCH   8  17
ATOM     17  C   UNL A   1      30.713  24.733  23.536  1.00  0.00     0.430 C 
ATOM     18  F   UNL A   1      31.562  25.254  22.642  1.00  0.00    -0.167 F 
ATOM     19  F   UNL A   1      29.797  24.085  22.750  1.00  0.00    -0.167 F 
ATOM     20  F   UNL A   1      29.960  25.680  24.115  1.00  0.00    -0.167 F 
ENDBRANCH   8  17
BRANCH  14  21
ATOM     21  C   UNL A   1      34.238  19.197  24.643  1.00  0.00    -0.015 A 
ATOM     22  C   UNL A   1      32.905  18.955  25.049  1.00  0.00     0.009 A 
ATOM     23  C   UNL A   1      35.086  18.101  24.482  1.00  0.00     0.009 A 
ATOM     24  C   UNL A   1      32.443  17.663  25.303  1.00  0.00     0.001 A 
ATOM     25  C   UNL A   1      34.623  16.805  24.737  1.00  0.00     0.001 A 
ATOM     26  C   UNL A   1      33.308  16.586  25.152  1.00  0.00     0.000 A 
ENDBRANCH  14  21
ENDBRANCH   4   6
ENDBRANCH   3   4
ENDBRANCH   2   3
ENDBRANCH   1   2
BRANCH   1  27
ATOM     27  O   UNL A   1      32.573  30.629  27.375  1.00  0.00    -0.458 OA
BRANCH  27  28
ATOM     28  C   UNL A   1      33.423  31.704  27.521  1.00  0.00     0.338 C 
ATOM     29  O   UNL A   1      33.167  32.848  27.853  1.00  0.00    -0.246 OA
BRANCH  28  30
ATOM     30  C   UNL A   1      34.819  31.141  27.621  1.00  0.00     0.060 A 
ATOM     31  C   UNL A   1      35.872  32.009  27.971  1.00  0.00     0.016 A 
ATOM     32  C   UNL A   1      34.999  29.766  27.763  1.00  0.00     0.016 A 
ATOM     33  C   UNL A   1      36.974  31.518  28.708  1.00  0.00     0.010 A 
ATOM     34  C   UNL A   1      36.103  29.284  28.481  1.00  0.00     0.010 A 
ATOM     35  C   UNL A   1      37.051  30.159  29.044  1.00  0.00    -0.014 A 
BRANCH  35  36
ATOM     36  C   UNL A   1      38.198  29.585  29.811  1.00  0.00     0.031 A 
ATOM     37  C   UNL A   1      38.379  30.105  31.206  1.00  0.00     0.074 A 
ATOM     38  C   UNL A   1      39.125  28.746  29.288  1.00  0.00     0.049 A 
ATOM     39  N   UNL A   1      39.342  29.888  32.059  1.00  0.00    -0.248 NA
ATOM     40  C   UNL A   1      37.335  31.027  31.684  1.00  0.00     0.031 C 
ATOM     41  C   UNL A   1      39.110  28.175  27.943  1.00  0.00     0.029 A 
ATOM     42  N   UNL A   1      40.297  28.254  29.831  1.00  0.00    -0.354 N 
ATOM     43  C   UNL A   1      39.037  30.674  33.160  1.00  0.00     0.074 A 
ATOM     44  C   UNL A   1      37.819  31.391  32.857  1.00  0.00     0.031 C 
ATOM     45  C   UNL A   1      40.228  27.442  27.753  1.00  0.00     0.029 A 
ATOM     46  C   UNL A   1      41.056  27.497  28.956  1.00  0.00     0.049 A 
ATOM     47  H   UNL A   1      40.570  28.428  30.761  1.00  0.00     0.167 HD
ATOM     48  C   UNL A   1      39.697  30.787  34.333  1.00  0.00     0.034 A 
ATOM     49  C   UNL A   1      42.276  26.929  29.108  1.00  0.00     0.034 A 
ATOM     50  C   UNL A   1      40.909  30.092  34.647  1.00  0.00     0.049 A 
ATOM     51  C   UNL A   1      43.001  27.082  30.434  1.00  0.00     0.074 A 
ATOM     52  C   UNL A   1      41.624  30.111  35.829  1.00  0.00     0.029 A 
ATOM     53  N   UNL A   1      41.597  29.274  33.768  1.00  0.00    -0.354 N 
ATOM     54  N   UNL A   1      42.610  27.692  31.528  1.00  0.00    -0.248 NA
ATOM     55  C   UNL A   1      44.323  26.440  30.559  1.00  0.00     0.031 C 
ATOM     56  C   UNL A   1      42.766  29.326  35.655  1.00  0.00     0.029 A 
ATOM     57  C   UNL A   1      42.738  28.789  34.377  1.00  0.00     0.049 A 
ATOM     58  H   UNL A   1      41.315  29.069  32.847  1.00  0.00     0.167 HD
ATOM     59  C   UNL A   1      43.608  27.467  32.475  1.00  0.00     0.074 A 
ATOM     60  C   UNL A   1      44.614  26.647  31.836  1.00  0.00     0.031 C 
ATOM     61  C   UNL A   1      43.693  27.911  33.753  1.00  0.00     0.034 A 
BRANCH  48  62
ATOM     62  C   UNL A   1      39.090  31.697  35.359  1.00  0.00     0.023 A 
ATOM     63  C   UNL A   1      39.185  33.094  35.191  1.00  0.00     0.012 A 
ATOM     64  C   UNL A   1      38.447  31.172  36.493  1.00  0.00     0.148 A 
ATOM     65  C   UNL A   1      38.687  33.958  36.162  1.00  0.00     0.002 A 
ATOM     66  C   UNL A   1      37.907  32.040  37.432  1.00  0.00     0.091 A 
ATOM     67  F   UNL A   1      38.397  29.841  36.643  1.00  0.00    -0.205 F 
ATOM     68  C   UNL A   1      38.041  33.431  37.278  1.00  0.00     0.022 A 
BRANCH  66  69
ATOM     69  S   UNL A   1      36.997  31.468  38.869  1.00  0.00     0.127 S 
ATOM     70  O   UNL A   1      35.867  32.397  38.892  1.00  0.00    -0.237 OA
ATOM     71  O   UNL A   1      36.656  30.100  38.483  1.00  0.00    -0.237 OA
ATOM     72  O   UNL A   1      37.910  31.578  39.998  1.00  0.00    -0.744 OA
ENDBRANCH  66  69
ENDBRANCH  48  62
BRANCH  49  73
ATOM     73  C   UNL A   1      42.922  26.120  28.020  1.00  0.00     0.023 A 
ATOM     74  C   UNL A   1      43.766  26.764  27.087  1.00  0.00     0.012 A 
ATOM     75  C   UNL A   1      42.637  24.752  27.833  1.00  0.00     0.148 A 
ATOM     76  C   UNL A   1      44.261  26.086  25.970  1.00  0.00     0.002 A 
ATOM     77  C   UNL A   1      43.177  24.067  26.744  1.00  0.00     0.091 A 
ATOM     78  F   UNL A   1      41.816  24.150  28.706  1.00  0.00    -0.205 F 
ATOM     79  C   UNL A   1      43.970  24.736  25.800  1.00  0.00     0.022 A 
BRANCH  77  80
ATOM     80  S   UNL A   1      42.935  22.303  26.484  1.00  0.00     0.127 S 
ATOM     81  O   UNL A   1      41.980  22.289  25.379  1.00  0.00    -0.237 OA
ATOM     82  O   UNL A   1      44.285  21.861  26.134  1.00  0.00    -0.237 OA
ATOM     83  O   UNL A   1      42.441  21.782  27.752  1.00  0.00    -0.744 OA
ENDBRANCH  77  80
ENDBRANCH  49  73
BRANCH  61  84
ATOM     84  C   UNL A   1      44.876  27.486  34.586  1.00  0.00     0.023 A 
ATOM     85  C   UNL A   1      46.004  28.321  34.692  1.00  0.00     0.012 A 
ATOM     86  C   UNL A   1      44.809  26.313  35.368  1.00  0.00     0.148 A 
ATOM     87  C   UNL A   1      47.057  27.984  35.543  1.00  0.00     0.002 A 
ATOM     88  C   UNL A   1      45.835  26.013  36.254  1.00  0.00     0.091 A 
ATOM     89  F   UNL A   1      43.732  25.523  35.243  1.00  0.00    -0.205 F 
ATOM     90  C   UNL A   1      46.966  26.841  36.335  1.00  0.00     0.022 A 
BRANCH  88  91
ATOM     91  S   UNL A   1      45.750  24.628  37.394  1.00  0.00     0.127 S 
ATOM     92  O   UNL A   1      45.738  23.489  36.479  1.00  0.00    -0.237 OA
ATOM     93  O   UNL A   1      46.986  24.780  38.161  1.00  0.00    -0.237 OA
ATOM     94  O   UNL A   1      44.532  24.817  38.170  1.00  0.00    -0.744 OA
ENDBRANCH  88  91
ENDBRANCH  61  84
ENDBRANCH  35  36
ENDBRANCH  28  30
ENDBRANCH  27  28
ENDBRANCH   1  27
TORSDOF 16
ENDMDL
MODEL 3
REMARK VINA RESULT:     -14.5      1.428      7.626
REMARK SMILES O=C(OCCOC(=O)c1ccc(-c2c3nc(c(-c4cccc(S(=O)(=O)[O-])c4F)c4ccc([nH]4)c(-c4cccc(S(=O)(=O)[O-])c4F)c4nc(c(-c5cccc(S(=O)(=O)[O-])c5F)c5ccc2[nH]5)C=C4)C=C3)cc1)C1=Cc2cc(Cl)cc(-c3ccccc3)c2O[C@@H]1C(F)(F)F
REMARK SMILES IDX 5 1 4 2 3 3 2 4 1 5 72 6 73 7 88 8 74 9 87 10 75 11 86 12
REMARK SMILES IDX 76 13 79 14 77 15 78 16 89 17 90 18 91 19 92 20 80 21 81 22
REMARK SMILES IDX 85 23 82 24 84 25 83 26 6 27 7 28 8 29 9 30 10 31 71 32
REMARK SMILES IDX 11 33 70 34 12 35 13 36 14 37 64 38 15 39 69 40 63 41 65 42
REMARK SMILES IDX 16 43 68 44 62 45 61 46 17 48 49 49 29 50 48 51 30 52 33 53
REMARK SMILES IDX 47 54 66 55 31 56 32 57 46 59 67 60 34 61 18 62 19 63 27 64
REMARK SMILES IDX 20 65 22 66 28 67 21 68 23 69 24 70 25 71 26 72 50 73 51 74
REMARK SMILES IDX 59 75 52 76 54 77 60 78 53 79 55 80 56 81 57 82 58 83 35 84
REMARK SMILES IDX 36 85 44 86 37 87 39 88 45 89 38 90 40 91 41 92 42 93 43 94
REMARK H PARENT 65 47 33 58
REMARK Flexibility Score: inf
ROOT
ATOM      1  C   UNL A   1      36.161  21.421  24.616  1.00  0.00     0.275 C 
ENDROOT
BRANCH   1   2
ATOM      2  C   UNL A   1      34.689  22.876  23.983  1.00  0.00     0.275 C 
BRANCH   2   3
ATOM      3  O   UNL A   1      34.909  24.406  23.819  1.00  0.00    -0.459 OA
BRANCH   3   4
ATOM      4  C   UNL A   1      33.949  25.003  23.100  1.00  0.00     0.338 C 
ATOM      5  O   UNL A   1      34.028  25.577  22.046  1.00  0.00    -0.246 OA
BRANCH   4   6
ATOM      6  C   UNL A   1      32.999  25.065  24.187  1.00  0.00     0.087 C 
ATOM      7  C   UNL A   1      33.356  26.042  25.201  1.00  0.00     0.027 C 
ATOM      8  C   UNL A   1      31.433  25.120  23.070  1.00  0.00     0.316 C 
ATOM      9  C   UNL A   1      32.476  27.586  25.426  1.00  0.00     0.019 A 
ATOM     10  O   UNL A   1      30.515  26.823  23.230  1.00  0.00    -0.475 OA
ATOM     11  C   UNL A   1      33.055  28.474  26.292  1.00  0.00     0.032 A 
ATOM     12  C   UNL A   1      31.152  28.079  24.404  1.00  0.00     0.135 A 
ATOM     13  C   UNL A   1      32.514  29.755  26.258  1.00  0.00     0.042 A 
ATOM     14  C   UNL A   1      30.736  29.393  24.394  1.00  0.00     0.026 A 
ATOM     15  Cl  UNL A   1      33.232  30.943  27.296  1.00  0.00    -0.084 Cl
ATOM     16  C   UNL A   1      31.447  30.177  25.375  1.00  0.00     0.033 A 
BRANCH   8  17
ATOM     17  C   UNL A   1      31.075  23.584  23.363  1.00  0.00     0.430 C 
ATOM     18  F   UNL A   1      30.900  23.372  24.674  1.00  0.00    -0.167 F 
ATOM     19  F   UNL A   1      29.841  23.303  22.839  1.00  0.00    -0.167 F 
ATOM     20  F   UNL A   1      31.837  22.634  22.804  1.00  0.00    -0.167 F 
ENDBRANCH   8  17
BRANCH  14  21
ATOM     21  C   UNL A   1      29.845  30.124  23.505  1.00  0.00    -0.015 A 
ATOM     22  C   UNL A   1      29.205  31.289  23.988  1.00  0.00     0.009 A 
ATOM     23  C   UNL A   1      29.402  29.582  22.297  1.00  0.00     0.009 A 
ATOM     24  C   UNL A   1      28.147  31.880  23.296  1.00  0.00     0.001 A 
ATOM     25  C   UNL A   1      28.341  30.175  21.603  1.00  0.00     0.001 A 
ATOM     26  C   UNL A   1      27.711  31.316  22.103  1.00  0.00     0.000 A 
ENDBRANCH  14  21
ENDBRANCH   4   6
ENDBRANCH   3   4
ENDBRANCH   2   3
ENDBRANCH   1   2
BRANCH   1  27
ATOM     27  O   UNL A   1      37.810  21.795  25.062  1.00  0.00    -0.458 OA
BRANCH  27  28
ATOM     28  C   UNL A   1      38.870  21.406  25.854  1.00  0.00     0.338 C 
ATOM     29  O   UNL A   1      39.620  20.456  25.721  1.00  0.00    -0.246 OA
BRANCH  28  30
ATOM     30  C   UNL A   1      39.239  22.599  26.699  1.00  0.00     0.060 A 
ATOM     31  C   UNL A   1      40.305  22.474  27.611  1.00  0.00     0.016 A 
ATOM     32  C   UNL A   1      38.824  23.872  26.312  1.00  0.00     0.016 A 
ATOM     33  C   UNL A   1      41.113  23.596  27.908  1.00  0.00     0.010 A 
ATOM     34  C   UNL A   1      39.621  24.984  26.624  1.00  0.00     0.010 A 
ATOM     35  C   UNL A   1      40.824  24.846  27.343  1.00  0.00    -0.014 A 
BRANCH  35  36
ATOM     36  C   UNL A   1      41.637  26.066  27.632  1.00  0.00     0.031 A 
ATOM     37  C   UNL A   1      40.966  27.117  28.464  1.00  0.00     0.074 A 
ATOM     38  C   UNL A   1      42.855  26.318  27.096  1.00  0.00     0.049 A 
ATOM     39  N   UNL A   1      41.369  28.319  28.775  1.00  0.00    -0.248 NA
ATOM     40  C   UNL A   1      39.635  26.765  28.988  1.00  0.00     0.031 C 
ATOM     41  C   UNL A   1      43.627  25.415  26.245  1.00  0.00     0.029 A 
ATOM     42  N   UNL A   1      43.649  27.448  27.164  1.00  0.00    -0.354 N 
ATOM     43  C   UNL A   1      40.327  28.876  29.500  1.00  0.00     0.074 A 
ATOM     44  C   UNL A   1      39.267  27.896  29.559  1.00  0.00     0.031 C 
ATOM     45  C   UNL A   1      44.759  26.031  25.845  1.00  0.00     0.029 A 
ATOM     46  C   UNL A   1      44.797  27.385  26.395  1.00  0.00     0.049 A 
ATOM     47  H   UNL A   1      43.416  28.232  27.712  1.00  0.00     0.167 HD
ATOM     48  C   UNL A   1      40.252  30.092  30.083  1.00  0.00     0.034 A 
ATOM     49  C   UNL A   1      45.754  28.314  26.158  1.00  0.00     0.034 A 
ATOM     50  C   UNL A   1      41.288  31.079  30.027  1.00  0.00     0.049 A 
ATOM     51  C   UNL A   1      45.638  29.677  26.818  1.00  0.00     0.074 A 
ATOM     52  C   UNL A   1      41.318  32.323  30.627  1.00  0.00     0.029 A 
ATOM     53  N   UNL A   1      42.465  30.945  29.310  1.00  0.00    -0.354 N 
ATOM     54  N   UNL A   1      44.723  30.124  27.644  1.00  0.00    -0.248 NA
ATOM     55  C   UNL A   1      46.707  30.655  26.538  1.00  0.00     0.031 C 
ATOM     56  C   UNL A   1      42.504  32.957  30.248  1.00  0.00     0.029 A 
ATOM     57  C   UNL A   1      43.227  32.089  29.443  1.00  0.00     0.049 A 
ATOM     58  H   UNL A   1      42.721  30.152  28.785  1.00  0.00     0.167 HD
ATOM     59  C   UNL A   1      45.129  31.404  28.016  1.00  0.00     0.074 A 
ATOM     60  C   UNL A   1      46.383  31.658  27.343  1.00  0.00     0.031 C 
ATOM     61  C   UNL A   1      44.511  32.298  28.829  1.00  0.00     0.034 A 
BRANCH  48  62
ATOM     62  C   UNL A   1      38.995  30.396  30.844  1.00  0.00     0.023 A 
ATOM     63  C   UNL A   1      38.758  29.753  32.076  1.00  0.00     0.012 A 
ATOM     64  C   UNL A   1      38.047  31.297  30.331  1.00  0.00     0.148 A 
ATOM     65  C   UNL A   1      37.570  29.969  32.767  1.00  0.00     0.002 A 
ATOM     66  C   UNL A   1      36.887  31.547  31.052  1.00  0.00     0.091 A 
ATOM     67  F   UNL A   1      38.285  31.872  29.144  1.00  0.00    -0.205 F 
ATOM     68  C   UNL A   1      36.639  30.872  32.260  1.00  0.00     0.022 A 
BRANCH  66  69
ATOM     69  S   UNL A   1      35.656  32.740  30.522  1.00  0.00     0.127 S 
ATOM     70  O   UNL A   1      34.475  32.292  31.258  1.00  0.00    -0.237 OA
ATOM     71  O   UNL A   1      36.232  33.997  31.000  1.00  0.00    -0.237 OA
ATOM     72  O   UNL A   1      35.567  32.616  29.075  1.00  0.00    -0.744 OA
ENDBRANCH  66  69
ENDBRANCH  48  62
BRANCH  49  73
ATOM     73  C   UNL A   1      46.947  28.028  25.291  1.00  0.00     0.023 A 
ATOM     74  C   UNL A   1      46.825  28.140  23.888  1.00  0.00     0.012 A 
ATOM     75  C   UNL A   1      48.163  27.554  25.824  1.00  0.00     0.148 A 
ATOM     76  C   UNL A   1      47.857  27.733  23.037  1.00  0.00     0.002 A 
ATOM     77  C   UNL A   1      49.209  27.200  24.970  1.00  0.00     0.091 A 
ATOM     78  F   UNL A   1      48.268  27.426  27.154  1.00  0.00    -0.205 F 
ATOM     79  C   UNL A   1      49.050  27.267  23.578  1.00  0.00     0.022 A 
BRANCH  77  80
ATOM     80  S   UNL A   1      50.821  26.671  25.570  1.00  0.00     0.127 S 
ATOM     81  O   UNL A   1      50.499  25.402  26.221  1.00  0.00    -0.237 OA
ATOM     82  O   UNL A   1      51.581  26.547  24.327  1.00  0.00    -0.237 OA
ATOM     83  O   UNL A   1      51.280  27.734  26.453  1.00  0.00    -0.744 OA
ENDBRANCH  77  80
ENDBRANCH  49  73
BRANCH  61  84
ATOM     84  C   UNL A   1      45.192  33.617  29.098  1.00  0.00     0.023 A 
ATOM     85  C   UNL A   1      46.145  33.723  30.128  1.00  0.00     0.012 A 
ATOM     86  C   UNL A   1      44.975  34.715  28.240  1.00  0.00     0.148 A 
ATOM     87  C   UNL A   1      46.855  34.910  30.315  1.00  0.00     0.002 A 
ATOM     88  C   UNL A   1      45.725  35.874  28.398  1.00  0.00     0.091 A 
ATOM     89  F   UNL A   1      44.053  34.598  27.274  1.00  0.00    -0.205 F 
ATOM     90  C   UNL A   1      46.657  35.977  29.442  1.00  0.00     0.022 A 
BRANCH  88  91
ATOM     91  S   UNL A   1      45.621  37.252  27.251  1.00  0.00     0.127 S 
ATOM     92  O   UNL A   1      46.192  38.341  28.042  1.00  0.00    -0.237 OA
ATOM     93  O   UNL A   1      46.461  36.798  26.143  1.00  0.00    -0.237 OA
ATOM     94  O   UNL A   1      44.210  37.396  26.919  1.00  0.00    -0.744 OA
ENDBRANCH  88  91
ENDBRANCH  61  84
ENDBRANCH  35  36
ENDBRANCH  28  30
ENDBRANCH  27  28
ENDBRANCH   1  27
TORSDOF 16
ENDMDL
