MODEL 1
REMARK VINA RESULT:     -14.5      0.000      0.000
REMARK SMILES Cc1ccc(C)c(S(=O)(=O)N[C@H](CC2=c3ccccc3=NC2)C(=O)OCCOC(=O)c2ccc(-c3c4nc(c(-c5cccc(S(=O)(=O)[O-])c5F)c5ccc([nH]5)c(-c5cccc(S(=O)(=O)[O-])c5F)c5nc(c(-c6cccc(S(=O)(=O)[O-])c6F)c6ccc3[nH]6)C=C5)C=C4)cc2)c1
REMARK SMILES IDX 26 1 25 2 23 3 24 4 12 5 11 6 8 8 9 9 10 10 7 11 1 12 2 13
REMARK SMILES IDX 3 14 94 15 4 16 5 17 6 18 13 19 14 20 15 21 22 22 16 23
REMARK SMILES IDX 20 24 21 25 17 26 19 27 18 28 27 29 28 30 29 31 30 32 31 33
REMARK SMILES IDX 32 34 93 35 33 36 92 37 34 38 35 39 36 40 86 41 37 42 91 43
REMARK SMILES IDX 85 44 87 45 38 46 90 47 84 48 83 49 39 51 71 52 51 53 70 54
REMARK SMILES IDX 52 55 55 56 69 57 88 58 53 59 54 60 68 62 89 63 56 64 40 65
REMARK SMILES IDX 41 66 49 67 42 68 44 69 50 70 43 71 45 72 46 73 47 74 48 75
REMARK SMILES IDX 72 76 73 77 81 78 74 79 76 80 82 81 75 82 77 83 78 84 79 85
REMARK SMILES IDX 80 86 57 87 58 88 66 89 59 90 61 91 67 92 60 93 62 94 63 95
REMARK SMILES IDX 64 96 65 97
REMARK H PARENT 11 7 87 50 55 61
REMARK Flexibility Score: inf
ROOT
ATOM      1  C   UNL A   1      32.657  30.175  27.200  1.00  0.00     0.274 C 
ENDROOT
BRANCH   1   2
ATOM      2  O   UNL A   1      32.168  29.209  26.263  1.00  0.00    -0.461 OA
BRANCH   2   3
ATOM      3  C   UNL A   1      31.453  28.061  26.810  1.00  0.00     0.324 C 
ATOM      4  O   UNL A   1      31.369  28.342  28.044  1.00  0.00    -0.250 OA
BRANCH   3   5
ATOM      5  C   UNL A   1      30.697  26.406  25.592  1.00  0.00     0.183 C 
BRANCH   5   6
ATOM      6  N   UNL A   1      30.064  24.878  25.957  1.00  0.00    -0.197 NA
ATOM      7  H   UNL A   1      29.247  25.068  26.537  1.00  0.00     0.142 HD
BRANCH   6   8
ATOM      8  S   UNL A   1      30.863  23.564  26.742  1.00  0.00     0.241 S 
ATOM      9  O   UNL A   1      29.845  22.738  27.352  1.00  0.00    -0.207 OA
ATOM     10  O   UNL A   1      31.879  24.214  27.549  1.00  0.00    -0.207 OA
BRANCH   8  11
ATOM     11  C   UNL A   1      31.854  22.377  25.748  1.00  0.00     0.085 A 
ATOM     12  C   UNL A   1      32.050  20.634  22.314  1.00  0.00     0.044 C 
ATOM     13  C   UNL A   1      32.336  21.050  23.731  1.00  0.00    -0.050 A 
ATOM     14  C   UNL A   1      33.375  20.384  24.387  1.00  0.00     0.004 A 
ATOM     15  C   UNL A   1      31.603  22.068  24.404  1.00  0.00     0.025 A 
ATOM     16  C   UNL A   1      33.693  20.729  25.688  1.00  0.00     0.005 A 
ATOM     17  C   UNL A   1      32.958  21.719  26.382  1.00  0.00    -0.031 A 
ATOM     18  C   UNL A   1      33.474  21.994  27.772  1.00  0.00     0.046 C 
ENDBRANCH   8  11
ENDBRANCH   6   8
ENDBRANCH   5   6
BRANCH   5  19
ATOM     19  C   UNL A   1      31.164  25.849  23.842  1.00  0.00     0.065 C 
BRANCH  19  20
ATOM     20  C   UNL A   1      32.492  25.370  23.214  1.00  0.00    -0.037 C 
ATOM     21  C   UNL A   1      33.654  25.056  23.808  1.00  0.00     0.001 A 
ATOM     22  C   UNL A   1      32.557  24.969  21.758  1.00  0.00     0.174 C 
ATOM     23  C   UNL A   1      34.253  25.225  25.096  1.00  0.00     0.010 A 
ATOM     24  C   UNL A   1      34.230  24.088  22.843  1.00  0.00     0.065 A 
ATOM     25  N   UNL A   1      33.670  23.992  21.677  1.00  0.00    -0.280 NA
ATOM     26  C   UNL A   1      35.312  24.467  25.435  1.00  0.00     0.001 A 
ATOM     27  C   UNL A   1      35.305  23.198  23.341  1.00  0.00     0.028 A 
ATOM     28  C   UNL A   1      35.790  23.398  24.578  1.00  0.00     0.002 A 
ENDBRANCH  19  20
ENDBRANCH   5  19
ENDBRANCH   3   5
ENDBRANCH   2   3
ENDBRANCH   1   2
BRANCH   1  29
ATOM     29  C   UNL A   1      34.163  30.429  27.009  1.00  0.00     0.275 C 
BRANCH  29  30
ATOM     30  O   UNL A   1      34.684  31.748  27.376  1.00  0.00    -0.458 OA
BRANCH  30  31
ATOM     31  C   UNL A   1      34.549  32.392  28.567  1.00  0.00     0.338 C 
ATOM     32  O   UNL A   1      33.744  33.285  28.785  1.00  0.00    -0.246 OA
BRANCH  31  33
ATOM     33  C   UNL A   1      35.626  32.144  29.528  1.00  0.00     0.060 A 
ATOM     34  C   UNL A   1      37.109  33.178  29.401  1.00  0.00     0.016 A 
ATOM     35  C   UNL A   1      35.782  30.459  30.153  1.00  0.00     0.016 A 
ATOM     36  C   UNL A   1      38.728  32.419  29.749  1.00  0.00     0.010 A 
ATOM     37  C   UNL A   1      37.394  29.776  30.596  1.00  0.00     0.010 A 
ATOM     38  C   UNL A   1      38.865  30.687  30.195  1.00  0.00    -0.014 A 
BRANCH  38  39
ATOM     39  C   UNL A   1      40.016  29.732  29.747  1.00  0.00     0.031 A 
ATOM     40  C   UNL A   1      40.592  29.301  31.030  1.00  0.00     0.074 A 
ATOM     41  C   UNL A   1      40.450  29.065  28.602  1.00  0.00     0.049 A 
ATOM     42  N   UNL A   1      41.378  30.054  31.729  1.00  0.00    -0.248 NA
ATOM     43  C   UNL A   1      39.966  28.213  31.797  1.00  0.00     0.031 C 
ATOM     44  C   UNL A   1      39.924  29.046  27.220  1.00  0.00     0.029 A 
ATOM     45  N   UNL A   1      41.525  28.169  28.432  1.00  0.00    -0.354 N 
ATOM     46  C   UNL A   1      41.623  29.301  32.856  1.00  0.00     0.074 A 
ATOM     47  C   UNL A   1      40.472  28.455  33.013  1.00  0.00     0.031 C 
ATOM     48  C   UNL A   1      40.505  28.062  26.465  1.00  0.00     0.029 A 
ATOM     49  C   UNL A   1      41.578  27.424  27.211  1.00  0.00     0.049 A 
ATOM     50  H   UNL A   1      42.213  28.060  29.127  1.00  0.00     0.167 HD
ATOM     51  C   UNL A   1      42.904  29.082  33.257  1.00  0.00     0.034 A 
ATOM     52  C   UNL A   1      42.499  26.478  26.784  1.00  0.00     0.034 A 
ATOM     53  C   UNL A   1      43.831  29.876  32.476  1.00  0.00     0.049 A 
ATOM     54  C   UNL A   1      43.727  26.754  27.535  1.00  0.00     0.074 A 
ATOM     55  C   UNL A   1      44.020  31.217  32.206  1.00  0.00     0.029 A 
ATOM     56  N   UNL A   1      44.417  29.182  31.450  1.00  0.00    -0.354 N 
ATOM     57  N   UNL A   1      44.445  27.822  27.382  1.00  0.00    -0.248 NA
ATOM     58  C   UNL A   1      43.934  25.990  28.745  1.00  0.00     0.031 C 
ATOM     59  C   UNL A   1      44.448  31.284  30.846  1.00  0.00     0.029 A 
ATOM     60  C   UNL A   1      44.613  29.988  30.365  1.00  0.00     0.049 A 
ATOM     61  H   UNL A   1      44.663  28.230  31.488  1.00  0.00     0.167 HD
ATOM     62  C   UNL A   1      44.751  28.160  28.684  1.00  0.00     0.074 A 
ATOM     63  C   UNL A   1      44.526  26.941  29.465  1.00  0.00     0.031 C 
ATOM     64  C   UNL A   1      44.814  29.473  29.033  1.00  0.00     0.034 A 
BRANCH  51  65
ATOM     65  C   UNL A   1      43.355  27.834  33.976  1.00  0.00     0.023 A 
ATOM     66  C   UNL A   1      43.719  26.733  33.182  1.00  0.00     0.012 A 
ATOM     67  C   UNL A   1      43.238  27.610  35.371  1.00  0.00     0.148 A 
ATOM     68  C   UNL A   1      43.994  25.484  33.750  1.00  0.00     0.002 A 
ATOM     69  C   UNL A   1      43.588  26.395  35.940  1.00  0.00     0.091 A 
ATOM     70  F   UNL A   1      42.652  28.523  36.149  1.00  0.00    -0.205 F 
ATOM     71  C   UNL A   1      43.956  25.321  35.132  1.00  0.00     0.022 A 
BRANCH  69  72
ATOM     72  S   UNL A   1      43.550  26.137  37.720  1.00  0.00     0.127 S 
ATOM     73  O   UNL A   1      44.279  27.307  38.198  1.00  0.00    -0.237 OA
ATOM     74  O   UNL A   1      42.112  26.146  37.989  1.00  0.00    -0.237 OA
ATOM     75  O   UNL A   1      44.191  24.848  37.943  1.00  0.00    -0.744 OA
ENDBRANCH  69  72
ENDBRANCH  51  65
BRANCH  52  76
ATOM     76  C   UNL A   1      42.498  25.147  26.028  1.00  0.00     0.023 A 
ATOM     77  C   UNL A   1      43.656  24.736  25.281  1.00  0.00     0.012 A 
ATOM     78  C   UNL A   1      41.595  24.130  26.366  1.00  0.00     0.148 A 
ATOM     79  C   UNL A   1      43.943  23.384  25.000  1.00  0.00     0.002 A 
ATOM     80  C   UNL A   1      41.884  22.782  26.084  1.00  0.00     0.091 A 
ATOM     81  F   UNL A   1      40.492  24.473  27.042  1.00  0.00    -0.205 F 
ATOM     82  C   UNL A   1      43.067  22.402  25.428  1.00  0.00     0.022 A 
BRANCH  80  83
ATOM     83  S   UNL A   1      40.801  21.442  26.604  1.00  0.00     0.127 S 
ATOM     84  O   UNL A   1      39.536  21.801  25.960  1.00  0.00    -0.237 OA
ATOM     85  O   UNL A   1      41.465  20.273  26.035  1.00  0.00    -0.237 OA
ATOM     86  O   UNL A   1      40.772  21.511  28.059  1.00  0.00    -0.744 OA
ENDBRANCH  80  83
ENDBRANCH  52  76
BRANCH  64  87
ATOM     87  C   UNL A   1      44.979  30.483  27.926  1.00  0.00     0.023 A 
ATOM     88  C   UNL A   1      43.914  31.018  27.170  1.00  0.00     0.012 A 
ATOM     89  C   UNL A   1      46.267  31.014  27.766  1.00  0.00     0.148 A 
ATOM     90  C   UNL A   1      44.136  32.090  26.296  1.00  0.00     0.002 A 
ATOM     91  C   UNL A   1      46.476  32.093  26.922  1.00  0.00     0.091 A 
ATOM     92  F   UNL A   1      47.259  30.471  28.485  1.00  0.00    -0.205 F 
ATOM     93  C   UNL A   1      45.413  32.640  26.188  1.00  0.00     0.022 A 
BRANCH  91  94
ATOM     94  S   UNL A   1      48.083  32.879  26.796  1.00  0.00     0.127 S 
ATOM     95  O   UNL A   1      48.263  33.422  28.141  1.00  0.00    -0.237 OA
ATOM     96  O   UNL A   1      48.952  31.749  26.468  1.00  0.00    -0.237 OA
ATOM     97  O   UNL A   1      47.968  33.877  25.739  1.00  0.00    -0.744 OA
ENDBRANCH  91  94
ENDBRANCH  64  87
ENDBRANCH  38  39
ENDBRANCH  31  33
ENDBRANCH  30  31
ENDBRANCH  29  30
ENDBRANCH   1  29
TORSDOF 19
ENDMDL
MODEL 2
REMARK VINA RESULT:     -13.3      3.060      8.922
REMARK SMILES Cc1ccc(C)c(S(=O)(=O)N[C@H](CC2=c3ccccc3=NC2)C(=O)OCCOC(=O)c2ccc(-c3c4nc(c(-c5cccc(S(=O)(=O)[O-])c5F)c5ccc([nH]5)c(-c5cccc(S(=O)(=O)[O-])c5F)c5nc(c(-c6cccc(S(=O)(=O)[O-])c6F)c6ccc3[nH]6)C=C5)C=C4)cc2)c1
REMARK SMILES IDX 26 1 25 2 23 3 24 4 12 5 11 6 8 8 9 9 10 10 7 11 1 12 2 13
REMARK SMILES IDX 3 14 94 15 4 16 5 17 6 18 13 19 14 20 15 21 22 22 16 23
REMARK SMILES IDX 20 24 21 25 17 26 19 27 18 28 27 29 28 30 29 31 30 32 31 33
REMARK SMILES IDX 32 34 93 35 33 36 92 37 34 38 35 39 36 40 86 41 37 42 91 43
REMARK SMILES IDX 85 44 87 45 38 46 90 47 84 48 83 49 39 51 71 52 51 53 70 54
REMARK SMILES IDX 52 55 55 56 69 57 88 58 53 59 54 60 68 62 89 63 56 64 40 65
REMARK SMILES IDX 41 66 49 67 42 68 44 69 50 70 43 71 45 72 46 73 47 74 48 75
REMARK SMILES IDX 72 76 73 77 81 78 74 79 76 80 82 81 75 82 77 83 78 84 79 85
REMARK SMILES IDX 80 86 57 87 58 88 66 89 59 90 61 91 67 92 60 93 62 94 63 95
REMARK SMILES IDX 64 96 65 97
REMARK H PARENT 11 7 87 50 55 61
REMARK Flexibility Score: inf
ROOT
ATOM      1  C   UNL A   1      38.414  22.623  25.923  1.00  0.00     0.274 C 
ENDROOT
BRANCH   1   2
ATOM      2  O   UNL A   1      37.789  21.896  24.860  1.00  0.00    -0.461 OA
BRANCH   2   3
ATOM      3  C   UNL A   1      36.330  21.857  24.855  1.00  0.00     0.324 C 
ATOM      4  O   UNL A   1      36.076  20.697  25.302  1.00  0.00    -0.250 OA
BRANCH   3   5
ATOM      5  C   UNL A   1      35.071  23.554  24.281  1.00  0.00     0.183 C 
BRANCH   5   6
ATOM      6  N   UNL A   1      34.550  24.173  22.793  1.00  0.00    -0.197 NA
ATOM      7  H   UNL A   1      34.903  25.130  22.773  1.00  0.00     0.142 HD
BRANCH   6   8
ATOM      8  S   UNL A   1      32.931  24.291  22.205  1.00  0.00     0.241 S 
ATOM      9  O   UNL A   1      32.222  23.108  22.643  1.00  0.00    -0.207 OA
ATOM     10  O   UNL A   1      33.099  24.579  20.794  1.00  0.00    -0.207 OA
BRANCH   8  11
ATOM     11  C   UNL A   1      31.859  25.676  22.763  1.00  0.00     0.085 A 
ATOM     12  C   UNL A   1      28.316  26.526  24.025  1.00  0.00     0.044 C 
ATOM     13  C   UNL A   1      29.742  26.647  23.560  1.00  0.00    -0.050 A 
ATOM     14  C   UNL A   1      30.255  27.940  23.429  1.00  0.00     0.004 A 
ATOM     15  C   UNL A   1      30.558  25.520  23.260  1.00  0.00     0.025 A 
ATOM     16  C   UNL A   1      31.564  28.116  23.016  1.00  0.00     0.005 A 
ATOM     17  C   UNL A   1      32.381  27.009  22.687  1.00  0.00    -0.031 A 
ATOM     18  C   UNL A   1      33.789  27.388  22.301  1.00  0.00     0.046 C 
ENDBRANCH   8  11
ENDBRANCH   6   8
ENDBRANCH   5   6
BRANCH   5  19
ATOM     19  C   UNL A   1      34.788  25.223  25.131  1.00  0.00     0.065 C 
BRANCH  19  20
ATOM     20  C   UNL A   1      33.658  25.761  26.037  1.00  0.00    -0.037 C 
ATOM     21  C   UNL A   1      33.418  27.015  26.450  1.00  0.00     0.001 A 
ATOM     22  C   UNL A   1      32.486  24.884  26.412  1.00  0.00     0.174 C 
ATOM     23  C   UNL A   1      34.117  28.263  26.478  1.00  0.00     0.010 A 
ATOM     24  C   UNL A   1      31.951  26.981  26.666  1.00  0.00     0.065 A 
ATOM     25  N   UNL A   1      31.366  25.824  26.662  1.00  0.00    -0.280 NA
ATOM     26  C   UNL A   1      33.425  29.403  26.655  1.00  0.00     0.001 A 
ATOM     27  C   UNL A   1      31.247  28.286  26.716  1.00  0.00     0.028 A 
ATOM     28  C   UNL A   1      31.974  29.415  26.700  1.00  0.00     0.002 A 
ENDBRANCH  19  20
ENDBRANCH   5  19
ENDBRANCH   3   5
ENDBRANCH   2   3
ENDBRANCH   1   2
BRANCH   1  29
ATOM     29  C   UNL A   1      39.606  21.844  26.510  1.00  0.00     0.275 C 
BRANCH  29  30
ATOM     30  O   UNL A   1      40.842  22.586  26.773  1.00  0.00    -0.458 OA
BRANCH  30  31
ATOM     31  C   UNL A   1      41.994  22.562  26.051  1.00  0.00     0.338 C 
ATOM     32  O   UNL A   1      42.497  21.553  25.580  1.00  0.00    -0.246 OA
BRANCH  31  33
ATOM     33  C   UNL A   1      42.772  23.803  26.089  1.00  0.00     0.060 A 
ATOM     34  C   UNL A   1      43.861  24.057  27.516  1.00  0.00     0.016 A 
ATOM     35  C   UNL A   1      42.051  25.238  25.270  1.00  0.00     0.016 A 
ATOM     36  C   UNL A   1      44.050  25.746  28.173  1.00  0.00     0.010 A 
ATOM     37  C   UNL A   1      42.352  26.909  25.883  1.00  0.00     0.010 A 
ATOM     38  C   UNL A   1      43.173  27.130  27.442  1.00  0.00    -0.014 A 
BRANCH  38  39
ATOM     39  C   UNL A   1      42.566  28.329  28.236  1.00  0.00     0.031 A 
ATOM     40  C   UNL A   1      43.497  29.424  27.924  1.00  0.00     0.074 A 
ATOM     41  C   UNL A   1      41.386  28.671  28.896  1.00  0.00     0.049 A 
ATOM     42  N   UNL A   1      44.658  29.533  28.485  1.00  0.00    -0.248 NA
ATOM     43  C   UNL A   1      43.369  30.172  26.664  1.00  0.00     0.031 C 
ATOM     44  C   UNL A   1      40.140  27.909  29.135  1.00  0.00     0.029 A 
ATOM     45  N   UNL A   1      41.016  29.881  29.516  1.00  0.00    -0.354 N 
ATOM     46  C   UNL A   1      45.209  30.634  27.869  1.00  0.00     0.074 A 
ATOM     47  C   UNL A   1      44.598  30.695  26.569  1.00  0.00     0.031 C 
ATOM     48  C   UNL A   1      39.135  28.708  29.609  1.00  0.00     0.029 A 
ATOM     49  C   UNL A   1      39.641  30.045  29.880  1.00  0.00     0.049 A 
ATOM     50  H   UNL A   1      41.678  30.587  29.692  1.00  0.00     0.167 HD
ATOM     51  C   UNL A   1      45.716  31.647  28.621  1.00  0.00     0.034 A 
ATOM     52  C   UNL A   1      39.000  31.118  30.482  1.00  0.00     0.034 A 
ATOM     53  C   UNL A   1      45.745  31.283  30.023  1.00  0.00     0.049 A 
ATOM     54  C   UNL A   1      40.047  31.850  31.201  1.00  0.00     0.074 A 
ATOM     55  C   UNL A   1      46.306  30.277  30.785  1.00  0.00     0.029 A 
ATOM     56  N   UNL A   1      44.681  31.770  30.737  1.00  0.00    -0.354 N 
ATOM     57  N   UNL A   1      40.679  31.383  32.232  1.00  0.00    -0.248 NA
ATOM     58  C   UNL A   1      40.651  32.967  30.511  1.00  0.00     0.031 C 
ATOM     59  C   UNL A   1      45.354  29.984  31.807  1.00  0.00     0.029 A 
ATOM     60  C   UNL A   1      44.298  30.886  31.706  1.00  0.00     0.049 A 
ATOM     61  H   UNL A   1      44.251  32.639  30.574  1.00  0.00     0.167 HD
ATOM     62  C   UNL A   1      41.983  31.754  31.970  1.00  0.00     0.074 A 
ATOM     63  C   UNL A   1      41.889  32.827  30.977  1.00  0.00     0.031 C 
ATOM     64  C   UNL A   1      42.996  30.918  32.324  1.00  0.00     0.034 A 
BRANCH  51  65
ATOM     65  C   UNL A   1      45.720  33.093  28.188  1.00  0.00     0.023 A 
ATOM     66  C   UNL A   1      46.949  33.774  28.241  1.00  0.00     0.012 A 
ATOM     67  C   UNL A   1      44.562  33.873  27.943  1.00  0.00     0.148 A 
ATOM     68  C   UNL A   1      47.027  35.153  28.018  1.00  0.00     0.002 A 
ATOM     69  C   UNL A   1      44.651  35.224  27.642  1.00  0.00     0.091 A 
ATOM     70  F   UNL A   1      43.349  33.351  28.134  1.00  0.00    -0.205 F 
ATOM     71  C   UNL A   1      45.883  35.875  27.691  1.00  0.00     0.022 A 
BRANCH  69  72
ATOM     72  S   UNL A   1      43.199  36.197  27.219  1.00  0.00     0.127 S 
ATOM     73  O   UNL A   1      42.658  35.438  26.097  1.00  0.00    -0.237 OA
ATOM     74  O   UNL A   1      42.422  36.122  28.456  1.00  0.00    -0.237 OA
ATOM     75  O   UNL A   1      43.697  37.531  26.908  1.00  0.00    -0.744 OA
ENDBRANCH  69  72
ENDBRANCH  51  65
BRANCH  52  76
ATOM     76  C   UNL A   1      37.666  31.858  30.369  1.00  0.00     0.023 A 
ATOM     77  C   UNL A   1      36.747  31.539  29.311  1.00  0.00     0.012 A 
ATOM     78  C   UNL A   1      37.120  32.525  31.475  1.00  0.00     0.148 A 
ATOM     79  C   UNL A   1      35.358  31.768  29.410  1.00  0.00     0.002 A 
ATOM     80  C   UNL A   1      35.734  32.754  31.570  1.00  0.00     0.091 A 
ATOM     81  F   UNL A   1      37.946  32.861  32.472  1.00  0.00    -0.205 F 
ATOM     82  C   UNL A   1      34.848  32.353  30.557  1.00  0.00     0.022 A 
BRANCH  80  83
ATOM     83  S   UNL A   1      34.988  33.506  33.024  1.00  0.00     0.127 S 
ATOM     84  O   UNL A   1      33.561  33.269  32.796  1.00  0.00    -0.237 OA
ATOM     85  O   UNL A   1      35.570  32.721  34.109  1.00  0.00    -0.237 OA
ATOM     86  O   UNL A   1      35.376  34.910  32.976  1.00  0.00    -0.744 OA
ENDBRANCH  80  83
ENDBRANCH  52  76
BRANCH  64  87
ATOM     87  C   UNL A   1      42.699  29.856  33.351  1.00  0.00     0.023 A 
ATOM     88  C   UNL A   1      42.029  28.645  33.075  1.00  0.00     0.012 A 
ATOM     89  C   UNL A   1      43.270  30.048  34.617  1.00  0.00     0.148 A 
ATOM     90  C   UNL A   1      41.967  27.633  34.042  1.00  0.00     0.002 A 
ATOM     91  C   UNL A   1      43.232  29.035  35.561  1.00  0.00     0.091 A 
ATOM     92  F   UNL A   1      43.883  31.217  34.854  1.00  0.00    -0.205 F 
ATOM     93  C   UNL A   1      42.586  27.822  35.279  1.00  0.00     0.022 A 
BRANCH  91  94
ATOM     94  S   UNL A   1      44.066  29.200  37.139  1.00  0.00     0.127 S 
ATOM     95  O   UNL A   1      43.820  27.896  37.751  1.00  0.00    -0.237 OA
ATOM     96  O   UNL A   1      45.451  29.435  36.731  1.00  0.00    -0.237 OA
ATOM     97  O   UNL A   1      43.438  30.327  37.818  1.00  0.00    -0.744 OA
ENDBRANCH  91  94
ENDBRANCH  64  87
ENDBRANCH  38  39
ENDBRANCH  31  33
ENDBRANCH  30  31
ENDBRANCH  29  30
ENDBRANCH   1  29
TORSDOF 19
ENDMDL
MODEL 3
REMARK VINA RESULT:     -13.2      2.057      2.432
REMARK SMILES Cc1ccc(C)c(S(=O)(=O)N[C@H](CC2=c3ccccc3=NC2)C(=O)OCCOC(=O)c2ccc(-c3c4nc(c(-c5cccc(S(=O)(=O)[O-])c5F)c5ccc([nH]5)c(-c5cccc(S(=O)(=O)[O-])c5F)c5nc(c(-c6cccc(S(=O)(=O)[O-])c6F)c6ccc3[nH]6)C=C5)C=C4)cc2)c1
REMARK SMILES IDX 26 1 25 2 23 3 24 4 12 5 11 6 8 8 9 9 10 10 7 11 1 12 2 13
REMARK SMILES IDX 3 14 94 15 4 16 5 17 6 18 13 19 14 20 15 21 22 22 16 23
REMARK SMILES IDX 20 24 21 25 17 26 19 27 18 28 27 29 28 30 29 31 30 32 31 33
REMARK SMILES IDX 32 34 93 35 33 36 92 37 34 38 35 39 36 40 86 41 37 42 91 43
REMARK SMILES IDX 85 44 87 45 38 46 90 47 84 48 83 49 39 51 71 52 51 53 70 54
REMARK SMILES IDX 52 55 55 56 69 57 88 58 53 59 54 60 68 62 89 63 56 64 40 65
REMARK SMILES IDX 41 66 49 67 42 68 44 69 50 70 43 71 45 72 46 73 47 74 48 75
REMARK SMILES IDX 72 76 73 77 81 78 74 79 76 80 82 81 75 82 77 83 78 84 79 85
REMARK SMILES IDX 80 86 57 87 58 88 66 89 59 90 61 91 67 92 60 93 62 94 63 95
REMARK SMILES IDX 64 96 65 97
REMARK H PARENT 11 7 87 50 55 61
REMARK Flexibility Score: inf
ROOT
ATOM      1  C   UNL A   1      32.232  30.226  27.112  1.00  0.00     0.274 C 
ENDROOT
BRANCH   1   2
ATOM      2  O   UNL A   1      31.957  29.148  26.212  1.00  0.00    -0.461 OA
BRANCH   2   3
ATOM      3  C   UNL A   1      31.406  27.927  26.792  1.00  0.00     0.324 C 
ATOM      4  O   UNL A   1      31.411  28.178  28.035  1.00  0.00    -0.250 OA
BRANCH   3   5
ATOM      5  C   UNL A   1      30.697  26.230  25.604  1.00  0.00     0.183 C 
BRANCH   5   6
ATOM      6  N   UNL A   1      30.083  24.701  25.998  1.00  0.00    -0.197 NA
ATOM      7  H   UNL A   1      29.281  24.891  26.599  1.00  0.00     0.142 HD
BRANCH   6   8
ATOM      8  S   UNL A   1      30.911  23.397  26.770  1.00  0.00     0.241 S 
ATOM      9  O   UNL A   1      29.913  22.560  27.399  1.00  0.00    -0.207 OA
ATOM     10  O   UNL A   1      31.933  24.059  27.558  1.00  0.00    -0.207 OA
BRANCH   8  11
ATOM     11  C   UNL A   1      31.897  22.220  25.760  1.00  0.00     0.085 A 
ATOM     12  C   UNL A   1      32.046  20.466  22.329  1.00  0.00     0.044 C 
ATOM     13  C   UNL A   1      32.355  20.891  23.738  1.00  0.00    -0.050 A 
ATOM     14  C   UNL A   1      33.417  20.243  24.374  1.00  0.00     0.004 A 
ATOM     15  C   UNL A   1      31.622  21.902  24.422  1.00  0.00     0.025 A 
ATOM     16  C   UNL A   1      33.757  20.597  25.668  1.00  0.00     0.005 A 
ATOM     17  C   UNL A   1      33.023  21.580  26.373  1.00  0.00    -0.031 A 
ATOM     18  C   UNL A   1      33.564  21.868  27.751  1.00  0.00     0.046 C 
ENDBRANCH   8  11
ENDBRANCH   6   8
ENDBRANCH   5   6
BRANCH   5  19
ATOM     19  C   UNL A   1      31.203  25.636  23.877  1.00  0.00     0.065 C 
BRANCH  19  20
ATOM     20  C   UNL A   1      32.554  25.184  23.278  1.00  0.00    -0.037 C 
ATOM     21  C   UNL A   1      33.712  24.905  23.896  1.00  0.00     0.001 A 
ATOM     22  C   UNL A   1      32.655  24.771  21.828  1.00  0.00     0.174 C 
ATOM     23  C   UNL A   1      34.284  25.103  25.192  1.00  0.00     0.010 A 
ATOM     24  C   UNL A   1      34.329  23.943  22.951  1.00  0.00     0.065 A 
ATOM     25  N   UNL A   1      33.793  23.821  21.776  1.00  0.00    -0.280 NA
ATOM     26  C   UNL A   1      35.355  24.375  25.558  1.00  0.00     0.001 A 
ATOM     27  C   UNL A   1      35.418  23.085  23.478  1.00  0.00     0.028 A 
ATOM     28  C   UNL A   1      35.876  23.310  24.721  1.00  0.00     0.002 A 
ENDBRANCH  19  20
ENDBRANCH   5  19
ENDBRANCH   3   5
ENDBRANCH   2   3
ENDBRANCH   1   2
BRANCH   1  29
ATOM     29  C   UNL A   1      33.715  30.636  27.060  1.00  0.00     0.275 C 
BRANCH  29  30
ATOM     30  O   UNL A   1      34.155  31.718  27.946  1.00  0.00    -0.458 OA
BRANCH  30  31
ATOM     31  C   UNL A   1      35.415  32.212  28.091  1.00  0.00     0.338 C 
ATOM     32  O   UNL A   1      35.928  33.031  27.343  1.00  0.00    -0.246 OA
BRANCH  31  33
ATOM     33  C   UNL A   1      36.251  31.497  29.058  1.00  0.00     0.060 A 
ATOM     34  C   UNL A   1      37.413  32.482  30.039  1.00  0.00     0.016 A 
ATOM     35  C   UNL A   1      36.665  29.787  28.663  1.00  0.00     0.016 A 
ATOM     36  C   UNL A   1      39.035  31.759  30.447  1.00  0.00     0.010 A 
ATOM     37  C   UNL A   1      38.238  29.067  29.182  1.00  0.00     0.010 A 
ATOM     38  C   UNL A   1      39.487  30.117  29.883  1.00  0.00    -0.014 A 
BRANCH  38  39
ATOM     39  C   UNL A   1      40.914  29.689  29.415  1.00  0.00     0.031 A 
ATOM     40  C   UNL A   1      41.604  29.432  30.687  1.00  0.00     0.074 A 
ATOM     41  C   UNL A   1      41.570  29.298  28.249  1.00  0.00     0.049 A 
ATOM     42  N   UNL A   1      42.048  30.383  31.444  1.00  0.00    -0.248 NA
ATOM     43  C   UNL A   1      41.429  28.147  31.382  1.00  0.00     0.031 C 
ATOM     44  C   UNL A   1      41.094  29.162  26.854  1.00  0.00     0.029 A 
ATOM     45  N   UNL A   1      42.902  28.880  28.059  1.00  0.00    -0.354 N 
ATOM     46  C   UNL A   1      42.554  29.714  32.536  1.00  0.00     0.074 A 
ATOM     47  C   UNL A   1      41.803  28.492  32.621  1.00  0.00     0.031 C 
ATOM     48  C   UNL A   1      42.003  28.511  26.064  1.00  0.00     0.029 A 
ATOM     49  C   UNL A   1      43.235  28.279  26.803  1.00  0.00     0.049 A 
ATOM     50  H   UNL A   1      43.579  28.997  28.764  1.00  0.00     0.167 HD
ATOM     51  C   UNL A   1      43.822  29.967  32.956  1.00  0.00     0.034 A 
ATOM     52  C   UNL A   1      44.444  27.771  26.350  1.00  0.00     0.034 A 
ATOM     53  C   UNL A   1      44.387  31.092  32.241  1.00  0.00     0.049 A 
ATOM     54  C   UNL A   1      45.477  28.443  27.144  1.00  0.00     0.074 A 
ATOM     55  C   UNL A   1      44.061  32.420  32.044  1.00  0.00     0.029 A 
ATOM     56  N   UNL A   1      45.194  30.727  31.194  1.00  0.00    -0.354 N 
ATOM     57  N   UNL A   1      45.743  29.709  27.064  1.00  0.00    -0.248 NA
ATOM     58  C   UNL A   1      45.951  27.745  28.318  1.00  0.00     0.031 C 
ATOM     59  C   UNL A   1      44.438  32.719  30.700  1.00  0.00     0.029 A 
ATOM     60  C   UNL A   1      45.078  31.608  30.157  1.00  0.00     0.049 A 
ATOM     61  H   UNL A   1      45.778  29.936  31.190  1.00  0.00     0.167 HD
ATOM     62  C   UNL A   1      45.895  30.063  28.389  1.00  0.00     0.074 A 
ATOM     63  C   UNL A   1      46.141  28.806  29.100  1.00  0.00     0.031 C 
ATOM     64  C   UNL A   1      45.461  31.282  28.806  1.00  0.00     0.034 A 
BRANCH  51  65
ATOM     65  C   UNL A   1      44.706  28.940  33.622  1.00  0.00     0.023 A 
ATOM     66  C   UNL A   1      45.313  29.308  34.835  1.00  0.00     0.012 A 
ATOM     67  C   UNL A   1      45.142  27.730  33.026  1.00  0.00     0.148 A 
ATOM     68  C   UNL A   1      46.274  28.494  35.445  1.00  0.00     0.002 A 
ATOM     69  C   UNL A   1      46.033  26.886  33.671  1.00  0.00     0.091 A 
ATOM     70  F   UNL A   1      44.809  27.447  31.765  1.00  0.00    -0.205 F 
ATOM     71  C   UNL A   1      46.614  27.269  34.878  1.00  0.00     0.022 A 
BRANCH  69  72
ATOM     72  S   UNL A   1      46.506  25.297  32.974  1.00  0.00     0.127 S 
ATOM     73  O   UNL A   1      45.243  24.847  32.396  1.00  0.00    -0.237 OA
ATOM     74  O   UNL A   1      47.529  25.691  32.006  1.00  0.00    -0.237 OA
ATOM     75  O   UNL A   1      47.013  24.513  34.092  1.00  0.00    -0.744 OA
ENDBRANCH  69  72
ENDBRANCH  51  65
BRANCH  52  76
ATOM     76  C   UNL A   1      44.944  26.582  25.527  1.00  0.00     0.023 A 
ATOM     77  C   UNL A   1      46.272  26.588  24.976  1.00  0.00     0.012 A 
ATOM     78  C   UNL A   1      44.332  25.326  25.636  1.00  0.00     0.148 A 
ATOM     79  C   UNL A   1      46.977  25.406  24.670  1.00  0.00     0.002 A 
ATOM     80  C   UNL A   1      45.038  24.148  25.329  1.00  0.00     0.091 A 
ATOM     81  F   UNL A   1      43.087  25.278  26.124  1.00  0.00    -0.205 F 
ATOM     82  C   UNL A   1      46.367  24.180  24.874  1.00  0.00     0.022 A 
BRANCH  80  83
ATOM     83  S   UNL A   1      44.321  22.514  25.565  1.00  0.00     0.127 S 
ATOM     84  O   UNL A   1      43.424  22.402  24.412  1.00  0.00    -0.237 OA
ATOM     85  O   UNL A   1      45.497  21.652  25.508  1.00  0.00    -0.237 OA
ATOM     86  O   UNL A   1      43.638  22.573  26.851  1.00  0.00    -0.744 OA
ENDBRANCH  80  83
ENDBRANCH  52  76
BRANCH  64  87
ATOM     87  C   UNL A   1      45.240  32.342  27.757  1.00  0.00     0.023 A 
ATOM     88  C   UNL A   1      43.974  32.725  27.266  1.00  0.00     0.012 A 
ATOM     89  C   UNL A   1      46.372  33.076  27.376  1.00  0.00     0.148 A 
ATOM     90  C   UNL A   1      43.846  33.847  26.437  1.00  0.00     0.002 A 
ATOM     91  C   UNL A   1      46.238  34.202  26.581  1.00  0.00     0.091 A 
ATOM     92  F   UNL A   1      47.562  32.675  27.846  1.00  0.00    -0.205 F 
ATOM     93  C   UNL A   1      44.976  34.597  26.111  1.00  0.00     0.022 A 
BRANCH  91  94
ATOM     94  S   UNL A   1      47.648  35.237  26.186  1.00  0.00     0.127 S 
ATOM     95  O   UNL A   1      48.360  34.421  25.206  1.00  0.00    -0.237 OA
ATOM     96  O   UNL A   1      47.007  36.434  25.640  1.00  0.00    -0.237 OA
ATOM     97  O   UNL A   1      48.359  35.455  27.440  1.00  0.00    -0.744 OA
ENDBRANCH  91  94
ENDBRANCH  64  87
ENDBRANCH  38  39
ENDBRANCH  31  33
ENDBRANCH  30  31
ENDBRANCH  29  30
ENDBRANCH   1  29
TORSDOF 19
ENDMDL
