MODEL 1
REMARK VINA RESULT:     -12.1      0.000      0.000
REMARK SMILES C[C@@H]1OCC[C@@H]1C(=O)Nc1ccc(C(=O)OCCOC(=O)c2ccc(-c3c4nc(c(-c5cccc(S(=O)(=O)[O-])c5F)c5ccc([nH]5)c(-c5cccc(S(=O)(=O)[O-])c5F)c5nc(c(-c6cccc(S(=O)(=O)[O-])c6F)c6ccc3[nH]6)C=C5)C=C4)cc2)cc1F
REMARK SMILES IDX 18 1 17 2 16 3 14 4 15 5 13 6 10 7 11 8 86 9 12 10 85 11
REMARK SMILES IDX 87 12 9 13 7 14 8 15 6 17 1 18 2 19 3 20 4 21 5 22 19 23
REMARK SMILES IDX 20 24 21 25 22 26 23 27 84 28 24 29 83 30 25 31 26 32 27 33
REMARK SMILES IDX 77 34 28 35 82 36 76 37 78 38 29 39 81 40 75 41 74 42 30 44
REMARK SMILES IDX 62 45 42 46 61 47 43 48 46 49 60 50 79 51 44 52 45 53 59 55
REMARK SMILES IDX 80 56 47 57 31 58 32 59 40 60 33 61 35 62 41 63 34 64 36 65
REMARK SMILES IDX 37 66 38 67 39 68 63 69 64 70 72 71 65 72 67 73 73 74 66 75
REMARK SMILES IDX 68 76 69 77 70 78 71 79 48 80 49 81 57 82 50 83 52 84 58 85
REMARK SMILES IDX 51 86 53 87 54 88 55 89 56 90
REMARK H PARENT 9 16 78 43 46 54
REMARK Flexibility Score: inf
ROOT
ATOM      1  C   UNL A   1      31.599  30.072  25.539  1.00  0.00     0.275 C 
ENDROOT
BRANCH   1   2
ATOM      2  C   UNL A   1      32.486  29.343  24.533  1.00  0.00     0.275 C 
BRANCH   2   3
ATOM      3  O   UNL A   1      32.274  27.920  24.594  1.00  0.00    -0.458 OA
BRANCH   3   4
ATOM      4  C   UNL A   1      32.636  27.230  23.490  1.00  0.00     0.338 C 
ATOM      5  O   UNL A   1      32.392  27.503  22.322  1.00  0.00    -0.246 OA
BRANCH   4   6
ATOM      6  C   UNL A   1      33.338  26.005  23.888  1.00  0.00     0.063 A 
ATOM      7  C   UNL A   1      34.891  23.697  24.421  1.00  0.00     0.077 A 
ATOM      8  C   UNL A   1      34.768  24.723  25.369  1.00  0.00     0.030 A 
ATOM      9  C   UNL A   1      34.223  23.891  23.199  1.00  0.00     0.147 A 
ATOM     10  C   UNL A   1      34.012  25.869  25.100  1.00  0.00     0.018 A 
ATOM     11  C   UNL A   1      33.440  25.009  22.939  1.00  0.00     0.057 A 
ATOM     12  F   UNL A   1      34.309  23.065  22.159  1.00  0.00    -0.205 F 
BRANCH   7  13
ATOM     13  N   UNL A   1      35.702  22.611  24.835  1.00  0.00    -0.323 N 
ATOM     14  C   UNL A   1      35.545  21.256  24.917  1.00  0.00     0.230 C 
ATOM     15  O   UNL A   1      36.507  20.579  25.289  1.00  0.00    -0.274 OA
ATOM     16  H   UNL A   1      36.592  22.903  25.138  1.00  0.00     0.170 HD
BRANCH  14  17
ATOM     17  C   UNL A   1      34.233  20.619  24.587  1.00  0.00     0.110 C 
ATOM     18  C   UNL A   1      33.446  21.143  26.992  1.00  0.00     0.039 C 
ATOM     19  C   UNL A   1      33.087  21.044  25.510  1.00  0.00     0.127 C 
ATOM     20  O   UNL A   1      32.074  20.019  25.376  1.00  0.00    -0.378 OA
ATOM     21  C   UNL A   1      32.612  18.988  24.534  1.00  0.00     0.161 C 
ATOM     22  C   UNL A   1      34.119  19.113  24.641  1.00  0.00     0.044 C 
ENDBRANCH  14  17
ENDBRANCH   7  13
ENDBRANCH   4   6
ENDBRANCH   3   4
ENDBRANCH   2   3
ENDBRANCH   1   2
BRANCH   1  23
ATOM     23  O   UNL A   1      32.260  30.149  26.815  1.00  0.00    -0.458 OA
BRANCH  23  24
ATOM     24  C   UNL A   1      32.872  31.327  27.079  1.00  0.00     0.338 C 
ATOM     25  O   UNL A   1      32.371  32.436  27.087  1.00  0.00    -0.246 OA
BRANCH  24  26
ATOM     26  C   UNL A   1      34.269  31.093  27.485  1.00  0.00     0.060 A 
ATOM     27  C   UNL A   1      34.668  29.787  27.732  1.00  0.00     0.016 A 
ATOM     28  C   UNL A   1      35.108  32.146  27.828  1.00  0.00     0.016 A 
ATOM     29  C   UNL A   1      35.809  29.531  28.481  1.00  0.00     0.010 A 
ATOM     30  C   UNL A   1      36.346  31.871  28.429  1.00  0.00     0.010 A 
ATOM     31  C   UNL A   1      36.691  30.562  28.817  1.00  0.00    -0.014 A 
BRANCH  31  32
ATOM     32  C   UNL A   1      37.937  30.262  29.587  1.00  0.00     0.031 A 
ATOM     33  C   UNL A   1      39.032  29.421  28.971  1.00  0.00     0.074 A 
ATOM     34  C   UNL A   1      38.113  30.750  30.836  1.00  0.00     0.049 A 
ATOM     35  N   UNL A   1      40.071  28.873  29.547  1.00  0.00    -0.248 NA
ATOM     36  C   UNL A   1      38.939  29.144  27.528  1.00  0.00     0.031 C 
ATOM     37  C   UNL A   1      37.167  31.607  31.554  1.00  0.00     0.029 A 
ATOM     38  N   UNL A   1      39.151  30.602  31.726  1.00  0.00    -0.354 N 
ATOM     39  C   UNL A   1      40.689  28.106  28.567  1.00  0.00     0.074 A 
ATOM     40  C   UNL A   1      39.928  28.278  27.350  1.00  0.00     0.031 C 
ATOM     41  C   UNL A   1      37.689  31.958  32.736  1.00  0.00     0.029 A 
ATOM     42  C   UNL A   1      38.945  31.245  32.926  1.00  0.00     0.049 A 
ATOM     43  H   UNL A   1      39.965  30.086  31.525  1.00  0.00     0.167 HD
ATOM     44  C   UNL A   1      41.794  27.330  28.674  1.00  0.00     0.034 A 
ATOM     45  C   UNL A   1      39.642  31.225  34.080  1.00  0.00     0.034 A 
ATOM     46  C   UNL A   1      42.609  27.247  29.857  1.00  0.00     0.049 A 
ATOM     47  C   UNL A   1      40.871  30.369  34.168  1.00  0.00     0.074 A 
ATOM     48  C   UNL A   1      43.766  26.515  30.048  1.00  0.00     0.029 A 
ATOM     49  N   UNL A   1      42.369  27.936  31.034  1.00  0.00    -0.354 N 
ATOM     50  N   UNL A   1      41.432  29.639  33.235  1.00  0.00    -0.248 NA
ATOM     51  C   UNL A   1      41.564  30.327  35.464  1.00  0.00     0.031 C 
ATOM     52  C   UNL A   1      44.223  26.753  31.347  1.00  0.00     0.029 A 
ATOM     53  C   UNL A   1      43.361  27.651  31.956  1.00  0.00     0.049 A 
ATOM     54  H   UNL A   1      41.608  28.540  31.192  1.00  0.00     0.167 HD
ATOM     55  C   UNL A   1      42.549  29.063  33.824  1.00  0.00     0.074 A 
ATOM     56  C   UNL A   1      42.603  29.549  35.187  1.00  0.00     0.031 C 
ATOM     57  C   UNL A   1      43.436  28.189  33.290  1.00  0.00     0.034 A 
BRANCH  44  58
ATOM     58  C   UNL A   1      42.216  26.513  27.480  1.00  0.00     0.023 A 
ATOM     59  C   UNL A   1      43.043  27.081  26.494  1.00  0.00     0.012 A 
ATOM     60  C   UNL A   1      41.878  25.146  27.397  1.00  0.00     0.148 A 
ATOM     61  C   UNL A   1      43.516  26.307  25.433  1.00  0.00     0.002 A 
ATOM     62  C   UNL A   1      42.388  24.370  26.364  1.00  0.00     0.091 A 
ATOM     63  F   UNL A   1      41.074  24.629  28.339  1.00  0.00    -0.205 F 
ATOM     64  C   UNL A   1      43.200  24.951  25.376  1.00  0.00     0.022 A 
BRANCH  62  65
ATOM     65  S   UNL A   1      42.113  22.597  26.252  1.00  0.00     0.127 S 
ATOM     66  O   UNL A   1      40.653  22.526  26.229  1.00  0.00    -0.237 OA
ATOM     67  O   UNL A   1      42.759  22.265  24.982  1.00  0.00    -0.237 OA
ATOM     68  O   UNL A   1      42.745  22.016  27.428  1.00  0.00    -0.744 OA
ENDBRANCH  62  65
ENDBRANCH  44  58
BRANCH  45  69
ATOM     69  C   UNL A   1      39.175  32.040  35.240  1.00  0.00     0.023 A 
ATOM     70  C   UNL A   1      38.335  31.454  36.205  1.00  0.00     0.012 A 
ATOM     71  C   UNL A   1      39.622  33.363  35.435  1.00  0.00     0.148 A 
ATOM     72  C   UNL A   1      37.948  32.169  37.340  1.00  0.00     0.002 A 
ATOM     73  C   UNL A   1      39.294  34.043  36.602  1.00  0.00     0.091 A 
ATOM     74  F   UNL A   1      40.397  33.918  34.491  1.00  0.00    -0.205 F 
ATOM     75  C   UNL A   1      38.442  33.454  37.548  1.00  0.00     0.022 A 
BRANCH  73  76
ATOM     76  S   UNL A   1      40.031  35.626  37.025  1.00  0.00     0.127 S 
ATOM     77  O   UNL A   1      39.612  36.462  35.905  1.00  0.00    -0.237 OA
ATOM     78  O   UNL A   1      39.382  35.932  38.301  1.00  0.00    -0.237 OA
ATOM     79  O   UNL A   1      41.462  35.373  37.132  1.00  0.00    -0.744 OA
ENDBRANCH  73  76
ENDBRANCH  45  69
BRANCH  57  80
ATOM     80  C   UNL A   1      44.570  27.716  34.155  1.00  0.00     0.023 A 
ATOM     81  C   UNL A   1      45.743  28.487  34.249  1.00  0.00     0.012 A 
ATOM     82  C   UNL A   1      44.419  26.576  34.970  1.00  0.00     0.148 A 
ATOM     83  C   UNL A   1      46.758  28.125  35.133  1.00  0.00     0.002 A 
ATOM     84  C   UNL A   1      45.414  26.247  35.882  1.00  0.00     0.091 A 
ATOM     85  F   UNL A   1      43.299  25.849  34.850  1.00  0.00    -0.205 F 
ATOM     86  C   UNL A   1      46.588  27.016  35.958  1.00  0.00     0.022 A 
BRANCH  84  87
ATOM     87  S   UNL A   1      45.238  24.899  37.055  1.00  0.00     0.127 S 
ATOM     88  O   UNL A   1      45.299  23.732  36.177  1.00  0.00    -0.237 OA
ATOM     89  O   UNL A   1      46.410  25.080  37.913  1.00  0.00    -0.237 OA
ATOM     90  O   UNL A   1      43.961  25.109  37.723  1.00  0.00    -0.744 OA
ENDBRANCH  84  87
ENDBRANCH  57  80
ENDBRANCH  31  32
ENDBRANCH  24  26
ENDBRANCH  23  24
ENDBRANCH   1  23
TORSDOF 16
ENDMDL
MODEL 2
REMARK VINA RESULT:     -12.0      5.213     10.217
REMARK SMILES C[C@@H]1OCC[C@@H]1C(=O)Nc1ccc(C(=O)OCCOC(=O)c2ccc(-c3c4nc(c(-c5cccc(S(=O)(=O)[O-])c5F)c5ccc([nH]5)c(-c5cccc(S(=O)(=O)[O-])c5F)c5nc(c(-c6cccc(S(=O)(=O)[O-])c6F)c6ccc3[nH]6)C=C5)C=C4)cc2)cc1F
REMARK SMILES IDX 18 1 17 2 16 3 14 4 15 5 13 6 10 7 11 8 86 9 12 10 85 11
REMARK SMILES IDX 87 12 9 13 7 14 8 15 6 17 1 18 2 19 3 20 4 21 5 22 19 23
REMARK SMILES IDX 20 24 21 25 22 26 23 27 84 28 24 29 83 30 25 31 26 32 27 33
REMARK SMILES IDX 77 34 28 35 82 36 76 37 78 38 29 39 81 40 75 41 74 42 30 44
REMARK SMILES IDX 62 45 42 46 61 47 43 48 46 49 60 50 79 51 44 52 45 53 59 55
REMARK SMILES IDX 80 56 47 57 31 58 32 59 40 60 33 61 35 62 41 63 34 64 36 65
REMARK SMILES IDX 37 66 38 67 39 68 63 69 64 70 72 71 65 72 67 73 73 74 66 75
REMARK SMILES IDX 68 76 69 77 70 78 71 79 48 80 49 81 57 82 50 83 52 84 58 85
REMARK SMILES IDX 51 86 53 87 54 88 55 89 56 90
REMARK H PARENT 9 16 78 43 46 54
REMARK Flexibility Score: inf
ROOT
ATOM      1  C   UNL A   1      36.602  20.577  25.031  1.00  0.00     0.275 C 
ENDROOT
BRANCH   1   2
ATOM      2  C   UNL A   1      35.314  21.317  24.680  1.00  0.00     0.275 C 
BRANCH   2   3
ATOM      3  O   UNL A   1      34.193  20.772  25.402  1.00  0.00    -0.458 OA
BRANCH   3   4
ATOM      4  C   UNL A   1      33.126  20.429  24.647  1.00  0.00     0.338 C 
ATOM      5  O   UNL A   1      32.905  19.354  24.107  1.00  0.00    -0.246 OA
BRANCH   4   6
ATOM      6  C   UNL A   1      32.246  21.592  24.488  1.00  0.00     0.063 A 
ATOM      7  C   UNL A   1      30.753  23.995  24.352  1.00  0.00     0.077 A 
ATOM      8  C   UNL A   1      31.267  23.394  23.194  1.00  0.00     0.030 A 
ATOM      9  C   UNL A   1      31.037  23.351  25.569  1.00  0.00     0.147 A 
ATOM     10  C   UNL A   1      32.017  22.215  23.262  1.00  0.00     0.018 A 
ATOM     11  C   UNL A   1      31.748  22.159  25.642  1.00  0.00     0.057 A 
ATOM     12  F   UNL A   1      30.707  23.832  26.766  1.00  0.00    -0.205 F 
BRANCH   7  13
ATOM     13  N   UNL A   1      30.031  25.192  24.119  1.00  0.00    -0.323 N 
ATOM     14  C   UNL A   1      30.358  26.505  23.931  1.00  0.00     0.230 C 
ATOM     15  O   UNL A   1      29.448  27.304  23.697  1.00  0.00    -0.274 OA
ATOM     16  H   UNL A   1      29.058  25.041  24.086  1.00  0.00     0.170 HD
BRANCH  14  17
ATOM     17  C   UNL A   1      31.779  26.959  24.032  1.00  0.00     0.110 C 
ATOM     18  C   UNL A   1      31.401  27.374  26.554  1.00  0.00     0.039 C 
ATOM     19  C   UNL A   1      32.349  26.903  25.452  1.00  0.00     0.127 C 
ATOM     20  O   UNL A   1      33.491  27.792  25.452  1.00  0.00    -0.378 OA
ATOM     21  C   UNL A   1      33.538  28.435  24.169  1.00  0.00     0.161 C 
ATOM     22  C   UNL A   1      32.124  28.373  23.625  1.00  0.00     0.044 C 
ENDBRANCH  14  17
ENDBRANCH   7  13
ENDBRANCH   4   6
ENDBRANCH   3   4
ENDBRANCH   2   3
ENDBRANCH   1   2
BRANCH   1  23
ATOM     23  O   UNL A   1      37.719  21.484  24.994  1.00  0.00    -0.458 OA
BRANCH  23  24
ATOM     24  C   UNL A   1      38.785  21.120  25.743  1.00  0.00     0.338 C 
ATOM     25  O   UNL A   1      39.334  20.034  25.772  1.00  0.00    -0.246 OA
BRANCH  24  26
ATOM     26  C   UNL A   1      39.305  22.283  26.483  1.00  0.00     0.060 A 
ATOM     27  C   UNL A   1      38.802  23.536  26.168  1.00  0.00     0.016 A 
ATOM     28  C   UNL A   1      40.415  22.174  27.311  1.00  0.00     0.016 A 
ATOM     29  C   UNL A   1      39.501  24.683  26.520  1.00  0.00     0.010 A 
ATOM     30  C   UNL A   1      41.017  23.340  27.811  1.00  0.00     0.010 A 
ATOM     31  C   UNL A   1      40.604  24.614  27.377  1.00  0.00    -0.014 A 
BRANCH  31  32
ATOM     32  C   UNL A   1      41.320  25.864  27.780  1.00  0.00     0.031 A 
ATOM     33  C   UNL A   1      40.630  26.895  28.643  1.00  0.00     0.074 A 
ATOM     34  C   UNL A   1      42.598  26.083  27.395  1.00  0.00     0.049 A 
ATOM     35  N   UNL A   1      40.995  28.122  28.909  1.00  0.00    -0.248 NA
ATOM     36  C   UNL A   1      39.356  26.505  29.273  1.00  0.00     0.031 C 
ATOM     37  C   UNL A   1      43.413  25.168  26.593  1.00  0.00     0.029 A 
ATOM     38  N   UNL A   1      43.442  27.143  27.630  1.00  0.00    -0.354 N 
ATOM     39  C   UNL A   1      39.954  28.680  29.641  1.00  0.00     0.074 A 
ATOM     40  C   UNL A   1      38.952  27.650  29.805  1.00  0.00     0.031 C 
ATOM     41  C   UNL A   1      44.647  25.670  26.457  1.00  0.00     0.029 A 
ATOM     42  C   UNL A   1      44.679  27.004  27.041  1.00  0.00     0.049 A 
ATOM     43  H   UNL A   1      43.188  27.928  28.169  1.00  0.00     0.167 HD
ATOM     44  C   UNL A   1      39.847  29.936  30.135  1.00  0.00     0.034 A 
ATOM     45  C   UNL A   1      45.710  27.864  26.918  1.00  0.00     0.034 A 
ATOM     46  C   UNL A   1      40.892  30.922  30.063  1.00  0.00     0.049 A 
ATOM     47  C   UNL A   1      45.573  29.245  27.488  1.00  0.00     0.074 A 
ATOM     48  C   UNL A   1      40.888  32.210  30.566  1.00  0.00     0.029 A 
ATOM     49  N   UNL A   1      42.131  30.722  29.478  1.00  0.00    -0.354 N 
ATOM     50  N   UNL A   1      44.575  29.759  28.165  1.00  0.00    -0.248 NA
ATOM     51  C   UNL A   1      46.696  30.170  27.276  1.00  0.00     0.031 C 
ATOM     52  C   UNL A   1      42.124  32.796  30.275  1.00  0.00     0.029 A 
ATOM     53  C   UNL A   1      42.904  31.863  29.611  1.00  0.00     0.049 A 
ATOM     54  H   UNL A   1      42.421  29.892  29.034  1.00  0.00     0.167 HD
ATOM     55  C   UNL A   1      44.953  31.058  28.472  1.00  0.00     0.074 A 
ATOM     56  C   UNL A   1      46.283  31.248  27.932  1.00  0.00     0.031 C 
ATOM     57  C   UNL A   1      44.249  32.017  29.122  1.00  0.00     0.034 A 
BRANCH  44  58
ATOM     58  C   UNL A   1      38.564  30.331  30.821  1.00  0.00     0.023 A 
ATOM     59  C   UNL A   1      38.399  30.093  32.199  1.00  0.00     0.012 A 
ATOM     60  C   UNL A   1      37.568  31.039  30.116  1.00  0.00     0.148 A 
ATOM     61  C   UNL A   1      37.254  30.538  32.862  1.00  0.00     0.002 A 
ATOM     62  C   UNL A   1      36.453  31.518  30.792  1.00  0.00     0.091 A 
ATOM     63  F   UNL A   1      37.738  31.238  28.801  1.00  0.00    -0.205 F 
ATOM     64  C   UNL A   1      36.290  31.261  32.163  1.00  0.00     0.022 A 
BRANCH  62  65
ATOM     65  S   UNL A   1      35.200  32.535  30.000  1.00  0.00     0.127 S 
ATOM     66  O   UNL A   1      34.277  32.780  31.108  1.00  0.00    -0.237 OA
ATOM     67  O   UNL A   1      35.972  33.703  29.579  1.00  0.00    -0.237 OA
ATOM     68  O   UNL A   1      34.661  31.734  28.909  1.00  0.00    -0.744 OA
ENDBRANCH  62  65
ENDBRANCH  44  58
BRANCH  45  69
ATOM     69  C   UNL A   1      46.954  27.431  26.217  1.00  0.00     0.023 A 
ATOM     70  C   UNL A   1      47.841  26.548  26.861  1.00  0.00     0.012 A 
ATOM     71  C   UNL A   1      47.224  27.824  24.889  1.00  0.00     0.148 A 
ATOM     72  C   UNL A   1      48.972  26.065  26.198  1.00  0.00     0.002 A 
ATOM     73  C   UNL A   1      48.309  27.283  24.211  1.00  0.00     0.091 A 
ATOM     74  F   UNL A   1      46.386  28.690  24.300  1.00  0.00    -0.205 F 
ATOM     75  C   UNL A   1      49.194  26.416  24.869  1.00  0.00     0.022 A 
BRANCH  73  76
ATOM     76  S   UNL A   1      48.563  27.545  22.451  1.00  0.00     0.127 S 
ATOM     77  O   UNL A   1      48.618  26.175  21.949  1.00  0.00    -0.237 OA
ATOM     78  O   UNL A   1      47.361  28.292  22.079  1.00  0.00    -0.237 OA
ATOM     79  O   UNL A   1      49.797  28.312  22.346  1.00  0.00    -0.744 OA
ENDBRANCH  73  76
ENDBRANCH  45  69
BRANCH  57  80
ATOM     80  C   UNL A   1      44.902  33.355  29.325  1.00  0.00     0.023 A 
ATOM     81  C   UNL A   1      45.698  33.575  30.465  1.00  0.00     0.012 A 
ATOM     82  C   UNL A   1      44.827  34.346  28.326  1.00  0.00     0.148 A 
ATOM     83  C   UNL A   1      46.402  34.769  30.614  1.00  0.00     0.002 A 
ATOM     84  C   UNL A   1      45.569  35.513  28.459  1.00  0.00     0.091 A 
ATOM     85  F   UNL A   1      44.049  34.119  27.259  1.00  0.00    -0.205 F 
ATOM     86  C   UNL A   1      46.350  35.729  29.607  1.00  0.00     0.022 A 
BRANCH  84  87
ATOM     87  S   UNL A   1      45.643  36.759  27.168  1.00  0.00     0.127 S 
ATOM     88  O   UNL A   1      46.184  35.993  26.047  1.00  0.00    -0.237 OA
ATOM     89  O   UNL A   1      44.238  37.141  27.026  1.00  0.00    -0.237 OA
ATOM     90  O   UNL A   1      46.509  37.815  27.676  1.00  0.00    -0.744 OA
ENDBRANCH  84  87
ENDBRANCH  57  80
ENDBRANCH  31  32
ENDBRANCH  24  26
ENDBRANCH  23  24
ENDBRANCH   1  23
TORSDOF 16
ENDMDL
MODEL 3
REMARK VINA RESULT:     -11.9      1.163      1.831
REMARK SMILES C[C@@H]1OCC[C@@H]1C(=O)Nc1ccc(C(=O)OCCOC(=O)c2ccc(-c3c4nc(c(-c5cccc(S(=O)(=O)[O-])c5F)c5ccc([nH]5)c(-c5cccc(S(=O)(=O)[O-])c5F)c5nc(c(-c6cccc(S(=O)(=O)[O-])c6F)c6ccc3[nH]6)C=C5)C=C4)cc2)cc1F
REMARK SMILES IDX 18 1 17 2 16 3 14 4 15 5 13 6 10 7 11 8 86 9 12 10 85 11
REMARK SMILES IDX 87 12 9 13 7 14 8 15 6 17 1 18 2 19 3 20 4 21 5 22 19 23
REMARK SMILES IDX 20 24 21 25 22 26 23 27 84 28 24 29 83 30 25 31 26 32 27 33
REMARK SMILES IDX 77 34 28 35 82 36 76 37 78 38 29 39 81 40 75 41 74 42 30 44
REMARK SMILES IDX 62 45 42 46 61 47 43 48 46 49 60 50 79 51 44 52 45 53 59 55
REMARK SMILES IDX 80 56 47 57 31 58 32 59 40 60 33 61 35 62 41 63 34 64 36 65
REMARK SMILES IDX 37 66 38 67 39 68 63 69 64 70 72 71 65 72 67 73 73 74 66 75
REMARK SMILES IDX 68 76 69 77 70 78 71 79 48 80 49 81 57 82 50 83 52 84 58 85
REMARK SMILES IDX 51 86 53 87 54 88 55 89 56 90
REMARK H PARENT 9 16 78 43 46 54
REMARK Flexibility Score: inf
ROOT
ATOM      1  C   UNL A   1      31.562  30.462  25.573  1.00  0.00     0.275 C 
ENDROOT
BRANCH   1   2
ATOM      2  C   UNL A   1      31.385  29.051  25.020  1.00  0.00     0.275 C 
BRANCH   2   3
ATOM      3  O   UNL A   1      31.224  29.075  23.588  1.00  0.00    -0.458 OA
BRANCH   3   4
ATOM      4  C   UNL A   1      30.165  28.385  23.110  1.00  0.00     0.338 C 
ATOM      5  O   UNL A   1      29.046  28.810  22.857  1.00  0.00    -0.246 OA
BRANCH   4   6
ATOM      6  C   UNL A   1      30.520  26.967  22.990  1.00  0.00     0.063 A 
ATOM      7  C   UNL A   1      31.476  24.302  22.892  1.00  0.00     0.077 A 
ATOM      8  C   UNL A   1      30.329  24.634  23.627  1.00  0.00     0.030 A 
ATOM      9  C   UNL A   1      32.124  25.362  22.231  1.00  0.00     0.147 A 
ATOM     10  C   UNL A   1      29.865  25.953  23.687  1.00  0.00     0.018 A 
ATOM     11  C   UNL A   1      31.648  26.667  22.255  1.00  0.00     0.057 A 
ATOM     12  F   UNL A   1      33.272  25.240  21.568  1.00  0.00    -0.205 F 
BRANCH   7  13
ATOM     13  N   UNL A   1      31.827  22.930  22.942  1.00  0.00    -0.323 N 
ATOM     14  C   UNL A   1      32.558  22.143  23.786  1.00  0.00     0.230 C 
ATOM     15  O   UNL A   1      32.620  20.934  23.549  1.00  0.00    -0.274 OA
ATOM     16  H   UNL A   1      31.454  22.421  22.185  1.00  0.00     0.170 HD
BRANCH  14  17
ATOM     17  C   UNL A   1      33.282  22.740  24.950  1.00  0.00     0.110 C 
ATOM     18  C   UNL A   1      35.375  22.966  23.451  1.00  0.00     0.039 C 
ATOM     19  C   UNL A   1      34.510  23.567  24.559  1.00  0.00     0.127 C 
ATOM     20  O   UNL A   1      35.326  23.646  25.752  1.00  0.00    -0.378 OA
ATOM     21  C   UNL A   1      34.705  22.828  26.755  1.00  0.00     0.161 C 
ATOM     22  C   UNL A   1      33.861  21.820  26.000  1.00  0.00     0.044 C 
ENDBRANCH  14  17
ENDBRANCH   7  13
ENDBRANCH   4   6
ENDBRANCH   3   4
ENDBRANCH   2   3
ENDBRANCH   1   2
BRANCH   1  23
ATOM     23  O   UNL A   1      32.260  30.416  26.830  1.00  0.00    -0.458 OA
BRANCH  23  24
ATOM     24  C   UNL A   1      32.913  31.551  27.172  1.00  0.00     0.338 C 
ATOM     25  O   UNL A   1      32.452  32.676  27.249  1.00  0.00    -0.246 OA
BRANCH  24  26
ATOM     26  C   UNL A   1      34.297  31.241  27.567  1.00  0.00     0.060 A 
ATOM     27  C   UNL A   1      34.605  29.929  27.894  1.00  0.00     0.016 A 
ATOM     28  C   UNL A   1      35.219  32.249  27.824  1.00  0.00     0.016 A 
ATOM     29  C   UNL A   1      35.741  29.638  28.638  1.00  0.00     0.010 A 
ATOM     30  C   UNL A   1      36.447  31.923  28.420  1.00  0.00     0.010 A 
ATOM     31  C   UNL A   1      36.704  30.620  28.888  1.00  0.00    -0.014 A 
BRANCH  31  32
ATOM     32  C   UNL A   1      37.942  30.279  29.654  1.00  0.00     0.031 A 
ATOM     33  C   UNL A   1      39.014  29.418  29.028  1.00  0.00     0.074 A 
ATOM     34  C   UNL A   1      38.131  30.748  30.908  1.00  0.00     0.049 A 
ATOM     35  N   UNL A   1      40.039  28.836  29.597  1.00  0.00    -0.248 NA
ATOM     36  C   UNL A   1      38.914  29.159  27.581  1.00  0.00     0.031 C 
ATOM     37  C   UNL A   1      37.207  31.621  31.637  1.00  0.00     0.029 A 
ATOM     38  N   UNL A   1      39.165  30.564  31.796  1.00  0.00    -0.354 N 
ATOM     39  C   UNL A   1      40.637  28.064  28.608  1.00  0.00     0.074 A 
ATOM     40  C   UNL A   1      39.881  28.271  27.393  1.00  0.00     0.031 C 
ATOM     41  C   UNL A   1      37.738  31.945  32.822  1.00  0.00     0.029 A 
ATOM     42  C   UNL A   1      38.976  31.198  33.004  1.00  0.00     0.049 A 
ATOM     43  H   UNL A   1      39.966  30.028  31.589  1.00  0.00     0.167 HD
ATOM     44  C   UNL A   1      41.722  27.259  28.706  1.00  0.00     0.034 A 
ATOM     45  C   UNL A   1      39.672  31.146  34.157  1.00  0.00     0.034 A 
ATOM     46  C   UNL A   1      42.534  27.142  29.887  1.00  0.00     0.049 A 
ATOM     47  C   UNL A   1      40.879  30.258  34.235  1.00  0.00     0.074 A 
ATOM     48  C   UNL A   1      43.673  26.378  30.069  1.00  0.00     0.029 A 
ATOM     49  N   UNL A   1      42.313  27.823  31.072  1.00  0.00    -0.354 N 
ATOM     50  N   UNL A   1      41.421  29.525  33.293  1.00  0.00    -0.248 NA
ATOM     51  C   UNL A   1      41.571  30.183  35.530  1.00  0.00     0.031 C 
ATOM     52  C   UNL A   1      44.136  26.589  31.371  1.00  0.00     0.029 A 
ATOM     53  C   UNL A   1      43.298  27.502  31.991  1.00  0.00     0.049 A 
ATOM     54  H   UNL A   1      41.567  28.444  31.238  1.00  0.00     0.167 HD
ATOM     55  C   UNL A   1      42.523  28.913  33.875  1.00  0.00     0.074 A 
ATOM     56  C   UNL A   1      42.590  29.382  35.243  1.00  0.00     0.031 C 
ATOM     57  C   UNL A   1      43.387  28.023  33.330  1.00  0.00     0.034 A 
BRANCH  44  58
ATOM     58  C   UNL A   1      42.122  26.445  27.502  1.00  0.00     0.023 A 
ATOM     59  C   UNL A   1      42.930  27.016  26.501  1.00  0.00     0.012 A 
ATOM     60  C   UNL A   1      41.785  25.078  27.423  1.00  0.00     0.148 A 
ATOM     61  C   UNL A   1      43.383  26.245  25.430  1.00  0.00     0.002 A 
ATOM     62  C   UNL A   1      42.276  24.305  26.379  1.00  0.00     0.091 A 
ATOM     63  F   UNL A   1      40.999  24.558  28.378  1.00  0.00    -0.205 F 
ATOM     64  C   UNL A   1      43.068  24.889  25.377  1.00  0.00     0.022 A 
BRANCH  62  65
ATOM     65  S   UNL A   1      42.001  22.532  26.268  1.00  0.00     0.127 S 
ATOM     66  O   UNL A   1      40.541  22.461  26.233  1.00  0.00    -0.237 OA
ATOM     67  O   UNL A   1      42.658  22.197  25.005  1.00  0.00    -0.237 OA
ATOM     68  O   UNL A   1      42.623  21.953  27.451  1.00  0.00    -0.744 OA
ENDBRANCH  62  65
ENDBRANCH  44  58
BRANCH  45  69
ATOM     69  C   UNL A   1      39.227  31.960  35.326  1.00  0.00     0.023 A 
ATOM     70  C   UNL A   1      38.448  31.358  36.332  1.00  0.00     0.012 A 
ATOM     71  C   UNL A   1      39.637  33.300  35.488  1.00  0.00     0.148 A 
ATOM     72  C   UNL A   1      38.084  32.074  37.474  1.00  0.00     0.002 A 
ATOM     73  C   UNL A   1      39.335  33.983  36.660  1.00  0.00     0.091 A 
ATOM     74  F   UNL A   1      40.353  33.868  34.506  1.00  0.00    -0.205 F 
ATOM     75  C   UNL A   1      38.544  33.377  37.647  1.00  0.00     0.022 A 
BRANCH  73  76
ATOM     76  S   UNL A   1      40.036  35.594  37.034  1.00  0.00     0.127 S 
ATOM     77  O   UNL A   1      39.417  35.899  38.320  1.00  0.00    -0.237 OA
ATOM     78  O   UNL A   1      41.468  35.296  37.093  1.00  0.00    -0.237 OA
ATOM     79  O   UNL A   1      39.653  36.454  35.922  1.00  0.00    -0.744 OA
ENDBRANCH  73  76
ENDBRANCH  45  69
BRANCH  57  80
ATOM     80  C   UNL A   1      44.508  27.511  34.189  1.00  0.00     0.023 A 
ATOM     81  C   UNL A   1      45.706  28.244  34.281  1.00  0.00     0.012 A 
ATOM     82  C   UNL A   1      44.324  26.374  35.001  1.00  0.00     0.148 A 
ATOM     83  C   UNL A   1      46.712  27.846  35.159  1.00  0.00     0.002 A 
ATOM     84  C   UNL A   1      45.311  26.010  35.908  1.00  0.00     0.091 A 
ATOM     85  F   UNL A   1      43.181  25.683  34.883  1.00  0.00    -0.205 F 
ATOM     86  C   UNL A   1      46.509  26.740  35.982  1.00  0.00     0.022 A 
BRANCH  84  87
ATOM     87  S   UNL A   1      45.097  24.664  37.078  1.00  0.00     0.127 S 
ATOM     88  O   UNL A   1      43.916  25.102  37.821  1.00  0.00    -0.237 OA
ATOM     89  O   UNL A   1      44.872  23.519  36.194  1.00  0.00    -0.237 OA
ATOM     90  O   UNL A   1      46.329  24.600  37.850  1.00  0.00    -0.744 OA
ENDBRANCH  84  87
ENDBRANCH  57  80
ENDBRANCH  31  32
ENDBRANCH  24  26
ENDBRANCH  23  24
ENDBRANCH   1  23
TORSDOF 16
ENDMDL
