MODEL 1
REMARK VINA RESULT:     -11.7      0.000      0.000
REMARK SMILES CC(C)(C)c1ccc(C(=O)C[C@H](C(=O)OCCOC(=O)c2ccc(-c3c4nc(c(-c5cccc(S(=O)(=O)[O-])c5F)c5ccc([nH]5)c(-c5cccc(S(=O)(=O)[O-])c5F)c5nc(c(-c6cccc(S(=O)(=O)[O-])c6F)c6ccc3[nH]6)C=C5)C=C4)cc2)[NH+]2CCCC2)cc1
REMARK SMILES IDX 16 1 15 2 13 3 14 4 12 5 11 6 9 7 10 8 8 9 5 10 6 11 90 12
REMARK SMILES IDX 7 13 89 14 2 15 1 16 3 17 4 18 84 19 85 20 88 21 86 23 87 24
REMARK SMILES IDX 17 25 18 26 19 27 20 28 21 29 22 30 83 31 23 32 82 33 24 34
REMARK SMILES IDX 25 35 26 36 76 37 27 38 81 39 75 40 77 41 28 42 80 43 74 44
REMARK SMILES IDX 73 45 29 47 61 48 41 49 60 50 42 51 45 52 59 53 78 54 43 55
REMARK SMILES IDX 44 56 58 58 79 59 46 60 30 61 31 62 39 63 32 64 34 65 40 66
REMARK SMILES IDX 33 67 35 68 36 69 37 70 38 71 62 72 63 73 71 74 64 75 66 76
REMARK SMILES IDX 72 77 65 78 67 79 68 80 69 81 70 82 47 83 48 84 56 85 49 86
REMARK SMILES IDX 51 87 57 88 50 89 52 90 53 91 54 92 55 93
REMARK H PARENT 84 22 77 46 45 57
REMARK Flexibility Score: inf
ROOT
ATOM      1  C   UNL A   1      35.315  20.800  25.526  1.00  0.00     0.274 C 
ENDROOT
BRANCH   1   2
ATOM      2  O   UNL A   1      34.531  19.936  24.684  1.00  0.00    -0.458 OA
BRANCH   2   3
ATOM      3  C   UNL A   1      33.187  20.129  24.687  1.00  0.00     0.365 C 
ATOM      4  O   UNL A   1      32.361  19.250  24.465  1.00  0.00    -0.245 OA
BRANCH   3   5
ATOM      5  C   UNL A   1      32.830  21.614  24.855  1.00  0.00     0.302 C 
BRANCH   5   6
ATOM      6  C   UNL A   1      32.737  22.388  23.514  1.00  0.00     0.158 C 
BRANCH   6   7
ATOM      7  C   UNL A   1      33.769  23.451  23.164  1.00  0.00     0.169 C 
ATOM      8  O   UNL A   1      34.701  23.225  22.393  1.00  0.00    -0.294 OA
BRANCH   7   9
ATOM      9  C   UNL A   1      33.668  24.807  23.754  1.00  0.00     0.018 A 
ATOM     10  C   UNL A   1      33.149  27.125  25.277  1.00  0.00    -0.043 A 
ATOM     11  C   UNL A   1      34.156  26.219  25.651  1.00  0.00     0.005 A 
ATOM     12  C   UNL A   1      32.585  26.951  24.002  1.00  0.00     0.005 A 
ATOM     13  C   UNL A   1      34.429  25.083  24.885  1.00  0.00     0.012 A 
ATOM     14  C   UNL A   1      32.809  25.781  23.258  1.00  0.00     0.012 A 
BRANCH  10  15
ATOM     15  C   UNL A   1      32.680  28.223  26.253  1.00  0.00    -0.013 C 
ATOM     16  C   UNL A   1      32.045  29.450  25.557  1.00  0.00     0.016 C 
ATOM     17  C   UNL A   1      33.877  28.711  27.078  1.00  0.00     0.016 C 
ATOM     18  C   UNL A   1      31.581  27.686  27.208  1.00  0.00     0.016 C 
ENDBRANCH  10  15
ENDBRANCH   7   9
ENDBRANCH   6   7
ENDBRANCH   5   6
BRANCH   5  19
ATOM     19  N   UNL A   1      31.959  21.852  26.040  1.00  0.00    -0.323 N 
ATOM     20  C   UNL A   1      30.587  22.310  25.801  1.00  0.00     0.263 C 
ATOM     21  C   UNL A   1      32.480  22.718  27.093  1.00  0.00     0.263 C 
ATOM     22  H   UNL A   1      31.953  20.880  26.349  1.00  0.00     0.348 HD
ATOM     23  C   UNL A   1      30.695  23.814  25.870  1.00  0.00     0.067 C 
ATOM     24  C   UNL A   1      31.731  24.043  26.960  1.00  0.00     0.067 C 
ENDBRANCH   5  19
ENDBRANCH   3   5
ENDBRANCH   2   3
ENDBRANCH   1   2
BRANCH   1  25
ATOM     25  C   UNL A   1      36.548  21.321  24.798  1.00  0.00     0.275 C 
BRANCH  25  26
ATOM     26  O   UNL A   1      37.418  21.993  25.689  1.00  0.00    -0.458 OA
BRANCH  26  27
ATOM     27  C   UNL A   1      38.607  21.410  25.971  1.00  0.00     0.338 C 
ATOM     28  O   UNL A   1      38.940  20.255  25.868  1.00  0.00    -0.246 OA
BRANCH  27  29
ATOM     29  C   UNL A   1      39.449  22.566  26.280  1.00  0.00     0.060 A 
ATOM     30  C   UNL A   1      39.000  23.846  25.944  1.00  0.00     0.016 A 
ATOM     31  C   UNL A   1      40.550  22.351  27.112  1.00  0.00     0.016 A 
ATOM     32  C   UNL A   1      39.641  24.946  26.498  1.00  0.00     0.010 A 
ATOM     33  C   UNL A   1      41.164  23.441  27.683  1.00  0.00     0.010 A 
ATOM     34  C   UNL A   1      40.714  24.734  27.370  1.00  0.00    -0.014 A 
BRANCH  34  35
ATOM     35  C   UNL A   1      41.531  25.839  27.882  1.00  0.00     0.031 A 
ATOM     36  C   UNL A   1      40.805  26.876  28.677  1.00  0.00     0.074 A 
ATOM     37  C   UNL A   1      42.794  25.983  27.454  1.00  0.00     0.049 A 
ATOM     38  N   UNL A   1      41.172  28.085  28.985  1.00  0.00    -0.248 NA
ATOM     39  C   UNL A   1      39.444  26.518  29.124  1.00  0.00     0.031 C 
ATOM     40  C   UNL A   1      43.525  25.022  26.623  1.00  0.00     0.029 A 
ATOM     41  N   UNL A   1      43.661  27.030  27.601  1.00  0.00    -0.354 N 
ATOM     42  C   UNL A   1      40.068  28.654  29.606  1.00  0.00     0.074 A 
ATOM     43  C   UNL A   1      39.013  27.668  29.614  1.00  0.00     0.031 C 
ATOM     44  C   UNL A   1      44.720  25.546  26.301  1.00  0.00     0.029 A 
ATOM     45  C   UNL A   1      44.819  26.884  26.872  1.00  0.00     0.049 A 
ATOM     46  H   UNL A   1      43.475  27.811  28.171  1.00  0.00     0.167 HD
ATOM     47  C   UNL A   1      39.961  29.894  30.131  1.00  0.00     0.034 A 
ATOM     48  C   UNL A   1      45.823  27.760  26.680  1.00  0.00     0.034 A 
ATOM     49  C   UNL A   1      41.051  30.825  30.129  1.00  0.00     0.049 A 
ATOM     50  C   UNL A   1      45.715  29.105  27.354  1.00  0.00     0.074 A 
ATOM     51  C   UNL A   1      41.113  32.085  30.688  1.00  0.00     0.029 A 
ATOM     52  N   UNL A   1      42.281  30.580  29.533  1.00  0.00    -0.354 N 
ATOM     53  N   UNL A   1      44.716  29.598  28.050  1.00  0.00    -0.248 NA
ATOM     54  C   UNL A   1      46.876  29.997  27.256  1.00  0.00     0.031 C 
ATOM     55  C   UNL A   1      42.385  32.604  30.427  1.00  0.00     0.029 A 
ATOM     56  C   UNL A   1      43.120  31.658  29.724  1.00  0.00     0.049 A 
ATOM     57  H   UNL A   1      42.519  29.758  29.046  1.00  0.00     0.167 HD
ATOM     58  C   UNL A   1      45.144  30.835  28.513  1.00  0.00     0.074 A 
ATOM     59  C   UNL A   1      46.496  31.013  28.020  1.00  0.00     0.031 C 
ATOM     60  C   UNL A   1      44.486  31.748  29.270  1.00  0.00     0.034 A 
BRANCH  47  61
ATOM     61  C   UNL A   1      38.652  30.267  30.770  1.00  0.00     0.023 A 
ATOM     62  C   UNL A   1      38.343  29.784  32.058  1.00  0.00     0.012 A 
ATOM     63  C   UNL A   1      37.727  31.093  30.103  1.00  0.00     0.148 A 
ATOM     64  C   UNL A   1      37.120  30.079  32.656  1.00  0.00     0.002 A 
ATOM     65  C   UNL A   1      36.528  31.422  30.725  1.00  0.00     0.091 A 
ATOM     66  F   UNL A   1      38.022  31.517  28.867  1.00  0.00    -0.205 F 
ATOM     67  C   UNL A   1      36.217  30.906  31.994  1.00  0.00     0.022 A 
BRANCH  65  68
ATOM     68  S   UNL A   1      35.328  32.537  29.990  1.00  0.00     0.127 S 
ATOM     69  O   UNL A   1      34.898  31.778  28.816  1.00  0.00    -0.237 OA
ATOM     70  O   UNL A   1      34.322  32.647  31.047  1.00  0.00    -0.237 OA
ATOM     71  O   UNL A   1      36.046  33.772  29.707  1.00  0.00    -0.744 OA
ENDBRANCH  65  68
ENDBRANCH  47  61
BRANCH  48  72
ATOM     72  C   UNL A   1      47.027  27.361  25.900  1.00  0.00     0.023 A 
ATOM     73  C   UNL A   1      48.008  26.563  26.521  1.00  0.00     0.012 A 
ATOM     74  C   UNL A   1      47.188  27.708  24.544  1.00  0.00     0.148 A 
ATOM     75  C   UNL A   1      49.138  26.143  25.820  1.00  0.00     0.002 A 
ATOM     76  C   UNL A   1      48.296  27.247  23.836  1.00  0.00     0.091 A 
ATOM     77  F   UNL A   1      46.251  28.473  23.968  1.00  0.00    -0.205 F 
ATOM     78  C   UNL A   1      49.278  26.476  24.476  1.00  0.00     0.022 A 
BRANCH  76  79
ATOM     79  S   UNL A   1      48.499  27.525  22.071  1.00  0.00     0.127 S 
ATOM     80  O   UNL A   1      49.677  28.387  22.038  1.00  0.00    -0.237 OA
ATOM     81  O   UNL A   1      48.717  26.167  21.571  1.00  0.00    -0.237 OA
ATOM     82  O   UNL A   1      47.253  28.134  21.625  1.00  0.00    -0.744 OA
ENDBRANCH  76  79
ENDBRANCH  48  72
BRANCH  60  83
ATOM     83  C   UNL A   1      45.233  32.987  29.671  1.00  0.00     0.023 A 
ATOM     84  C   UNL A   1      46.035  32.976  30.827  1.00  0.00     0.012 A 
ATOM     85  C   UNL A   1      45.244  34.107  28.819  1.00  0.00     0.148 A 
ATOM     86  C   UNL A   1      46.832  34.077  31.137  1.00  0.00     0.002 A 
ATOM     87  C   UNL A   1      46.075  35.178  29.108  1.00  0.00     0.091 A 
ATOM     88  F   UNL A   1      44.455  34.092  27.734  1.00  0.00    -0.205 F 
ATOM     89  C   UNL A   1      46.864  35.170  30.271  1.00  0.00     0.022 A 
BRANCH  87  90
ATOM     90  S   UNL A   1      46.262  36.574  27.994  1.00  0.00     0.127 S 
ATOM     91  O   UNL A   1      44.928  37.170  28.037  1.00  0.00    -0.237 OA
ATOM     92  O   UNL A   1      47.304  37.360  28.656  1.00  0.00    -0.237 OA
ATOM     93  O   UNL A   1      46.654  36.013  26.708  1.00  0.00    -0.744 OA
ENDBRANCH  87  90
ENDBRANCH  60  83
ENDBRANCH  34  35
ENDBRANCH  27  29
ENDBRANCH  26  27
ENDBRANCH  25  26
ENDBRANCH   1  25
TORSDOF 19
ENDMDL
MODEL 2
REMARK VINA RESULT:     -11.4      1.526      2.355
REMARK SMILES CC(C)(C)c1ccc(C(=O)C[C@H](C(=O)OCCOC(=O)c2ccc(-c3c4nc(c(-c5cccc(S(=O)(=O)[O-])c5F)c5ccc([nH]5)c(-c5cccc(S(=O)(=O)[O-])c5F)c5nc(c(-c6cccc(S(=O)(=O)[O-])c6F)c6ccc3[nH]6)C=C5)C=C4)cc2)[NH+]2CCCC2)cc1
REMARK SMILES IDX 16 1 15 2 13 3 14 4 12 5 11 6 9 7 10 8 8 9 5 10 6 11 90 12
REMARK SMILES IDX 7 13 89 14 2 15 1 16 3 17 4 18 84 19 85 20 88 21 86 23 87 24
REMARK SMILES IDX 17 25 18 26 19 27 20 28 21 29 22 30 83 31 23 32 82 33 24 34
REMARK SMILES IDX 25 35 26 36 76 37 27 38 81 39 75 40 77 41 28 42 80 43 74 44
REMARK SMILES IDX 73 45 29 47 61 48 41 49 60 50 42 51 45 52 59 53 78 54 43 55
REMARK SMILES IDX 44 56 58 58 79 59 46 60 30 61 31 62 39 63 32 64 34 65 40 66
REMARK SMILES IDX 33 67 35 68 36 69 37 70 38 71 62 72 63 73 71 74 64 75 66 76
REMARK SMILES IDX 72 77 65 78 67 79 68 80 69 81 70 82 47 83 48 84 56 85 49 86
REMARK SMILES IDX 51 87 57 88 50 89 52 90 53 91 54 92 55 93
REMARK H PARENT 84 22 77 46 45 57
REMARK Flexibility Score: inf
ROOT
ATOM      1  C   UNL A   1      34.891  21.902  25.593  1.00  0.00     0.274 C 
ENDROOT
BRANCH   1   2
ATOM      2  O   UNL A   1      35.006  23.337  25.619  1.00  0.00    -0.458 OA
BRANCH   2   3
ATOM      3  C   UNL A   1      34.616  24.005  24.504  1.00  0.00     0.365 C 
ATOM      4  O   UNL A   1      35.140  23.878  23.403  1.00  0.00    -0.245 OA
BRANCH   3   5
ATOM      5  C   UNL A   1      33.536  25.051  24.820  1.00  0.00     0.302 C 
BRANCH   5   6
ATOM      6  C   UNL A   1      33.600  26.308  23.913  1.00  0.00     0.158 C 
BRANCH   6   7
ATOM      7  C   UNL A   1      33.253  27.680  24.471  1.00  0.00     0.169 C 
ATOM      8  O   UNL A   1      33.872  28.177  25.411  1.00  0.00    -0.294 OA
BRANCH   7   9
ATOM      9  C   UNL A   1      32.142  28.463  23.880  1.00  0.00     0.018 A 
ATOM     10  C   UNL A   1      29.692  29.620  23.090  1.00  0.00    -0.043 A 
ATOM     11  C   UNL A   1      30.327  30.004  24.283  1.00  0.00     0.005 A 
ATOM     12  C   UNL A   1      30.439  28.823  22.206  1.00  0.00     0.005 A 
ATOM     13  C   UNL A   1      31.551  29.449  24.664  1.00  0.00     0.012 A 
ATOM     14  C   UNL A   1      31.639  28.214  22.608  1.00  0.00     0.012 A 
BRANCH  10  15
ATOM     15  C   UNL A   1      28.235  30.035  22.808  1.00  0.00    -0.013 C 
ATOM     16  C   UNL A   1      27.747  31.229  23.662  1.00  0.00     0.016 C 
ATOM     17  C   UNL A   1      27.307  28.845  23.081  1.00  0.00     0.016 C 
ATOM     18  C   UNL A   1      28.062  30.494  21.335  1.00  0.00     0.016 C 
ENDBRANCH  10  15
ENDBRANCH   7   9
ENDBRANCH   6   7
ENDBRANCH   5   6
BRANCH   5  19
ATOM     19  N   UNL A   1      32.281  24.428  25.327  1.00  0.00    -0.323 N 
ATOM     20  C   UNL A   1      31.222  24.136  24.357  1.00  0.00     0.263 C 
ATOM     21  C   UNL A   1      31.613  25.080  26.448  1.00  0.00     0.263 C 
ATOM     22  H   UNL A   1      32.723  23.560  25.631  1.00  0.00     0.348 HD
ATOM     23  C   UNL A   1      30.350  25.367  24.398  1.00  0.00     0.067 C 
ATOM     24  C   UNL A   1      30.385  25.776  25.862  1.00  0.00     0.067 C 
ENDBRANCH   5  19
ENDBRANCH   3   5
ENDBRANCH   2   3
ENDBRANCH   1   2
BRANCH   1  25
ATOM     25  C   UNL A   1      36.238  21.239  25.332  1.00  0.00     0.275 C 
BRANCH  25  26
ATOM     26  O   UNL A   1      37.294  21.996  25.894  1.00  0.00    -0.458 OA
BRANCH  26  27
ATOM     27  C   UNL A   1      38.519  21.423  25.953  1.00  0.00     0.338 C 
ATOM     28  O   UNL A   1      38.854  20.295  25.687  1.00  0.00    -0.246 OA
BRANCH  27  29
ATOM     29  C   UNL A   1      39.377  22.568  26.263  1.00  0.00     0.060 A 
ATOM     30  C   UNL A   1      38.967  23.849  25.886  1.00  0.00     0.016 A 
ATOM     31  C   UNL A   1      40.445  22.347  27.135  1.00  0.00     0.016 A 
ATOM     32  C   UNL A   1      39.615  24.947  26.438  1.00  0.00     0.010 A 
ATOM     33  C   UNL A   1      41.066  23.435  27.702  1.00  0.00     0.010 A 
ATOM     34  C   UNL A   1      40.654  24.731  27.348  1.00  0.00    -0.014 A 
BRANCH  34  35
ATOM     35  C   UNL A   1      41.479  25.829  27.863  1.00  0.00     0.031 A 
ATOM     36  C   UNL A   1      40.758  26.875  28.651  1.00  0.00     0.074 A 
ATOM     37  C   UNL A   1      42.747  25.959  27.443  1.00  0.00     0.049 A 
ATOM     38  N   UNL A   1      41.135  28.081  28.958  1.00  0.00    -0.248 NA
ATOM     39  C   UNL A   1      39.391  26.532  29.090  1.00  0.00     0.031 C 
ATOM     40  C   UNL A   1      43.472  24.989  26.619  1.00  0.00     0.029 A 
ATOM     41  N   UNL A   1      43.623  26.998  27.592  1.00  0.00    -0.354 N 
ATOM     42  C   UNL A   1      40.033  28.663  29.570  1.00  0.00     0.074 A 
ATOM     43  C   UNL A   1      38.969  27.688  29.574  1.00  0.00     0.031 C 
ATOM     44  C   UNL A   1      44.675  25.501  26.302  1.00  0.00     0.029 A 
ATOM     45  C   UNL A   1      44.783  26.839  26.872  1.00  0.00     0.049 A 
ATOM     46  H   UNL A   1      43.441  27.782  28.160  1.00  0.00     0.167 HD
ATOM     47  C   UNL A   1      39.935  29.904  30.092  1.00  0.00     0.034 A 
ATOM     48  C   UNL A   1      45.798  27.705  26.684  1.00  0.00     0.034 A 
ATOM     49  C   UNL A   1      41.034  30.825  30.095  1.00  0.00     0.049 A 
ATOM     50  C   UNL A   1      45.698  29.052  27.354  1.00  0.00     0.074 A 
ATOM     51  C   UNL A   1      41.106  32.086  30.652  1.00  0.00     0.029 A 
ATOM     52  N   UNL A   1      42.266  30.566  29.507  1.00  0.00    -0.354 N 
ATOM     53  N   UNL A   1      44.700  29.556  28.042  1.00  0.00    -0.248 NA
ATOM     54  C   UNL A   1      46.869  29.932  27.261  1.00  0.00     0.031 C 
ATOM     55  C   UNL A   1      42.384  32.591  30.397  1.00  0.00     0.029 A 
ATOM     56  C   UNL A   1      43.114  31.637  29.701  1.00  0.00     0.049 A 
ATOM     57  H   UNL A   1      42.499  29.741  29.024  1.00  0.00     0.167 HD
ATOM     58  C   UNL A   1      45.138  30.790  28.506  1.00  0.00     0.074 A 
ATOM     59  C   UNL A   1      46.495  30.954  28.020  1.00  0.00     0.031 C 
ATOM     60  C   UNL A   1      44.484  31.711  29.256  1.00  0.00     0.034 A 
BRANCH  47  61
ATOM     61  C   UNL A   1      38.626  30.293  30.722  1.00  0.00     0.023 A 
ATOM     62  C   UNL A   1      38.349  29.904  32.049  1.00  0.00     0.012 A 
ATOM     63  C   UNL A   1      37.669  31.039  30.008  1.00  0.00     0.148 A 
ATOM     64  C   UNL A   1      37.127  30.213  32.642  1.00  0.00     0.002 A 
ATOM     65  C   UNL A   1      36.471  31.385  30.623  1.00  0.00     0.091 A 
ATOM     66  F   UNL A   1      37.934  31.372  28.738  1.00  0.00    -0.205 F 
ATOM     67  C   UNL A   1      36.193  30.961  31.933  1.00  0.00     0.022 A 
BRANCH  65  68
ATOM     68  S   UNL A   1      35.230  32.407  29.823  1.00  0.00     0.127 S 
ATOM     69  O   UNL A   1      34.768  31.527  28.750  1.00  0.00    -0.237 OA
ATOM     70  O   UNL A   1      34.262  32.615  30.900  1.00  0.00    -0.237 OA
ATOM     71  O   UNL A   1      35.921  33.613  29.388  1.00  0.00    -0.744 OA
ENDBRANCH  65  68
ENDBRANCH  47  61
BRANCH  48  72
ATOM     72  C   UNL A   1      47.003  27.291  25.912  1.00  0.00     0.023 A 
ATOM     73  C   UNL A   1      47.952  26.453  26.529  1.00  0.00     0.012 A 
ATOM     74  C   UNL A   1      47.194  27.665  24.568  1.00  0.00     0.148 A 
ATOM     75  C   UNL A   1      49.082  26.020  25.835  1.00  0.00     0.002 A 
ATOM     76  C   UNL A   1      48.299  27.192  23.866  1.00  0.00     0.091 A 
ATOM     77  F   UNL A   1      46.286  28.468  23.996  1.00  0.00    -0.205 F 
ATOM     78  C   UNL A   1      49.251  26.380  24.501  1.00  0.00     0.022 A 
BRANCH  76  79
ATOM     79  S   UNL A   1      48.538  27.505  22.111  1.00  0.00     0.127 S 
ATOM     80  O   UNL A   1      48.758  26.159  21.593  1.00  0.00    -0.237 OA
ATOM     81  O   UNL A   1      47.258  28.108  21.732  1.00  0.00    -0.237 OA
ATOM     82  O   UNL A   1      49.674  28.413  22.027  1.00  0.00    -0.744 OA
ENDBRANCH  76  79
ENDBRANCH  48  72
BRANCH  60  83
ATOM     83  C   UNL A   1      45.241  32.944  29.659  1.00  0.00     0.023 A 
ATOM     84  C   UNL A   1      46.007  32.940  30.839  1.00  0.00     0.012 A 
ATOM     85  C   UNL A   1      45.298  34.048  28.789  1.00  0.00     0.148 A 
ATOM     86  C   UNL A   1      46.813  34.032  31.155  1.00  0.00     0.002 A 
ATOM     87  C   UNL A   1      46.140  35.110  29.085  1.00  0.00     0.091 A 
ATOM     88  F   UNL A   1      44.543  34.028  27.680  1.00  0.00    -0.205 F 
ATOM     89  C   UNL A   1      46.892  35.108  30.272  1.00  0.00     0.022 A 
BRANCH  87  90
ATOM     90  S   UNL A   1      46.386  36.483  27.954  1.00  0.00     0.127 S 
ATOM     91  O   UNL A   1      47.133  37.423  28.787  1.00  0.00    -0.237 OA
ATOM     92  O   UNL A   1      47.164  35.864  26.881  1.00  0.00    -0.237 OA
ATOM     93  O   UNL A   1      45.054  36.922  27.558  1.00  0.00    -0.744 OA
ENDBRANCH  87  90
ENDBRANCH  60  83
ENDBRANCH  34  35
ENDBRANCH  27  29
ENDBRANCH  26  27
ENDBRANCH  25  26
ENDBRANCH   1  25
TORSDOF 19
ENDMDL
MODEL 3
REMARK VINA RESULT:     -11.3      1.315      3.576
REMARK SMILES CC(C)(C)c1ccc(C(=O)C[C@H](C(=O)OCCOC(=O)c2ccc(-c3c4nc(c(-c5cccc(S(=O)(=O)[O-])c5F)c5ccc([nH]5)c(-c5cccc(S(=O)(=O)[O-])c5F)c5nc(c(-c6cccc(S(=O)(=O)[O-])c6F)c6ccc3[nH]6)C=C5)C=C4)cc2)[NH+]2CCCC2)cc1
REMARK SMILES IDX 16 1 15 2 13 3 14 4 12 5 11 6 9 7 10 8 8 9 5 10 6 11 90 12
REMARK SMILES IDX 7 13 89 14 2 15 1 16 3 17 4 18 84 19 85 20 88 21 86 23 87 24
REMARK SMILES IDX 17 25 18 26 19 27 20 28 21 29 22 30 83 31 23 32 82 33 24 34
REMARK SMILES IDX 25 35 26 36 76 37 27 38 81 39 75 40 77 41 28 42 80 43 74 44
REMARK SMILES IDX 73 45 29 47 61 48 41 49 60 50 42 51 45 52 59 53 78 54 43 55
REMARK SMILES IDX 44 56 58 58 79 59 46 60 30 61 31 62 39 63 32 64 34 65 40 66
REMARK SMILES IDX 33 67 35 68 36 69 37 70 38 71 62 72 63 73 71 74 64 75 66 76
REMARK SMILES IDX 72 77 65 78 67 79 68 80 69 81 70 82 47 83 48 84 56 85 49 86
REMARK SMILES IDX 51 87 57 88 50 89 52 90 53 91 54 92 55 93
REMARK H PARENT 84 22 77 46 45 57
REMARK Flexibility Score: inf
ROOT
ATOM      1  C   UNL A   1      35.375  22.788  26.202  1.00  0.00     0.274 C 
ENDROOT
BRANCH   1   2
ATOM      2  O   UNL A   1      35.226  24.165  25.808  1.00  0.00    -0.458 OA
BRANCH   2   3
ATOM      3  C   UNL A   1      33.959  24.633  25.678  1.00  0.00     0.365 C 
ATOM      4  O   UNL A   1      33.134  24.659  26.584  1.00  0.00    -0.245 OA
BRANCH   3   5
ATOM      5  C   UNL A   1      33.636  24.989  24.219  1.00  0.00     0.302 C 
BRANCH   5   6
ATOM      6  C   UNL A   1      33.406  23.752  23.311  1.00  0.00     0.158 C 
BRANCH   6   7
ATOM      7  C   UNL A   1      32.155  22.901  23.472  1.00  0.00     0.169 C 
ATOM      8  O   UNL A   1      31.026  23.391  23.452  1.00  0.00    -0.294 OA
BRANCH   7   9
ATOM      9  C   UNL A   1      32.272  21.435  23.654  1.00  0.00     0.018 A 
ATOM     10  C   UNL A   1      33.066  18.748  23.992  1.00  0.00    -0.043 A 
ATOM     11  C   UNL A   1      33.024  19.637  25.079  1.00  0.00     0.005 A 
ATOM     12  C   UNL A   1      32.475  19.187  22.795  1.00  0.00     0.005 A 
ATOM     13  C   UNL A   1      32.609  20.960  24.918  1.00  0.00     0.012 A 
ATOM     14  C   UNL A   1      32.115  20.531  22.609  1.00  0.00     0.012 A 
BRANCH  10  15
ATOM     15  C   UNL A   1      33.766  17.380  24.123  1.00  0.00    -0.013 C 
ATOM     16  C   UNL A   1      34.076  16.702  22.768  1.00  0.00     0.016 C 
ATOM     17  C   UNL A   1      32.875  16.433  24.936  1.00  0.00     0.016 C 
ATOM     18  C   UNL A   1      35.141  17.524  24.827  1.00  0.00     0.016 C 
ENDBRANCH  10  15
ENDBRANCH   7   9
ENDBRANCH   6   7
ENDBRANCH   5   6
BRANCH   5  19
ATOM     19  N   UNL A   1      32.900  26.279  24.104  1.00  0.00    -0.323 N 
ATOM     20  C   UNL A   1      32.341  26.635  22.797  1.00  0.00     0.263 C 
ATOM     21  C   UNL A   1      33.576  27.483  24.578  1.00  0.00     0.263 C 
ATOM     22  H   UNL A   1      32.150  26.017  24.744  1.00  0.00     0.348 HD
ATOM     23  C   UNL A   1      33.426  27.467  22.157  1.00  0.00     0.067 C 
ATOM     24  C   UNL A   1      34.008  28.246  23.326  1.00  0.00     0.067 C 
ENDBRANCH   5  19
ENDBRANCH   3   5
ENDBRANCH   2   3
ENDBRANCH   1   2
BRANCH   1  25
ATOM     25  C   UNL A   1      36.177  21.998  25.175  1.00  0.00     0.275 C 
BRANCH  25  26
ATOM     26  O   UNL A   1      37.514  22.461  25.110  1.00  0.00    -0.458 OA
BRANCH  26  27
ATOM     27  C   UNL A   1      38.462  21.745  25.758  1.00  0.00     0.338 C 
ATOM     28  O   UNL A   1      38.737  20.573  25.667  1.00  0.00    -0.246 OA
BRANCH  27  29
ATOM     29  C   UNL A   1      39.189  22.787  26.484  1.00  0.00     0.060 A 
ATOM     30  C   UNL A   1      40.235  22.423  27.335  1.00  0.00     0.016 A 
ATOM     31  C   UNL A   1      38.957  24.111  26.102  1.00  0.00     0.016 A 
ATOM     32  C   UNL A   1      41.109  23.407  27.779  1.00  0.00     0.010 A 
ATOM     33  C   UNL A   1      39.840  25.079  26.521  1.00  0.00     0.010 A 
ATOM     34  C   UNL A   1      40.908  24.727  27.361  1.00  0.00    -0.014 A 
BRANCH  34  35
ATOM     35  C   UNL A   1      41.696  25.841  27.899  1.00  0.00     0.031 A 
ATOM     36  C   UNL A   1      40.935  26.866  28.677  1.00  0.00     0.074 A 
ATOM     37  C   UNL A   1      42.968  26.003  27.506  1.00  0.00     0.049 A 
ATOM     38  N   UNL A   1      41.277  28.078  28.998  1.00  0.00    -0.248 NA
ATOM     39  C   UNL A   1      39.567  26.489  29.086  1.00  0.00     0.031 C 
ATOM     40  C   UNL A   1      43.734  25.055  26.692  1.00  0.00     0.029 A 
ATOM     41  N   UNL A   1      43.817  27.061  27.679  1.00  0.00    -0.354 N 
ATOM     42  C   UNL A   1      40.149  28.631  29.590  1.00  0.00     0.074 A 
ATOM     43  C   UNL A   1      39.108  27.631  29.567  1.00  0.00     0.031 C 
ATOM     44  C   UNL A   1      44.930  25.596  26.403  1.00  0.00     0.029 A 
ATOM     45  C   UNL A   1      44.996  26.933  26.982  1.00  0.00     0.049 A 
ATOM     46  H   UNL A   1      43.605  27.837  28.246  1.00  0.00     0.167 HD
ATOM     47  C   UNL A   1      40.012  29.867  30.116  1.00  0.00     0.034 A 
ATOM     48  C   UNL A   1      45.993  27.823  26.820  1.00  0.00     0.034 A 
ATOM     49  C   UNL A   1      41.089  30.812  30.147  1.00  0.00     0.049 A 
ATOM     50  C   UNL A   1      45.849  29.163  27.495  1.00  0.00     0.074 A 
ATOM     51  C   UNL A   1      41.120  32.071  30.712  1.00  0.00     0.029 A 
ATOM     52  N   UNL A   1      42.338  30.586  29.584  1.00  0.00    -0.354 N 
ATOM     53  N   UNL A   1      44.825  29.641  28.165  1.00  0.00    -0.248 NA
ATOM     54  C   UNL A   1      47.000  30.071  27.430  1.00  0.00     0.031 C 
ATOM     55  C   UNL A   1      42.391  32.608  30.486  1.00  0.00     0.029 A 
ATOM     56  C   UNL A   1      43.157  31.675  29.801  1.00  0.00     0.049 A 
ATOM     57  H   UNL A   1      42.600  29.769  29.101  1.00  0.00     0.167 HD
ATOM     58  C   UNL A   1      45.224  30.882  28.643  1.00  0.00     0.074 A 
ATOM     59  C   UNL A   1      46.587  31.080  28.187  1.00  0.00     0.031 C 
ATOM     60  C   UNL A   1      44.533  31.783  29.385  1.00  0.00     0.034 A 
BRANCH  47  61
ATOM     61  C   UNL A   1      38.681  30.221  30.721  1.00  0.00     0.023 A 
ATOM     62  C   UNL A   1      38.362  29.766  32.016  1.00  0.00     0.012 A 
ATOM     63  C   UNL A   1      37.746  31.001  30.014  1.00  0.00     0.148 A 
ATOM     64  C   UNL A   1      37.119  30.043  32.583  1.00  0.00     0.002 A 
ATOM     65  C   UNL A   1      36.527  31.313  30.605  1.00  0.00     0.091 A 
ATOM     66  F   UNL A   1      38.052  31.398  28.771  1.00  0.00    -0.205 F 
ATOM     67  C   UNL A   1      36.207  30.824  31.882  1.00  0.00     0.022 A 
BRANCH  65  68
ATOM     68  S   UNL A   1      35.310  32.373  29.816  1.00  0.00     0.127 S 
ATOM     69  O   UNL A   1      34.343  32.568  30.896  1.00  0.00    -0.237 OA
ATOM     70  O   UNL A   1      36.102  33.557  29.486  1.00  0.00    -0.237 OA
ATOM     71  O   UNL A   1      34.818  31.631  28.663  1.00  0.00    -0.744 OA
ENDBRANCH  65  68
ENDBRANCH  47  61
BRANCH  48  72
ATOM     72  C   UNL A   1      47.223  27.442  26.071  1.00  0.00     0.023 A 
ATOM     73  C   UNL A   1      48.205  26.668  26.722  1.00  0.00     0.012 A 
ATOM     74  C   UNL A   1      47.410  27.782  24.717  1.00  0.00     0.148 A 
ATOM     75  C   UNL A   1      49.360  26.266  26.051  1.00  0.00     0.002 A 
ATOM     76  C   UNL A   1      48.542  27.339  24.039  1.00  0.00     0.091 A 
ATOM     77  F   UNL A   1      46.471  28.524  24.113  1.00  0.00    -0.205 F 
ATOM     78  C   UNL A   1      49.524  26.593  24.708  1.00  0.00     0.022 A 
BRANCH  76  79
ATOM     79  S   UNL A   1      48.783  27.609  22.277  1.00  0.00     0.127 S 
ATOM     80  O   UNL A   1      50.137  28.152  22.239  1.00  0.00    -0.237 OA
ATOM     81  O   UNL A   1      48.648  26.253  21.740  1.00  0.00    -0.237 OA
ATOM     82  O   UNL A   1      47.721  28.520  21.873  1.00  0.00    -0.744 OA
ENDBRANCH  76  79
ENDBRANCH  48  72
BRANCH  60  83
ATOM     83  C   UNL A   1      45.253  33.031  29.810  1.00  0.00     0.023 A 
ATOM     84  C   UNL A   1      46.031  33.024  30.981  1.00  0.00     0.012 A 
ATOM     85  C   UNL A   1      45.264  34.157  28.966  1.00  0.00     0.148 A 
ATOM     86  C   UNL A   1      46.804  34.135  31.315  1.00  0.00     0.002 A 
ATOM     87  C   UNL A   1      46.073  35.239  29.279  1.00  0.00     0.091 A 
ATOM     88  F   UNL A   1      44.498  34.138  27.865  1.00  0.00    -0.205 F 
ATOM     89  C   UNL A   1      46.837  35.234  30.458  1.00  0.00     0.022 A 
BRANCH  87  90
ATOM     90  S   UNL A   1      46.260  36.646  28.180  1.00  0.00     0.127 S 
ATOM     91  O   UNL A   1      47.340  37.388  28.828  1.00  0.00    -0.237 OA
ATOM     92  O   UNL A   1      46.631  36.005  26.918  1.00  0.00    -0.237 OA
ATOM     93  O   UNL A   1      44.967  37.316  28.159  1.00  0.00    -0.744 OA
ENDBRANCH  87  90
ENDBRANCH  60  83
ENDBRANCH  34  35
ENDBRANCH  27  29
ENDBRANCH  26  27
ENDBRANCH  25  26
ENDBRANCH   1  25
TORSDOF 19
ENDMDL
