MODEL 1
REMARK VINA RESULT:     -10.5      0.000      0.000
REMARK SMILES Cc1cc([C@H]([NH3+])C(=O)OCCOC(=O)c2ccc(-c3c4nc(c(-c5cccc(S(=O)(=O)[O-])c5F)c5ccc([nH]5)c(-c5cccc(S(=O)(=O)[O-])c5F)c5nc(c(-c6cccc(S(=O)(=O)[O-])c6F)c6ccc3[nH]6)C=C5)C=C4)cc2)ccc1Cl
REMARK SMILES IDX 11 1 10 2 9 3 7 4 8 5 5 6 4 7 1 8 2 9 3 10 80 11 79 12 81 13
REMARK SMILES IDX 78 14 6 15 12 19 13 20 14 21 15 22 16 23 77 24 17 25 76 26
REMARK SMILES IDX 18 27 19 28 20 29 70 30 21 31 75 32 69 33 71 34 22 35 74 36
REMARK SMILES IDX 68 37 67 38 23 40 55 41 35 42 54 43 36 44 39 45 53 46 72 47
REMARK SMILES IDX 37 48 38 49 52 51 73 52 40 53 24 54 25 55 33 56 26 57 28 58
REMARK SMILES IDX 34 59 27 60 29 61 30 62 31 63 32 64 56 65 57 66 65 67 58 68
REMARK SMILES IDX 60 69 66 70 59 71 61 72 62 73 63 74 64 75 41 76 42 77 50 78
REMARK SMILES IDX 43 79 45 80 51 81 44 82 46 83 47 84 48 85 49 86
REMARK H PARENT 6 16 6 17 6 18 71 39 39 50
REMARK Flexibility Score: inf
ROOT
ATOM      1  C   UNL A   1      41.003  19.675  26.193  1.00  0.00     0.275 C 
ENDROOT
BRANCH   1   2
ATOM      2  C   UNL A   1      42.530  19.650  26.313  1.00  0.00     0.274 C 
BRANCH   2   3
ATOM      3  O   UNL A   1      43.148  19.984  25.059  1.00  0.00    -0.457 OA
BRANCH   3   4
ATOM      4  C   UNL A   1      44.367  20.596  25.121  1.00  0.00     0.369 C 
ATOM      5  O   UNL A   1      45.419  20.019  25.379  1.00  0.00    -0.245 OA
BRANCH   4   6
ATOM      6  C   UNL A   1      44.288  22.108  24.816  1.00  0.00     0.323 C 
BRANCH   6   7
ATOM      7  C   UNL A   1      45.034  22.909  25.860  1.00  0.00     0.021 A 
ATOM      8  C   UNL A   1      44.768  23.581  29.598  1.00  0.00     0.046 C 
ATOM      9  C   UNL A   1      45.289  23.609  28.190  1.00  0.00    -0.032 A 
ATOM     10  C   UNL A   1      44.574  22.940  27.187  1.00  0.00     0.015 A 
ATOM     11  C   UNL A   1      46.473  24.275  27.841  1.00  0.00     0.043 A 
ATOM     12  C   UNL A   1      46.933  24.261  26.522  1.00  0.00     0.021 A 
ATOM     13  Cl  UNL A   1      47.406  25.130  29.016  1.00  0.00    -0.084 Cl
ATOM     14  C   UNL A   1      46.221  23.576  25.537  1.00  0.00     0.012 A 
ENDBRANCH   6   7
BRANCH   6  15
ATOM     15  N   UNL A   1      42.899  22.591  24.649  1.00  0.00    -0.342 N 
ATOM     16  H   UNL A   1      42.841  23.568  24.939  1.00  0.00     0.345 HD
ATOM     17  H   UNL A   1      42.271  22.028  25.224  1.00  0.00     0.345 HD
ATOM     18  H   UNL A   1      42.626  22.511  23.669  1.00  0.00     0.345 HD
ENDBRANCH   6  15
ENDBRANCH   4   6
ENDBRANCH   3   4
ENDBRANCH   2   3
ENDBRANCH   1   2
BRANCH   1  19
ATOM     19  O   UNL A   1      40.404  20.639  27.078  1.00  0.00    -0.458 OA
BRANCH  19  20
ATOM     20  C   UNL A   1      39.637  21.581  26.481  1.00  0.00     0.338 C 
ATOM     21  O   UNL A   1      38.671  21.400  25.757  1.00  0.00    -0.246 OA
BRANCH  20  22
ATOM     22  C   UNL A   1      40.024  22.917  26.962  1.00  0.00     0.060 A 
ATOM     23  C   UNL A   1      39.542  24.021  26.254  1.00  0.00     0.016 A 
ATOM     24  C   UNL A   1      40.896  23.089  28.038  1.00  0.00     0.016 A 
ATOM     25  C   UNL A   1      39.941  25.305  26.600  1.00  0.00     0.010 A 
ATOM     26  C   UNL A   1      41.294  24.382  28.389  1.00  0.00     0.010 A 
ATOM     27  C   UNL A   1      40.831  25.494  27.662  1.00  0.00    -0.014 A 
BRANCH  27  28
ATOM     28  C   UNL A   1      41.312  26.859  27.970  1.00  0.00     0.031 A 
ATOM     29  C   UNL A   1      42.716  27.249  27.616  1.00  0.00     0.074 A 
ATOM     30  C   UNL A   1      40.481  27.741  28.555  1.00  0.00     0.049 A 
ATOM     31  N   UNL A   1      43.345  28.370  27.853  1.00  0.00    -0.248 NA
ATOM     32  C   UNL A   1      43.523  26.244  26.902  1.00  0.00     0.031 C 
ATOM     33  C   UNL A   1      39.091  27.471  28.926  1.00  0.00     0.029 A 
ATOM     34  N   UNL A   1      40.691  29.035  28.957  1.00  0.00    -0.354 N 
ATOM     35  C   UNL A   1      44.632  28.193  27.359  1.00  0.00     0.074 A 
ATOM     36  C   UNL A   1      44.694  26.858  26.805  1.00  0.00     0.031 C 
ATOM     37  C   UNL A   1      38.579  28.560  29.520  1.00  0.00     0.029 A 
ATOM     38  C   UNL A   1      39.612  29.588  29.604  1.00  0.00     0.049 A 
ATOM     39  H   UNL A   1      41.533  29.519  28.798  1.00  0.00     0.167 HD
ATOM     40  C   UNL A   1      45.662  29.071  27.358  1.00  0.00     0.034 A 
ATOM     41  C   UNL A   1      39.482  30.781  30.217  1.00  0.00     0.034 A 
ATOM     42  C   UNL A   1      45.578  30.409  27.878  1.00  0.00     0.049 A 
ATOM     43  C   UNL A   1      40.645  31.735  30.205  1.00  0.00     0.074 A 
ATOM     44  C   UNL A   1      46.553  31.390  27.888  1.00  0.00     0.029 A 
ATOM     45  N   UNL A   1      44.454  30.954  28.480  1.00  0.00    -0.354 N 
ATOM     46  N   UNL A   1      41.825  31.588  29.652  1.00  0.00    -0.248 NA
ATOM     47  C   UNL A   1      40.453  33.027  30.878  1.00  0.00     0.031 C 
ATOM     48  C   UNL A   1      46.021  32.526  28.510  1.00  0.00     0.029 A 
ATOM     49  C   UNL A   1      44.711  32.256  28.872  1.00  0.00     0.049 A 
ATOM     50  H   UNL A   1      43.599  30.484  28.610  1.00  0.00     0.167 HD
ATOM     51  C   UNL A   1      42.506  32.779  29.883  1.00  0.00     0.074 A 
ATOM     52  C   UNL A   1      41.597  33.643  30.609  1.00  0.00     0.031 C 
ATOM     53  C   UNL A   1      43.772  33.120  29.542  1.00  0.00     0.034 A 
BRANCH  40  54
ATOM     54  C   UNL A   1      46.963  28.619  26.754  1.00  0.00     0.023 A 
ATOM     55  C   UNL A   1      48.080  28.403  27.585  1.00  0.00     0.012 A 
ATOM     56  C   UNL A   1      47.068  28.359  25.374  1.00  0.00     0.148 A 
ATOM     57  C   UNL A   1      49.289  27.962  27.050  1.00  0.00     0.002 A 
ATOM     58  C   UNL A   1      48.266  27.884  24.851  1.00  0.00     0.091 A 
ATOM     59  F   UNL A   1      46.002  28.597  24.595  1.00  0.00    -0.205 F 
ATOM     60  C   UNL A   1      49.379  27.693  25.686  1.00  0.00     0.022 A 
BRANCH  58  61
ATOM     61  S   UNL A   1      48.456  27.446  23.120  1.00  0.00     0.127 S 
ATOM     62  O   UNL A   1      47.392  28.233  22.498  1.00  0.00    -0.237 OA
ATOM     63  O   UNL A   1      49.811  27.915  22.827  1.00  0.00    -0.237 OA
ATOM     64  O   UNL A   1      48.290  26.001  23.054  1.00  0.00    -0.744 OA
ENDBRANCH  58  61
ENDBRANCH  40  54
BRANCH  41  65
ATOM     65  C   UNL A   1      38.189  31.144  30.862  1.00  0.00     0.023 A 
ATOM     66  C   UNL A   1      37.992  30.859  32.226  1.00  0.00     0.012 A 
ATOM     67  C   UNL A   1      37.174  31.807  30.145  1.00  0.00     0.148 A 
ATOM     68  C   UNL A   1      36.799  31.210  32.860  1.00  0.00     0.002 A 
ATOM     69  C   UNL A   1      36.011  32.201  30.795  1.00  0.00     0.091 A 
ATOM     70  F   UNL A   1      37.371  32.049  28.840  1.00  0.00    -0.205 F 
ATOM     71  C   UNL A   1      35.815  31.892  32.149  1.00  0.00     0.022 A 
BRANCH  69  72
ATOM     72  S   UNL A   1      34.754  33.198  29.985  1.00  0.00     0.127 S 
ATOM     73  O   UNL A   1      33.944  33.637  31.118  1.00  0.00    -0.237 OA
ATOM     74  O   UNL A   1      35.556  34.249  29.357  1.00  0.00    -0.237 OA
ATOM     75  O   UNL A   1      34.097  32.304  29.040  1.00  0.00    -0.744 OA
ENDBRANCH  69  72
ENDBRANCH  41  65
BRANCH  53  76
ATOM     76  C   UNL A   1      44.249  34.496  29.921  1.00  0.00     0.023 A 
ATOM     77  C   UNL A   1      44.982  34.675  31.110  1.00  0.00     0.012 A 
ATOM     78  C   UNL A   1      44.046  35.591  29.059  1.00  0.00     0.148 A 
ATOM     79  C   UNL A   1      45.484  35.931  31.449  1.00  0.00     0.002 A 
ATOM     80  C   UNL A   1      44.586  36.830  29.383  1.00  0.00     0.091 A 
ATOM     81  F   UNL A   1      43.327  35.404  27.943  1.00  0.00    -0.205 F 
ATOM     82  C   UNL A   1      45.298  37.004  30.581  1.00  0.00     0.022 A 
BRANCH  80  83
ATOM     83  S   UNL A   1      44.472  38.241  28.277  1.00  0.00     0.127 S 
ATOM     84  O   UNL A   1      43.030  38.479  28.244  1.00  0.00    -0.237 OA
ATOM     85  O   UNL A   1      45.243  39.261  28.989  1.00  0.00    -0.237 OA
ATOM     86  O   UNL A   1      45.066  37.810  27.019  1.00  0.00    -0.744 OA
ENDBRANCH  80  83
ENDBRANCH  53  76
ENDBRANCH  27  28
ENDBRANCH  20  22
ENDBRANCH  19  20
ENDBRANCH   1  19
TORSDOF 16
ENDMDL
MODEL 2
REMARK VINA RESULT:     -10.1      4.763     11.512
REMARK SMILES Cc1cc([C@H]([NH3+])C(=O)OCCOC(=O)c2ccc(-c3c4nc(c(-c5cccc(S(=O)(=O)[O-])c5F)c5ccc([nH]5)c(-c5cccc(S(=O)(=O)[O-])c5F)c5nc(c(-c6cccc(S(=O)(=O)[O-])c6F)c6ccc3[nH]6)C=C5)C=C4)cc2)ccc1Cl
REMARK SMILES IDX 11 1 10 2 9 3 7 4 8 5 5 6 4 7 1 8 2 9 3 10 80 11 79 12 81 13
REMARK SMILES IDX 78 14 6 15 12 19 13 20 14 21 15 22 16 23 77 24 17 25 76 26
REMARK SMILES IDX 18 27 19 28 20 29 70 30 21 31 75 32 69 33 71 34 22 35 74 36
REMARK SMILES IDX 68 37 67 38 23 40 55 41 35 42 54 43 36 44 39 45 53 46 72 47
REMARK SMILES IDX 37 48 38 49 52 51 73 52 40 53 24 54 25 55 33 56 26 57 28 58
REMARK SMILES IDX 34 59 27 60 29 61 30 62 31 63 32 64 56 65 57 66 65 67 58 68
REMARK SMILES IDX 60 69 66 70 59 71 61 72 62 73 63 74 64 75 41 76 42 77 50 78
REMARK SMILES IDX 43 79 45 80 51 81 44 82 46 83 47 84 48 85 49 86
REMARK H PARENT 6 16 6 17 6 18 71 39 39 50
REMARK Flexibility Score: inf
ROOT
ATOM      1  C   UNL A   1      33.464  33.052  27.890  1.00  0.00     0.275 C 
ENDROOT
BRANCH   1   2
ATOM      2  C   UNL A   1      33.455  34.404  28.612  1.00  0.00     0.274 C 
BRANCH   2   3
ATOM      3  O   UNL A   1      33.160  34.238  30.008  1.00  0.00    -0.457 OA
BRANCH   3   4
ATOM      4  C   UNL A   1      34.042  34.793  30.890  1.00  0.00     0.369 C 
ATOM      5  O   UNL A   1      34.120  35.994  31.128  1.00  0.00    -0.245 OA
BRANCH   4   6
ATOM      6  C   UNL A   1      34.936  33.738  31.580  1.00  0.00     0.323 C 
BRANCH   6   7
ATOM      7  C   UNL A   1      36.386  33.925  31.195  1.00  0.00     0.021 A 
ATOM      8  C   UNL A   1      39.703  34.527  32.962  1.00  0.00     0.046 C 
ATOM      9  C   UNL A   1      38.712  34.283  31.861  1.00  0.00    -0.032 A 
ATOM     10  C   UNL A   1      37.351  34.184  32.181  1.00  0.00     0.015 A 
ATOM     11  C   UNL A   1      39.099  34.142  30.520  1.00  0.00     0.043 A 
ATOM     12  C   UNL A   1      38.146  33.895  29.529  1.00  0.00     0.021 A 
ATOM     13  Cl  UNL A   1      40.754  34.259  30.042  1.00  0.00    -0.084 Cl
ATOM     14  C   UNL A   1      36.797  33.781  29.864  1.00  0.00     0.012 A 
ENDBRANCH   6   7
BRANCH   6  15
ATOM     15  N   UNL A   1      34.481  32.350  31.337  1.00  0.00    -0.342 N 
ATOM     16  H   UNL A   1      33.540  32.230  31.712  1.00  0.00     0.345 HD
ATOM     17  H   UNL A   1      35.116  31.698  31.797  1.00  0.00     0.345 HD
ATOM     18  H   UNL A   1      34.473  32.166  30.333  1.00  0.00     0.345 HD
ENDBRANCH   6  15
ENDBRANCH   4   6
ENDBRANCH   3   4
ENDBRANCH   2   3
ENDBRANCH   1   2
BRANCH   1  19
ATOM     19  O   UNL A   1      34.424  32.141  28.455  1.00  0.00    -0.458 OA
BRANCH  19  20
ATOM     20  C   UNL A   1      34.520  30.940  27.839  1.00  0.00     0.338 C 
ATOM     21  O   UNL A   1      33.747  30.461  27.024  1.00  0.00    -0.246 OA
BRANCH  20  22
ATOM     22  C   UNL A   1      35.813  30.316  28.159  1.00  0.00     0.060 A 
ATOM     23  C   UNL A   1      35.943  29.705  29.409  1.00  0.00     0.016 A 
ATOM     24  C   UNL A   1      36.902  30.387  27.288  1.00  0.00     0.016 A 
ATOM     25  C   UNL A   1      37.163  29.177  29.808  1.00  0.00     0.010 A 
ATOM     26  C   UNL A   1      38.129  29.851  27.688  1.00  0.00     0.010 A 
ATOM     27  C   UNL A   1      38.269  29.259  28.957  1.00  0.00    -0.014 A 
BRANCH  27  28
ATOM     28  C   UNL A   1      39.583  28.765  29.425  1.00  0.00     0.031 A 
ATOM     29  C   UNL A   1      40.292  29.483  30.536  1.00  0.00     0.074 A 
ATOM     30  C   UNL A   1      40.125  27.673  28.858  1.00  0.00     0.049 A 
ATOM     31  N   UNL A   1      41.470  29.247  31.050  1.00  0.00    -0.248 NA
ATOM     32  C   UNL A   1      39.581  30.617  31.152  1.00  0.00     0.031 C 
ATOM     33  C   UNL A   1      39.513  26.891  27.782  1.00  0.00     0.029 A 
ATOM     34  N   UNL A   1      41.320  27.043  29.094  1.00  0.00    -0.354 N 
ATOM     35  C   UNL A   1      41.664  30.226  32.016  1.00  0.00     0.074 A 
ATOM     36  C   UNL A   1      40.480  31.058  32.022  1.00  0.00     0.031 C 
ATOM     37  C   UNL A   1      40.347  25.897  27.437  1.00  0.00     0.029 A 
ATOM     38  C   UNL A   1      41.562  25.994  28.240  1.00  0.00     0.049 A 
ATOM     39  H   UNL A   1      41.943  27.317  29.805  1.00  0.00     0.167 HD
ATOM     40  C   UNL A   1      42.729  30.406  32.832  1.00  0.00     0.034 A 
ATOM     41  C   UNL A   1      42.655  25.216  28.104  1.00  0.00     0.034 A 
ATOM     42  C   UNL A   1      43.885  29.551  32.844  1.00  0.00     0.049 A 
ATOM     43  C   UNL A   1      43.826  25.441  29.021  1.00  0.00     0.074 A 
ATOM     44  C   UNL A   1      45.000  29.624  33.660  1.00  0.00     0.029 A 
ATOM     45  N   UNL A   1      44.076  28.467  32.000  1.00  0.00    -0.354 N 
ATOM     46  N   UNL A   1      43.956  26.313  29.992  1.00  0.00    -0.248 NA
ATOM     47  C   UNL A   1      44.990  24.562  28.842  1.00  0.00     0.031 C 
ATOM     48  C   UNL A   1      45.871  28.589  33.299  1.00  0.00     0.029 A 
ATOM     49  C   UNL A   1      45.292  27.864  32.270  1.00  0.00     0.049 A 
ATOM     50  H   UNL A   1      43.439  28.169  31.311  1.00  0.00     0.167 HD
ATOM     51  C   UNL A   1      45.202  26.068  30.560  1.00  0.00     0.074 A 
ATOM     52  C   UNL A   1      45.777  24.953  29.836  1.00  0.00     0.031 C 
ATOM     53  C   UNL A   1      45.821  26.718  31.576  1.00  0.00     0.034 A 
BRANCH  40  54
ATOM     54  C   UNL A   1      42.682  31.558  33.797  1.00  0.00     0.023 A 
ATOM     55  C   UNL A   1      43.185  32.816  33.406  1.00  0.00     0.012 A 
ATOM     56  C   UNL A   1      42.097  31.413  35.069  1.00  0.00     0.148 A 
ATOM     57  C   UNL A   1      43.130  33.904  34.275  1.00  0.00     0.002 A 
ATOM     58  C   UNL A   1      42.013  32.511  35.918  1.00  0.00     0.091 A 
ATOM     59  F   UNL A   1      41.650  30.202  35.434  1.00  0.00    -0.205 F 
ATOM     60  C   UNL A   1      42.536  33.755  35.526  1.00  0.00     0.022 A 
BRANCH  58  61
ATOM     61  S   UNL A   1      41.204  32.431  37.520  1.00  0.00     0.127 S 
ATOM     62  O   UNL A   1      41.159  33.843  37.899  1.00  0.00    -0.237 OA
ATOM     63  O   UNL A   1      39.904  31.849  37.184  1.00  0.00    -0.237 OA
ATOM     64  O   UNL A   1      42.049  31.584  38.350  1.00  0.00    -0.744 OA
ENDBRANCH  58  61
ENDBRANCH  40  54
BRANCH  41  65
ATOM     65  C   UNL A   1      42.670  24.135  27.080  1.00  0.00     0.023 A 
ATOM     66  C   UNL A   1      43.349  24.341  25.865  1.00  0.00     0.012 A 
ATOM     67  C   UNL A   1      42.053  22.891  27.319  1.00  0.00     0.148 A 
ATOM     68  C   UNL A   1      43.399  23.336  24.898  1.00  0.00     0.002 A 
ATOM     69  C   UNL A   1      42.152  21.876  26.375  1.00  0.00     0.091 A 
ATOM     70  F   UNL A   1      41.391  22.720  28.473  1.00  0.00    -0.205 F 
ATOM     71  C   UNL A   1      42.812  22.100  25.158  1.00  0.00     0.022 A 
BRANCH  69  72
ATOM     72  S   UNL A   1      41.540  20.216  26.689  1.00  0.00     0.127 S 
ATOM     73  O   UNL A   1      40.107  20.450  26.849  1.00  0.00    -0.237 OA
ATOM     74  O   UNL A   1      41.916  19.514  25.462  1.00  0.00    -0.237 OA
ATOM     75  O   UNL A   1      42.248  19.759  27.879  1.00  0.00    -0.744 OA
ENDBRANCH  69  72
ENDBRANCH  41  65
BRANCH  53  76
ATOM     76  C   UNL A   1      47.181  26.226  31.990  1.00  0.00     0.023 A 
ATOM     77  C   UNL A   1      47.301  25.360  33.094  1.00  0.00     0.012 A 
ATOM     78  C   UNL A   1      48.325  26.552  31.236  1.00  0.00     0.148 A 
ATOM     79  C   UNL A   1      48.545  24.845  33.458  1.00  0.00     0.002 A 
ATOM     80  C   UNL A   1      49.554  26.001  31.579  1.00  0.00     0.091 A 
ATOM     81  F   UNL A   1      48.193  27.394  30.202  1.00  0.00    -0.205 F 
ATOM     82  C   UNL A   1      49.668  25.155  32.694  1.00  0.00     0.022 A 
BRANCH  80  83
ATOM     83  S   UNL A   1      51.032  26.273  30.594  1.00  0.00     0.127 S 
ATOM     84  O   UNL A   1      52.053  25.600  31.396  1.00  0.00    -0.237 OA
ATOM     85  O   UNL A   1      50.701  25.598  29.338  1.00  0.00    -0.237 OA
ATOM     86  O   UNL A   1      51.174  27.718  30.480  1.00  0.00    -0.744 OA
ENDBRANCH  80  83
ENDBRANCH  53  76
ENDBRANCH  27  28
ENDBRANCH  20  22
ENDBRANCH  19  20
ENDBRANCH   1  19
TORSDOF 16
ENDMDL
MODEL 3
REMARK VINA RESULT:     -10.0      6.048      9.333
REMARK SMILES Cc1cc([C@H]([NH3+])C(=O)OCCOC(=O)c2ccc(-c3c4nc(c(-c5cccc(S(=O)(=O)[O-])c5F)c5ccc([nH]5)c(-c5cccc(S(=O)(=O)[O-])c5F)c5nc(c(-c6cccc(S(=O)(=O)[O-])c6F)c6ccc3[nH]6)C=C5)C=C4)cc2)ccc1Cl
REMARK SMILES IDX 11 1 10 2 9 3 7 4 8 5 5 6 4 7 1 8 2 9 3 10 80 11 79 12 81 13
REMARK SMILES IDX 78 14 6 15 12 19 13 20 14 21 15 22 16 23 77 24 17 25 76 26
REMARK SMILES IDX 18 27 19 28 20 29 70 30 21 31 75 32 69 33 71 34 22 35 74 36
REMARK SMILES IDX 68 37 67 38 23 40 55 41 35 42 54 43 36 44 39 45 53 46 72 47
REMARK SMILES IDX 37 48 38 49 52 51 73 52 40 53 24 54 25 55 33 56 26 57 28 58
REMARK SMILES IDX 34 59 27 60 29 61 30 62 31 63 32 64 56 65 57 66 65 67 58 68
REMARK SMILES IDX 60 69 66 70 59 71 61 72 62 73 63 74 64 75 41 76 42 77 50 78
REMARK SMILES IDX 43 79 45 80 51 81 44 82 46 83 47 84 48 85 49 86
REMARK H PARENT 6 16 6 17 6 18 71 39 39 50
REMARK Flexibility Score: inf
ROOT
ATOM      1  C   UNL A   1      31.419  30.359  25.617  1.00  0.00     0.275 C 
ENDROOT
BRANCH   1   2
ATOM      2  C   UNL A   1      31.090  29.143  24.747  1.00  0.00     0.274 C 
BRANCH   2   3
ATOM      3  O   UNL A   1      31.567  29.328  23.404  1.00  0.00    -0.457 OA
BRANCH   3   4
ATOM      4  C   UNL A   1      31.836  28.197  22.688  1.00  0.00     0.369 C 
ATOM      5  O   UNL A   1      30.989  27.534  22.097  1.00  0.00    -0.245 OA
BRANCH   4   6
ATOM      6  C   UNL A   1      33.339  27.840  22.684  1.00  0.00     0.323 C 
BRANCH   6   7
ATOM      7  C   UNL A   1      33.619  26.676  23.609  1.00  0.00     0.021 A 
ATOM      8  C   UNL A   1      34.498  22.987  23.287  1.00  0.00     0.046 C 
ATOM      9  C   UNL A   1      34.208  24.321  23.909  1.00  0.00    -0.032 A 
ATOM     10  C   UNL A   1      33.869  25.399  23.080  1.00  0.00     0.015 A 
ATOM     11  C   UNL A   1      34.272  24.533  25.294  1.00  0.00     0.043 A 
ATOM     12  C   UNL A   1      34.014  25.797  25.832  1.00  0.00     0.021 A 
ATOM     13  Cl  UNL A   1      34.674  23.255  26.385  1.00  0.00    -0.084 Cl
ATOM     14  C   UNL A   1      33.695  26.865  24.994  1.00  0.00     0.012 A 
ENDBRANCH   6   7
BRANCH   6  15
ATOM     15  N   UNL A   1      34.207  29.000  22.990  1.00  0.00    -0.342 N 
ATOM     16  H   UNL A   1      34.266  29.123  24.001  1.00  0.00     0.345 HD
ATOM     17  H   UNL A   1      33.814  29.841  22.567  1.00  0.00     0.345 HD
ATOM     18  H   UNL A   1      35.142  28.834  22.613  1.00  0.00     0.345 HD
ENDBRANCH   6  15
ENDBRANCH   4   6
ENDBRANCH   3   4
ENDBRANCH   2   3
ENDBRANCH   1   2
BRANCH   1  19
ATOM     19  O   UNL A   1      32.763  30.312  26.131  1.00  0.00    -0.458 OA
BRANCH  19  20
ATOM     20  C   UNL A   1      33.124  31.356  26.913  1.00  0.00     0.338 C 
ATOM     21  O   UNL A   1      32.447  32.327  27.213  1.00  0.00    -0.246 OA
BRANCH  20  22
ATOM     22  C   UNL A   1      34.438  31.093  27.521  1.00  0.00     0.060 A 
ATOM     23  C   UNL A   1      34.721  29.779  27.900  1.00  0.00     0.016 A 
ATOM     24  C   UNL A   1      35.348  32.119  27.781  1.00  0.00     0.016 A 
ATOM     25  C   UNL A   1      35.905  29.479  28.559  1.00  0.00     0.010 A 
ATOM     26  C   UNL A   1      36.543  31.816  28.442  1.00  0.00     0.010 A 
ATOM     27  C   UNL A   1      36.819  30.498  28.848  1.00  0.00    -0.014 A 
BRANCH  27  28
ATOM     28  C   UNL A   1      38.039  30.179  29.622  1.00  0.00     0.031 A 
ATOM     29  C   UNL A   1      39.070  29.260  29.038  1.00  0.00     0.074 A 
ATOM     30  C   UNL A   1      38.216  30.725  30.838  1.00  0.00     0.049 A 
ATOM     31  N   UNL A   1      40.173  28.811  29.575  1.00  0.00    -0.248 NA
ATOM     32  C   UNL A   1      38.828  28.779  27.666  1.00  0.00     0.031 C 
ATOM     33  C   UNL A   1      37.285  31.645  31.494  1.00  0.00     0.029 A 
ATOM     34  N   UNL A   1      39.232  30.571  31.748  1.00  0.00    -0.354 N 
ATOM     35  C   UNL A   1      40.736  27.962  28.630  1.00  0.00     0.074 A 
ATOM     36  C   UNL A   1      39.855  27.961  27.482  1.00  0.00     0.031 C 
ATOM     37  C   UNL A   1      37.762  31.958  32.708  1.00  0.00     0.029 A 
ATOM     38  C   UNL A   1      39.011  31.235  32.931  1.00  0.00     0.049 A 
ATOM     39  H   UNL A   1      40.039  30.037  31.569  1.00  0.00     0.167 HD
ATOM     40  C   UNL A   1      41.889  27.259  28.710  1.00  0.00     0.034 A 
ATOM     41  C   UNL A   1      39.725  31.237  34.074  1.00  0.00     0.034 A 
ATOM     42  C   UNL A   1      42.777  27.297  29.840  1.00  0.00     0.049 A 
ATOM     43  C   UNL A   1      41.000  30.442  34.136  1.00  0.00     0.074 A 
ATOM     44  C   UNL A   1      43.990  26.652  30.002  1.00  0.00     0.029 A 
ATOM     45  N   UNL A   1      42.548  28.019  31.001  1.00  0.00    -0.354 N 
ATOM     46  N   UNL A   1      41.566  29.718  33.200  1.00  0.00    -0.248 NA
ATOM     47  C   UNL A   1      41.748  30.482  35.400  1.00  0.00     0.031 C 
ATOM     48  C   UNL A   1      44.488  26.975  31.270  1.00  0.00     0.029 A 
ATOM     49  C   UNL A   1      43.593  27.833  31.889  1.00  0.00     0.049 A 
ATOM     50  H   UNL A   1      41.758  28.582  31.169  1.00  0.00     0.167 HD
ATOM     51  C   UNL A   1      42.751  29.241  33.751  1.00  0.00     0.074 A 
ATOM     52  C   UNL A   1      42.830  29.776  35.095  1.00  0.00     0.031 C 
ATOM     53  C   UNL A   1      43.680  28.422  33.201  1.00  0.00     0.034 A 
BRANCH  40  54
ATOM     54  C   UNL A   1      42.269  26.406  27.530  1.00  0.00     0.023 A 
ATOM     55  C   UNL A   1      43.010  26.971  26.472  1.00  0.00     0.012 A 
ATOM     56  C   UNL A   1      41.939  25.038  27.490  1.00  0.00     0.148 A 
ATOM     57  C   UNL A   1      43.393  26.193  25.380  1.00  0.00     0.002 A 
ATOM     58  C   UNL A   1      42.356  24.260  26.415  1.00  0.00     0.091 A 
ATOM     59  F   UNL A   1      41.210  24.526  28.493  1.00  0.00    -0.205 F 
ATOM     60  C   UNL A   1      43.075  24.837  25.356  1.00  0.00     0.022 A 
BRANCH  58  61
ATOM     61  S   UNL A   1      42.052  22.492  26.331  1.00  0.00     0.127 S 
ATOM     62  O   UNL A   1      42.674  22.025  27.569  1.00  0.00    -0.237 OA
ATOM     63  O   UNL A   1      40.590  22.427  26.323  1.00  0.00    -0.237 OA
ATOM     64  O   UNL A   1      42.683  22.038  25.099  1.00  0.00    -0.744 OA
ENDBRANCH  58  61
ENDBRANCH  40  54
BRANCH  41  65
ATOM     65  C   UNL A   1      39.259  32.046  35.235  1.00  0.00     0.023 A 
ATOM     66  C   UNL A   1      38.386  31.467  36.176  1.00  0.00     0.012 A 
ATOM     67  C   UNL A   1      39.707  33.366  35.435  1.00  0.00     0.148 A 
ATOM     68  C   UNL A   1      37.954  32.196  37.285  1.00  0.00     0.002 A 
ATOM     69  C   UNL A   1      39.315  34.067  36.568  1.00  0.00     0.091 A 
ATOM     70  F   UNL A   1      40.520  33.908  34.515  1.00  0.00    -0.205 F 
ATOM     71  C   UNL A   1      38.428  33.489  37.488  1.00  0.00     0.022 A 
BRANCH  69  72
ATOM     72  S   UNL A   1      39.985  35.685  36.971  1.00  0.00     0.127 S 
ATOM     73  O   UNL A   1      41.411  35.396  37.095  1.00  0.00    -0.237 OA
ATOM     74  O   UNL A   1      39.615  36.471  35.793  1.00  0.00    -0.237 OA
ATOM     75  O   UNL A   1      39.308  36.092  38.196  1.00  0.00    -0.744 OA
ENDBRANCH  69  72
ENDBRANCH  41  65
BRANCH  53  76
ATOM     76  C   UNL A   1      44.882  28.072  34.037  1.00  0.00     0.023 A 
ATOM     77  C   UNL A   1      46.016  28.906  34.008  1.00  0.00     0.012 A 
ATOM     78  C   UNL A   1      44.854  26.969  34.913  1.00  0.00     0.148 A 
ATOM     79  C   UNL A   1      47.116  28.633  34.820  1.00  0.00     0.002 A 
ATOM     80  C   UNL A   1      45.936  26.729  35.750  1.00  0.00     0.091 A 
ATOM     81  F   UNL A   1      43.773  26.176  34.910  1.00  0.00    -0.205 F 
ATOM     82  C   UNL A   1      47.071  27.554  35.699  1.00  0.00     0.022 A 
BRANCH  80  83
ATOM     83  S   UNL A   1      45.923  25.416  36.977  1.00  0.00     0.127 S 
ATOM     84  O   UNL A   1      47.159  25.681  37.710  1.00  0.00    -0.237 OA
ATOM     85  O   UNL A   1      44.698  25.699  37.726  1.00  0.00    -0.237 OA
ATOM     86  O   UNL A   1      45.892  24.169  36.225  1.00  0.00    -0.744 OA
ENDBRANCH  80  83
ENDBRANCH  53  76
ENDBRANCH  27  28
ENDBRANCH  20  22
ENDBRANCH  19  20
ENDBRANCH   1  19
TORSDOF 16
ENDMDL
