MODEL 1
REMARK VINA RESULT:     -10.0      0.000      0.000
REMARK SMILES C[C@H](CC[NH2+][C@@H]1CCOC2(CCC2)C1)CCC(=O)OCCOC(=O)c1ccc(-c2c3nc(c(-c4cccc(S(=O)(=O)[O-])c4F)c4ccc([nH]4)c(-c4cccc(S(=O)(=O)[O-])c4F)c4nc(c(-c5cccc(S(=O)(=O)[O-])c5F)c5ccc2[nH]5)C=C4)C=C3)cc1
REMARK SMILES IDX 19 1 17 2 18 3 16 4 15 5 2 6 1 7 3 8 4 9 5 10 6 13 7 14
REMARK SMILES IDX 14 15 8 16 10 17 9 18 11 19 13 20 12 21 20 22 21 23 22 24
REMARK SMILES IDX 23 25 24 26 25 27 26 28 87 29 27 30 86 31 28 32 29 33 30 34
REMARK SMILES IDX 80 35 31 36 85 37 79 38 81 39 32 40 84 41 78 42 77 43 33 45
REMARK SMILES IDX 65 46 45 47 64 48 46 49 49 50 63 51 82 52 47 53 48 54 62 56
REMARK SMILES IDX 83 57 50 58 34 59 35 60 43 61 36 62 38 63 44 64 37 65 39 66
REMARK SMILES IDX 40 67 41 68 42 69 66 70 67 71 75 72 68 73 70 74 76 75 69 76
REMARK SMILES IDX 71 77 72 78 73 79 74 80 51 81 52 82 60 83 53 84 55 85 61 86
REMARK SMILES IDX 54 87 56 88 57 89 58 90 59 91
REMARK H PARENT 5 11 5 12 81 44 49 55
REMARK Flexibility Score: inf
ROOT
ATOM      1  O   UNL A   1      30.712  29.636  24.027  1.00  0.00    -0.462 OA
ENDROOT
BRANCH   1   2
ATOM      2  C   UNL A   1      30.388  28.692  23.108  1.00  0.00     0.305 C 
ATOM      3  O   UNL A   1      30.005  28.923  21.969  1.00  0.00    -0.252 OA
BRANCH   2   4
ATOM      4  C   UNL A   1      30.475  27.292  23.667  1.00  0.00     0.123 C 
BRANCH   4   5
ATOM      5  C   UNL A   1      31.355  26.322  22.872  1.00  0.00     0.015 C 
BRANCH   5   6
ATOM      6  C   UNL A   1      32.845  26.276  23.270  1.00  0.00    -0.008 C 
ATOM      7  C   UNL A   1      33.623  27.266  22.396  1.00  0.00     0.008 C 
BRANCH   6   8
ATOM      8  C   UNL A   1      33.353  24.820  23.219  1.00  0.00     0.064 C 
BRANCH   8   9
ATOM      9  C   UNL A   1      34.480  24.391  24.159  1.00  0.00     0.261 C 
BRANCH   9  10
ATOM     10  N   UNL A   1      33.983  23.888  25.415  1.00  0.00    -0.344 N 
ATOM     11  H   UNL A   1      33.084  23.448  25.218  1.00  0.00     0.346 HD
ATOM     12  H   UNL A   1      33.987  24.714  26.012  1.00  0.00     0.346 HD
BRANCH  10  13
ATOM     13  C   UNL A   1      34.761  22.923  26.184  1.00  0.00     0.187 C 
ATOM     14  C   UNL A   1      36.153  22.497  25.679  1.00  0.00     0.093 C 
ATOM     15  C   UNL A   1      33.892  21.688  26.471  1.00  0.00     0.100 C 
ATOM     16  C   UNL A   1      36.136  21.396  24.623  1.00  0.00     0.167 C 
ATOM     17  C   UNL A   1      33.880  20.751  25.267  1.00  0.00     0.074 C 
ATOM     18  O   UNL A   1      35.244  20.344  24.985  1.00  0.00    -0.375 OA
ATOM     19  C   UNL A   1      32.884  19.565  25.442  1.00  0.00     0.036 C 
ATOM     20  C   UNL A   1      33.016  21.155  24.029  1.00  0.00     0.036 C 
ATOM     21  C   UNL A   1      32.559  19.690  23.943  1.00  0.00     0.006 C 
ENDBRANCH  10  13
ENDBRANCH   9  10
ENDBRANCH   8   9
ENDBRANCH   6   8
ENDBRANCH   5   6
ENDBRANCH   4   5
ENDBRANCH   2   4
ENDBRANCH   1   2
BRANCH   1  22
ATOM     22  C   UNL A   1      31.396  29.166  25.203  1.00  0.00     0.274 C 
BRANCH  22  23
ATOM     23  C   UNL A   1      32.558  30.089  25.570  1.00  0.00     0.275 C 
BRANCH  23  24
ATOM     24  O   UNL A   1      32.469  30.505  26.944  1.00  0.00    -0.458 OA
BRANCH  24  25
ATOM     25  C   UNL A   1      33.219  31.580  27.275  1.00  0.00     0.338 C 
ATOM     26  O   UNL A   1      32.902  32.755  27.207  1.00  0.00    -0.246 OA
BRANCH  25  27
ATOM     27  C   UNL A   1      34.490  31.121  27.858  1.00  0.00     0.060 A 
ATOM     28  C   UNL A   1      34.551  29.835  28.401  1.00  0.00     0.016 A 
ATOM     29  C   UNL A   1      35.586  31.979  27.939  1.00  0.00     0.016 A 
ATOM     30  C   UNL A   1      35.704  29.402  29.045  1.00  0.00     0.010 A 
ATOM     31  C   UNL A   1      36.751  31.536  28.571  1.00  0.00     0.010 A 
ATOM     32  C   UNL A   1      36.811  30.253  29.142  1.00  0.00    -0.014 A 
BRANCH  32  33
ATOM     33  C   UNL A   1      38.020  29.807  29.873  1.00  0.00     0.031 A 
ATOM     34  C   UNL A   1      38.283  30.316  31.261  1.00  0.00     0.074 A 
ATOM     35  C   UNL A   1      38.880  28.955  29.284  1.00  0.00     0.049 A 
ATOM     36  N   UNL A   1      39.318  30.110  32.032  1.00  0.00    -0.248 NA
ATOM     37  C   UNL A   1      37.247  31.174  31.858  1.00  0.00     0.031 C 
ATOM     38  C   UNL A   1      38.719  28.386  27.946  1.00  0.00     0.029 A 
ATOM     39  N   UNL A   1      40.070  28.438  29.729  1.00  0.00    -0.354 N 
ATOM     40  C   UNL A   1      39.084  30.848  33.185  1.00  0.00     0.074 A 
ATOM     41  C   UNL A   1      37.805  31.506  33.014  1.00  0.00     0.031 C 
ATOM     42  C   UNL A   1      39.782  27.612  27.669  1.00  0.00     0.029 A 
ATOM     43  C   UNL A   1      40.713  27.661  28.793  1.00  0.00     0.049 A 
ATOM     44  H   UNL A   1      40.430  28.606  30.630  1.00  0.00     0.167 HD
ATOM     45  C   UNL A   1      39.859  30.957  34.290  1.00  0.00     0.034 A 
ATOM     46  C   UNL A   1      41.927  27.079  28.828  1.00  0.00     0.034 A 
ATOM     47  C   UNL A   1      41.109  30.269  34.470  1.00  0.00     0.049 A 
ATOM     48  C   UNL A   1      42.769  27.222  30.066  1.00  0.00     0.074 A 
ATOM     49  C   UNL A   1      41.944  30.276  35.573  1.00  0.00     0.029 A 
ATOM     50  N   UNL A   1      41.705  29.452  33.520  1.00  0.00    -0.354 N 
ATOM     51  N   UNL A   1      42.490  27.842  31.187  1.00  0.00    -0.248 NA
ATOM     52  C   UNL A   1      44.085  26.566  30.055  1.00  0.00     0.031 C 
ATOM     53  C   UNL A   1      43.054  29.475  35.284  1.00  0.00     0.029 A 
ATOM     54  C   UNL A   1      42.902  28.956  34.008  1.00  0.00     0.049 A 
ATOM     55  H   UNL A   1      41.333  29.255  32.632  1.00  0.00     0.167 HD
ATOM     56  C   UNL A   1      43.579  27.629  32.025  1.00  0.00     0.074 A 
ATOM     57  C   UNL A   1      44.514  26.802  31.289  1.00  0.00     0.031 C 
ATOM     58  C   UNL A   1      43.796  28.090  33.282  1.00  0.00     0.034 A 
BRANCH  45  59
ATOM     59  C   UNL A   1      39.360  31.835  35.406  1.00  0.00     0.023 A 
ATOM     60  C   UNL A   1      38.445  31.318  36.345  1.00  0.00     0.012 A 
ATOM     61  C   UNL A   1      39.835  33.154  35.555  1.00  0.00     0.148 A 
ATOM     62  C   UNL A   1      37.987  32.108  37.398  1.00  0.00     0.002 A 
ATOM     63  C   UNL A   1      39.403  33.922  36.630  1.00  0.00     0.091 A 
ATOM     64  F   UNL A   1      40.684  33.636  34.637  1.00  0.00    -0.205 F 
ATOM     65  C   UNL A   1      38.472  33.405  37.547  1.00  0.00     0.022 A 
BRANCH  63  66
ATOM     66  S   UNL A   1      40.025  35.579  36.941  1.00  0.00     0.127 S 
ATOM     67  O   UNL A   1      41.460  35.336  37.072  1.00  0.00    -0.237 OA
ATOM     68  O   UNL A   1      39.635  36.290  35.722  1.00  0.00    -0.237 OA
ATOM     69  O   UNL A   1      39.352  36.037  38.149  1.00  0.00    -0.744 OA
ENDBRANCH  63  66
ENDBRANCH  45  59
BRANCH  46  70
ATOM     70  C   UNL A   1      42.399  26.276  27.665  1.00  0.00     0.023 A 
ATOM     71  C   UNL A   1      43.245  26.873  26.712  1.00  0.00     0.012 A 
ATOM     72  C   UNL A   1      42.047  24.920  27.519  1.00  0.00     0.148 A 
ATOM     73  C   UNL A   1      43.715  26.140  25.621  1.00  0.00     0.002 A 
ATOM     74  C   UNL A   1      42.563  24.181  26.460  1.00  0.00     0.091 A 
ATOM     75  F   UNL A   1      41.223  24.375  28.425  1.00  0.00    -0.205 F 
ATOM     76  C   UNL A   1      43.385  24.793  25.502  1.00  0.00     0.022 A 
BRANCH  74  77
ATOM     77  S   UNL A   1      42.292  22.412  26.304  1.00  0.00     0.127 S 
ATOM     78  O   UNL A   1      40.845  22.345  26.126  1.00  0.00    -0.237 OA
ATOM     79  O   UNL A   1      43.075  22.089  25.110  1.00  0.00    -0.237 OA
ATOM     80  O   UNL A   1      42.811  21.827  27.533  1.00  0.00    -0.744 OA
ENDBRANCH  74  77
ENDBRANCH  46  70
BRANCH  58  81
ATOM     81  C   UNL A   1      45.081  27.693  33.958  1.00  0.00     0.023 A 
ATOM     82  C   UNL A   1      46.204  28.538  33.868  1.00  0.00     0.012 A 
ATOM     83  C   UNL A   1      45.154  26.526  34.744  1.00  0.00     0.148 A 
ATOM     84  C   UNL A   1      47.389  28.215  34.528  1.00  0.00     0.002 A 
ATOM     85  C   UNL A   1      46.323  26.233  35.435  1.00  0.00     0.091 A 
ATOM     86  F   UNL A   1      44.080  25.724  34.799  1.00  0.00    -0.205 F 
ATOM     87  C   UNL A   1      47.444  27.070  35.321  1.00  0.00     0.022 A 
BRANCH  85  88
ATOM     88  S   UNL A   1      46.451  24.830  36.550  1.00  0.00     0.127 S 
ATOM     89  O   UNL A   1      45.370  25.101  37.496  1.00  0.00    -0.237 OA
ATOM     90  O   UNL A   1      46.209  23.696  35.658  1.00  0.00    -0.237 OA
ATOM     91  O   UNL A   1      47.797  24.883  37.103  1.00  0.00    -0.744 OA
ENDBRANCH  85  88
ENDBRANCH  58  81
ENDBRANCH  32  33
ENDBRANCH  25  27
ENDBRANCH  24  25
ENDBRANCH  23  24
ENDBRANCH  22  23
ENDBRANCH   1  22
TORSDOF 20
ENDMDL
MODEL 2
REMARK VINA RESULT:     -10.0      5.509     10.287
REMARK SMILES C[C@H](CC[NH2+][C@@H]1CCOC2(CCC2)C1)CCC(=O)OCCOC(=O)c1ccc(-c2c3nc(c(-c4cccc(S(=O)(=O)[O-])c4F)c4ccc([nH]4)c(-c4cccc(S(=O)(=O)[O-])c4F)c4nc(c(-c5cccc(S(=O)(=O)[O-])c5F)c5ccc2[nH]5)C=C4)C=C3)cc1
REMARK SMILES IDX 19 1 17 2 18 3 16 4 15 5 2 6 1 7 3 8 4 9 5 10 6 13 7 14
REMARK SMILES IDX 14 15 8 16 10 17 9 18 11 19 13 20 12 21 20 22 21 23 22 24
REMARK SMILES IDX 23 25 24 26 25 27 26 28 87 29 27 30 86 31 28 32 29 33 30 34
REMARK SMILES IDX 80 35 31 36 85 37 79 38 81 39 32 40 84 41 78 42 77 43 33 45
REMARK SMILES IDX 65 46 45 47 64 48 46 49 49 50 63 51 82 52 47 53 48 54 62 56
REMARK SMILES IDX 83 57 50 58 34 59 35 60 43 61 36 62 38 63 44 64 37 65 39 66
REMARK SMILES IDX 40 67 41 68 42 69 66 70 67 71 75 72 68 73 70 74 76 75 69 76
REMARK SMILES IDX 71 77 72 78 73 79 74 80 51 81 52 82 60 83 53 84 55 85 61 86
REMARK SMILES IDX 54 87 56 88 57 89 58 90 59 91
REMARK H PARENT 5 11 5 12 81 44 49 55
REMARK Flexibility Score: inf
ROOT
ATOM      1  O   UNL A   1      37.615  21.377  24.808  1.00  0.00    -0.462 OA
ENDROOT
BRANCH   1   2
ATOM      2  C   UNL A   1      36.424  21.809  25.293  1.00  0.00     0.305 C 
ATOM      3  O   UNL A   1      35.744  21.212  26.118  1.00  0.00    -0.252 OA
BRANCH   2   4
ATOM      4  C   UNL A   1      35.969  23.094  24.643  1.00  0.00     0.123 C 
BRANCH   4   5
ATOM      5  C   UNL A   1      34.669  22.998  23.839  1.00  0.00     0.015 C 
BRANCH   5   6
ATOM      6  C   UNL A   1      33.398  23.522  24.541  1.00  0.00    -0.008 C 
ATOM      7  C   UNL A   1      33.789  24.123  25.895  1.00  0.00     0.008 C 
BRANCH   6   8
ATOM      8  C   UNL A   1      32.339  22.401  24.605  1.00  0.00     0.064 C 
BRANCH   8   9
ATOM      9  C   UNL A   1      32.357  21.426  25.782  1.00  0.00     0.261 C 
BRANCH   9  10
ATOM     10  N   UNL A   1      32.570  20.063  25.361  1.00  0.00    -0.344 N 
ATOM     11  H   UNL A   1      31.647  19.658  25.205  1.00  0.00     0.346 HD
ATOM     12  H   UNL A   1      33.137  19.676  26.114  1.00  0.00     0.346 HD
BRANCH  10  13
ATOM     13  C   UNL A   1      33.361  19.773  24.171  1.00  0.00     0.187 C 
ATOM     14  C   UNL A   1      32.648  19.518  22.828  1.00  0.00     0.093 C 
ATOM     15  C   UNL A   1      34.343  18.633  24.482  1.00  0.00     0.100 C 
ATOM     16  C   UNL A   1      32.141  18.092  22.641  1.00  0.00     0.167 C 
ATOM     17  C   UNL A   1      33.644  17.281  24.373  1.00  0.00     0.074 C 
ATOM     18  O   UNL A   1      33.127  17.136  23.025  1.00  0.00    -0.375 OA
ATOM     19  C   UNL A   1      34.549  16.100  24.839  1.00  0.00     0.036 C 
ATOM     20  C   UNL A   1      32.679  16.856  25.527  1.00  0.00     0.036 C 
ATOM     21  C   UNL A   1      33.293  15.449  25.445  1.00  0.00     0.006 C 
ENDBRANCH  10  13
ENDBRANCH   9  10
ENDBRANCH   8   9
ENDBRANCH   6   8
ENDBRANCH   5   6
ENDBRANCH   4   5
ENDBRANCH   2   4
ENDBRANCH   1   2
BRANCH   1  22
ATOM     22  C   UNL A   1      38.674  21.229  25.773  1.00  0.00     0.274 C 
BRANCH  22  23
ATOM     23  C   UNL A   1      39.304  19.839  25.689  1.00  0.00     0.275 C 
BRANCH  23  24
ATOM     24  O   UNL A   1      40.384  19.707  26.628  1.00  0.00    -0.458 OA
BRANCH  24  25
ATOM     25  C   UNL A   1      41.623  19.907  26.122  1.00  0.00     0.338 C 
ATOM     26  O   UNL A   1      42.282  19.133  25.450  1.00  0.00    -0.246 OA
BRANCH  25  27
ATOM     27  C   UNL A   1      42.046  21.286  26.410  1.00  0.00     0.060 A 
ATOM     28  C   UNL A   1      42.040  21.724  27.737  1.00  0.00     0.016 A 
ATOM     29  C   UNL A   1      42.369  22.162  25.375  1.00  0.00     0.016 A 
ATOM     30  C   UNL A   1      42.341  23.048  28.038  1.00  0.00     0.010 A 
ATOM     31  C   UNL A   1      42.689  23.487  25.679  1.00  0.00     0.010 A 
ATOM     32  C   UNL A   1      42.661  23.942  27.010  1.00  0.00    -0.014 A 
BRANCH  32  33
ATOM     33  C   UNL A   1      42.931  25.363  27.329  1.00  0.00     0.031 A 
ATOM     34  C   UNL A   1      44.311  25.923  27.134  1.00  0.00     0.074 A 
ATOM     35  C   UNL A   1      41.940  26.141  27.802  1.00  0.00     0.049 A 
ATOM     36  N   UNL A   1      44.768  27.111  27.429  1.00  0.00    -0.248 NA
ATOM     37  C   UNL A   1      45.310  25.024  26.532  1.00  0.00     0.031 C 
ATOM     38  C   UNL A   1      40.559  25.709  28.020  1.00  0.00     0.029 A 
ATOM     39  N   UNL A   1      41.949  27.452  28.205  1.00  0.00    -0.354 N 
ATOM     40  C   UNL A   1      46.116  27.092  27.093  1.00  0.00     0.074 A 
ATOM     41  C   UNL A   1      46.403  25.773  26.570  1.00  0.00     0.031 C 
ATOM     42  C   UNL A   1      39.857  26.731  28.535  1.00  0.00     0.029 A 
ATOM     43  C   UNL A   1      40.745  27.876  28.718  1.00  0.00     0.049 A 
ATOM     44  H   UNL A   1      42.740  28.034  28.134  1.00  0.00     0.167 HD
ATOM     45  C   UNL A   1      47.027  28.088  27.202  1.00  0.00     0.034 A 
ATOM     46  C   UNL A   1      40.405  29.044  29.296  1.00  0.00     0.034 A 
ATOM     47  C   UNL A   1      46.725  29.408  27.685  1.00  0.00     0.049 A 
ATOM     48  C   UNL A   1      41.440  30.130  29.408  1.00  0.00     0.074 A 
ATOM     49  C   UNL A   1      47.568  30.500  27.787  1.00  0.00     0.029 A 
ATOM     50  N   UNL A   1      45.484  29.815  28.151  1.00  0.00    -0.354 N 
ATOM     51  N   UNL A   1      42.684  30.131  28.996  1.00  0.00    -0.248 NA
ATOM     52  C   UNL A   1      41.018  31.387  30.044  1.00  0.00     0.031 C 
ATOM     53  C   UNL A   1      46.839  31.565  28.329  1.00  0.00     0.029 A 
ATOM     54  C   UNL A   1      45.539  31.140  28.549  1.00  0.00     0.049 A 
ATOM     55  H   UNL A   1      44.682  29.246  28.191  1.00  0.00     0.167 HD
ATOM     56  C   UNL A   1      43.187  31.392  29.296  1.00  0.00     0.074 A 
ATOM     57  C   UNL A   1      42.103  32.137  29.904  1.00  0.00     0.031 C 
ATOM     58  C   UNL A   1      44.436  31.884  29.102  1.00  0.00     0.034 A 
BRANCH  45  59
ATOM     59  C   UNL A   1      48.436  27.793  26.761  1.00  0.00     0.023 A 
ATOM     60  C   UNL A   1      49.404  27.428  27.718  1.00  0.00     0.012 A 
ATOM     61  C   UNL A   1      48.790  27.829  25.398  1.00  0.00     0.148 A 
ATOM     62  C   UNL A   1      50.709  27.131  27.329  1.00  0.00     0.002 A 
ATOM     63  C   UNL A   1      50.083  27.494  25.014  1.00  0.00     0.091 A 
ATOM     64  F   UNL A   1      47.862  28.206  24.505  1.00  0.00    -0.205 F 
ATOM     65  C   UNL A   1      51.046  27.155  25.978  1.00  0.00     0.022 A 
BRANCH  63  66
ATOM     66  S   UNL A   1      50.590  27.431  23.291  1.00  0.00     0.127 S 
ATOM     67  O   UNL A   1      51.800  26.614  23.369  1.00  0.00    -0.237 OA
ATOM     68  O   UNL A   1      49.448  26.769  22.656  1.00  0.00    -0.237 OA
ATOM     69  O   UNL A   1      50.790  28.815  22.883  1.00  0.00    -0.744 OA
ENDBRANCH  63  66
ENDBRANCH  45  59
BRANCH  46  70
ATOM     70  C   UNL A   1      39.010  29.256  29.776  1.00  0.00     0.023 A 
ATOM     71  C   UNL A   1      38.668  28.883  31.089  1.00  0.00     0.012 A 
ATOM     72  C   UNL A   1      38.037  29.859  28.956  1.00  0.00     0.148 A 
ATOM     73  C   UNL A   1      37.374  29.085  31.571  1.00  0.00     0.002 A 
ATOM     74  C   UNL A   1      36.765  30.107  29.460  1.00  0.00     0.091 A 
ATOM     75  F   UNL A   1      38.376  30.188  27.702  1.00  0.00    -0.205 F 
ATOM     76  C   UNL A   1      36.427  29.708  30.762  1.00  0.00     0.022 A 
BRANCH  74  77
ATOM     77  S   UNL A   1      35.527  31.020  28.532  1.00  0.00     0.127 S 
ATOM     78  O   UNL A   1      34.772  29.942  27.900  1.00  0.00    -0.237 OA
ATOM     79  O   UNL A   1      34.813  31.731  29.594  1.00  0.00    -0.237 OA
ATOM     80  O   UNL A   1      36.274  31.887  27.632  1.00  0.00    -0.744 OA
ENDBRANCH  74  77
ENDBRANCH  46  70
BRANCH  58  81
ATOM     81  C   UNL A   1      44.699  33.304  29.528  1.00  0.00     0.023 A 
ATOM     82  C   UNL A   1      45.207  33.561  30.816  1.00  0.00     0.012 A 
ATOM     83  C   UNL A   1      44.519  34.373  28.628  1.00  0.00     0.148 A 
ATOM     84  C   UNL A   1      45.506  34.863  31.213  1.00  0.00     0.002 A 
ATOM     85  C   UNL A   1      44.860  35.663  29.015  1.00  0.00     0.091 A 
ATOM     86  F   UNL A   1      44.014  34.109  27.414  1.00  0.00    -0.205 F 
ATOM     87  C   UNL A   1      45.344  35.912  30.309  1.00  0.00     0.022 A 
BRANCH  85  88
ATOM     88  S   UNL A   1      44.771  37.057  27.885  1.00  0.00     0.127 S 
ATOM     89  O   UNL A   1      45.805  36.716  26.909  1.00  0.00    -0.237 OA
ATOM     90  O   UNL A   1      43.402  36.964  27.379  1.00  0.00    -0.237 OA
ATOM     91  O   UNL A   1      45.036  38.240  28.692  1.00  0.00    -0.744 OA
ENDBRANCH  85  88
ENDBRANCH  58  81
ENDBRANCH  32  33
ENDBRANCH  25  27
ENDBRANCH  24  25
ENDBRANCH  23  24
ENDBRANCH  22  23
ENDBRANCH   1  22
TORSDOF 20
ENDMDL
MODEL 3
REMARK VINA RESULT:      -9.9      1.765      2.290
REMARK SMILES C[C@H](CC[NH2+][C@@H]1CCOC2(CCC2)C1)CCC(=O)OCCOC(=O)c1ccc(-c2c3nc(c(-c4cccc(S(=O)(=O)[O-])c4F)c4ccc([nH]4)c(-c4cccc(S(=O)(=O)[O-])c4F)c4nc(c(-c5cccc(S(=O)(=O)[O-])c5F)c5ccc2[nH]5)C=C4)C=C3)cc1
REMARK SMILES IDX 19 1 17 2 18 3 16 4 15 5 2 6 1 7 3 8 4 9 5 10 6 13 7 14
REMARK SMILES IDX 14 15 8 16 10 17 9 18 11 19 13 20 12 21 20 22 21 23 22 24
REMARK SMILES IDX 23 25 24 26 25 27 26 28 87 29 27 30 86 31 28 32 29 33 30 34
REMARK SMILES IDX 80 35 31 36 85 37 79 38 81 39 32 40 84 41 78 42 77 43 33 45
REMARK SMILES IDX 65 46 45 47 64 48 46 49 49 50 63 51 82 52 47 53 48 54 62 56
REMARK SMILES IDX 83 57 50 58 34 59 35 60 43 61 36 62 38 63 44 64 37 65 39 66
REMARK SMILES IDX 40 67 41 68 42 69 66 70 67 71 75 72 68 73 70 74 76 75 69 76
REMARK SMILES IDX 71 77 72 78 73 79 74 80 51 81 52 82 60 83 53 84 55 85 61 86
REMARK SMILES IDX 54 87 56 88 57 89 58 90 59 91
REMARK H PARENT 5 11 5 12 81 44 49 55
REMARK Flexibility Score: inf
ROOT
ATOM      1  O   UNL A   1      33.178  28.314  26.416  1.00  0.00    -0.462 OA
ENDROOT
BRANCH   1   2
ATOM      2  C   UNL A   1      33.006  27.095  25.845  1.00  0.00     0.305 C 
ATOM      3  O   UNL A   1      33.803  26.555  25.088  1.00  0.00    -0.252 OA
BRANCH   2   4
ATOM      4  C   UNL A   1      31.666  26.486  26.181  1.00  0.00     0.123 C 
BRANCH   4   5
ATOM      5  C   UNL A   1      31.674  24.972  26.415  1.00  0.00     0.015 C 
BRANCH   5   6
ATOM      6  C   UNL A   1      30.492  24.186  25.808  1.00  0.00    -0.008 C 
ATOM      7  C   UNL A   1      29.907  23.260  26.879  1.00  0.00     0.008 C 
BRANCH   6   8
ATOM      8  C   UNL A   1      30.947  23.481  24.513  1.00  0.00     0.064 C 
BRANCH   8   9
ATOM      9  C   UNL A   1      32.442  23.330  24.232  1.00  0.00     0.261 C 
BRANCH   9  10
ATOM     10  N   UNL A   1      32.823  21.956  24.022  1.00  0.00    -0.344 N 
ATOM     11  H   UNL A   1      33.680  21.972  23.468  1.00  0.00     0.346 HD
ATOM     12  H   UNL A   1      31.991  21.549  23.598  1.00  0.00     0.346 HD
BRANCH  10  13
ATOM     13  C   UNL A   1      33.076  21.077  25.159  1.00  0.00     0.187 C 
ATOM     14  C   UNL A   1      33.105  21.667  26.582  1.00  0.00     0.093 C 
ATOM     15  C   UNL A   1      34.348  20.258  24.891  1.00  0.00     0.100 C 
ATOM     16  C   UNL A   1      34.436  22.296  26.981  1.00  0.00     0.167 C 
ATOM     17  C   UNL A   1      35.591  21.077  25.221  1.00  0.00     0.074 C 
ATOM     18  O   UNL A   1      35.534  21.462  26.619  1.00  0.00    -0.375 OA
ATOM     19  C   UNL A   1      36.911  20.355  24.812  1.00  0.00     0.036 C 
ATOM     20  C   UNL A   1      36.021  22.198  24.219  1.00  0.00     0.036 C 
ATOM     21  C   UNL A   1      37.473  21.729  24.407  1.00  0.00     0.006 C 
ENDBRANCH  10  13
ENDBRANCH   9  10
ENDBRANCH   8   9
ENDBRANCH   6   8
ENDBRANCH   5   6
ENDBRANCH   4   5
ENDBRANCH   2   4
ENDBRANCH   1   2
BRANCH   1  22
ATOM     22  C   UNL A   1      33.137  29.441  25.522  1.00  0.00     0.274 C 
BRANCH  22  23
ATOM     23  C   UNL A   1      32.497  30.655  26.197  1.00  0.00     0.275 C 
BRANCH  23  24
ATOM     24  O   UNL A   1      33.009  30.831  27.528  1.00  0.00    -0.458 OA
BRANCH  24  25
ATOM     25  C   UNL A   1      33.903  31.835  27.680  1.00  0.00     0.338 C 
ATOM     26  O   UNL A   1      33.708  33.029  27.530  1.00  0.00    -0.246 OA
BRANCH  25  27
ATOM     27  C   UNL A   1      35.172  31.282  28.177  1.00  0.00     0.060 A 
ATOM     28  C   UNL A   1      35.182  29.979  28.682  1.00  0.00     0.016 A 
ATOM     29  C   UNL A   1      36.323  32.067  28.217  1.00  0.00     0.016 A 
ATOM     30  C   UNL A   1      36.339  29.457  29.248  1.00  0.00     0.010 A 
ATOM     31  C   UNL A   1      37.491  31.535  28.771  1.00  0.00     0.010 A 
ATOM     32  C   UNL A   1      37.501  30.234  29.304  1.00  0.00    -0.014 A 
BRANCH  32  33
ATOM     33  C   UNL A   1      38.717  29.693  29.953  1.00  0.00     0.031 A 
ATOM     34  C   UNL A   1      39.134  30.203  31.302  1.00  0.00     0.074 A 
ATOM     35  C   UNL A   1      39.448  28.754  29.324  1.00  0.00     0.049 A 
ATOM     36  N   UNL A   1      40.203  29.919  31.998  1.00  0.00    -0.248 NA
ATOM     37  C   UNL A   1      38.230  31.166  31.953  1.00  0.00     0.031 C 
ATOM     38  C   UNL A   1      39.133  28.175  28.018  1.00  0.00     0.029 A 
ATOM     39  N   UNL A   1      40.618  28.138  29.691  1.00  0.00    -0.354 N 
ATOM     40  C   UNL A   1      40.127  30.698  33.145  1.00  0.00     0.074 A 
ATOM     41  C   UNL A   1      38.904  31.467  33.054  1.00  0.00     0.031 C 
ATOM     42  C   UNL A   1      40.096  27.301  27.682  1.00  0.00     0.029 A 
ATOM     43  C   UNL A   1      41.112  27.286  28.731  1.00  0.00     0.049 A 
ATOM     44  H   UNL A   1      41.060  28.290  30.558  1.00  0.00     0.167 HD
ATOM     45  C   UNL A   1      40.992  30.757  34.185  1.00  0.00     0.034 A 
ATOM     46  C   UNL A   1      42.268  26.595  28.689  1.00  0.00     0.034 A 
ATOM     47  C   UNL A   1      42.185  29.960  34.288  1.00  0.00     0.049 A 
ATOM     48  C   UNL A   1      43.214  26.685  29.856  1.00  0.00     0.074 A 
ATOM     49  C   UNL A   1      43.100  29.912  35.324  1.00  0.00     0.029 A 
ATOM     50  N   UNL A   1      42.629  29.073  33.319  1.00  0.00    -0.354 N 
ATOM     51  N   UNL A   1      43.080  27.350  30.978  1.00  0.00    -0.248 NA
ATOM     52  C   UNL A   1      44.459  25.909  29.763  1.00  0.00     0.031 C 
ATOM     53  C   UNL A   1      44.108  29.006  34.973  1.00  0.00     0.029 A 
ATOM     54  C   UNL A   1      43.810  28.478  33.727  1.00  0.00     0.049 A 
ATOM     55  H   UNL A   1      42.172  28.893  32.466  1.00  0.00     0.167 HD
ATOM     56  C   UNL A   1      44.207  27.054  31.735  1.00  0.00     0.074 A 
ATOM     57  C   UNL A   1      45.003  26.129  30.953  1.00  0.00     0.031 C 
ATOM     58  C   UNL A   1      44.562  27.518  32.960  1.00  0.00     0.034 A 
BRANCH  45  59
ATOM     59  C   UNL A   1      40.664  31.699  35.311  1.00  0.00     0.023 A 
ATOM     60  C   UNL A   1      41.489  32.816  35.549  1.00  0.00     0.012 A 
ATOM     61  C   UNL A   1      39.513  31.508  36.102  1.00  0.00     0.148 A 
ATOM     62  C   UNL A   1      41.191  33.713  36.574  1.00  0.00     0.002 A 
ATOM     63  C   UNL A   1      39.202  32.428  37.097  1.00  0.00     0.091 A 
ATOM     64  F   UNL A   1      38.755  30.425  35.879  1.00  0.00    -0.205 F 
ATOM     65  C   UNL A   1      40.044  33.525  37.341  1.00  0.00     0.022 A 
BRANCH  63  66
ATOM     66  S   UNL A   1      37.709  32.305  38.089  1.00  0.00     0.127 S 
ATOM     67  O   UNL A   1      38.116  32.977  39.321  1.00  0.00    -0.237 OA
ATOM     68  O   UNL A   1      36.738  33.046  37.282  1.00  0.00    -0.237 OA
ATOM     69  O   UNL A   1      37.429  30.881  38.213  1.00  0.00    -0.744 OA
ENDBRANCH  63  66
ENDBRANCH  45  59
BRANCH  46  70
ATOM     70  C   UNL A   1      42.573  25.729  27.516  1.00  0.00     0.023 A 
ATOM     71  C   UNL A   1      43.357  26.240  26.466  1.00  0.00     0.012 A 
ATOM     72  C   UNL A   1      42.125  24.395  27.454  1.00  0.00     0.148 A 
ATOM     73  C   UNL A   1      43.672  25.446  25.362  1.00  0.00     0.002 A 
ATOM     74  C   UNL A   1      42.487  23.592  26.377  1.00  0.00     0.091 A 
ATOM     75  F   UNL A   1      41.361  23.932  28.454  1.00  0.00    -0.205 F 
ATOM     76  C   UNL A   1      43.249  24.120  25.323  1.00  0.00     0.022 A 
BRANCH  74  77
ATOM     77  S   UNL A   1      42.094  21.841  26.312  1.00  0.00     0.127 S 
ATOM     78  O   UNL A   1      40.661  21.866  26.033  1.00  0.00    -0.237 OA
ATOM     79  O   UNL A   1      42.929  21.382  25.200  1.00  0.00    -0.237 OA
ATOM     80  O   UNL A   1      42.480  21.305  27.610  1.00  0.00    -0.744 OA
ENDBRANCH  74  77
ENDBRANCH  46  70
BRANCH  58  81
ATOM     81  C   UNL A   1      45.855  27.017  33.547  1.00  0.00     0.023 A 
ATOM     82  C   UNL A   1      47.033  27.771  33.378  1.00  0.00     0.012 A 
ATOM     83  C   UNL A   1      45.888  25.846  34.329  1.00  0.00     0.148 A 
ATOM     84  C   UNL A   1      48.230  27.352  33.956  1.00  0.00     0.002 A 
ATOM     85  C   UNL A   1      47.075  25.458  34.939  1.00  0.00     0.091 A 
ATOM     86  F   UNL A   1      44.760  25.132  34.460  1.00  0.00    -0.205 F 
ATOM     87  C   UNL A   1      48.249  26.204  34.746  1.00  0.00     0.022 A 
BRANCH  85  88
ATOM     88  S   UNL A   1      47.166  24.047  36.047  1.00  0.00     0.127 S 
ATOM     89  O   UNL A   1      46.122  24.363  37.020  1.00  0.00    -0.237 OA
ATOM     90  O   UNL A   1      46.850  22.929  35.157  1.00  0.00    -0.237 OA
ATOM     91  O   UNL A   1      48.527  24.036  36.565  1.00  0.00    -0.744 OA
ENDBRANCH  85  88
ENDBRANCH  58  81
ENDBRANCH  32  33
ENDBRANCH  25  27
ENDBRANCH  24  25
ENDBRANCH  23  24
ENDBRANCH  22  23
ENDBRANCH   1  22
TORSDOF 20
ENDMDL
