MODEL 1
REMARK VINA RESULT:     -11.1      0.000      0.000
REMARK SMILES O=C(Cc1ccc(=O)n(C(F)F)c1)OCCOC(=O)c1ccc(-c2c3nc(c(-c4cccc(S(=O)(=O)[O-])c4F)c4ccc([nH]4)c(-c4cccc(S(=O)(=O)[O-])c4F)c4nc(c(-c5cccc(S(=O)(=O)[O-])c5F)c5ccc2[nH]5)C=C4)C=C3)cc1
REMARK SMILES IDX 16 1 15 2 14 3 2 4 1 5 3 6 4 7 5 8 13 9 6 10 9 11 7 12 8 13
REMARK SMILES IDX 10 14 11 15 12 16 17 17 18 18 19 19 20 20 21 21 82 22 22 23
REMARK SMILES IDX 81 24 23 25 24 26 25 27 75 28 26 29 80 30 74 31 76 32 27 33
REMARK SMILES IDX 79 34 73 35 72 36 28 38 60 39 40 40 59 41 41 42 44 43 58 44
REMARK SMILES IDX 77 45 42 46 43 47 57 49 78 50 45 51 29 52 30 53 38 54 31 55
REMARK SMILES IDX 33 56 39 57 32 58 34 59 35 60 36 61 37 62 61 63 62 64 70 65
REMARK SMILES IDX 63 66 65 67 71 68 64 69 66 70 67 71 68 72 69 73 46 74 47 75
REMARK SMILES IDX 55 76 48 77 50 78 56 79 49 80 51 81 52 82 53 83 54 84
REMARK H PARENT 76 37 44 48
REMARK Flexibility Score: inf
ROOT
ATOM      1  C   UNL A   1      31.800  29.377  26.488  1.00  0.00     0.275 C 
ENDROOT
BRANCH   1   2
ATOM      2  C   UNL A   1      32.039  27.913  26.857  1.00  0.00     0.274 C 
BRANCH   2   3
ATOM      3  O   UNL A   1      30.852  27.111  26.660  1.00  0.00    -0.462 OA
BRANCH   3   4
ATOM      4  C   UNL A   1      30.815  25.852  26.158  1.00  0.00     0.310 C 
ATOM      5  O   UNL A   1      31.262  24.915  26.815  1.00  0.00    -0.252 OA
BRANCH   4   6
ATOM      6  C   UNL A   1      30.201  25.633  24.786  1.00  0.00     0.159 C 
BRANCH   6   7
ATOM      7  C   UNL A   1      30.029  26.868  23.946  1.00  0.00    -0.020 A 
ATOM      8  C   UNL A   1      31.146  27.399  23.192  1.00  0.00     0.011 A 
ATOM      9  C   UNL A   1      28.830  27.468  23.831  1.00  0.00     0.099 A 
ATOM     10  C   UNL A   1      30.985  28.446  22.376  1.00  0.00     0.072 A 
ATOM     11  N   UNL A   1      28.635  28.549  22.988  1.00  0.00    -0.258 N 
ATOM     12  C   UNL A   1      29.653  29.091  22.220  1.00  0.00     0.254 A 
ATOM     13  O   UNL A   1      29.553  30.029  21.436  1.00  0.00    -0.269 OA
BRANCH  11  14
ATOM     14  C   UNL A   1      27.334  29.159  22.868  1.00  0.00     0.451 C 
ATOM     15  F   UNL A   1      26.378  28.346  23.376  1.00  0.00    -0.185 F 
ATOM     16  F   UNL A   1      27.291  30.333  23.544  1.00  0.00    -0.185 F 
ENDBRANCH  11  14
ENDBRANCH   6   7
ENDBRANCH   4   6
ENDBRANCH   3   4
ENDBRANCH   2   3
ENDBRANCH   1   2
BRANCH   1  17
ATOM     17  O   UNL A   1      33.048  30.024  26.188  1.00  0.00    -0.458 OA
BRANCH  17  18
ATOM     18  C   UNL A   1      33.362  31.105  26.949  1.00  0.00     0.338 C 
ATOM     19  O   UNL A   1      32.646  32.064  27.163  1.00  0.00    -0.246 OA
BRANCH  18  20
ATOM     20  C   UNL A   1      34.642  30.844  27.657  1.00  0.00     0.060 A 
ATOM     21  C   UNL A   1      35.561  31.864  27.923  1.00  0.00     0.016 A 
ATOM     22  C   UNL A   1      34.946  29.522  28.008  1.00  0.00     0.016 A 
ATOM     23  C   UNL A   1      36.777  31.562  28.539  1.00  0.00     0.010 A 
ATOM     24  C   UNL A   1      36.160  29.222  28.633  1.00  0.00     0.010 A 
ATOM     25  C   UNL A   1      37.083  30.240  28.907  1.00  0.00    -0.014 A 
BRANCH  25  26
ATOM     26  C   UNL A   1      38.297  29.972  29.713  1.00  0.00     0.031 A 
ATOM     27  C   UNL A   1      38.483  30.536  31.089  1.00  0.00     0.074 A 
ATOM     28  C   UNL A   1      39.254  29.193  29.176  1.00  0.00     0.049 A 
ATOM     29  N   UNL A   1      39.403  30.245  31.971  1.00  0.00    -0.248 NA
ATOM     30  C   UNL A   1      37.521  31.556  31.537  1.00  0.00     0.031 C 
ATOM     31  C   UNL A   1      39.218  28.641  27.820  1.00  0.00     0.029 A 
ATOM     32  N   UNL A   1      40.432  28.727  29.697  1.00  0.00    -0.354 N 
ATOM     33  C   UNL A   1      39.142  31.040  33.076  1.00  0.00     0.074 A 
ATOM     34  C   UNL A   1      37.980  31.843  32.752  1.00  0.00     0.031 C 
ATOM     35  C   UNL A   1      40.312  27.889  27.625  1.00  0.00     0.029 A 
ATOM     36  C   UNL A   1      41.127  27.910  28.837  1.00  0.00     0.049 A 
ATOM     37  H   UNL A   1      40.751  28.955  30.601  1.00  0.00     0.167 HD
ATOM     38  C   UNL A   1      39.801  31.081  34.259  1.00  0.00     0.034 A 
ATOM     39  C   UNL A   1      42.277  27.230  29.009  1.00  0.00     0.034 A 
ATOM     40  C   UNL A   1      40.954  30.281  34.578  1.00  0.00     0.049 A 
ATOM     41  C   UNL A   1      42.977  27.280  30.333  1.00  0.00     0.074 A 
ATOM     42  C   UNL A   1      41.628  30.194  35.785  1.00  0.00     0.029 A 
ATOM     43  N   UNL A   1      41.621  29.456  33.688  1.00  0.00    -0.354 N 
ATOM     44  N   UNL A   1      42.608  27.893  31.432  1.00  0.00    -0.248 NA
ATOM     45  C   UNL A   1      44.231  26.524  30.457  1.00  0.00     0.031 C 
ATOM     46  C   UNL A   1      42.715  29.330  35.618  1.00  0.00     0.029 A 
ATOM     47  C   UNL A   1      42.710  28.870  34.311  1.00  0.00     0.049 A 
ATOM     48  H   UNL A   1      41.360  29.307  32.750  1.00  0.00     0.167 HD
ATOM     49  C   UNL A   1      43.570  27.578  32.383  1.00  0.00     0.074 A 
ATOM     50  C   UNL A   1      44.535  26.712  31.735  1.00  0.00     0.031 C 
ATOM     51  C   UNL A   1      43.646  27.979  33.675  1.00  0.00     0.034 A 
BRANCH  38  52
ATOM     52  C   UNL A   1      39.265  31.977  35.341  1.00  0.00     0.023 A 
ATOM     53  C   UNL A   1      38.344  31.448  36.268  1.00  0.00     0.012 A 
ATOM     54  C   UNL A   1      39.763  33.281  35.520  1.00  0.00     0.148 A 
ATOM     55  C   UNL A   1      37.919  32.210  37.355  1.00  0.00     0.002 A 
ATOM     56  C   UNL A   1      39.357  34.024  36.622  1.00  0.00     0.091 A 
ATOM     57  F   UNL A   1      40.627  33.763  34.616  1.00  0.00    -0.205 F 
ATOM     58  C   UNL A   1      38.433  33.491  37.538  1.00  0.00     0.022 A 
BRANCH  56  59
ATOM     59  S   UNL A   1      40.004  35.661  36.982  1.00  0.00     0.127 S 
ATOM     60  O   UNL A   1      39.304  35.985  38.225  1.00  0.00    -0.237 OA
ATOM     61  O   UNL A   1      41.435  35.400  37.135  1.00  0.00    -0.237 OA
ATOM     62  O   UNL A   1      39.655  36.490  35.837  1.00  0.00    -0.744 OA
ENDBRANCH  56  59
ENDBRANCH  38  52
BRANCH  39  63
ATOM     63  C   UNL A   1      42.762  26.358  27.908  1.00  0.00     0.023 A 
ATOM     64  C   UNL A   1      43.716  26.865  27.006  1.00  0.00     0.012 A 
ATOM     65  C   UNL A   1      42.365  25.010  27.817  1.00  0.00     0.148 A 
ATOM     66  C   UNL A   1      44.270  26.041  26.027  1.00  0.00     0.002 A 
ATOM     67  C   UNL A   1      42.950  24.186  26.864  1.00  0.00     0.091 A 
ATOM     68  F   UNL A   1      41.460  24.557  28.694  1.00  0.00    -0.205 F 
ATOM     69  C   UNL A   1      43.895  24.702  25.963  1.00  0.00     0.022 A 
BRANCH  67  70
ATOM     70  S   UNL A   1      42.616  22.424  26.768  1.00  0.00     0.127 S 
ATOM     71  O   UNL A   1      42.683  22.032  28.174  1.00  0.00    -0.237 OA
ATOM     72  O   UNL A   1      41.275  22.408  26.186  1.00  0.00    -0.237 OA
ATOM     73  O   UNL A   1      43.659  21.868  25.916  1.00  0.00    -0.744 OA
ENDBRANCH  67  70
ENDBRANCH  39  63
BRANCH  51  74
ATOM     74  C   UNL A   1      44.804  27.498  34.502  1.00  0.00     0.023 A 
ATOM     75  C   UNL A   1      45.957  28.301  34.608  1.00  0.00     0.012 A 
ATOM     76  C   UNL A   1      44.700  26.325  35.276  1.00  0.00     0.148 A 
ATOM     77  C   UNL A   1      46.991  27.942  35.471  1.00  0.00     0.002 A 
ATOM     78  C   UNL A   1      45.721  25.991  36.157  1.00  0.00     0.091 A 
ATOM     79  F   UNL A   1      43.596  25.575  35.149  1.00  0.00    -0.205 F 
ATOM     80  C   UNL A   1      46.868  26.796  36.253  1.00  0.00     0.022 A 
BRANCH  78  81
ATOM     81  S   UNL A   1      45.627  24.577  37.262  1.00  0.00     0.127 S 
ATOM     82  O   UNL A   1      47.006  24.477  37.738  1.00  0.00    -0.237 OA
ATOM     83  O   UNL A   1      44.665  25.034  38.265  1.00  0.00    -0.237 OA
ATOM     84  O   UNL A   1      45.172  23.456  36.448  1.00  0.00    -0.744 OA
ENDBRANCH  78  81
ENDBRANCH  51  74
ENDBRANCH  25  26
ENDBRANCH  18  20
ENDBRANCH  17  18
ENDBRANCH   1  17
TORSDOF 16
ENDMDL
MODEL 2
REMARK VINA RESULT:     -11.0      1.714      2.122
REMARK SMILES O=C(Cc1ccc(=O)n(C(F)F)c1)OCCOC(=O)c1ccc(-c2c3nc(c(-c4cccc(S(=O)(=O)[O-])c4F)c4ccc([nH]4)c(-c4cccc(S(=O)(=O)[O-])c4F)c4nc(c(-c5cccc(S(=O)(=O)[O-])c5F)c5ccc2[nH]5)C=C4)C=C3)cc1
REMARK SMILES IDX 16 1 15 2 14 3 2 4 1 5 3 6 4 7 5 8 13 9 6 10 9 11 7 12 8 13
REMARK SMILES IDX 10 14 11 15 12 16 17 17 18 18 19 19 20 20 21 21 82 22 22 23
REMARK SMILES IDX 81 24 23 25 24 26 25 27 75 28 26 29 80 30 74 31 76 32 27 33
REMARK SMILES IDX 79 34 73 35 72 36 28 38 60 39 40 40 59 41 41 42 44 43 58 44
REMARK SMILES IDX 77 45 42 46 43 47 57 49 78 50 45 51 29 52 30 53 38 54 31 55
REMARK SMILES IDX 33 56 39 57 32 58 34 59 35 60 36 61 37 62 61 63 62 64 70 65
REMARK SMILES IDX 63 66 65 67 71 68 64 69 66 70 67 71 68 72 69 73 46 74 47 75
REMARK SMILES IDX 55 76 48 77 50 78 56 79 49 80 51 81 52 82 53 83 54 84
REMARK H PARENT 76 37 44 48
REMARK Flexibility Score: inf
ROOT
ATOM      1  C   UNL A   1      32.543  30.647  26.191  1.00  0.00     0.275 C 
ENDROOT
BRANCH   1   2
ATOM      2  C   UNL A   1      32.889  29.200  25.838  1.00  0.00     0.274 C 
BRANCH   2   3
ATOM      3  O   UNL A   1      33.279  29.068  24.451  1.00  0.00    -0.462 OA
BRANCH   3   4
ATOM      4  C   UNL A   1      32.883  28.087  23.603  1.00  0.00     0.310 C 
ATOM      5  O   UNL A   1      33.150  26.913  23.853  1.00  0.00    -0.252 OA
BRANCH   4   6
ATOM      6  C   UNL A   1      32.099  28.470  22.361  1.00  0.00     0.159 C 
BRANCH   6   7
ATOM      7  C   UNL A   1      30.609  28.571  22.537  1.00  0.00    -0.020 A 
ATOM      8  C   UNL A   1      29.871  27.481  23.141  1.00  0.00     0.011 A 
ATOM      9  C   UNL A   1      29.943  29.689  22.195  1.00  0.00     0.099 A 
ATOM     10  C   UNL A   1      28.559  27.592  23.380  1.00  0.00     0.072 A 
ATOM     11  N   UNL A   1      28.588  29.832  22.438  1.00  0.00    -0.258 N 
ATOM     12  C   UNL A   1      27.827  28.839  23.034  1.00  0.00     0.254 A 
ATOM     13  O   UNL A   1      26.632  28.902  23.302  1.00  0.00    -0.269 OA
BRANCH  11  14
ATOM     14  C   UNL A   1      27.904  31.050  22.080  1.00  0.00     0.451 C 
ATOM     15  F   UNL A   1      27.517  31.722  23.189  1.00  0.00    -0.185 F 
ATOM     16  F   UNL A   1      28.716  31.862  21.359  1.00  0.00    -0.185 F 
ENDBRANCH  11  14
ENDBRANCH   6   7
ENDBRANCH   4   6
ENDBRANCH   3   4
ENDBRANCH   2   3
ENDBRANCH   1   2
BRANCH   1  17
ATOM     17  O   UNL A   1      32.951  30.941  27.538  1.00  0.00    -0.458 OA
BRANCH  17  18
ATOM     18  C   UNL A   1      33.775  32.009  27.695  1.00  0.00     0.338 C 
ATOM     19  O   UNL A   1      33.465  33.179  27.578  1.00  0.00    -0.246 OA
BRANCH  18  20
ATOM     20  C   UNL A   1      35.075  31.541  28.242  1.00  0.00     0.060 A 
ATOM     21  C   UNL A   1      36.201  32.370  28.285  1.00  0.00     0.016 A 
ATOM     22  C   UNL A   1      35.173  30.210  28.669  1.00  0.00     0.016 A 
ATOM     23  C   UNL A   1      37.417  31.868  28.753  1.00  0.00     0.010 A 
ATOM     24  C   UNL A   1      36.389  29.711  29.146  1.00  0.00     0.010 A 
ATOM     25  C   UNL A   1      37.518  30.538  29.196  1.00  0.00    -0.014 A 
BRANCH  25  26
ATOM     26  C   UNL A   1      38.769  30.083  29.849  1.00  0.00     0.031 A 
ATOM     27  C   UNL A   1      39.175  30.554  31.212  1.00  0.00     0.074 A 
ATOM     28  C   UNL A   1      39.552  29.216  29.180  1.00  0.00     0.049 A 
ATOM     29  N   UNL A   1      40.140  30.109  31.973  1.00  0.00    -0.248 NA
ATOM     30  C   UNL A   1      38.408  31.664  31.801  1.00  0.00     0.031 C 
ATOM     31  C   UNL A   1      39.298  28.738  27.820  1.00  0.00     0.029 A 
ATOM     32  N   UNL A   1      40.710  28.583  29.548  1.00  0.00    -0.354 N 
ATOM     33  C   UNL A   1      40.106  30.878  33.127  1.00  0.00     0.074 A 
ATOM     34  C   UNL A   1      39.029  31.833  32.964  1.00  0.00     0.031 C 
ATOM     35  C   UNL A   1      40.257  27.866  27.477  1.00  0.00     0.029 A 
ATOM     36  C   UNL A   1      41.195  27.727  28.589  1.00  0.00     0.049 A 
ATOM     37  H   UNL A   1      41.152  28.726  30.417  1.00  0.00     0.167 HD
ATOM     38  C   UNL A   1      40.890  30.780  34.227  1.00  0.00     0.034 A 
ATOM     39  C   UNL A   1      42.259  26.902  28.605  1.00  0.00     0.034 A 
ATOM     40  C   UNL A   1      41.958  29.828  34.387  1.00  0.00     0.049 A 
ATOM     41  C   UNL A   1      43.100  26.801  29.842  1.00  0.00     0.074 A 
ATOM     42  C   UNL A   1      42.742  29.600  35.505  1.00  0.00     0.029 A 
ATOM     43  N   UNL A   1      42.411  28.969  33.399  1.00  0.00    -0.354 N 
ATOM     44  N   UNL A   1      42.935  27.402  30.995  1.00  0.00    -0.248 NA
ATOM     45  C   UNL A   1      44.251  25.889  29.797  1.00  0.00     0.031 C 
ATOM     46  C   UNL A   1      43.683  28.616  35.187  1.00  0.00     0.029 A 
ATOM     47  C   UNL A   1      43.476  28.223  33.874  1.00  0.00     0.049 A 
ATOM     48  H   UNL A   1      42.032  28.898  32.493  1.00  0.00     0.167 HD
ATOM     49  C   UNL A   1      43.947  26.925  31.819  1.00  0.00     0.074 A 
ATOM     50  C   UNL A   1      44.714  25.977  31.038  1.00  0.00     0.031 C 
ATOM     51  C   UNL A   1      44.214  27.253  33.107  1.00  0.00     0.034 A 
BRANCH  38  52
ATOM     52  C   UNL A   1      40.595  31.684  35.392  1.00  0.00     0.023 A 
ATOM     53  C   UNL A   1      41.453  32.775  35.640  1.00  0.00     0.012 A 
ATOM     54  C   UNL A   1      39.418  31.536  36.149  1.00  0.00     0.148 A 
ATOM     55  C   UNL A   1      41.145  33.704  36.633  1.00  0.00     0.002 A 
ATOM     56  C   UNL A   1      39.104  32.483  37.118  1.00  0.00     0.091 A 
ATOM     57  F   UNL A   1      38.628  30.482  35.902  1.00  0.00    -0.205 F 
ATOM     58  C   UNL A   1      39.968  33.564  37.363  1.00  0.00     0.022 A 
BRANCH  56  59
ATOM     59  S   UNL A   1      37.582  32.427  38.072  1.00  0.00     0.127 S 
ATOM     60  O   UNL A   1      36.623  32.992  37.124  1.00  0.00    -0.237 OA
ATOM     61  O   UNL A   1      37.426  30.995  38.320  1.00  0.00    -0.237 OA
ATOM     62  O   UNL A   1      37.827  33.229  39.263  1.00  0.00    -0.744 OA
ENDBRANCH  56  59
ENDBRANCH  38  52
BRANCH  39  63
ATOM     63  C   UNL A   1      42.504  26.028  27.428  1.00  0.00     0.023 A 
ATOM     64  C   UNL A   1      43.302  26.512  26.375  1.00  0.00     0.012 A 
ATOM     65  C   UNL A   1      42.044  24.698  27.399  1.00  0.00     0.148 A 
ATOM     66  C   UNL A   1      43.638  25.683  25.306  1.00  0.00     0.002 A 
ATOM     67  C   UNL A   1      42.415  23.867  26.349  1.00  0.00     0.091 A 
ATOM     68  F   UNL A   1      41.292  24.267  28.420  1.00  0.00    -0.205 F 
ATOM     69  C   UNL A   1      43.204  24.360  25.298  1.00  0.00     0.022 A 
BRANCH  67  70
ATOM     70  S   UNL A   1      41.999  22.121  26.301  1.00  0.00     0.127 S 
ATOM     71  O   UNL A   1      42.754  21.667  25.135  1.00  0.00    -0.237 OA
ATOM     72  O   UNL A   1      42.515  21.658  27.589  1.00  0.00    -0.237 OA
ATOM     73  O   UNL A   1      40.550  22.061  26.167  1.00  0.00    -0.744 OA
ENDBRANCH  67  70
ENDBRANCH  39  63
BRANCH  51  74
ATOM     74  C   UNL A   1      45.384  26.592  33.780  1.00  0.00     0.023 A 
ATOM     75  C   UNL A   1      46.635  27.238  33.778  1.00  0.00     0.012 A 
ATOM     76  C   UNL A   1      45.213  25.407  34.523  1.00  0.00     0.148 A 
ATOM     77  C   UNL A   1      47.702  26.712  34.505  1.00  0.00     0.002 A 
ATOM     78  C   UNL A   1      46.272  24.907  35.271  1.00  0.00     0.091 A 
ATOM     79  F   UNL A   1      44.013  24.809  34.501  1.00  0.00    -0.205 F 
ATOM     80  C   UNL A   1      47.518  25.556  35.260  1.00  0.00     0.022 A 
BRANCH  78  81
ATOM     81  S   UNL A   1      46.116  23.467  36.334  1.00  0.00     0.127 S 
ATOM     82  O   UNL A   1      47.495  23.273  36.778  1.00  0.00    -0.237 OA
ATOM     83  O   UNL A   1      45.201  23.947  37.370  1.00  0.00    -0.237 OA
ATOM     84  O   UNL A   1      45.581  22.401  35.497  1.00  0.00    -0.744 OA
ENDBRANCH  78  81
ENDBRANCH  51  74
ENDBRANCH  25  26
ENDBRANCH  18  20
ENDBRANCH  17  18
ENDBRANCH   1  17
TORSDOF 16
ENDMDL
MODEL 3
REMARK VINA RESULT:     -10.9      6.662     12.339
REMARK SMILES O=C(Cc1ccc(=O)n(C(F)F)c1)OCCOC(=O)c1ccc(-c2c3nc(c(-c4cccc(S(=O)(=O)[O-])c4F)c4ccc([nH]4)c(-c4cccc(S(=O)(=O)[O-])c4F)c4nc(c(-c5cccc(S(=O)(=O)[O-])c5F)c5ccc2[nH]5)C=C4)C=C3)cc1
REMARK SMILES IDX 16 1 15 2 14 3 2 4 1 5 3 6 4 7 5 8 13 9 6 10 9 11 7 12 8 13
REMARK SMILES IDX 10 14 11 15 12 16 17 17 18 18 19 19 20 20 21 21 82 22 22 23
REMARK SMILES IDX 81 24 23 25 24 26 25 27 75 28 26 29 80 30 74 31 76 32 27 33
REMARK SMILES IDX 79 34 73 35 72 36 28 38 60 39 40 40 59 41 41 42 44 43 58 44
REMARK SMILES IDX 77 45 42 46 43 47 57 49 78 50 45 51 29 52 30 53 38 54 31 55
REMARK SMILES IDX 33 56 39 57 32 58 34 59 35 60 36 61 37 62 61 63 62 64 70 65
REMARK SMILES IDX 63 66 65 67 71 68 64 69 66 70 67 71 68 72 69 73 46 74 47 75
REMARK SMILES IDX 55 76 48 77 50 78 56 79 49 80 51 81 52 82 53 83 54 84
REMARK H PARENT 76 37 44 48
REMARK Flexibility Score: inf
ROOT
ATOM      1  C   UNL A   1      42.550  18.873  27.331  1.00  0.00     0.275 C 
ENDROOT
BRANCH   1   2
ATOM      2  C   UNL A   1      42.580  18.645  25.819  1.00  0.00     0.274 C 
BRANCH   2   3
ATOM      3  O   UNL A   1      43.904  18.285  25.360  1.00  0.00    -0.462 OA
BRANCH   3   4
ATOM      4  C   UNL A   1      44.686  19.020  24.532  1.00  0.00     0.310 C 
ATOM      5  O   UNL A   1      44.590  18.883  23.314  1.00  0.00    -0.252 OA
BRANCH   4   6
ATOM      6  C   UNL A   1      45.660  20.014  25.140  1.00  0.00     0.159 C 
BRANCH   6   7
ATOM      7  C   UNL A   1      45.295  21.463  24.980  1.00  0.00    -0.020 A 
ATOM      8  C   UNL A   1      43.910  21.880  25.059  1.00  0.00     0.011 A 
ATOM      9  C   UNL A   1      46.243  22.404  24.818  1.00  0.00     0.099 A 
ATOM     10  C   UNL A   1      43.580  23.175  25.002  1.00  0.00     0.072 A 
ATOM     11  N   UNL A   1      45.929  23.752  24.764  1.00  0.00    -0.258 N 
ATOM     12  C   UNL A   1      44.628  24.220  24.858  1.00  0.00     0.254 A 
ATOM     13  O   UNL A   1      44.276  25.395  24.841  1.00  0.00    -0.269 OA
BRANCH  11  14
ATOM     14  C   UNL A   1      46.968  24.741  24.612  1.00  0.00     0.451 C 
ATOM     15  F   UNL A   1      47.688  24.852  25.752  1.00  0.00    -0.185 F 
ATOM     16  F   UNL A   1      47.815  24.396  23.611  1.00  0.00    -0.185 F 
ENDBRANCH  11  14
ENDBRANCH   6   7
ENDBRANCH   4   6
ENDBRANCH   3   4
ENDBRANCH   2   3
ENDBRANCH   1   2
BRANCH   1  17
ATOM     17  O   UNL A   1      41.302  19.471  27.718  1.00  0.00    -0.458 OA
BRANCH  17  18
ATOM     18  C   UNL A   1      40.785  20.389  26.859  1.00  0.00     0.338 C 
ATOM     19  O   UNL A   1      39.997  20.166  25.960  1.00  0.00    -0.246 OA
BRANCH  18  20
ATOM     20  C   UNL A   1      41.167  21.749  27.316  1.00  0.00     0.060 A 
ATOM     21  C   UNL A   1      42.097  21.951  28.342  1.00  0.00     0.016 A 
ATOM     22  C   UNL A   1      40.526  22.849  26.731  1.00  0.00     0.016 A 
ATOM     23  C   UNL A   1      42.382  23.247  28.778  1.00  0.00     0.010 A 
ATOM     24  C   UNL A   1      40.818  24.146  27.162  1.00  0.00     0.010 A 
ATOM     25  C   UNL A   1      41.752  24.355  28.185  1.00  0.00    -0.014 A 
BRANCH  25  26
ATOM     26  C   UNL A   1      42.199  25.722  28.543  1.00  0.00     0.031 A 
ATOM     27  C   UNL A   1      43.630  26.149  28.430  1.00  0.00     0.074 A 
ATOM     28  C   UNL A   1      41.273  26.596  28.981  1.00  0.00     0.049 A 
ATOM     29  N   UNL A   1      44.132  27.352  28.537  1.00  0.00    -0.248 NA
ATOM     30  C   UNL A   1      44.630  25.102  28.166  1.00  0.00     0.031 C 
ATOM     31  C   UNL A   1      39.860  26.277  29.198  1.00  0.00     0.029 A 
ATOM     32  N   UNL A   1      41.374  27.920  29.316  1.00  0.00    -0.354 N 
ATOM     33  C   UNL A   1      45.500  27.216  28.359  1.00  0.00     0.074 A 
ATOM     34  C   UNL A   1      45.758  25.806  28.149  1.00  0.00     0.031 C 
ATOM     35  C   UNL A   1      39.220  27.383  29.605  1.00  0.00     0.029 A 
ATOM     36  C   UNL A   1      40.176  28.486  29.683  1.00  0.00     0.049 A 
ATOM     37  H   UNL A   1      42.223  28.420  29.297  1.00  0.00     0.167 HD
ATOM     38  C   UNL A   1      46.448  28.182  28.352  1.00  0.00     0.034 A 
ATOM     39  C   UNL A   1      39.870  29.753  30.019  1.00  0.00     0.034 A 
ATOM     40  C   UNL A   1      46.188  29.583  28.559  1.00  0.00     0.049 A 
ATOM     41  C   UNL A   1      40.936  30.807  29.988  1.00  0.00     0.074 A 
ATOM     42  C   UNL A   1      47.079  30.641  28.478  1.00  0.00     0.029 A 
ATOM     43  N   UNL A   1      44.962  30.119  28.915  1.00  0.00    -0.354 N 
ATOM     44  N   UNL A   1      42.192  30.690  29.630  1.00  0.00    -0.248 NA
ATOM     45  C   UNL A   1      40.543  32.170  30.372  1.00  0.00     0.031 C 
ATOM     46  C   UNL A   1      46.394  31.815  28.804  1.00  0.00     0.029 A 
ATOM     47  C   UNL A   1      45.074  31.490  29.075  1.00  0.00     0.049 A 
ATOM     48  H   UNL A   1      44.132  29.603  29.035  1.00  0.00     0.167 HD
ATOM     49  C   UNL A   1      42.733  31.966  29.724  1.00  0.00     0.074 A 
ATOM     50  C   UNL A   1      41.667  32.844  30.163  1.00  0.00     0.031 C 
ATOM     51  C   UNL A   1      44.004  32.366  29.475  1.00  0.00     0.034 A 
BRANCH  38  52
ATOM     52  C   UNL A   1      47.867  27.784  28.050  1.00  0.00     0.023 A 
ATOM     53  C   UNL A   1      48.614  27.121  29.045  1.00  0.00     0.012 A 
ATOM     54  C   UNL A   1      48.410  27.944  26.761  1.00  0.00     0.148 A 
ATOM     55  C   UNL A   1      49.886  26.628  28.762  1.00  0.00     0.002 A 
ATOM     56  C   UNL A   1      49.668  27.425  26.479  1.00  0.00     0.091 A 
ATOM     57  F   UNL A   1      47.683  28.591  25.839  1.00  0.00    -0.205 F 
ATOM     58  C   UNL A   1      50.408  26.770  27.478  1.00  0.00     0.022 A 
BRANCH  56  59
ATOM     59  S   UNL A   1      50.405  27.502  24.842  1.00  0.00     0.127 S 
ATOM     60  O   UNL A   1      50.756  28.918  24.746  1.00  0.00    -0.237 OA
ATOM     61  O   UNL A   1      51.546  26.596  24.975  1.00  0.00    -0.237 OA
ATOM     62  O   UNL A   1      49.374  27.052  23.917  1.00  0.00    -0.744 OA
ENDBRANCH  56  59
ENDBRANCH  38  52
BRANCH  39  63
ATOM     63  C   UNL A   1      38.453  30.094  30.307  1.00  0.00     0.023 A 
ATOM     64  C   UNL A   1      37.982  29.991  31.629  1.00  0.00     0.012 A 
ATOM     65  C   UNL A   1      37.611  30.615  29.307  1.00  0.00     0.148 A 
ATOM     66  C   UNL A   1      36.690  30.402  31.953  1.00  0.00     0.002 A 
ATOM     67  C   UNL A   1      36.338  31.058  29.644  1.00  0.00     0.091 A 
ATOM     68  F   UNL A   1      38.091  30.706  28.060  1.00  0.00    -0.205 F 
ATOM     69  C   UNL A   1      35.873  30.945  30.964  1.00  0.00     0.022 A 
BRANCH  67  70
ATOM     70  S   UNL A   1      35.250  31.870  28.468  1.00  0.00     0.127 S 
ATOM     71  O   UNL A   1      34.881  30.762  27.590  1.00  0.00    -0.237 OA
ATOM     72  O   UNL A   1      34.178  32.350  29.340  1.00  0.00    -0.237 OA
ATOM     73  O   UNL A   1      36.047  32.918  27.847  1.00  0.00    -0.744 OA
ENDBRANCH  67  70
ENDBRANCH  39  63
BRANCH  51  74
ATOM     74  C   UNL A   1      44.340  33.819  29.660  1.00  0.00     0.023 A 
ATOM     75  C   UNL A   1      44.678  34.290  30.944  1.00  0.00     0.012 A 
ATOM     76  C   UNL A   1      44.452  34.681  28.551  1.00  0.00     0.148 A 
ATOM     77  C   UNL A   1      45.120  35.600  31.122  1.00  0.00     0.002 A 
ATOM     78  C   UNL A   1      44.924  35.975  28.733  1.00  0.00     0.091 A 
ATOM     79  F   UNL A   1      44.116  34.209  27.342  1.00  0.00    -0.205 F 
ATOM     80  C   UNL A   1      45.255  36.437  30.017  1.00  0.00     0.022 A 
BRANCH  78  81
ATOM     81  S   UNL A   1      45.204  37.107  27.365  1.00  0.00     0.127 S 
ATOM     82  O   UNL A   1      43.842  37.533  27.047  1.00  0.00    -0.237 OA
ATOM     83  O   UNL A   1      46.039  38.137  27.984  1.00  0.00    -0.237 OA
ATOM     84  O   UNL A   1      45.867  36.330  26.325  1.00  0.00    -0.744 OA
ENDBRANCH  78  81
ENDBRANCH  51  74
ENDBRANCH  25  26
ENDBRANCH  18  20
ENDBRANCH  17  18
ENDBRANCH   1  17
TORSDOF 16
ENDMDL
