MODEL 1
REMARK VINA RESULT:     -12.6      0.000      0.000
REMARK SMILES O=C(OCCOC(=O)[C@H]1[C@H]2C[C@@H]3[C@@H](OC(=O)[C@@H]31)[C@@H]2Sc1ccccc1)c1ccc(-c2c3nc(c(-c4cccc(S(=O)(=O)[O-])c4F)c4ccc([nH]4)c(-c4cccc(S(=O)(=O)[O-])c4F)c4nc(c(-c5cccc(S(=O)(=O)[O-])c5F)c5ccc2[nH]5)C=C4)C=C3)cc1
REMARK SMILES IDX 4 1 3 2 2 3 1 4 26 5 27 6 88 7 28 8 87 9 29 10 30 11 31 12
REMARK SMILES IDX 81 13 32 14 86 15 80 16 82 17 33 18 85 19 79 20 78 21 34 23
REMARK SMILES IDX 66 24 46 25 65 26 47 27 50 28 64 29 83 30 48 31 49 32 63 34
REMARK SMILES IDX 84 35 51 36 35 37 36 38 44 39 37 40 39 41 45 42 38 43 40 44
REMARK SMILES IDX 41 45 42 46 43 47 67 48 68 49 76 50 69 51 71 52 77 53 70 54
REMARK SMILES IDX 72 55 73 56 74 57 75 58 52 59 53 60 61 61 54 62 56 63 62 64
REMARK SMILES IDX 55 65 57 66 58 67 59 68 60 69 5 70 6 71 7 72 8 73 9 74 10 75
REMARK SMILES IDX 17 76 11 77 18 78 12 79 15 80 13 81 14 82 16 83 19 84 20 85
REMARK SMILES IDX 21 86 25 87 22 88 24 89 23 90
REMARK H PARENT 82 22 50 33
REMARK Flexibility Score: inf
ROOT
ATOM      1  C   UNL A   1      37.862  21.618  25.790  1.00  0.00     0.275 C 
ENDROOT
BRANCH   1   2
ATOM      2  O   UNL A   1      39.258  21.446  25.785  1.00  0.00    -0.458 OA
BRANCH   2   3
ATOM      3  C   UNL A   1      40.061  22.303  26.441  1.00  0.00     0.338 C 
ATOM      4  O   UNL A   1      41.165  21.872  26.778  1.00  0.00    -0.246 OA
BRANCH   3   5
ATOM      5  C   UNL A   1      39.631  23.714  26.874  1.00  0.00     0.060 A 
ATOM      6  C   UNL A   1      39.295  24.283  28.138  1.00  0.00     0.016 A 
ATOM      7  C   UNL A   1      40.012  24.625  25.943  1.00  0.00     0.016 A 
ATOM      8  C   UNL A   1      39.507  25.673  28.513  1.00  0.00     0.010 A 
ATOM      9  C   UNL A   1      40.431  25.877  26.442  1.00  0.00     0.010 A 
ATOM     10  C   UNL A   1      40.135  26.539  27.658  1.00  0.00    -0.014 A 
BRANCH  10  11
ATOM     11  C   UNL A   1      40.399  28.089  27.749  1.00  0.00     0.031 A 
ATOM     12  C   UNL A   1      41.948  28.405  27.926  1.00  0.00     0.074 A 
ATOM     13  C   UNL A   1      39.507  29.034  28.168  1.00  0.00     0.049 A 
ATOM     14  N   UNL A   1      42.639  29.548  28.899  1.00  0.00    -0.248 NA
ATOM     15  C   UNL A   1      42.812  26.649  28.070  1.00  0.00     0.031 C 
ATOM     16  C   UNL A   1      38.048  28.898  28.221  1.00  0.00     0.029 A 
ATOM     17  N   UNL A   1      39.713  30.271  28.785  1.00  0.00    -0.354 N 
ATOM     18  C   UNL A   1      43.985  28.772  29.988  1.00  0.00     0.074 A 
ATOM     19  C   UNL A   1      43.753  26.728  29.377  1.00  0.00     0.031 C 
ATOM     20  C   UNL A   1      37.511  29.909  28.931  1.00  0.00     0.029 A 
ATOM     21  C   UNL A   1      38.561  30.844  29.321  1.00  0.00     0.049 A 
ATOM     22  H   UNL A   1      40.598  30.702  28.836  1.00  0.00     0.167 HD
ATOM     23  C   UNL A   1      45.053  29.772  30.142  1.00  0.00     0.034 A 
ATOM     24  C   UNL A   1      38.333  31.993  30.010  1.00  0.00     0.034 A 
ATOM     25  C   UNL A   1      44.782  31.225  30.038  1.00  0.00     0.049 A 
ATOM     26  C   UNL A   1      39.470  32.959  30.207  1.00  0.00     0.074 A 
ATOM     27  C   UNL A   1      45.715  32.236  29.803  1.00  0.00     0.029 A 
ATOM     28  N   UNL A   1      43.555  31.867  30.121  1.00  0.00    -0.354 N 
ATOM     29  N   UNL A   1      40.754  32.723  30.115  1.00  0.00    -0.248 NA
ATOM     30  C   UNL A   1      39.138  34.370  30.476  1.00  0.00     0.031 C 
ATOM     31  C   UNL A   1      45.074  33.468  29.807  1.00  0.00     0.029 A 
ATOM     32  C   UNL A   1      43.726  33.247  30.012  1.00  0.00     0.049 A 
ATOM     33  H   UNL A   1      42.688  31.414  30.239  1.00  0.00     0.167 HD
ATOM     34  C   UNL A   1      41.374  33.960  30.220  1.00  0.00     0.074 A 
ATOM     35  C   UNL A   1      40.332  34.945  30.412  1.00  0.00     0.031 C 
ATOM     36  C   UNL A   1      42.693  34.244  30.132  1.00  0.00     0.034 A 
BRANCH  23  37
ATOM     37  C   UNL A   1      46.597  29.574  29.927  1.00  0.00     0.023 A 
ATOM     38  C   UNL A   1      47.488  29.633  31.051  1.00  0.00     0.012 A 
ATOM     39  C   UNL A   1      47.157  29.284  28.686  1.00  0.00     0.148 A 
ATOM     40  C   UNL A   1      48.857  29.853  30.874  1.00  0.00     0.002 A 
ATOM     41  C   UNL A   1      48.543  29.351  28.540  1.00  0.00     0.091 A 
ATOM     42  F   UNL A   1      46.342  28.979  27.670  1.00  0.00    -0.205 F 
ATOM     43  C   UNL A   1      49.379  29.749  29.600  1.00  0.00     0.022 A 
BRANCH  41  44
ATOM     44  S   UNL A   1      49.347  28.889  27.013  1.00  0.00     0.127 S 
ATOM     45  O   UNL A   1      50.360  27.949  27.486  1.00  0.00    -0.237 OA
ATOM     46  O   UNL A   1      48.254  28.278  26.254  1.00  0.00    -0.237 OA
ATOM     47  O   UNL A   1      49.841  30.138  26.449  1.00  0.00    -0.744 OA
ENDBRANCH  41  44
ENDBRANCH  23  37
BRANCH  24  48
ATOM     48  C   UNL A   1      36.935  32.403  30.377  1.00  0.00     0.023 A 
ATOM     49  C   UNL A   1      36.472  32.152  31.688  1.00  0.00     0.012 A 
ATOM     50  C   UNL A   1      36.083  33.074  29.475  1.00  0.00     0.148 A 
ATOM     51  C   UNL A   1      35.204  32.570  32.100  1.00  0.00     0.002 A 
ATOM     52  C   UNL A   1      34.829  33.517  29.902  1.00  0.00     0.091 A 
ATOM     53  F   UNL A   1      36.519  33.274  28.225  1.00  0.00    -0.205 F 
ATOM     54  C   UNL A   1      34.390  33.265  31.213  1.00  0.00     0.022 A 
BRANCH  52  55
ATOM     55  S   UNL A   1      33.713  34.478  28.870  1.00  0.00     0.127 S 
ATOM     56  O   UNL A   1      33.251  33.474  27.911  1.00  0.00    -0.237 OA
ATOM     57  O   UNL A   1      32.704  34.901  29.840  1.00  0.00    -0.237 OA
ATOM     58  O   UNL A   1      34.520  35.549  28.304  1.00  0.00    -0.744 OA
ENDBRANCH  52  55
ENDBRANCH  24  48
BRANCH  36  59
ATOM     59  C   UNL A   1      43.116  35.695  30.142  1.00  0.00     0.023 A 
ATOM     60  C   UNL A   1      43.525  36.309  31.340  1.00  0.00     0.012 A 
ATOM     61  C   UNL A   1      43.213  36.416  28.932  1.00  0.00     0.148 A 
ATOM     62  C   UNL A   1      44.012  37.617  31.337  1.00  0.00     0.002 A 
ATOM     63  C   UNL A   1      43.753  37.697  28.928  1.00  0.00     0.091 A 
ATOM     64  F   UNL A   1      42.805  35.821  27.801  1.00  0.00    -0.205 F 
ATOM     65  C   UNL A   1      44.142  38.305  30.132  1.00  0.00     0.022 A 
BRANCH  63  66
ATOM     66  S   UNL A   1      44.059  38.619  27.414  1.00  0.00     0.127 S 
ATOM     67  O   UNL A   1      44.521  39.905  27.935  1.00  0.00    -0.237 OA
ATOM     68  O   UNL A   1      45.095  37.814  26.770  1.00  0.00    -0.237 OA
ATOM     69  O   UNL A   1      42.788  38.664  26.703  1.00  0.00    -0.744 OA
ENDBRANCH  63  66
ENDBRANCH  36  59
ENDBRANCH  10  11
ENDBRANCH   3   5
ENDBRANCH   2   3
ENDBRANCH   1   2
BRANCH   1  70
ATOM     70  C   UNL A   1      37.292  22.281  24.500  1.00  0.00     0.274 C 
BRANCH  70  71
ATOM     71  O   UNL A   1      36.311  23.386  24.618  1.00  0.00    -0.462 OA
BRANCH  71  72
ATOM     72  C   UNL A   1      34.942  23.151  24.684  1.00  0.00     0.310 C 
ATOM     73  O   UNL A   1      34.402  22.339  23.939  1.00  0.00    -0.252 OA
BRANCH  72  74
ATOM     74  C   UNL A   1      34.088  24.058  25.776  1.00  0.00     0.118 C 
ATOM     75  C   UNL A   1      33.998  25.680  25.576  1.00  0.00     0.022 C 
ATOM     76  C   UNL A   1      32.619  23.648  25.694  1.00  0.00     0.120 C 
ATOM     77  C   UNL A   1      33.229  25.509  24.353  1.00  0.00     0.014 C 
ATOM     78  C   UNL A   1      32.758  26.701  26.144  1.00  0.00     0.097 C 
ATOM     79  C   UNL A   1      32.026  24.824  24.964  1.00  0.00     0.047 C 
ATOM     80  C   UNL A   1      31.944  23.698  27.020  1.00  0.00     0.310 C 
ATOM     81  C   UNL A   1      31.549  25.763  26.047  1.00  0.00     0.194 C 
ATOM     82  O   UNL A   1      31.410  24.937  27.216  1.00  0.00    -0.461 OA
ATOM     83  O   UNL A   1      31.945  22.774  27.815  1.00  0.00    -0.252 OA
BRANCH  78  84
ATOM     84  S   UNL A   1      32.400  28.690  25.240  1.00  0.00    -0.119 SA
BRANCH  84  85
ATOM     85  C   UNL A   1      30.862  29.490  24.230  1.00  0.00     0.008 A 
ATOM     86  C   UNL A   1      29.910  28.510  23.215  1.00  0.00     0.015 A 
ATOM     87  C   UNL A   1      30.161  31.011  24.511  1.00  0.00     0.015 A 
ATOM     88  C   UNL A   1      28.293  28.867  22.612  1.00  0.00     0.001 A 
ATOM     89  C   UNL A   1      28.269  31.611  23.794  1.00  0.00     0.001 A 
ATOM     90  C   UNL A   1      27.381  30.328  22.951  1.00  0.00     0.000 A 
ENDBRANCH  84  85
ENDBRANCH  78  84
ENDBRANCH  72  74
ENDBRANCH  71  72
ENDBRANCH  70  71
ENDBRANCH   1  70
TORSDOF 16
ENDMDL
MODEL 2
REMARK VINA RESULT:     -12.5      2.197      2.737
REMARK SMILES O=C(OCCOC(=O)[C@H]1[C@H]2C[C@@H]3[C@@H](OC(=O)[C@@H]31)[C@@H]2Sc1ccccc1)c1ccc(-c2c3nc(c(-c4cccc(S(=O)(=O)[O-])c4F)c4ccc([nH]4)c(-c4cccc(S(=O)(=O)[O-])c4F)c4nc(c(-c5cccc(S(=O)(=O)[O-])c5F)c5ccc2[nH]5)C=C4)C=C3)cc1
REMARK SMILES IDX 4 1 3 2 2 3 1 4 26 5 27 6 88 7 28 8 87 9 29 10 30 11 31 12
REMARK SMILES IDX 81 13 32 14 86 15 80 16 82 17 33 18 85 19 79 20 78 21 34 23
REMARK SMILES IDX 66 24 46 25 65 26 47 27 50 28 64 29 83 30 48 31 49 32 63 34
REMARK SMILES IDX 84 35 51 36 35 37 36 38 44 39 37 40 39 41 45 42 38 43 40 44
REMARK SMILES IDX 41 45 42 46 43 47 67 48 68 49 76 50 69 51 71 52 77 53 70 54
REMARK SMILES IDX 72 55 73 56 74 57 75 58 52 59 53 60 61 61 54 62 56 63 62 64
REMARK SMILES IDX 55 65 57 66 58 67 59 68 60 69 5 70 6 71 7 72 8 73 9 74 10 75
REMARK SMILES IDX 17 76 11 77 18 78 12 79 15 80 13 81 14 82 16 83 19 84 20 85
REMARK SMILES IDX 21 86 25 87 22 88 24 89 23 90
REMARK H PARENT 82 22 50 33
REMARK Flexibility Score: inf
ROOT
ATOM      1  C   UNL A   1      36.827  20.277  25.001  1.00  0.00     0.275 C 
ENDROOT
BRANCH   1   2
ATOM      2  O   UNL A   1      37.900  21.178  24.872  1.00  0.00    -0.458 OA
BRANCH   2   3
ATOM      3  C   UNL A   1      38.892  21.204  25.780  1.00  0.00     0.338 C 
ATOM      4  O   UNL A   1      39.474  20.137  25.989  1.00  0.00    -0.246 OA
BRANCH   3   5
ATOM      5  C   UNL A   1      39.244  22.439  26.624  1.00  0.00     0.060 A 
ATOM      6  C   UNL A   1      40.311  22.730  27.524  1.00  0.00     0.016 A 
ATOM      7  C   UNL A   1      38.636  23.541  26.115  1.00  0.00     0.016 A 
ATOM      8  C   UNL A   1      40.868  24.054  27.763  1.00  0.00     0.010 A 
ATOM      9  C   UNL A   1      39.376  24.741  26.186  1.00  0.00     0.010 A 
ATOM     10  C   UNL A   1      40.425  25.136  27.050  1.00  0.00    -0.014 A 
BRANCH  10  11
ATOM     11  C   UNL A   1      40.760  26.671  27.167  1.00  0.00     0.031 A 
ATOM     12  C   UNL A   1      42.281  26.963  26.806  1.00  0.00     0.074 A 
ATOM     13  C   UNL A   1      40.108  27.579  27.952  1.00  0.00     0.049 A 
ATOM     14  N   UNL A   1      43.313  28.012  27.559  1.00  0.00    -0.248 NA
ATOM     15  C   UNL A   1      43.076  25.197  26.490  1.00  0.00     0.031 C 
ATOM     16  C   UNL A   1      38.759  27.445  28.510  1.00  0.00     0.029 A 
ATOM     17  N   UNL A   1      40.564  28.755  28.553  1.00  0.00    -0.354 N 
ATOM     18  C   UNL A   1      44.928  27.135  28.030  1.00  0.00     0.074 A 
ATOM     19  C   UNL A   1      44.421  25.155  27.378  1.00  0.00     0.031 C 
ATOM     20  C   UNL A   1      38.544  28.392  29.445  1.00  0.00     0.029 A 
ATOM     21  C   UNL A   1      39.697  29.284  29.509  1.00  0.00     0.049 A 
ATOM     22  H   UNL A   1      41.424  29.176  28.322  1.00  0.00     0.167 HD
ATOM     23  C   UNL A   1      46.016  28.113  27.874  1.00  0.00     0.034 A 
ATOM     24  C   UNL A   1      39.770  30.368  30.326  1.00  0.00     0.034 A 
ATOM     25  C   UNL A   1      45.779  29.570  27.992  1.00  0.00     0.049 A 
ATOM     26  C   UNL A   1      40.937  31.307  30.182  1.00  0.00     0.074 A 
ATOM     27  C   UNL A   1      46.603  30.594  27.524  1.00  0.00     0.029 A 
ATOM     28  N   UNL A   1      44.685  30.208  28.559  1.00  0.00    -0.354 N 
ATOM     29  N   UNL A   1      42.095  31.074  29.621  1.00  0.00    -0.248 NA
ATOM     30  C   UNL A   1      40.772  32.690  30.666  1.00  0.00     0.031 C 
ATOM     31  C   UNL A   1      46.050  31.825  27.857  1.00  0.00     0.029 A 
ATOM     32  C   UNL A   1      44.856  31.592  28.509  1.00  0.00     0.049 A 
ATOM     33  H   UNL A   1      43.900  29.751  28.941  1.00  0.00     0.167 HD
ATOM     34  C   UNL A   1      42.756  32.294  29.598  1.00  0.00     0.074 A 
ATOM     35  C   UNL A   1      41.887  33.263  30.229  1.00  0.00     0.031 C 
ATOM     36  C   UNL A   1      43.968  32.579  29.070  1.00  0.00     0.034 A 
BRANCH  23  37
ATOM     37  C   UNL A   1      47.376  27.928  27.109  1.00  0.00     0.023 A 
ATOM     38  C   UNL A   1      48.617  28.025  27.823  1.00  0.00     0.012 A 
ATOM     39  C   UNL A   1      47.444  27.613  25.755  1.00  0.00     0.148 A 
ATOM     40  C   UNL A   1      49.820  28.257  27.150  1.00  0.00     0.002 A 
ATOM     41  C   UNL A   1      48.678  27.693  25.106  1.00  0.00     0.091 A 
ATOM     42  F   UNL A   1      46.318  27.273  25.117  1.00  0.00    -0.205 F 
ATOM     43  C   UNL A   1      49.837  28.127  25.774  1.00  0.00     0.022 A 
BRANCH  41  44
ATOM     44  S   UNL A   1      48.871  27.202  23.399  1.00  0.00     0.127 S 
ATOM     45  O   UNL A   1      50.323  27.245  23.242  1.00  0.00    -0.237 OA
ATOM     46  O   UNL A   1      48.295  25.856  23.392  1.00  0.00    -0.237 OA
ATOM     47  O   UNL A   1      48.111  28.181  22.633  1.00  0.00    -0.744 OA
ENDBRANCH  41  44
ENDBRANCH  23  37
BRANCH  24  48
ATOM     48  C   UNL A   1      38.608  30.751  31.199  1.00  0.00     0.023 A 
ATOM     49  C   UNL A   1      38.676  30.477  32.583  1.00  0.00     0.012 A 
ATOM     50  C   UNL A   1      37.472  31.417  30.695  1.00  0.00     0.148 A 
ATOM     51  C   UNL A   1      37.652  30.868  33.448  1.00  0.00     0.002 A 
ATOM     52  C   UNL A   1      36.467  31.834  31.569  1.00  0.00     0.091 A 
ATOM     53  F   UNL A   1      37.403  31.638  29.376  1.00  0.00    -0.205 F 
ATOM     54  C   UNL A   1      36.556  31.559  32.945  1.00  0.00     0.022 A 
BRANCH  52  55
ATOM     55  S   UNL A   1      35.033  32.788  31.049  1.00  0.00     0.127 S 
ATOM     56  O   UNL A   1      34.128  32.614  32.185  1.00  0.00    -0.237 OA
ATOM     57  O   UNL A   1      35.601  34.130  30.924  1.00  0.00    -0.237 OA
ATOM     58  O   UNL A   1      34.585  32.183  29.803  1.00  0.00    -0.744 OA
ENDBRANCH  52  55
ENDBRANCH  24  48
BRANCH  36  59
ATOM     59  C   UNL A   1      44.419  34.022  29.047  1.00  0.00     0.023 A 
ATOM     60  C   UNL A   1      44.025  34.874  27.999  1.00  0.00     0.012 A 
ATOM     61  C   UNL A   1      45.144  34.557  30.134  1.00  0.00     0.148 A 
ATOM     62  C   UNL A   1      44.353  36.231  28.026  1.00  0.00     0.002 A 
ATOM     63  C   UNL A   1      45.418  35.919  30.182  1.00  0.00     0.091 A 
ATOM     64  F   UNL A   1      45.525  33.728  31.116  1.00  0.00    -0.205 F 
ATOM     65  C   UNL A   1      45.034  36.756  29.122  1.00  0.00     0.022 A 
BRANCH  63  66
ATOM     66  S   UNL A   1      46.194  36.706  31.601  1.00  0.00     0.127 S 
ATOM     67  O   UNL A   1      47.600  36.355  31.406  1.00  0.00    -0.237 OA
ATOM     68  O   UNL A   1      45.880  38.117  31.379  1.00  0.00    -0.237 OA
ATOM     69  O   UNL A   1      45.571  36.119  32.780  1.00  0.00    -0.744 OA
ENDBRANCH  63  66
ENDBRANCH  36  59
ENDBRANCH  10  11
ENDBRANCH   3   5
ENDBRANCH   2   3
ENDBRANCH   1   2
BRANCH   1  70
ATOM     70  C   UNL A   1      35.509  20.921  25.530  1.00  0.00     0.274 C 
BRANCH  70  71
ATOM     71  O   UNL A   1      34.776  21.889  24.681  1.00  0.00    -0.462 OA
BRANCH  71  72
ATOM     72  C   UNL A   1      35.058  23.251  24.705  1.00  0.00     0.310 C 
ATOM     73  O   UNL A   1      35.956  23.723  24.015  1.00  0.00    -0.252 OA
BRANCH  72  74
ATOM     74  C   UNL A   1      34.159  24.175  25.745  1.00  0.00     0.118 C 
ATOM     75  C   UNL A   1      34.069  25.792  25.507  1.00  0.00     0.022 C 
ATOM     76  C   UNL A   1      32.696  23.756  25.615  1.00  0.00     0.120 C 
ATOM     77  C   UNL A   1      33.349  25.592  24.260  1.00  0.00     0.014 C 
ATOM     78  C   UNL A   1      32.804  26.819  26.006  1.00  0.00     0.097 C 
ATOM     79  C   UNL A   1      32.127  24.914  24.839  1.00  0.00     0.047 C 
ATOM     80  C   UNL A   1      31.971  23.830  26.914  1.00  0.00     0.310 C 
ATOM     81  C   UNL A   1      31.604  25.873  25.883  1.00  0.00     0.194 C 
ATOM     82  O   UNL A   1      31.424  25.070  27.063  1.00  0.00    -0.461 OA
ATOM     83  O   UNL A   1      31.946  22.923  27.727  1.00  0.00    -0.252 OA
BRANCH  78  84
ATOM     84  S   UNL A   1      32.472  28.787  25.047  1.00  0.00    -0.119 SA
BRANCH  84  85
ATOM     85  C   UNL A   1      30.914  29.608  24.086  1.00  0.00     0.008 A 
ATOM     86  C   UNL A   1      30.028  28.687  22.961  1.00  0.00     0.015 A 
ATOM     87  C   UNL A   1      30.134  31.059  24.497  1.00  0.00     0.015 A 
ATOM     88  C   UNL A   1      28.406  29.024  22.360  1.00  0.00     0.001 A 
ATOM     89  C   UNL A   1      28.227  31.636  23.801  1.00  0.00     0.001 A 
ATOM     90  C   UNL A   1      27.418  30.401  22.820  1.00  0.00     0.000 A 
ENDBRANCH  84  85
ENDBRANCH  78  84
ENDBRANCH  72  74
ENDBRANCH  71  72
ENDBRANCH  70  71
ENDBRANCH   1  70
TORSDOF 16
ENDMDL
MODEL 3
REMARK VINA RESULT:     -12.5      4.994     10.276
REMARK SMILES O=C(OCCOC(=O)[C@H]1[C@H]2C[C@@H]3[C@@H](OC(=O)[C@@H]31)[C@@H]2Sc1ccccc1)c1ccc(-c2c3nc(c(-c4cccc(S(=O)(=O)[O-])c4F)c4ccc([nH]4)c(-c4cccc(S(=O)(=O)[O-])c4F)c4nc(c(-c5cccc(S(=O)(=O)[O-])c5F)c5ccc2[nH]5)C=C4)C=C3)cc1
REMARK SMILES IDX 4 1 3 2 2 3 1 4 26 5 27 6 88 7 28 8 87 9 29 10 30 11 31 12
REMARK SMILES IDX 81 13 32 14 86 15 80 16 82 17 33 18 85 19 79 20 78 21 34 23
REMARK SMILES IDX 66 24 46 25 65 26 47 27 50 28 64 29 83 30 48 31 49 32 63 34
REMARK SMILES IDX 84 35 51 36 35 37 36 38 44 39 37 40 39 41 45 42 38 43 40 44
REMARK SMILES IDX 41 45 42 46 43 47 67 48 68 49 76 50 69 51 71 52 77 53 70 54
REMARK SMILES IDX 72 55 73 56 74 57 75 58 52 59 53 60 61 61 54 62 56 63 62 64
REMARK SMILES IDX 55 65 57 66 58 67 59 68 60 69 5 70 6 71 7 72 8 73 9 74 10 75
REMARK SMILES IDX 17 76 11 77 18 78 12 79 15 80 13 81 14 82 16 83 19 84 20 85
REMARK SMILES IDX 21 86 25 87 22 88 24 89 23 90
REMARK H PARENT 82 22 50 33
REMARK Flexibility Score: inf
ROOT
ATOM      1  C   UNL A   1      31.489  30.170  25.648  1.00  0.00     0.275 C 
ENDROOT
BRANCH   1   2
ATOM      2  O   UNL A   1      32.886  30.302  25.754  1.00  0.00    -0.458 OA
BRANCH   2   3
ATOM      3  C   UNL A   1      33.446  30.837  26.853  1.00  0.00     0.338 C 
ATOM      4  O   UNL A   1      32.733  31.584  27.526  1.00  0.00    -0.246 OA
BRANCH   3   5
ATOM      5  C   UNL A   1      34.925  30.652  27.232  1.00  0.00     0.060 A 
ATOM      6  C   UNL A   1      35.881  31.504  27.863  1.00  0.00     0.016 A 
ATOM      7  C   UNL A   1      35.225  29.331  27.313  1.00  0.00     0.016 A 
ATOM      8  C   UNL A   1      36.985  31.050  28.694  1.00  0.00     0.010 A 
ATOM      9  C   UNL A   1      36.140  28.968  28.325  1.00  0.00     0.010 A 
ATOM     10  C   UNL A   1      37.136  29.721  28.991  1.00  0.00    -0.014 A 
BRANCH  10  11
ATOM     11  C   UNL A   1      38.272  28.945  29.758  1.00  0.00     0.031 A 
ATOM     12  C   UNL A   1      38.543  29.581  31.191  1.00  0.00     0.074 A 
ATOM     13  C   UNL A   1      39.275  28.215  29.188  1.00  0.00     0.049 A 
ATOM     14  N   UNL A   1      40.003  29.815  31.931  1.00  0.00    -0.248 NA
ATOM     15  C   UNL A   1      37.376  31.156  31.277  1.00  0.00     0.031 C 
ATOM     16  C   UNL A   1      39.289  27.657  27.833  1.00  0.00     0.029 A 
ATOM     17  N   UNL A   1      40.569  27.940  29.637  1.00  0.00    -0.354 N 
ATOM     18  C   UNL A   1      40.171  31.610  32.520  1.00  0.00     0.074 A 
ATOM     19  C   UNL A   1      38.318  32.375  31.754  1.00  0.00     0.031 C 
ATOM     20  C   UNL A   1      40.529  27.236  27.514  1.00  0.00     0.029 A 
ATOM     21  C   UNL A   1      41.409  27.393  28.667  1.00  0.00     0.049 A 
ATOM     22  H   UNL A   1      40.864  28.117  30.560  1.00  0.00     0.167 HD
ATOM     23  C   UNL A   1      40.927  31.586  33.782  1.00  0.00     0.034 A 
ATOM     24  C   UNL A   1      42.715  27.018  28.679  1.00  0.00     0.034 A 
ATOM     25  C   UNL A   1      41.882  30.499  34.098  1.00  0.00     0.049 A 
ATOM     26  C   UNL A   1      43.475  27.074  29.977  1.00  0.00     0.074 A 
ATOM     27  C   UNL A   1      42.375  30.158  35.358  1.00  0.00     0.029 A 
ATOM     28  N   UNL A   1      42.450  29.587  33.221  1.00  0.00    -0.354 N 
ATOM     29  N   UNL A   1      43.182  27.756  31.054  1.00  0.00    -0.248 NA
ATOM     30  C   UNL A   1      44.669  26.221  30.114  1.00  0.00     0.031 C 
ATOM     31  C   UNL A   1      43.272  29.103  35.236  1.00  0.00     0.029 A 
ATOM     32  C   UNL A   1      43.329  28.746  33.904  1.00  0.00     0.049 A 
ATOM     33  H   UNL A   1      42.261  29.539  32.256  1.00  0.00     0.167 HD
ATOM     34  C   UNL A   1      44.091  27.347  32.019  1.00  0.00     0.074 A 
ATOM     35  C   UNL A   1      44.968  26.379  31.398  1.00  0.00     0.031 C 
ATOM     36  C   UNL A   1      44.162  27.728  33.315  1.00  0.00     0.034 A 
BRANCH  23  37
ATOM     37  C   UNL A   1      40.560  32.287  35.139  1.00  0.00     0.023 A 
ATOM     38  C   UNL A   1      41.457  33.251  35.711  1.00  0.00     0.012 A 
ATOM     39  C   UNL A   1      39.360  32.061  35.807  1.00  0.00     0.148 A 
ATOM     40  C   UNL A   1      41.376  33.599  37.062  1.00  0.00     0.002 A 
ATOM     41  C   UNL A   1      39.213  32.542  37.109  1.00  0.00     0.091 A 
ATOM     42  F   UNL A   1      38.402  31.365  35.185  1.00  0.00    -0.205 F 
ATOM     43  C   UNL A   1      40.260  33.204  37.775  1.00  0.00     0.022 A 
BRANCH  41  44
ATOM     44  S   UNL A   1      37.668  32.389  37.993  1.00  0.00     0.127 S 
ATOM     45  O   UNL A   1      37.990  33.033  39.264  1.00  0.00    -0.237 OA
ATOM     46  O   UNL A   1      36.743  33.142  37.144  1.00  0.00    -0.237 OA
ATOM     47  O   UNL A   1      37.399  30.958  38.046  1.00  0.00    -0.744 OA
ENDBRANCH  41  44
ENDBRANCH  23  37
BRANCH  24  48
ATOM     48  C   UNL A   1      43.332  26.350  27.482  1.00  0.00     0.023 A 
ATOM     49  C   UNL A   1      44.083  27.132  26.577  1.00  0.00     0.012 A 
ATOM     50  C   UNL A   1      43.231  24.962  27.256  1.00  0.00     0.148 A 
ATOM     51  C   UNL A   1      44.730  26.551  25.483  1.00  0.00     0.002 A 
ATOM     52  C   UNL A   1      43.906  24.382  26.180  1.00  0.00     0.091 A 
ATOM     53  F   UNL A   1      42.486  24.237  28.101  1.00  0.00    -0.205 F 
ATOM     54  C   UNL A   1      44.654  25.176  25.294  1.00  0.00     0.022 A 
BRANCH  52  55
ATOM     55  S   UNL A   1      43.935  22.611  25.866  1.00  0.00     0.127 S 
ATOM     56  O   UNL A   1      43.445  22.541  24.489  1.00  0.00    -0.237 OA
ATOM     57  O   UNL A   1      45.358  22.307  26.020  1.00  0.00    -0.237 OA
ATOM     58  O   UNL A   1      43.060  22.016  26.865  1.00  0.00    -0.744 OA
ENDBRANCH  52  55
ENDBRANCH  24  48
BRANCH  36  59
ATOM     59  C   UNL A   1      45.163  27.035  34.211  1.00  0.00     0.023 A 
ATOM     60  C   UNL A   1      46.464  27.549  34.355  1.00  0.00     0.012 A 
ATOM     61  C   UNL A   1      44.767  25.933  35.000  1.00  0.00     0.148 A 
ATOM     62  C   UNL A   1      47.360  26.973  35.258  1.00  0.00     0.002 A 
ATOM     63  C   UNL A   1      45.644  25.399  35.938  1.00  0.00     0.091 A 
ATOM     64  F   UNL A   1      43.528  25.445  34.839  1.00  0.00    -0.205 F 
ATOM     65  C   UNL A   1      46.946  25.911  36.060  1.00  0.00     0.022 A 
BRANCH  63  66
ATOM     66  S   UNL A   1      45.167  24.103  37.090  1.00  0.00     0.127 S 
ATOM     67  O   UNL A   1      44.059  24.733  37.807  1.00  0.00    -0.237 OA
ATOM     68  O   UNL A   1      44.773  23.022  36.188  1.00  0.00    -0.237 OA
ATOM     69  O   UNL A   1      46.345  23.826  37.900  1.00  0.00    -0.744 OA
ENDBRANCH  63  66
ENDBRANCH  36  59
ENDBRANCH  10  11
ENDBRANCH   3   5
ENDBRANCH   2   3
ENDBRANCH   1   2
BRANCH   1  70
ATOM     70  C   UNL A   1      31.017  29.259  24.475  1.00  0.00     0.274 C 
BRANCH  70  71
ATOM     71  O   UNL A   1      31.871  28.130  24.037  1.00  0.00    -0.462 OA
BRANCH  71  72
ATOM     72  C   UNL A   1      31.370  27.082  23.270  1.00  0.00     0.310 C 
ATOM     73  O   UNL A   1      31.013  27.261  22.111  1.00  0.00    -0.252 OA
BRANCH  72  74
ATOM     74  C   UNL A   1      31.239  25.612  24.022  1.00  0.00     0.118 C 
ATOM     75  C   UNL A   1      32.310  24.428  23.660  1.00  0.00     0.022 C 
ATOM     76  C   UNL A   1      31.486  25.814  25.515  1.00  0.00     0.120 C 
ATOM     77  C   UNL A   1      33.395  25.198  24.246  1.00  0.00     0.014 C 
ATOM     78  C   UNL A   1      32.762  23.130  24.668  1.00  0.00     0.097 C 
ATOM     79  C   UNL A   1      32.870  25.239  25.664  1.00  0.00     0.047 C 
ATOM     80  C   UNL A   1      30.652  24.908  26.352  1.00  0.00     0.310 C 
ATOM     81  C   UNL A   1      32.660  23.793  26.046  1.00  0.00     0.194 C 
ATOM     82  O   UNL A   1      31.322  23.742  26.574  1.00  0.00    -0.461 OA
ATOM     83  O   UNL A   1      29.518  25.173  26.712  1.00  0.00    -0.252 OA
BRANCH  78  84
ATOM     84  S   UNL A   1      34.664  22.040  24.357  1.00  0.00    -0.119 SA
BRANCH  84  85
ATOM     85  C   UNL A   1      36.560  22.386  24.916  1.00  0.00     0.008 A 
ATOM     86  C   UNL A   1      36.986  23.890  25.589  1.00  0.00     0.015 A 
ATOM     87  C   UNL A   1      37.778  21.218  25.108  1.00  0.00     0.015 A 
ATOM     88  C   UNL A   1      38.423  24.253  26.544  1.00  0.00     0.001 A 
ATOM     89  C   UNL A   1      39.582  21.527  26.157  1.00  0.00     0.001 A 
ATOM     90  C   UNL A   1      39.686  23.106  26.956  1.00  0.00     0.000 A 
ENDBRANCH  84  85
ENDBRANCH  78  84
ENDBRANCH  72  74
ENDBRANCH  71  72
ENDBRANCH  70  71
ENDBRANCH   1  70
TORSDOF 16
ENDMDL
