MODEL 1
REMARK VINA RESULT:     -11.8      0.000      0.000
REMARK SMILES O=C(C[C@@H](c1ccc(Cl)c(Cl)c1)N1Cc2ccccc2C1=O)OCCOC(=O)c1ccc(-c2c3nc(c(-c4cccc(S(=O)(=O)[O-])c4F)c4ccc([nH]4)c(-c4cccc(S(=O)(=O)[O-])c4F)c4nc(c(-c5cccc(S(=O)(=O)[O-])c5F)c5ccc2[nH]5)C=C4)C=C3)cc1
REMARK SMILES IDX 25 1 24 2 23 3 2 4 1 5 3 6 4 7 5 8 6 9 12 10 7 11 10 12 8 13
REMARK SMILES IDX 11 14 9 15 13 16 14 17 21 18 15 19 20 20 22 21 16 22 19 23
REMARK SMILES IDX 17 24 18 25 26 26 27 27 28 28 29 29 30 30 91 31 31 32 90 33
REMARK SMILES IDX 32 34 33 35 34 36 84 37 35 38 89 39 83 40 85 41 36 42 88 43
REMARK SMILES IDX 82 44 81 45 37 47 69 48 49 49 68 50 50 51 53 52 67 53 86 54
REMARK SMILES IDX 51 55 52 56 66 58 87 59 54 60 38 61 39 62 47 63 40 64 42 65
REMARK SMILES IDX 48 66 41 67 43 68 44 69 45 70 46 71 70 72 71 73 79 74 72 75
REMARK SMILES IDX 74 76 80 77 73 78 75 79 76 80 77 81 78 82 55 83 56 84 64 85
REMARK SMILES IDX 57 86 59 87 65 88 58 89 60 90 61 91 62 92 63 93
REMARK H PARENT 85 46 53 57
REMARK Flexibility Score: inf
ROOT
ATOM      1  C   UNL A   1      38.519  20.000  25.060  1.00  0.00     0.275 C 
ENDROOT
BRANCH   1   2
ATOM      2  C   UNL A   1      37.470  21.108  24.911  1.00  0.00     0.274 C 
BRANCH   2   3
ATOM      3  O   UNL A   1      37.327  21.970  26.055  1.00  0.00    -0.462 OA
BRANCH   3   4
ATOM      4  C   UNL A   1      37.198  23.317  25.884  1.00  0.00     0.308 C 
ATOM      5  O   UNL A   1      37.909  24.108  26.494  1.00  0.00    -0.252 OA
BRANCH   4   6
ATOM      6  C   UNL A   1      36.009  23.770  25.076  1.00  0.00     0.152 C 
BRANCH   6   7
ATOM      7  C   UNL A   1      34.631  23.563  25.709  1.00  0.00     0.127 C 
BRANCH   7   8
ATOM      8  C   UNL A   1      33.715  24.740  25.378  1.00  0.00    -0.023 A 
ATOM      9  C   UNL A   1      32.446  24.808  25.971  1.00  0.00     0.007 A 
ATOM     10  C   UNL A   1      34.152  25.823  24.592  1.00  0.00     0.028 A 
ATOM     11  C   UNL A   1      31.656  25.949  25.831  1.00  0.00     0.022 A 
ATOM     12  C   UNL A   1      33.370  26.977  24.471  1.00  0.00     0.060 A 
ATOM     13  C   UNL A   1      32.123  27.043  25.100  1.00  0.00     0.059 A 
ATOM     14  Cl  UNL A   1      34.051  28.318  23.619  1.00  0.00    -0.083 Cl
ATOM     15  Cl  UNL A   1      31.140  28.463  25.060  1.00  0.00    -0.083 Cl
ENDBRANCH   7   8
BRANCH   7  16
ATOM     16  N   UNL A   1      34.027  22.291  25.285  1.00  0.00    -0.327 N 
ATOM     17  C   UNL A   1      33.583  22.002  23.926  1.00  0.00     0.157 C 
ATOM     18  C   UNL A   1      33.854  21.204  26.132  1.00  0.00     0.255 C 
ATOM     19  C   UNL A   1      33.069  20.613  24.026  1.00  0.00    -0.016 A 
ATOM     20  C   UNL A   1      33.240  20.135  25.325  1.00  0.00     0.045 A 
ATOM     21  O   UNL A   1      34.133  21.144  27.312  1.00  0.00    -0.269 OA
ATOM     22  C   UNL A   1      32.531  19.810  23.036  1.00  0.00     0.006 A 
ATOM     23  C   UNL A   1      32.883  18.854  25.688  1.00  0.00     0.014 A 
ATOM     24  C   UNL A   1      32.163  18.509  23.381  1.00  0.00     0.000 A 
ATOM     25  C   UNL A   1      32.335  18.038  24.695  1.00  0.00     0.001 A 
ENDBRANCH   7  16
ENDBRANCH   6   7
ENDBRANCH   4   6
ENDBRANCH   3   4
ENDBRANCH   2   3
ENDBRANCH   1   2
BRANCH   1  26
ATOM     26  O   UNL A   1      39.129  19.984  26.359  1.00  0.00    -0.458 OA
BRANCH  26  27
ATOM     27  C   UNL A   1      40.488  20.030  26.348  1.00  0.00     0.338 C 
ATOM     28  O   UNL A   1      41.241  19.177  25.912  1.00  0.00    -0.246 OA
BRANCH  27  29
ATOM     29  C   UNL A   1      40.927  21.379  26.768  1.00  0.00     0.060 A 
ATOM     30  C   UNL A   1      40.806  22.429  25.846  1.00  0.00     0.016 A 
ATOM     31  C   UNL A   1      41.419  21.624  28.052  1.00  0.00     0.016 A 
ATOM     32  C   UNL A   1      41.191  23.725  26.200  1.00  0.00     0.010 A 
ATOM     33  C   UNL A   1      41.814  22.918  28.399  1.00  0.00     0.010 A 
ATOM     34  C   UNL A   1      41.724  23.974  27.470  1.00  0.00    -0.014 A 
BRANCH  34  35
ATOM     35  C   UNL A   1      42.366  25.274  27.788  1.00  0.00     0.031 A 
ATOM     36  C   UNL A   1      41.520  26.341  28.427  1.00  0.00     0.074 A 
ATOM     37  C   UNL A   1      43.646  25.541  27.466  1.00  0.00     0.049 A 
ATOM     38  N   UNL A   1      41.812  27.586  28.693  1.00  0.00    -0.248 NA
ATOM     39  C   UNL A   1      40.150  25.949  28.797  1.00  0.00     0.031 C 
ATOM     40  C   UNL A   1      44.582  24.604  26.852  1.00  0.00     0.029 A 
ATOM     41  N   UNL A   1      44.363  26.709  27.574  1.00  0.00    -0.354 N 
ATOM     42  C   UNL A   1      40.651  28.139  29.219  1.00  0.00     0.074 A 
ATOM     43  C   UNL A   1      39.647  27.099  29.217  1.00  0.00     0.031 C 
ATOM     44  C   UNL A   1      45.732  25.247  26.585  1.00  0.00     0.029 A 
ATOM     45  C   UNL A   1      45.610  26.644  26.997  1.00  0.00     0.049 A 
ATOM     46  H   UNL A   1      44.018  27.514  28.023  1.00  0.00     0.167 HD
ATOM     47  C   UNL A   1      40.438  29.396  29.672  1.00  0.00     0.034 A 
ATOM     48  C   UNL A   1      46.536  27.605  26.799  1.00  0.00     0.034 A 
ATOM     49  C   UNL A   1      41.436  30.428  29.687  1.00  0.00     0.049 A 
ATOM     50  C   UNL A   1      46.275  29.007  27.294  1.00  0.00     0.074 A 
ATOM     51  C   UNL A   1      41.334  31.712  30.190  1.00  0.00     0.029 A 
ATOM     52  N   UNL A   1      42.707  30.306  29.150  1.00  0.00    -0.354 N 
ATOM     53  N   UNL A   1      45.217  29.483  27.904  1.00  0.00    -0.248 NA
ATOM     54  C   UNL A   1      47.349  29.997  27.103  1.00  0.00     0.031 C 
ATOM     55  C   UNL A   1      42.527  32.385  29.909  1.00  0.00     0.029 A 
ATOM     56  C   UNL A   1      43.392  31.501  29.284  1.00  0.00     0.049 A 
ATOM     57  H   UNL A   1      43.070  29.490  28.736  1.00  0.00     0.167 HD
ATOM     58  C   UNL A   1      45.513  30.811  28.207  1.00  0.00     0.074 A 
ATOM     59  C   UNL A   1      46.850  31.063  27.716  1.00  0.00     0.031 C 
ATOM     60  C   UNL A   1      44.742  31.733  28.836  1.00  0.00     0.034 A 
BRANCH  47  61
ATOM     61  C   UNL A   1      39.056  29.721  30.173  1.00  0.00     0.023 A 
ATOM     62  C   UNL A   1      38.698  29.433  31.507  1.00  0.00     0.012 A 
ATOM     63  C   UNL A   1      38.111  30.319  29.318  1.00  0.00     0.148 A 
ATOM     64  C   UNL A   1      37.404  29.682  31.964  1.00  0.00     0.002 A 
ATOM     65  C   UNL A   1      36.841  30.614  29.796  1.00  0.00     0.091 A 
ATOM     66  F   UNL A   1      38.461  30.563  28.047  1.00  0.00    -0.205 F 
ATOM     67  C   UNL A   1      36.480  30.280  31.111  1.00  0.00     0.022 A 
BRANCH  65  68
ATOM     68  S   UNL A   1      35.611  31.459  28.798  1.00  0.00     0.127 S 
ATOM     69  O   UNL A   1      36.404  32.531  28.200  1.00  0.00    -0.237 OA
ATOM     70  O   UNL A   1      35.199  30.410  27.865  1.00  0.00    -0.237 OA
ATOM     71  O   UNL A   1      34.572  31.889  29.724  1.00  0.00    -0.744 OA
ENDBRANCH  65  68
ENDBRANCH  47  61
BRANCH  48  72
ATOM     72  C   UNL A   1      47.815  27.272  26.111  1.00  0.00     0.023 A 
ATOM     73  C   UNL A   1      48.899  26.772  26.856  1.00  0.00     0.012 A 
ATOM     74  C   UNL A   1      47.955  27.433  24.719  1.00  0.00     0.148 A 
ATOM     75  C   UNL A   1      50.110  26.465  26.232  1.00  0.00     0.002 A 
ATOM     76  C   UNL A   1      49.150  27.088  24.097  1.00  0.00     0.091 A 
ATOM     77  F   UNL A   1      46.904  27.888  24.022  1.00  0.00    -0.205 F 
ATOM     78  C   UNL A   1      50.235  26.620  24.853  1.00  0.00     0.022 A 
BRANCH  76  79
ATOM     79  S   UNL A   1      49.369  27.210  22.318  1.00  0.00     0.127 S 
ATOM     80  O   UNL A   1      50.813  27.029  22.168  1.00  0.00    -0.237 OA
ATOM     81  O   UNL A   1      48.555  26.094  21.843  1.00  0.00    -0.237 OA
ATOM     82  O   UNL A   1      48.890  28.538  21.958  1.00  0.00    -0.744 OA
ENDBRANCH  76  79
ENDBRANCH  48  72
BRANCH  60  83
ATOM     83  C   UNL A   1      45.323  33.101  29.095  1.00  0.00     0.023 A 
ATOM     84  C   UNL A   1      46.123  33.333  30.231  1.00  0.00     0.012 A 
ATOM     85  C   UNL A   1      45.178  34.122  28.133  1.00  0.00     0.148 A 
ATOM     86  C   UNL A   1      46.754  34.564  30.413  1.00  0.00     0.002 A 
ATOM     87  C   UNL A   1      45.852  35.327  28.295  1.00  0.00     0.091 A 
ATOM     88  F   UNL A   1      44.401  33.886  27.066  1.00  0.00    -0.205 F 
ATOM     89  C   UNL A   1      46.631  35.554  29.440  1.00  0.00     0.022 A 
BRANCH  87  90
ATOM     90  S   UNL A   1      45.840  36.616  27.043  1.00  0.00     0.127 S 
ATOM     91  O   UNL A   1      46.732  37.613  27.634  1.00  0.00    -0.237 OA
ATOM     92  O   UNL A   1      46.389  35.919  25.879  1.00  0.00    -0.237 OA
ATOM     93  O   UNL A   1      44.452  37.033  26.903  1.00  0.00    -0.744 OA
ENDBRANCH  87  90
ENDBRANCH  60  83
ENDBRANCH  34  35
ENDBRANCH  27  29
ENDBRANCH  26  27
ENDBRANCH   1  26
TORSDOF 17
ENDMDL
MODEL 2
REMARK VINA RESULT:     -11.7      1.615      7.597
REMARK SMILES O=C(C[C@@H](c1ccc(Cl)c(Cl)c1)N1Cc2ccccc2C1=O)OCCOC(=O)c1ccc(-c2c3nc(c(-c4cccc(S(=O)(=O)[O-])c4F)c4ccc([nH]4)c(-c4cccc(S(=O)(=O)[O-])c4F)c4nc(c(-c5cccc(S(=O)(=O)[O-])c5F)c5ccc2[nH]5)C=C4)C=C3)cc1
REMARK SMILES IDX 25 1 24 2 23 3 2 4 1 5 3 6 4 7 5 8 6 9 12 10 7 11 10 12 8 13
REMARK SMILES IDX 11 14 9 15 13 16 14 17 21 18 15 19 20 20 22 21 16 22 19 23
REMARK SMILES IDX 17 24 18 25 26 26 27 27 28 28 29 29 30 30 91 31 31 32 90 33
REMARK SMILES IDX 32 34 33 35 34 36 84 37 35 38 89 39 83 40 85 41 36 42 88 43
REMARK SMILES IDX 82 44 81 45 37 47 69 48 49 49 68 50 50 51 53 52 67 53 86 54
REMARK SMILES IDX 51 55 52 56 66 58 87 59 54 60 38 61 39 62 47 63 40 64 42 65
REMARK SMILES IDX 48 66 41 67 43 68 44 69 45 70 46 71 70 72 71 73 79 74 72 75
REMARK SMILES IDX 74 76 80 77 73 78 75 79 76 80 77 81 78 82 55 83 56 84 64 85
REMARK SMILES IDX 57 86 59 87 65 88 58 89 60 90 61 91 62 92 63 93
REMARK H PARENT 85 46 53 57
REMARK Flexibility Score: inf
ROOT
ATOM      1  C   UNL A   1      38.636  19.595  25.517  1.00  0.00     0.275 C 
ENDROOT
BRANCH   1   2
ATOM      2  C   UNL A   1      37.463  20.319  24.843  1.00  0.00     0.274 C 
BRANCH   2   3
ATOM      3  O   UNL A   1      37.163  21.621  25.379  1.00  0.00    -0.462 OA
BRANCH   3   4
ATOM      4  C   UNL A   1      36.616  22.580  24.578  1.00  0.00     0.308 C 
ATOM      5  O   UNL A   1      36.778  22.563  23.363  1.00  0.00    -0.252 OA
BRANCH   4   6
ATOM      6  C   UNL A   1      35.991  23.756  25.284  1.00  0.00     0.152 C 
BRANCH   6   7
ATOM      7  C   UNL A   1      34.584  23.548  25.849  1.00  0.00     0.127 C 
BRANCH   7   8
ATOM      8  C   UNL A   1      33.697  24.744  25.510  1.00  0.00    -0.023 A 
ATOM      9  C   UNL A   1      34.165  25.708  24.605  1.00  0.00     0.007 A 
ATOM     10  C   UNL A   1      32.375  24.846  25.981  1.00  0.00     0.028 A 
ATOM     11  C   UNL A   1      33.319  26.715  24.138  1.00  0.00     0.022 A 
ATOM     12  C   UNL A   1      31.519  25.842  25.496  1.00  0.00     0.060 A 
ATOM     13  C   UNL A   1      31.991  26.772  24.565  1.00  0.00     0.059 A 
ATOM     14  Cl  UNL A   1      29.869  25.798  26.009  1.00  0.00    -0.083 Cl
ATOM     15  Cl  UNL A   1      30.972  27.978  23.863  1.00  0.00    -0.083 Cl
ENDBRANCH   7   8
BRANCH   7  16
ATOM     16  N   UNL A   1      33.986  22.296  25.365  1.00  0.00    -0.327 N 
ATOM     17  C   UNL A   1      33.530  22.074  23.998  1.00  0.00     0.157 C 
ATOM     18  C   UNL A   1      33.832  21.163  26.156  1.00  0.00     0.255 C 
ATOM     19  C   UNL A   1      33.029  20.678  24.029  1.00  0.00    -0.016 A 
ATOM     20  C   UNL A   1      33.218  20.133  25.299  1.00  0.00     0.045 A 
ATOM     21  O   UNL A   1      34.125  21.043  27.327  1.00  0.00    -0.269 OA
ATOM     22  C   UNL A   1      32.486  19.923  23.004  1.00  0.00     0.006 A 
ATOM     23  C   UNL A   1      32.876  18.832  25.597  1.00  0.00     0.014 A 
ATOM     24  C   UNL A   1      32.133  18.603  23.283  1.00  0.00     0.000 A 
ATOM     25  C   UNL A   1      32.324  18.065  24.569  1.00  0.00     0.001 A 
ENDBRANCH   7  16
ENDBRANCH   6   7
ENDBRANCH   4   6
ENDBRANCH   3   4
ENDBRANCH   2   3
ENDBRANCH   1   2
BRANCH   1  26
ATOM     26  O   UNL A   1      39.815  20.409  25.605  1.00  0.00    -0.458 OA
BRANCH  26  27
ATOM     27  C   UNL A   1      40.378  20.459  26.841  1.00  0.00     0.338 C 
ATOM     28  O   UNL A   1      40.748  19.511  27.511  1.00  0.00    -0.246 OA
BRANCH  27  29
ATOM     29  C   UNL A   1      40.670  21.870  27.180  1.00  0.00     0.060 A 
ATOM     30  C   UNL A   1      40.001  22.872  26.463  1.00  0.00     0.016 A 
ATOM     31  C   UNL A   1      41.557  22.209  28.204  1.00  0.00     0.016 A 
ATOM     32  C   UNL A   1      40.230  24.219  26.757  1.00  0.00     0.010 A 
ATOM     33  C   UNL A   1      41.792  23.557  28.487  1.00  0.00     0.010 A 
ATOM     34  C   UNL A   1      41.147  24.572  27.752  1.00  0.00    -0.014 A 
BRANCH  34  35
ATOM     35  C   UNL A   1      41.593  25.979  27.917  1.00  0.00     0.031 A 
ATOM     36  C   UNL A   1      42.978  26.338  27.455  1.00  0.00     0.074 A 
ATOM     37  C   UNL A   1      40.826  26.910  28.516  1.00  0.00     0.049 A 
ATOM     38  N   UNL A   1      43.637  27.458  27.593  1.00  0.00    -0.248 NA
ATOM     39  C   UNL A   1      43.728  25.278  26.762  1.00  0.00     0.031 C 
ATOM     40  C   UNL A   1      39.466  26.706  29.004  1.00  0.00     0.029 A 
ATOM     41  N   UNL A   1      41.113  28.211  28.855  1.00  0.00    -0.354 N 
ATOM     42  C   UNL A   1      44.892  27.224  27.045  1.00  0.00     0.074 A 
ATOM     43  C   UNL A   1      44.908  25.852  26.590  1.00  0.00     0.031 C 
ATOM     44  C   UNL A   1      39.055  27.822  29.632  1.00  0.00     0.029 A 
ATOM     45  C   UNL A   1      40.127  28.815  29.600  1.00  0.00     0.049 A 
ATOM     46  H   UNL A   1      41.944  28.667  28.590  1.00  0.00     0.167 HD
ATOM     47  C   UNL A   1      45.937  28.075  26.921  1.00  0.00     0.034 A 
ATOM     48  C   UNL A   1      40.101  30.018  30.210  1.00  0.00     0.034 A 
ATOM     49  C   UNL A   1      45.921  29.442  27.361  1.00  0.00     0.049 A 
ATOM     50  C   UNL A   1      41.283  30.948  30.078  1.00  0.00     0.074 A 
ATOM     51  C   UNL A   1      46.907  30.401  27.217  1.00  0.00     0.029 A 
ATOM     52  N   UNL A   1      44.881  30.036  28.056  1.00  0.00    -0.354 N 
ATOM     53  N   UNL A   1      42.416  30.758  29.447  1.00  0.00    -0.248 NA
ATOM     54  C   UNL A   1      41.169  32.271  30.714  1.00  0.00     0.031 C 
ATOM     55  C   UNL A   1      46.485  31.561  27.873  1.00  0.00     0.029 A 
ATOM     56  C   UNL A   1      45.211  31.342  28.373  1.00  0.00     0.049 A 
ATOM     57  H   UNL A   1      44.032  29.596  28.290  1.00  0.00     0.167 HD
ATOM     58  C   UNL A   1      43.130  31.948  29.573  1.00  0.00     0.074 A 
ATOM     59  C   UNL A   1      42.301  32.853  30.338  1.00  0.00     0.031 C 
ATOM     60  C   UNL A   1      44.361  32.257  29.095  1.00  0.00     0.034 A 
BRANCH  47  61
ATOM     61  C   UNL A   1      47.194  27.533  26.296  1.00  0.00     0.023 A 
ATOM     62  C   UNL A   1      47.480  27.788  24.939  1.00  0.00     0.012 A 
ATOM     63  C   UNL A   1      48.098  26.771  27.061  1.00  0.00     0.148 A 
ATOM     64  C   UNL A   1      48.615  27.245  24.338  1.00  0.00     0.002 A 
ATOM     65  C   UNL A   1      49.255  26.279  26.470  1.00  0.00     0.091 A 
ATOM     66  F   UNL A   1      47.798  26.518  28.343  1.00  0.00    -0.205 F 
ATOM     67  C   UNL A   1      49.506  26.499  25.106  1.00  0.00     0.022 A 
BRANCH  65  68
ATOM     68  S   UNL A   1      50.500  25.380  27.398  1.00  0.00     0.127 S 
ATOM     69  O   UNL A   1      50.890  26.368  28.402  1.00  0.00    -0.237 OA
ATOM     70  O   UNL A   1      49.736  24.246  27.920  1.00  0.00    -0.237 OA
ATOM     71  O   UNL A   1      51.534  25.022  26.437  1.00  0.00    -0.744 OA
ENDBRANCH  65  68
ENDBRANCH  47  61
BRANCH  48  72
ATOM     72  C   UNL A   1      38.900  30.427  30.992  1.00  0.00     0.023 A 
ATOM     73  C   UNL A   1      38.823  30.122  32.364  1.00  0.00     0.012 A 
ATOM     74  C   UNL A   1      37.842  31.130  30.384  1.00  0.00     0.148 A 
ATOM     75  C   UNL A   1      37.700  30.486  33.111  1.00  0.00     0.002 A 
ATOM     76  C   UNL A   1      36.745  31.524  31.142  1.00  0.00     0.091 A 
ATOM     77  F   UNL A   1      37.944  31.431  29.082  1.00  0.00    -0.205 F 
ATOM     78  C   UNL A   1      36.663  31.189  32.502  1.00  0.00     0.022 A 
BRANCH  76  79
ATOM     79  S   UNL A   1      35.395  32.478  30.440  1.00  0.00     0.127 S 
ATOM     80  O   UNL A   1      36.051  33.738  30.089  1.00  0.00    -0.237 OA
ATOM     81  O   UNL A   1      35.006  31.648  29.303  1.00  0.00    -0.237 OA
ATOM     82  O   UNL A   1      34.406  32.593  31.504  1.00  0.00    -0.744 OA
ENDBRANCH  76  79
ENDBRANCH  48  72
BRANCH  60  83
ATOM     83  C   UNL A   1      44.894  33.650  29.323  1.00  0.00     0.023 A 
ATOM     84  C   UNL A   1      45.618  33.954  30.492  1.00  0.00     0.012 A 
ATOM     85  C   UNL A   1      44.782  34.622  28.307  1.00  0.00     0.148 A 
ATOM     86  C   UNL A   1      46.208  35.208  30.652  1.00  0.00     0.002 A 
ATOM     87  C   UNL A   1      45.417  35.850  28.451  1.00  0.00     0.091 A 
ATOM     88  F   UNL A   1      44.076  34.317  27.209  1.00  0.00    -0.205 F 
ATOM     89  C   UNL A   1      46.120  36.149  29.628  1.00  0.00     0.022 A 
BRANCH  87  90
ATOM     90  S   UNL A   1      45.450  37.080  27.142  1.00  0.00     0.127 S 
ATOM     91  O   UNL A   1      46.114  36.349  26.063  1.00  0.00    -0.237 OA
ATOM     92  O   UNL A   1      44.026  37.333  26.922  1.00  0.00    -0.237 OA
ATOM     93  O   UNL A   1      46.195  38.215  27.670  1.00  0.00    -0.744 OA
ENDBRANCH  87  90
ENDBRANCH  60  83
ENDBRANCH  34  35
ENDBRANCH  27  29
ENDBRANCH  26  27
ENDBRANCH   1  26
TORSDOF 17
ENDMDL
MODEL 3
REMARK VINA RESULT:     -11.6      5.519      8.857
REMARK SMILES O=C(C[C@@H](c1ccc(Cl)c(Cl)c1)N1Cc2ccccc2C1=O)OCCOC(=O)c1ccc(-c2c3nc(c(-c4cccc(S(=O)(=O)[O-])c4F)c4ccc([nH]4)c(-c4cccc(S(=O)(=O)[O-])c4F)c4nc(c(-c5cccc(S(=O)(=O)[O-])c5F)c5ccc2[nH]5)C=C4)C=C3)cc1
REMARK SMILES IDX 25 1 24 2 23 3 2 4 1 5 3 6 4 7 5 8 6 9 12 10 7 11 10 12 8 13
REMARK SMILES IDX 11 14 9 15 13 16 14 17 21 18 15 19 20 20 22 21 16 22 19 23
REMARK SMILES IDX 17 24 18 25 26 26 27 27 28 28 29 29 30 30 91 31 31 32 90 33
REMARK SMILES IDX 32 34 33 35 34 36 84 37 35 38 89 39 83 40 85 41 36 42 88 43
REMARK SMILES IDX 82 44 81 45 37 47 69 48 49 49 68 50 50 51 53 52 67 53 86 54
REMARK SMILES IDX 51 55 52 56 66 58 87 59 54 60 38 61 39 62 47 63 40 64 42 65
REMARK SMILES IDX 48 66 41 67 43 68 44 69 45 70 46 71 70 72 71 73 79 74 72 75
REMARK SMILES IDX 74 76 80 77 73 78 75 79 76 80 77 81 78 82 55 83 56 84 64 85
REMARK SMILES IDX 57 86 59 87 65 88 58 89 60 90 61 91 62 92 63 93
REMARK H PARENT 85 46 53 57
REMARK Flexibility Score: inf
ROOT
ATOM      1  C   UNL A   1      31.800  32.363  26.745  1.00  0.00     0.275 C 
ENDROOT
BRANCH   1   2
ATOM      2  C   UNL A   1      31.699  30.969  26.112  1.00  0.00     0.274 C 
BRANCH   2   3
ATOM      3  O   UNL A   1      32.760  30.062  26.464  1.00  0.00    -0.462 OA
BRANCH   3   4
ATOM      4  C   UNL A   1      32.469  28.784  26.841  1.00  0.00     0.308 C 
ATOM      5  O   UNL A   1      31.544  28.541  27.607  1.00  0.00    -0.252 OA
BRANCH   4   6
ATOM      6  C   UNL A   1      33.468  27.731  26.433  1.00  0.00     0.152 C 
BRANCH   6   7
ATOM      7  C   UNL A   1      33.427  27.275  24.973  1.00  0.00     0.127 C 
BRANCH   7   8
ATOM      8  C   UNL A   1      33.577  25.757  24.889  1.00  0.00    -0.023 A 
ATOM      9  C   UNL A   1      33.905  25.169  23.659  1.00  0.00     0.007 A 
ATOM     10  C   UNL A   1      33.517  24.940  26.034  1.00  0.00     0.028 A 
ATOM     11  C   UNL A   1      34.222  23.812  23.582  1.00  0.00     0.022 A 
ATOM     12  C   UNL A   1      33.857  23.584  25.961  1.00  0.00     0.060 A 
ATOM     13  C   UNL A   1      34.219  23.022  24.733  1.00  0.00     0.059 A 
ATOM     14  Cl  UNL A   1      33.910  22.693  27.441  1.00  0.00    -0.083 Cl
ATOM     15  Cl  UNL A   1      34.726  21.377  24.582  1.00  0.00    -0.083 Cl
ENDBRANCH   7   8
BRANCH   7  16
ATOM     16  N   UNL A   1      32.197  27.719  24.302  1.00  0.00    -0.327 N 
ATOM     17  C   UNL A   1      30.867  27.193  24.584  1.00  0.00     0.157 C 
ATOM     18  C   UNL A   1      32.165  28.731  23.349  1.00  0.00     0.255 C 
ATOM     19  C   UNL A   1      29.994  27.964  23.664  1.00  0.00    -0.016 A 
ATOM     20  C   UNL A   1      30.757  28.883  22.943  1.00  0.00     0.045 A 
ATOM     21  O   UNL A   1      33.110  29.358  22.917  1.00  0.00    -0.269 OA
ATOM     22  C   UNL A   1      28.621  27.896  23.503  1.00  0.00     0.006 A 
ATOM     23  C   UNL A   1      30.192  29.757  22.041  1.00  0.00     0.014 A 
ATOM     24  C   UNL A   1      28.028  28.773  22.595  1.00  0.00     0.000 A 
ATOM     25  C   UNL A   1      28.807  29.692  21.870  1.00  0.00     0.001 A 
ENDBRANCH   7  16
ENDBRANCH   6   7
ENDBRANCH   4   6
ENDBRANCH   3   4
ENDBRANCH   2   3
ENDBRANCH   1   2
BRANCH   1  26
ATOM     26  O   UNL A   1      32.700  32.401  27.862  1.00  0.00    -0.458 OA
BRANCH  26  27
ATOM     27  C   UNL A   1      33.818  33.150  27.663  1.00  0.00     0.338 C 
ATOM     28  O   UNL A   1      33.862  34.301  27.268  1.00  0.00    -0.246 OA
BRANCH  27  29
ATOM     29  C   UNL A   1      34.988  32.417  28.197  1.00  0.00     0.060 A 
ATOM     30  C   UNL A   1      34.821  31.068  28.543  1.00  0.00     0.016 A 
ATOM     31  C   UNL A   1      36.237  33.028  28.328  1.00  0.00     0.016 A 
ATOM     32  C   UNL A   1      35.899  30.329  29.035  1.00  0.00     0.010 A 
ATOM     33  C   UNL A   1      37.311  32.289  28.832  1.00  0.00     0.010 A 
ATOM     34  C   UNL A   1      37.145  30.941  29.210  1.00  0.00    -0.014 A 
BRANCH  34  35
ATOM     35  C   UNL A   1      38.234  30.260  29.956  1.00  0.00     0.031 A 
ATOM     36  C   UNL A   1      38.475  30.671  31.382  1.00  0.00     0.074 A 
ATOM     37  C   UNL A   1      39.036  29.345  29.379  1.00  0.00     0.049 A 
ATOM     38  N   UNL A   1      39.429  30.313  32.200  1.00  0.00    -0.248 NA
ATOM     39  C   UNL A   1      37.520  31.635  31.952  1.00  0.00     0.031 C 
ATOM     40  C   UNL A   1      38.913  28.846  28.013  1.00  0.00     0.029 A 
ATOM     41  N   UNL A   1      40.149  28.706  29.871  1.00  0.00    -0.354 N 
ATOM     42  C   UNL A   1      39.215  31.041  33.364  1.00  0.00     0.074 A 
ATOM     43  C   UNL A   1      38.053  31.871  33.139  1.00  0.00     0.031 C 
ATOM     44  C   UNL A   1      39.944  28.023  27.754  1.00  0.00     0.029 A 
ATOM     45  C   UNL A   1      40.806  27.945  28.933  1.00  0.00     0.049 A 
ATOM     46  H   UNL A   1      40.448  28.784  30.806  1.00  0.00     0.167 HD
ATOM     47  C   UNL A   1      39.915  31.016  34.523  1.00  0.00     0.034 A 
ATOM     48  C   UNL A   1      41.980  27.284  29.005  1.00  0.00     0.034 A 
ATOM     49  C   UNL A   1      41.061  30.183  34.755  1.00  0.00     0.049 A 
ATOM     50  C   UNL A   1      42.758  27.281  30.298  1.00  0.00     0.074 A 
ATOM     51  C   UNL A   1      41.794  30.038  35.919  1.00  0.00     0.029 A 
ATOM     52  N   UNL A   1      41.660  29.379  33.800  1.00  0.00    -0.354 N 
ATOM     53  N   UNL A   1      42.474  27.874  31.432  1.00  0.00    -0.248 NA
ATOM     54  C   UNL A   1      44.000  26.491  30.333  1.00  0.00     0.031 C 
ATOM     55  C   UNL A   1      42.870  29.186  35.651  1.00  0.00     0.029 A 
ATOM     56  C   UNL A   1      42.771  28.755  34.338  1.00  0.00     0.049 A 
ATOM     57  H   UNL A   1      41.342  29.267  32.874  1.00  0.00     0.167 HD
ATOM     58  C   UNL A   1      43.476  27.496  32.325  1.00  0.00     0.074 A 
ATOM     59  C   UNL A   1      44.371  26.620  31.600  1.00  0.00     0.031 C 
ATOM     60  C   UNL A   1      43.634  27.845  33.626  1.00  0.00     0.034 A 
BRANCH  47  61
ATOM     61  C   UNL A   1      39.458  31.938  35.622  1.00  0.00     0.023 A 
ATOM     62  C   UNL A   1      38.556  31.480  36.605  1.00  0.00     0.012 A 
ATOM     63  C   UNL A   1      39.930  33.262  35.681  1.00  0.00     0.148 A 
ATOM     64  C   UNL A   1      38.087  32.343  37.594  1.00  0.00     0.002 A 
ATOM     65  C   UNL A   1      39.501  34.100  36.702  1.00  0.00     0.091 A 
ATOM     66  F   UNL A   1      40.768  33.688  34.725  1.00  0.00    -0.205 F 
ATOM     67  C   UNL A   1      38.566  33.649  37.647  1.00  0.00     0.022 A 
BRANCH  65  68
ATOM     68  S   UNL A   1      40.126  35.771  36.901  1.00  0.00     0.127 S 
ATOM     69  O   UNL A   1      39.501  36.171  38.160  1.00  0.00    -0.237 OA
ATOM     70  O   UNL A   1      41.571  35.552  36.978  1.00  0.00    -0.237 OA
ATOM     71  O   UNL A   1      39.687  36.505  35.722  1.00  0.00    -0.744 OA
ENDBRANCH  65  68
ENDBRANCH  47  61
BRANCH  48  72
ATOM     72  C   UNL A   1      42.490  26.547  27.814  1.00  0.00     0.023 A 
ATOM     73  C   UNL A   1      43.347  27.195  26.905  1.00  0.00     0.012 A 
ATOM     74  C   UNL A   1      42.140  25.201  27.588  1.00  0.00     0.148 A 
ATOM     75  C   UNL A   1      43.825  26.525  25.777  1.00  0.00     0.002 A 
ATOM     76  C   UNL A   1      42.651  24.528  26.484  1.00  0.00     0.091 A 
ATOM     77  F   UNL A   1      41.341  24.594  28.476  1.00  0.00    -0.205 F 
ATOM     78  C   UNL A   1      43.481  25.192  25.568  1.00  0.00     0.022 A 
BRANCH  76  79
ATOM     79  S   UNL A   1      42.295  22.794  26.176  1.00  0.00     0.127 S 
ATOM     80  O   UNL A   1      42.872  22.588  24.848  1.00  0.00    -0.237 OA
ATOM     81  O   UNL A   1      43.015  22.146  27.269  1.00  0.00    -0.237 OA
ATOM     82  O   UNL A   1      40.843  22.682  26.222  1.00  0.00    -0.744 OA
ENDBRANCH  76  79
ENDBRANCH  48  72
BRANCH  60  83
ATOM     83  C   UNL A   1      44.785  27.248  34.397  1.00  0.00     0.023 A 
ATOM     84  C   UNL A   1      46.017  27.927  34.479  1.00  0.00     0.012 A 
ATOM     85  C   UNL A   1      44.594  26.070  35.149  1.00  0.00     0.148 A 
ATOM     86  C   UNL A   1      47.044  27.433  35.284  1.00  0.00     0.002 A 
ATOM     87  C   UNL A   1      45.603  25.615  35.989  1.00  0.00     0.091 A 
ATOM     88  F   UNL A   1      43.419  25.432  35.045  1.00  0.00    -0.205 F 
ATOM     89  C   UNL A   1      46.832  26.288  36.049  1.00  0.00     0.022 A 
BRANCH  87  90
ATOM     90  S   UNL A   1      45.382  24.212  37.091  1.00  0.00     0.127 S 
ATOM     91  O   UNL A   1      46.736  24.027  37.612  1.00  0.00    -0.237 OA
ATOM     92  O   UNL A   1      44.420  24.734  38.063  1.00  0.00    -0.237 OA
ATOM     93  O   UNL A   1      44.881  23.122  36.266  1.00  0.00    -0.744 OA
ENDBRANCH  87  90
ENDBRANCH  60  83
ENDBRANCH  34  35
ENDBRANCH  27  29
ENDBRANCH  26  27
ENDBRANCH   1  26
TORSDOF 17
ENDMDL
