MODEL 1
REMARK VINA RESULT:     -12.1      0.000      0.000
REMARK SMILES O=C(OCCOC(=O)[C@@H](Cc1c(F)cccc1Cl)c1ccc(Cl)cc1)c1ccc(-c2c3nc(c(-c4cccc(S(=O)(=O)[O-])c4F)c4ccc([nH]4)c(-c4cccc(S(=O)(=O)[O-])c4F)c4nc(c(-c5cccc(S(=O)(=O)[O-])c5F)c5ccc2[nH]5)C=C4)C=C3)cc1
REMARK SMILES IDX 4 1 3 2 2 3 1 4 26 5 27 6 88 7 28 8 87 9 29 10 30 11 31 12
REMARK SMILES IDX 81 13 32 14 86 15 80 16 82 17 33 18 85 19 79 20 78 21 34 23
REMARK SMILES IDX 66 24 46 25 65 26 47 27 50 28 64 29 83 30 48 31 49 32 63 34
REMARK SMILES IDX 84 35 51 36 35 37 36 38 44 39 37 40 39 41 45 42 38 43 40 44
REMARK SMILES IDX 41 45 42 46 43 47 67 48 68 49 76 50 69 51 71 52 77 53 70 54
REMARK SMILES IDX 72 55 73 56 74 57 75 58 52 59 53 60 61 61 54 62 56 63 62 64
REMARK SMILES IDX 55 65 57 66 58 67 59 68 60 69 5 70 6 71 7 72 8 73 9 74 10 75
REMARK SMILES IDX 11 76 12 77 17 78 13 79 14 80 16 81 18 82 15 83 19 84 20 85
REMARK SMILES IDX 25 86 21 87 24 88 22 89 23 90
REMARK H PARENT 82 22 50 33
REMARK Flexibility Score: inf
ROOT
ATOM      1  C   UNL A   1      32.199  30.563  26.144  1.00  0.00     0.275 C 
ENDROOT
BRANCH   1   2
ATOM      2  O   UNL A   1      32.296  31.490  27.258  1.00  0.00    -0.458 OA
BRANCH   2   3
ATOM      3  C   UNL A   1      33.269  32.341  27.675  1.00  0.00     0.338 C 
ATOM      4  O   UNL A   1      33.029  33.546  27.713  1.00  0.00    -0.246 OA
BRANCH   3   5
ATOM      5  C   UNL A   1      34.668  31.914  27.971  1.00  0.00     0.060 A 
ATOM      6  C   UNL A   1      35.751  32.779  27.997  1.00  0.00     0.016 A 
ATOM      7  C   UNL A   1      34.930  30.538  28.147  1.00  0.00     0.016 A 
ATOM      8  C   UNL A   1      37.022  32.293  28.375  1.00  0.00     0.010 A 
ATOM      9  C   UNL A   1      36.209  30.057  28.527  1.00  0.00     0.010 A 
ATOM     10  C   UNL A   1      37.272  30.939  28.736  1.00  0.00    -0.014 A 
BRANCH  10  11
ATOM     11  C   UNL A   1      38.617  30.571  29.371  1.00  0.00     0.031 A 
ATOM     12  C   UNL A   1      38.867  30.932  30.802  1.00  0.00     0.074 A 
ATOM     13  C   UNL A   1      39.535  29.721  28.834  1.00  0.00     0.049 A 
ATOM     14  N   UNL A   1      39.690  30.383  31.657  1.00  0.00    -0.248 NA
ATOM     15  C   UNL A   1      38.063  32.036  31.338  1.00  0.00     0.031 C 
ATOM     16  C   UNL A   1      39.519  29.237  27.473  1.00  0.00     0.029 A 
ATOM     17  N   UNL A   1      40.605  29.024  29.383  1.00  0.00    -0.354 N 
ATOM     18  C   UNL A   1      39.470  31.040  32.851  1.00  0.00     0.074 A 
ATOM     19  C   UNL A   1      38.423  32.018  32.611  1.00  0.00     0.031 C 
ATOM     20  C   UNL A   1      40.372  28.212  27.324  1.00  0.00     0.029 A 
ATOM     21  C   UNL A   1      41.133  28.047  28.552  1.00  0.00     0.049 A 
ATOM     22  H   UNL A   1      40.957  29.208  30.285  1.00  0.00     0.167 HD
ATOM     23  C   UNL A   1      40.092  30.880  34.041  1.00  0.00     0.034 A 
ATOM     24  C   UNL A   1      42.118  27.130  28.711  1.00  0.00     0.034 A 
ATOM     25  C   UNL A   1      41.248  30.069  34.296  1.00  0.00     0.049 A 
ATOM     26  C   UNL A   1      42.898  27.099  29.999  1.00  0.00     0.074 A 
ATOM     27  C   UNL A   1      42.017  30.029  35.448  1.00  0.00     0.029 A 
ATOM     28  N   UNL A   1      41.850  29.216  33.390  1.00  0.00    -0.354 N 
ATOM     29  N   UNL A   1      42.624  27.675  31.140  1.00  0.00    -0.248 NA
ATOM     30  C   UNL A   1      44.137  26.299  30.017  1.00  0.00     0.031 C 
ATOM     31  C   UNL A   1      43.107  29.181  35.225  1.00  0.00     0.029 A 
ATOM     32  C   UNL A   1      42.992  28.658  33.951  1.00  0.00     0.049 A 
ATOM     33  H   UNL A   1      41.518  29.029  32.482  1.00  0.00     0.167 HD
ATOM     34  C   UNL A   1      43.651  27.313  32.004  1.00  0.00     0.074 A 
ATOM     35  C   UNL A   1      44.521  26.414  31.281  1.00  0.00     0.031 C 
ATOM     36  C   UNL A   1      43.861  27.731  33.275  1.00  0.00     0.034 A 
BRANCH  23  37
ATOM     37  C   UNL A   1      39.545  31.709  35.156  1.00  0.00     0.023 A 
ATOM     38  C   UNL A   1      38.514  31.190  35.962  1.00  0.00     0.012 A 
ATOM     39  C   UNL A   1      40.015  33.017  35.356  1.00  0.00     0.148 A 
ATOM     40  C   UNL A   1      37.938  31.983  36.950  1.00  0.00     0.002 A 
ATOM     41  C   UNL A   1      39.454  33.789  36.356  1.00  0.00     0.091 A 
ATOM     42  F   UNL A   1      40.965  33.483  34.534  1.00  0.00    -0.205 F 
ATOM     43  C   UNL A   1      38.411  33.279  37.150  1.00  0.00     0.022 A 
BRANCH  41  44
ATOM     44  S   UNL A   1      40.004  35.460  36.695  1.00  0.00     0.127 S 
ATOM     45  O   UNL A   1      39.452  36.186  35.550  1.00  0.00    -0.237 OA
ATOM     46  O   UNL A   1      39.350  35.740  37.972  1.00  0.00    -0.237 OA
ATOM     47  O   UNL A   1      41.458  35.404  36.749  1.00  0.00    -0.744 OA
ENDBRANCH  41  44
ENDBRANCH  23  37
BRANCH  24  48
ATOM     48  C   UNL A   1      42.518  26.175  27.620  1.00  0.00     0.023 A 
ATOM     49  C   UNL A   1      43.316  26.625  26.544  1.00  0.00     0.012 A 
ATOM     50  C   UNL A   1      42.003  24.867  27.565  1.00  0.00     0.148 A 
ATOM     51  C   UNL A   1      43.554  25.808  25.431  1.00  0.00     0.002 A 
ATOM     52  C   UNL A   1      42.282  24.043  26.477  1.00  0.00     0.091 A 
ATOM     53  F   UNL A   1      41.203  24.450  28.558  1.00  0.00    -0.205 F 
ATOM     54  C   UNL A   1      43.044  24.513  25.401  1.00  0.00     0.022 A 
BRANCH  52  55
ATOM     55  S   UNL A   1      41.672  22.354  26.442  1.00  0.00     0.127 S 
ATOM     56  O   UNL A   1      42.316  21.827  25.243  1.00  0.00    -0.237 OA
ATOM     57  O   UNL A   1      42.175  21.797  27.697  1.00  0.00    -0.237 OA
ATOM     58  O   UNL A   1      40.221  22.503  26.385  1.00  0.00    -0.744 OA
ENDBRANCH  52  55
ENDBRANCH  24  48
BRANCH  36  59
ATOM     59  C   UNL A   1      45.085  27.226  33.999  1.00  0.00     0.023 A 
ATOM     60  C   UNL A   1      46.285  27.966  33.958  1.00  0.00     0.012 A 
ATOM     61  C   UNL A   1      45.032  26.051  34.775  1.00  0.00     0.148 A 
ATOM     62  C   UNL A   1      47.417  27.530  34.649  1.00  0.00     0.002 A 
ATOM     63  C   UNL A   1      46.148  25.649  35.502  1.00  0.00     0.091 A 
ATOM     64  F   UNL A   1      43.893  25.343  34.785  1.00  0.00    -0.205 F 
ATOM     65  C   UNL A   1      47.345  26.379  35.430  1.00  0.00     0.022 A 
BRANCH  63  66
ATOM     66  S   UNL A   1      46.117  24.235  36.609  1.00  0.00     0.127 S 
ATOM     67  O   UNL A   1      45.015  24.580  37.505  1.00  0.00    -0.237 OA
ATOM     68  O   UNL A   1      45.835  23.129  35.693  1.00  0.00    -0.237 OA
ATOM     69  O   UNL A   1      47.434  24.183  37.228  1.00  0.00    -0.744 OA
ENDBRANCH  63  66
ENDBRANCH  36  59
ENDBRANCH  10  11
ENDBRANCH   3   5
ENDBRANCH   2   3
ENDBRANCH   1   2
BRANCH   1  70
ATOM     70  C   UNL A   1      31.790  29.159  26.609  1.00  0.00     0.274 C 
BRANCH  70  71
ATOM     71  O   UNL A   1      31.957  28.266  25.509  1.00  0.00    -0.462 OA
BRANCH  71  72
ATOM     72  C   UNL A   1      31.414  27.025  25.608  1.00  0.00     0.313 C 
ATOM     73  O   UNL A   1      30.803  26.610  26.580  1.00  0.00    -0.252 OA
BRANCH  72  74
ATOM     74  C   UNL A   1      31.538  26.300  24.277  1.00  0.00     0.134 C 
BRANCH  74  75
ATOM     75  C   UNL A   1      30.948  27.143  23.095  1.00  0.00     0.060 C 
BRANCH  75  76
ATOM     76  C   UNL A   1      29.763  28.085  22.969  1.00  0.00     0.008 A 
ATOM     77  C   UNL A   1      30.036  29.304  22.297  1.00  0.00     0.127 A 
ATOM     78  C   UNL A   1      28.432  27.909  23.331  1.00  0.00     0.047 A 
ATOM     79  F   UNL A   1      31.256  29.539  21.826  1.00  0.00    -0.207 F 
ATOM     80  C   UNL A   1      29.098  30.289  22.014  1.00  0.00     0.039 A 
ATOM     81  C   UNL A   1      27.470  28.909  23.066  1.00  0.00     0.021 A 
ATOM     82  Cl  UNL A   1      27.803  26.473  24.021  1.00  0.00    -0.084 Cl
ATOM     83  C   UNL A   1      27.795  30.093  22.407  1.00  0.00     0.005 A 
ENDBRANCH  75  76
ENDBRANCH  74  75
BRANCH  74  84
ATOM     84  C   UNL A   1      32.815  25.526  24.012  1.00  0.00    -0.033 A 
ATOM     85  C   UNL A   1      33.885  25.574  24.922  1.00  0.00     0.006 A 
ATOM     86  C   UNL A   1      32.960  24.696  22.903  1.00  0.00     0.006 A 
ATOM     87  C   UNL A   1      34.911  24.624  24.892  1.00  0.00     0.021 A 
ATOM     88  C   UNL A   1      33.987  23.754  22.852  1.00  0.00     0.021 A 
ATOM     89  C   UNL A   1      34.918  23.676  23.881  1.00  0.00     0.041 A 
ATOM     90  Cl  UNL A   1      36.056  22.396  23.878  1.00  0.00    -0.084 Cl
ENDBRANCH  74  84
ENDBRANCH  72  74
ENDBRANCH  71  72
ENDBRANCH  70  71
ENDBRANCH   1  70
TORSDOF 17
ENDMDL
MODEL 2
REMARK VINA RESULT:     -11.8      4.801      9.827
REMARK SMILES O=C(OCCOC(=O)[C@@H](Cc1c(F)cccc1Cl)c1ccc(Cl)cc1)c1ccc(-c2c3nc(c(-c4cccc(S(=O)(=O)[O-])c4F)c4ccc([nH]4)c(-c4cccc(S(=O)(=O)[O-])c4F)c4nc(c(-c5cccc(S(=O)(=O)[O-])c5F)c5ccc2[nH]5)C=C4)C=C3)cc1
REMARK SMILES IDX 4 1 3 2 2 3 1 4 26 5 27 6 88 7 28 8 87 9 29 10 30 11 31 12
REMARK SMILES IDX 81 13 32 14 86 15 80 16 82 17 33 18 85 19 79 20 78 21 34 23
REMARK SMILES IDX 66 24 46 25 65 26 47 27 50 28 64 29 83 30 48 31 49 32 63 34
REMARK SMILES IDX 84 35 51 36 35 37 36 38 44 39 37 40 39 41 45 42 38 43 40 44
REMARK SMILES IDX 41 45 42 46 43 47 67 48 68 49 76 50 69 51 71 52 77 53 70 54
REMARK SMILES IDX 72 55 73 56 74 57 75 58 52 59 53 60 61 61 54 62 56 63 62 64
REMARK SMILES IDX 55 65 57 66 58 67 59 68 60 69 5 70 6 71 7 72 8 73 9 74 10 75
REMARK SMILES IDX 11 76 12 77 17 78 13 79 14 80 16 81 18 82 15 83 19 84 20 85
REMARK SMILES IDX 25 86 21 87 24 88 22 89 23 90
REMARK H PARENT 82 22 50 33
REMARK Flexibility Score: inf
ROOT
ATOM      1  C   UNL A   1      36.754  20.994  25.085  1.00  0.00     0.275 C 
ENDROOT
BRANCH   1   2
ATOM      2  O   UNL A   1      38.148  21.390  24.985  1.00  0.00    -0.458 OA
BRANCH   2   3
ATOM      3  C   UNL A   1      39.184  21.372  25.863  1.00  0.00     0.338 C 
ATOM      4  O   UNL A   1      39.723  20.299  26.126  1.00  0.00    -0.246 OA
BRANCH   3   5
ATOM      5  C   UNL A   1      39.631  22.567  26.636  1.00  0.00     0.060 A 
ATOM      6  C   UNL A   1      40.628  22.537  27.599  1.00  0.00     0.016 A 
ATOM      7  C   UNL A   1      38.945  23.786  26.448  1.00  0.00     0.016 A 
ATOM      8  C   UNL A   1      41.041  23.740  28.212  1.00  0.00     0.010 A 
ATOM      9  C   UNL A   1      39.366  24.992  27.068  1.00  0.00     0.010 A 
ATOM     10  C   UNL A   1      40.485  25.013  27.903  1.00  0.00    -0.014 A 
BRANCH  10  11
ATOM     11  C   UNL A   1      41.172  26.278  28.432  1.00  0.00     0.031 A 
ATOM     12  C   UNL A   1      42.534  26.630  27.923  1.00  0.00     0.074 A 
ATOM     13  C   UNL A   1      40.564  27.261  29.149  1.00  0.00     0.049 A 
ATOM     14  N   UNL A   1      43.117  27.800  27.873  1.00  0.00    -0.248 NA
ATOM     15  C   UNL A   1      43.325  25.522  27.374  1.00  0.00     0.031 C 
ATOM     16  C   UNL A   1      39.256  27.159  29.754  1.00  0.00     0.029 A 
ATOM     17  N   UNL A   1      40.909  28.582  29.411  1.00  0.00    -0.354 N 
ATOM     18  C   UNL A   1      44.325  27.582  27.243  1.00  0.00     0.074 A 
ATOM     19  C   UNL A   1      44.383  26.169  26.914  1.00  0.00     0.031 C 
ATOM     20  C   UNL A   1      38.818  28.365  30.143  1.00  0.00     0.029 A 
ATOM     21  C   UNL A   1      39.883  29.338  29.961  1.00  0.00     0.049 A 
ATOM     22  H   UNL A   1      41.803  28.949  29.223  1.00  0.00     0.167 HD
ATOM     23  C   UNL A   1      45.321  28.458  26.980  1.00  0.00     0.034 A 
ATOM     24  C   UNL A   1      39.780  30.643  30.311  1.00  0.00     0.034 A 
ATOM     25  C   UNL A   1      45.406  29.815  27.438  1.00  0.00     0.049 A 
ATOM     26  C   UNL A   1      40.974  31.547  30.153  1.00  0.00     0.074 A 
ATOM     27  C   UNL A   1      46.489  30.674  27.345  1.00  0.00     0.029 A 
ATOM     28  N   UNL A   1      44.420  30.496  28.126  1.00  0.00    -0.354 N 
ATOM     29  N   UNL A   1      42.079  31.340  29.485  1.00  0.00    -0.248 NA
ATOM     30  C   UNL A   1      40.913  32.866  30.812  1.00  0.00     0.031 C 
ATOM     31  C   UNL A   1      46.173  31.861  28.014  1.00  0.00     0.029 A 
ATOM     32  C   UNL A   1      44.876  31.759  28.482  1.00  0.00     0.049 A 
ATOM     33  H   UNL A   1      43.525  30.140  28.333  1.00  0.00     0.167 HD
ATOM     34  C   UNL A   1      42.841  32.492  29.646  1.00  0.00     0.074 A 
ATOM     35  C   UNL A   1      42.050  33.423  30.418  1.00  0.00     0.031 C 
ATOM     36  C   UNL A   1      44.104  32.727  29.217  1.00  0.00     0.034 A 
BRANCH  23  37
ATOM     37  C   UNL A   1      46.467  27.896  26.205  1.00  0.00     0.023 A 
ATOM     38  C   UNL A   1      46.492  28.041  24.804  1.00  0.00     0.012 A 
ATOM     39  C   UNL A   1      47.477  27.177  26.864  1.00  0.00     0.148 A 
ATOM     40  C   UNL A   1      47.511  27.450  24.063  1.00  0.00     0.002 A 
ATOM     41  C   UNL A   1      48.499  26.615  26.122  1.00  0.00     0.091 A 
ATOM     42  F   UNL A   1      47.386  27.028  28.193  1.00  0.00    -0.205 F 
ATOM     43  C   UNL A   1      48.515  26.742  24.721  1.00  0.00     0.022 A 
BRANCH  41  44
ATOM     44  S   UNL A   1      49.838  25.698  26.881  1.00  0.00     0.127 S 
ATOM     45  O   UNL A   1      49.143  24.498  27.345  1.00  0.00    -0.237 OA
ATOM     46  O   UNL A   1      50.739  25.487  25.748  1.00  0.00    -0.237 OA
ATOM     47  O   UNL A   1      50.367  26.553  27.934  1.00  0.00    -0.744 OA
ENDBRANCH  41  44
ENDBRANCH  23  37
BRANCH  24  48
ATOM     48  C   UNL A   1      38.532  31.222  30.920  1.00  0.00     0.023 A 
ATOM     49  C   UNL A   1      38.286  31.071  32.303  1.00  0.00     0.012 A 
ATOM     50  C   UNL A   1      37.525  31.795  30.122  1.00  0.00     0.148 A 
ATOM     51  C   UNL A   1      37.055  31.442  32.861  1.00  0.00     0.002 A 
ATOM     52  C   UNL A   1      36.322  32.206  30.692  1.00  0.00     0.091 A 
ATOM     53  F   UNL A   1      37.731  31.894  28.801  1.00  0.00    -0.205 F 
ATOM     54  C   UNL A   1      36.076  32.018  32.057  1.00  0.00     0.022 A 
BRANCH  52  55
ATOM     55  S   UNL A   1      35.063  32.992  29.679  1.00  0.00     0.127 S 
ATOM     56  O   UNL A   1      34.035  33.305  30.666  1.00  0.00    -0.237 OA
ATOM     57  O   UNL A   1      35.761  34.158  29.137  1.00  0.00    -0.237 OA
ATOM     58  O   UNL A   1      34.722  31.976  28.688  1.00  0.00    -0.744 OA
ENDBRANCH  52  55
ENDBRANCH  24  48
BRANCH  36  59
ATOM     59  C   UNL A   1      44.739  34.052  29.559  1.00  0.00     0.023 A 
ATOM     60  C   UNL A   1      45.483  34.192  30.749  1.00  0.00     0.012 A 
ATOM     61  C   UNL A   1      44.657  35.143  28.672  1.00  0.00     0.148 A 
ATOM     62  C   UNL A   1      46.104  35.401  31.065  1.00  0.00     0.002 A 
ATOM     63  C   UNL A   1      45.320  36.329  28.967  1.00  0.00     0.091 A 
ATOM     64  F   UNL A   1      43.926  35.005  27.556  1.00  0.00    -0.205 F 
ATOM     65  C   UNL A   1      46.033  36.465  30.169  1.00  0.00     0.022 A 
BRANCH  63  66
ATOM     66  S   UNL A   1      45.364  37.718  27.828  1.00  0.00     0.127 S 
ATOM     67  O   UNL A   1      46.416  38.548  28.408  1.00  0.00    -0.237 OA
ATOM     68  O   UNL A   1      45.723  37.071  26.565  1.00  0.00    -0.237 OA
ATOM     69  O   UNL A   1      44.027  38.295  27.850  1.00  0.00    -0.744 OA
ENDBRANCH  63  66
ENDBRANCH  36  59
ENDBRANCH  10  11
ENDBRANCH   3   5
ENDBRANCH   2   3
ENDBRANCH   1   2
BRANCH   1  70
ATOM     70  C   UNL A   1      35.864  22.163  25.529  1.00  0.00     0.274 C 
BRANCH  70  71
ATOM     71  O   UNL A   1      36.128  23.268  24.665  1.00  0.00    -0.462 OA
BRANCH  71  72
ATOM     72  C   UNL A   1      35.185  23.595  23.744  1.00  0.00     0.313 C 
ATOM     73  O   UNL A   1      35.140  23.149  22.608  1.00  0.00    -0.252 OA
BRANCH  72  74
ATOM     74  C   UNL A   1      34.113  24.460  24.388  1.00  0.00     0.134 C 
BRANCH  74  75
ATOM     75  C   UNL A   1      33.656  25.624  23.444  1.00  0.00     0.060 C 
BRANCH  75  76
ATOM     76  C   UNL A   1      32.664  26.766  23.594  1.00  0.00     0.008 A 
ATOM     77  C   UNL A   1      31.626  26.785  22.628  1.00  0.00     0.127 A 
ATOM     78  C   UNL A   1      32.561  27.744  24.576  1.00  0.00     0.047 A 
ATOM     79  F   UNL A   1      31.574  25.841  21.695  1.00  0.00    -0.207 F 
ATOM     80  C   UNL A   1      30.577  27.696  22.600  1.00  0.00     0.039 A 
ATOM     81  C   UNL A   1      31.510  28.689  24.551  1.00  0.00     0.021 A 
ATOM     82  Cl  UNL A   1      33.594  27.856  25.937  1.00  0.00    -0.084 Cl
ATOM     83  C   UNL A   1      30.518  28.667  23.573  1.00  0.00     0.005 A 
ENDBRANCH  75  76
ENDBRANCH  74  75
BRANCH  74  84
ATOM     84  C   UNL A   1      33.041  23.762  25.204  1.00  0.00    -0.033 A 
ATOM     85  C   UNL A   1      32.821  24.113  26.547  1.00  0.00     0.006 A 
ATOM     86  C   UNL A   1      32.199  22.801  24.651  1.00  0.00     0.006 A 
ATOM     87  C   UNL A   1      31.644  23.753  27.211  1.00  0.00     0.021 A 
ATOM     88  C   UNL A   1      31.029  22.421  25.308  1.00  0.00     0.021 A 
ATOM     89  C   UNL A   1      30.722  22.953  26.555  1.00  0.00     0.041 A 
ATOM     90  Cl  UNL A   1      29.197  22.607  27.254  1.00  0.00    -0.084 Cl
ENDBRANCH  74  84
ENDBRANCH  72  74
ENDBRANCH  71  72
ENDBRANCH  70  71
ENDBRANCH   1  70
TORSDOF 17
ENDMDL
MODEL 3
REMARK VINA RESULT:     -11.7      1.709      3.336
REMARK SMILES O=C(OCCOC(=O)[C@@H](Cc1c(F)cccc1Cl)c1ccc(Cl)cc1)c1ccc(-c2c3nc(c(-c4cccc(S(=O)(=O)[O-])c4F)c4ccc([nH]4)c(-c4cccc(S(=O)(=O)[O-])c4F)c4nc(c(-c5cccc(S(=O)(=O)[O-])c5F)c5ccc2[nH]5)C=C4)C=C3)cc1
REMARK SMILES IDX 4 1 3 2 2 3 1 4 26 5 27 6 88 7 28 8 87 9 29 10 30 11 31 12
REMARK SMILES IDX 81 13 32 14 86 15 80 16 82 17 33 18 85 19 79 20 78 21 34 23
REMARK SMILES IDX 66 24 46 25 65 26 47 27 50 28 64 29 83 30 48 31 49 32 63 34
REMARK SMILES IDX 84 35 51 36 35 37 36 38 44 39 37 40 39 41 45 42 38 43 40 44
REMARK SMILES IDX 41 45 42 46 43 47 67 48 68 49 76 50 69 51 71 52 77 53 70 54
REMARK SMILES IDX 72 55 73 56 74 57 75 58 52 59 53 60 61 61 54 62 56 63 62 64
REMARK SMILES IDX 55 65 57 66 58 67 59 68 60 69 5 70 6 71 7 72 8 73 9 74 10 75
REMARK SMILES IDX 11 76 12 77 17 78 13 79 14 80 16 81 18 82 15 83 19 84 20 85
REMARK SMILES IDX 25 86 21 87 24 88 22 89 23 90
REMARK H PARENT 82 22 50 33
REMARK Flexibility Score: inf
ROOT
ATOM      1  C   UNL A   1      31.791  31.280  26.329  1.00  0.00     0.275 C 
ENDROOT
BRANCH   1   2
ATOM      2  O   UNL A   1      32.196  31.994  27.528  1.00  0.00    -0.458 OA
BRANCH   2   3
ATOM      3  C   UNL A   1      33.242  32.812  27.811  1.00  0.00     0.338 C 
ATOM      4  O   UNL A   1      33.089  34.029  27.722  1.00  0.00    -0.246 OA
BRANCH   3   5
ATOM      5  C   UNL A   1      34.620  32.319  28.103  1.00  0.00     0.060 A 
ATOM      6  C   UNL A   1      35.760  33.100  27.994  1.00  0.00     0.016 A 
ATOM      7  C   UNL A   1      34.793  30.955  28.424  1.00  0.00     0.016 A 
ATOM      8  C   UNL A   1      37.010  32.566  28.380  1.00  0.00     0.010 A 
ATOM      9  C   UNL A   1      36.052  30.425  28.810  1.00  0.00     0.010 A 
ATOM     10  C   UNL A   1      37.181  31.245  28.881  1.00  0.00    -0.014 A 
BRANCH  10  11
ATOM     11  C   UNL A   1      38.524  30.850  29.505  1.00  0.00     0.031 A 
ATOM     12  C   UNL A   1      38.809  31.242  30.921  1.00  0.00     0.074 A 
ATOM     13  C   UNL A   1      39.405  29.957  28.978  1.00  0.00     0.049 A 
ATOM     14  N   UNL A   1      39.627  30.690  31.779  1.00  0.00    -0.248 NA
ATOM     15  C   UNL A   1      38.049  32.386  31.439  1.00  0.00     0.031 C 
ATOM     16  C   UNL A   1      39.352  29.437  27.632  1.00  0.00     0.029 A 
ATOM     17  N   UNL A   1      40.461  29.241  29.530  1.00  0.00    -0.354 N 
ATOM     18  C   UNL A   1      39.448  31.386  32.958  1.00  0.00     0.074 A 
ATOM     19  C   UNL A   1      38.429  32.390  32.707  1.00  0.00     0.031 C 
ATOM     20  C   UNL A   1      40.168  28.381  27.498  1.00  0.00     0.029 A 
ATOM     21  C   UNL A   1      40.944  28.224  28.719  1.00  0.00     0.049 A 
ATOM     22  H   UNL A   1      40.833  29.438  30.421  1.00  0.00     0.167 HD
ATOM     23  C   UNL A   1      40.083  31.238  34.142  1.00  0.00     0.034 A 
ATOM     24  C   UNL A   1      41.901  27.281  28.888  1.00  0.00     0.034 A 
ATOM     25  C   UNL A   1      41.217  30.398  34.402  1.00  0.00     0.049 A 
ATOM     26  C   UNL A   1      42.700  27.259  30.164  1.00  0.00     0.074 A 
ATOM     27  C   UNL A   1      42.002  30.363  35.543  1.00  0.00     0.029 A 
ATOM     28  N   UNL A   1      41.776  29.501  33.511  1.00  0.00    -0.354 N 
ATOM     29  N   UNL A   1      42.463  27.875  31.293  1.00  0.00    -0.248 NA
ATOM     30  C   UNL A   1      43.913  26.420  30.185  1.00  0.00     0.031 C 
ATOM     31  C   UNL A   1      43.061  29.475  35.327  1.00  0.00     0.029 A 
ATOM     32  C   UNL A   1      42.908  28.922  34.069  1.00  0.00     0.049 A 
ATOM     33  H   UNL A   1      41.423  29.300  32.614  1.00  0.00     0.167 HD
ATOM     34  C   UNL A   1      43.492  27.503  32.151  1.00  0.00     0.074 A 
ATOM     35  C   UNL A   1      44.321  26.557  31.440  1.00  0.00     0.031 C 
ATOM     36  C   UNL A   1      43.736  27.948  33.406  1.00  0.00     0.034 A 
BRANCH  23  37
ATOM     37  C   UNL A   1      39.581  32.115  35.242  1.00  0.00     0.023 A 
ATOM     38  C   UNL A   1      39.997  33.459  35.300  1.00  0.00     0.012 A 
ATOM     39  C   UNL A   1      38.752  31.582  36.242  1.00  0.00     0.148 A 
ATOM     40  C   UNL A   1      39.604  34.262  36.366  1.00  0.00     0.002 A 
ATOM     41  C   UNL A   1      38.345  32.395  37.284  1.00  0.00     0.091 A 
ATOM     42  F   UNL A   1      38.419  30.286  36.169  1.00  0.00    -0.205 F 
ATOM     43  C   UNL A   1      38.775  33.732  37.354  1.00  0.00     0.022 A 
BRANCH  41  44
ATOM     44  S   UNL A   1      37.272  31.806  38.592  1.00  0.00     0.127 S 
ATOM     45  O   UNL A   1      38.109  32.018  39.773  1.00  0.00    -0.237 OA
ATOM     46  O   UNL A   1      36.131  32.713  38.477  1.00  0.00    -0.237 OA
ATOM     47  O   UNL A   1      36.983  30.413  38.281  1.00  0.00    -0.744 OA
ENDBRANCH  41  44
ENDBRANCH  23  37
BRANCH  24  48
ATOM     48  C   UNL A   1      42.253  26.284  27.818  1.00  0.00     0.023 A 
ATOM     49  C   UNL A   1      43.116  26.655  26.762  1.00  0.00     0.012 A 
ATOM     50  C   UNL A   1      41.633  25.022  27.759  1.00  0.00     0.148 A 
ATOM     51  C   UNL A   1      43.318  25.808  25.664  1.00  0.00     0.002 A 
ATOM     52  C   UNL A   1      41.875  24.165  26.687  1.00  0.00     0.091 A 
ATOM     53  F   UNL A   1      40.773  24.684  28.731  1.00  0.00    -0.205 F 
ATOM     54  C   UNL A   1      42.705  24.559  25.630  1.00  0.00     0.022 A 
BRANCH  52  55
ATOM     55  S   UNL A   1      41.129  22.532  26.648  1.00  0.00     0.127 S 
ATOM     56  O   UNL A   1      41.811  21.917  25.514  1.00  0.00    -0.237 OA
ATOM     57  O   UNL A   1      41.491  21.975  27.951  1.00  0.00    -0.237 OA
ATOM     58  O   UNL A   1      39.704  22.799  26.479  1.00  0.00    -0.744 OA
ENDBRANCH  52  55
ENDBRANCH  24  48
BRANCH  36  59
ATOM     59  C   UNL A   1      44.955  27.424  34.125  1.00  0.00     0.023 A 
ATOM     60  C   UNL A   1      46.178  28.120  34.042  1.00  0.00     0.012 A 
ATOM     61  C   UNL A   1      44.876  26.275  34.938  1.00  0.00     0.148 A 
ATOM     62  C   UNL A   1      47.307  27.667  34.727  1.00  0.00     0.002 A 
ATOM     63  C   UNL A   1      45.989  25.857  35.659  1.00  0.00     0.091 A 
ATOM     64  F   UNL A   1      43.714  25.608  34.989  1.00  0.00    -0.205 F 
ATOM     65  C   UNL A   1      47.209  26.543  35.545  1.00  0.00     0.022 A 
BRANCH  63  66
ATOM     66  S   UNL A   1      45.930  24.479  36.810  1.00  0.00     0.127 S 
ATOM     67  O   UNL A   1      47.349  24.226  37.047  1.00  0.00    -0.237 OA
ATOM     68  O   UNL A   1      45.214  25.057  37.948  1.00  0.00    -0.237 OA
ATOM     69  O   UNL A   1      45.211  23.415  36.122  1.00  0.00    -0.744 OA
ENDBRANCH  63  66
ENDBRANCH  36  59
ENDBRANCH  10  11
ENDBRANCH   3   5
ENDBRANCH   2   3
ENDBRANCH   1   2
BRANCH   1  70
ATOM     70  C   UNL A   1      32.706  30.081  26.048  1.00  0.00     0.274 C 
BRANCH  70  71
ATOM     71  O   UNL A   1      32.083  28.917  26.590  1.00  0.00    -0.462 OA
BRANCH  71  72
ATOM     72  C   UNL A   1      32.325  27.725  25.985  1.00  0.00     0.313 C 
ATOM     73  O   UNL A   1      32.223  26.637  26.528  1.00  0.00    -0.252 OA
BRANCH  72  74
ATOM     74  C   UNL A   1      32.576  27.943  24.501  1.00  0.00     0.134 C 
BRANCH  74  75
ATOM     75  C   UNL A   1      33.677  26.976  23.946  1.00  0.00     0.060 C 
BRANCH  75  76
ATOM     76  C   UNL A   1      33.676  25.514  23.533  1.00  0.00     0.008 A 
ATOM     77  C   UNL A   1      34.285  24.630  24.460  1.00  0.00     0.127 A 
ATOM     78  C   UNL A   1      33.098  24.891  22.433  1.00  0.00     0.047 A 
ATOM     79  F   UNL A   1      34.791  25.107  25.592  1.00  0.00    -0.207 F 
ATOM     80  C   UNL A   1      34.350  23.249  24.324  1.00  0.00     0.039 A 
ATOM     81  C   UNL A   1      33.171  23.489  22.271  1.00  0.00     0.021 A 
ATOM     82  Cl  UNL A   1      32.174  25.703  21.240  1.00  0.00    -0.084 Cl
ATOM     83  C   UNL A   1      33.789  22.667  23.211  1.00  0.00     0.005 A 
ENDBRANCH  75  76
ENDBRANCH  74  75
BRANCH  74  84
ATOM     84  C   UNL A   1      31.375  28.213  23.615  1.00  0.00    -0.033 A 
ATOM     85  C   UNL A   1      30.167  27.524  23.815  1.00  0.00     0.006 A 
ATOM     86  C   UNL A   1      31.394  29.186  22.619  1.00  0.00     0.006 A 
ATOM     87  C   UNL A   1      28.965  27.983  23.265  1.00  0.00     0.021 A 
ATOM     88  C   UNL A   1      30.206  29.644  22.051  1.00  0.00     0.021 A 
ATOM     89  C   UNL A   1      28.989  29.088  22.428  1.00  0.00     0.041 A 
ATOM     90  Cl  UNL A   1      27.538  29.789  21.850  1.00  0.00    -0.084 Cl
ENDBRANCH  74  84
ENDBRANCH  72  74
ENDBRANCH  71  72
ENDBRANCH  70  71
ENDBRANCH   1  70
TORSDOF 17
ENDMDL
