MODEL 1
REMARK VINA RESULT:     -11.9      0.000      0.000
REMARK SMILES N#C/C(=C/c1cccc(OC2CCCC2)c1)C(=O)OCCOC(=O)c1ccc(-c2c3nc(c(-c4cccc(S(=O)(=O)[O-])c4F)c4ccc([nH]4)c(-c4cccc(S(=O)(=O)[O-])c4F)c4nc(c(-c5cccc(S(=O)(=O)[O-])c5F)c5ccc2[nH]5)C=C4)C=C3)cc1
REMARK SMILES IDX 20 1 19 2 17 3 18 4 3 5 4 6 2 7 1 8 5 9 6 10 16 11 7 12 9 13
REMARK SMILES IDX 8 14 10 15 11 16 12 17 15 18 13 19 14 20 21 21 22 22 23 23
REMARK SMILES IDX 24 24 25 25 26 26 87 27 27 28 86 29 28 30 29 31 30 32 80 33
REMARK SMILES IDX 31 34 85 35 79 36 81 37 32 38 84 39 78 40 77 41 33 43 65 44
REMARK SMILES IDX 45 45 64 46 46 47 49 48 63 49 82 50 47 51 48 52 62 54 83 55
REMARK SMILES IDX 50 56 34 57 35 58 43 59 36 60 38 61 44 62 37 63 39 64 40 65
REMARK SMILES IDX 41 66 42 67 66 68 67 69 75 70 68 71 70 72 76 73 69 74 71 75
REMARK SMILES IDX 72 76 73 77 74 78 51 79 52 80 60 81 53 82 55 83 61 84 54 85
REMARK SMILES IDX 56 86 57 87 58 88 59 89
REMARK H PARENT 81 42 49 53
REMARK Flexibility Score: inf
ROOT
ATOM      1  C   UNL A   1      31.888  29.072  25.047  1.00  0.00     0.275 C 
ENDROOT
BRANCH   1   2
ATOM      2  O   UNL A   1      31.478  29.299  23.681  1.00  0.00    -0.458 OA
BRANCH   2   3
ATOM      3  C   UNL A   1      31.070  28.214  22.967  1.00  0.00     0.349 C 
ATOM      4  O   UNL A   1      31.773  27.499  22.281  1.00  0.00    -0.245 OA
BRANCH   3   5
ATOM      5  C   UNL A   1      29.614  27.994  23.129  1.00  0.00     0.137 C 
ATOM      6  C   UNL A   1      29.112  26.891  23.723  1.00  0.00     0.035 C 
BRANCH   5   7
ATOM      7  C   UNL A   1      28.685  29.138  22.758  1.00  0.00     0.107 C 
ATOM      8  N   UNL A   1      27.914  30.087  22.450  1.00  0.00    -0.192 NA
ENDBRANCH   5   7
BRANCH   6   9
ATOM      9  C   UNL A   1      29.921  25.807  24.302  1.00  0.00    -0.020 A 
ATOM     10  C   UNL A   1      30.213  25.799  25.666  1.00  0.00     0.008 A 
ATOM     11  C   UNL A   1      30.402  24.766  23.488  1.00  0.00     0.054 A 
ATOM     12  C   UNL A   1      30.934  24.738  26.213  1.00  0.00     0.004 A 
ATOM     13  C   UNL A   1      31.071  23.674  24.032  1.00  0.00     0.120 A 
ATOM     14  C   UNL A   1      31.348  23.678  25.401  1.00  0.00     0.046 A 
BRANCH  13  15
ATOM     15  O   UNL A   1      31.505  22.571  23.359  1.00  0.00    -0.490 OA
BRANCH  15  16
ATOM     16  C   UNL A   1      32.888  22.261  23.185  1.00  0.00     0.173 C 
ATOM     17  C   UNL A   1      33.838  23.430  22.941  1.00  0.00     0.045 C 
ATOM     18  C   UNL A   1      33.520  21.390  24.278  1.00  0.00     0.045 C 
ATOM     19  C   UNL A   1      35.199  22.882  23.344  1.00  0.00     0.004 C 
ATOM     20  C   UNL A   1      34.895  22.001  24.550  1.00  0.00     0.004 C 
ENDBRANCH  15  16
ENDBRANCH  13  15
ENDBRANCH   6   9
ENDBRANCH   3   5
ENDBRANCH   2   3
ENDBRANCH   1   2
BRANCH   1  21
ATOM     21  C   UNL A   1      31.614  30.297  25.916  1.00  0.00     0.275 C 
BRANCH  21  22
ATOM     22  O   UNL A   1      32.481  30.282  27.062  1.00  0.00    -0.458 OA
BRANCH  22  23
ATOM     23  C   UNL A   1      33.097  31.458  27.302  1.00  0.00     0.338 C 
ATOM     24  O   UNL A   1      32.578  32.558  27.428  1.00  0.00    -0.246 OA
BRANCH  23  25
ATOM     25  C   UNL A   1      34.503  31.213  27.622  1.00  0.00     0.060 A 
ATOM     26  C   UNL A   1      34.852  29.905  27.931  1.00  0.00     0.016 A 
ATOM     27  C   UNL A   1      35.408  32.248  27.818  1.00  0.00     0.016 A 
ATOM     28  C   UNL A   1      36.037  29.628  28.589  1.00  0.00     0.010 A 
ATOM     29  C   UNL A   1      36.655  31.951  28.378  1.00  0.00     0.010 A 
ATOM     30  C   UNL A   1      36.954  30.648  28.826  1.00  0.00    -0.014 A 
BRANCH  30  31
ATOM     31  C   UNL A   1      38.163  30.366  29.636  1.00  0.00     0.031 A 
ATOM     32  C   UNL A   1      39.241  29.498  29.053  1.00  0.00     0.074 A 
ATOM     33  C   UNL A   1      38.316  30.903  30.862  1.00  0.00     0.049 A 
ATOM     34  N   UNL A   1      40.236  28.898  29.651  1.00  0.00    -0.248 NA
ATOM     35  C   UNL A   1      39.176  29.248  27.602  1.00  0.00     0.031 C 
ATOM     36  C   UNL A   1      37.385  31.834  31.506  1.00  0.00     0.029 A 
ATOM     37  N   UNL A   1      39.310  30.737  31.793  1.00  0.00    -0.354 N 
ATOM     38  C   UNL A   1      40.848  28.122  28.676  1.00  0.00     0.074 A 
ATOM     39  C   UNL A   1      40.129  28.343  27.441  1.00  0.00     0.031 C 
ATOM     40  C   UNL A   1      37.853  32.160  32.719  1.00  0.00     0.029 A 
ATOM     41  C   UNL A   1      39.056  31.383  32.981  1.00  0.00     0.049 A 
ATOM     42  H   UNL A   1      40.123  30.206  31.627  1.00  0.00     0.167 HD
ATOM     43  C   UNL A   1      41.915  27.300  28.808  1.00  0.00     0.034 A 
ATOM     44  C   UNL A   1      39.682  31.305  34.170  1.00  0.00     0.034 A 
ATOM     45  C   UNL A   1      42.668  27.172  30.026  1.00  0.00     0.049 A 
ATOM     46  C   UNL A   1      40.869  30.393  34.293  1.00  0.00     0.074 A 
ATOM     47  C   UNL A   1      43.775  26.382  30.278  1.00  0.00     0.029 A 
ATOM     48  N   UNL A   1      42.405  27.879  31.191  1.00  0.00    -0.354 N 
ATOM     49  N   UNL A   1      41.425  29.637  33.377  1.00  0.00    -0.248 NA
ATOM     50  C   UNL A   1      41.519  30.324  35.608  1.00  0.00     0.031 C 
ATOM     51  C   UNL A   1      44.176  26.606  31.600  1.00  0.00     0.029 A 
ATOM     52  C   UNL A   1      43.330  27.549  32.165  1.00  0.00     0.049 A 
ATOM     53  H   UNL A   1      41.667  28.520  31.308  1.00  0.00     0.167 HD
ATOM     54  C   UNL A   1      42.499  29.012  33.998  1.00  0.00     0.074 A 
ATOM     55  C   UNL A   1      42.531  29.504  35.362  1.00  0.00     0.031 C 
ATOM     56  C   UNL A   1      43.365  28.096  33.498  1.00  0.00     0.034 A 
BRANCH  43  57
ATOM     57  C   UNL A   1      42.321  26.481  27.611  1.00  0.00     0.023 A 
ATOM     58  C   UNL A   1      43.079  27.065  26.577  1.00  0.00     0.012 A 
ATOM     59  C   UNL A   1      41.967  25.120  27.523  1.00  0.00     0.148 A 
ATOM     60  C   UNL A   1      43.448  26.318  25.459  1.00  0.00     0.002 A 
ATOM     61  C   UNL A   1      42.377  24.369  26.427  1.00  0.00     0.091 A 
ATOM     62  F   UNL A   1      41.221  24.587  28.502  1.00  0.00    -0.205 F 
ATOM     63  C   UNL A   1      43.106  24.969  25.388  1.00  0.00     0.022 A 
BRANCH  61  64
ATOM     64  S   UNL A   1      42.046  22.609  26.283  1.00  0.00     0.127 S 
ATOM     65  O   UNL A   1      42.682  22.290  25.006  1.00  0.00    -0.237 OA
ATOM     66  O   UNL A   1      42.733  22.068  27.457  1.00  0.00    -0.237 OA
ATOM     67  O   UNL A   1      40.597  22.470  26.313  1.00  0.00    -0.744 OA
ENDBRANCH  61  64
ENDBRANCH  43  57
BRANCH  44  68
ATOM     68  C   UNL A   1      39.174  32.097  35.326  1.00  0.00     0.023 A 
ATOM     69  C   UNL A   1      38.259  31.512  36.222  1.00  0.00     0.012 A 
ATOM     70  C   UNL A   1      39.644  33.401  35.582  1.00  0.00     0.148 A 
ATOM     71  C   UNL A   1      37.812  32.217  37.341  1.00  0.00     0.002 A 
ATOM     72  C   UNL A   1      39.248  34.070  36.733  1.00  0.00     0.091 A 
ATOM     73  F   UNL A   1      40.496  33.955  34.706  1.00  0.00    -0.205 F 
ATOM     74  C   UNL A   1      38.318  33.487  37.607  1.00  0.00     0.022 A 
BRANCH  72  75
ATOM     75  S   UNL A   1      39.975  35.638  37.226  1.00  0.00     0.127 S 
ATOM     76  O   UNL A   1      39.249  35.931  38.460  1.00  0.00    -0.237 OA
ATOM     77  O   UNL A   1      41.383  35.280  37.410  1.00  0.00    -0.237 OA
ATOM     78  O   UNL A   1      39.733  36.547  36.114  1.00  0.00    -0.744 OA
ENDBRANCH  72  75
ENDBRANCH  44  68
BRANCH  56  79
ATOM     79  C   UNL A   1      44.435  27.588  34.423  1.00  0.00     0.023 A 
ATOM     80  C   UNL A   1      45.682  28.242  34.471  1.00  0.00     0.012 A 
ATOM     81  C   UNL A   1      44.180  26.511  35.294  1.00  0.00     0.148 A 
ATOM     82  C   UNL A   1      46.672  27.811  35.352  1.00  0.00     0.002 A 
ATOM     83  C   UNL A   1      45.155  26.117  36.201  1.00  0.00     0.091 A 
ATOM     84  F   UNL A   1      42.993  25.892  35.215  1.00  0.00    -0.205 F 
ATOM     85  C   UNL A   1      46.405  26.757  36.224  1.00  0.00     0.022 A 
BRANCH  83  86
ATOM     86  S   UNL A   1      44.863  24.832  37.422  1.00  0.00     0.127 S 
ATOM     87  O   UNL A   1      43.488  25.114  37.828  1.00  0.00    -0.237 OA
ATOM     88  O   UNL A   1      45.028  23.610  36.633  1.00  0.00    -0.237 OA
ATOM     89  O   UNL A   1      45.874  25.024  38.452  1.00  0.00    -0.744 OA
ENDBRANCH  83  86
ENDBRANCH  56  79
ENDBRANCH  30  31
ENDBRANCH  23  25
ENDBRANCH  22  23
ENDBRANCH  21  22
ENDBRANCH   1  21
TORSDOF 18
ENDMDL
MODEL 2
REMARK VINA RESULT:     -11.4      1.369      2.253
REMARK SMILES N#C/C(=C/c1cccc(OC2CCCC2)c1)C(=O)OCCOC(=O)c1ccc(-c2c3nc(c(-c4cccc(S(=O)(=O)[O-])c4F)c4ccc([nH]4)c(-c4cccc(S(=O)(=O)[O-])c4F)c4nc(c(-c5cccc(S(=O)(=O)[O-])c5F)c5ccc2[nH]5)C=C4)C=C3)cc1
REMARK SMILES IDX 20 1 19 2 17 3 18 4 3 5 4 6 2 7 1 8 5 9 6 10 16 11 7 12 9 13
REMARK SMILES IDX 8 14 10 15 11 16 12 17 15 18 13 19 14 20 21 21 22 22 23 23
REMARK SMILES IDX 24 24 25 25 26 26 87 27 27 28 86 29 28 30 29 31 30 32 80 33
REMARK SMILES IDX 31 34 85 35 79 36 81 37 32 38 84 39 78 40 77 41 33 43 65 44
REMARK SMILES IDX 45 45 64 46 46 47 49 48 63 49 82 50 47 51 48 52 62 54 83 55
REMARK SMILES IDX 50 56 34 57 35 58 43 59 36 60 38 61 44 62 37 63 39 64 40 65
REMARK SMILES IDX 41 66 42 67 66 68 67 69 75 70 68 71 70 72 76 73 69 74 71 75
REMARK SMILES IDX 72 76 73 77 74 78 51 79 52 80 60 81 53 82 55 83 61 84 54 85
REMARK SMILES IDX 56 86 57 87 58 88 59 89
REMARK H PARENT 81 42 49 53
REMARK Flexibility Score: inf
ROOT
ATOM      1  C   UNL A   1      32.494  27.680  26.470  1.00  0.00     0.275 C 
ENDROOT
BRANCH   1   2
ATOM      2  O   UNL A   1      33.056  27.001  25.326  1.00  0.00    -0.458 OA
BRANCH   2   3
ATOM      3  C   UNL A   1      32.458  25.844  24.934  1.00  0.00     0.349 C 
ATOM      4  O   UNL A   1      31.766  25.122  25.625  1.00  0.00    -0.245 OA
BRANCH   3   5
ATOM      5  C   UNL A   1      32.755  25.552  23.513  1.00  0.00     0.137 C 
ATOM      6  C   UNL A   1      33.666  24.629  23.140  1.00  0.00     0.035 C 
BRANCH   5   7
ATOM      7  C   UNL A   1      31.871  26.204  22.462  1.00  0.00     0.107 C 
ATOM      8  N   UNL A   1      31.138  26.745  21.590  1.00  0.00    -0.192 NA
ENDBRANCH   5   7
BRANCH   6   9
ATOM      9  C   UNL A   1      34.441  23.791  24.068  1.00  0.00    -0.020 A 
ATOM     10  C   UNL A   1      35.449  24.356  24.850  1.00  0.00     0.008 A 
ATOM     11  C   UNL A   1      34.170  22.416  24.181  1.00  0.00     0.054 A 
ATOM     12  C   UNL A   1      36.140  23.564  25.767  1.00  0.00     0.004 A 
ATOM     13  C   UNL A   1      34.812  21.629  25.131  1.00  0.00     0.120 A 
ATOM     14  C   UNL A   1      35.813  22.212  25.912  1.00  0.00     0.046 A 
BRANCH  13  15
ATOM     15  O   UNL A   1      34.572  20.313  25.390  1.00  0.00    -0.490 OA
BRANCH  15  16
ATOM     16  C   UNL A   1      34.139  19.391  24.389  1.00  0.00     0.173 C 
ATOM     17  C   UNL A   1      34.722  17.980  24.443  1.00  0.00     0.045 C 
ATOM     18  C   UNL A   1      32.622  19.243  24.227  1.00  0.00     0.045 C 
ATOM     19  C   UNL A   1      33.714  17.142  23.670  1.00  0.00     0.004 C 
ATOM     20  C   UNL A   1      32.368  17.745  24.052  1.00  0.00     0.004 C 
ENDBRANCH  15  16
ENDBRANCH  13  15
ENDBRANCH   6   9
ENDBRANCH   3   5
ENDBRANCH   2   3
ENDBRANCH   1   2
BRANCH   1  21
ATOM     21  C   UNL A   1      32.280  29.163  26.181  1.00  0.00     0.275 C 
BRANCH  21  22
ATOM     22  O   UNL A   1      32.424  29.919  27.394  1.00  0.00    -0.458 OA
BRANCH  22  23
ATOM     23  C   UNL A   1      33.072  31.092  27.238  1.00  0.00     0.338 C 
ATOM     24  O   UNL A   1      32.580  32.196  27.048  1.00  0.00    -0.246 OA
BRANCH  23  25
ATOM     25  C   UNL A   1      34.490  30.911  27.551  1.00  0.00     0.060 A 
ATOM     26  C   UNL A   1      34.906  29.611  27.813  1.00  0.00     0.016 A 
ATOM     27  C   UNL A   1      35.339  31.984  27.788  1.00  0.00     0.016 A 
ATOM     28  C   UNL A   1      36.103  29.373  28.463  1.00  0.00     0.010 A 
ATOM     29  C   UNL A   1      36.600  31.732  28.339  1.00  0.00     0.010 A 
ATOM     30  C   UNL A   1      36.966  30.430  28.740  1.00  0.00    -0.014 A 
BRANCH  30  31
ATOM     31  C   UNL A   1      38.188  30.182  29.541  1.00  0.00     0.031 A 
ATOM     32  C   UNL A   1      39.273  29.318  28.964  1.00  0.00     0.074 A 
ATOM     33  C   UNL A   1      38.346  30.747  30.755  1.00  0.00     0.049 A 
ATOM     34  N   UNL A   1      40.282  28.746  29.563  1.00  0.00    -0.248 NA
ATOM     35  C   UNL A   1      39.195  29.038  27.519  1.00  0.00     0.031 C 
ATOM     36  C   UNL A   1      37.409  31.676  31.390  1.00  0.00     0.029 A 
ATOM     37  N   UNL A   1      39.353  30.613  31.678  1.00  0.00    -0.354 N 
ATOM     38  C   UNL A   1      40.895  27.958  28.597  1.00  0.00     0.074 A 
ATOM     39  C   UNL A   1      40.159  28.143  27.365  1.00  0.00     0.031 C 
ATOM     40  C   UNL A   1      37.885  32.034  32.590  1.00  0.00     0.029 A 
ATOM     41  C   UNL A   1      39.103  31.280  32.854  1.00  0.00     0.049 A 
ATOM     42  H   UNL A   1      40.172  30.091  31.513  1.00  0.00     0.167 HD
ATOM     43  C   UNL A   1      41.975  27.155  28.733  1.00  0.00     0.034 A 
ATOM     44  C   UNL A   1      39.743  31.235  34.038  1.00  0.00     0.034 A 
ATOM     45  C   UNL A   1      42.743  27.062  29.945  1.00  0.00     0.049 A 
ATOM     46  C   UNL A   1      40.945  30.343  34.166  1.00  0.00     0.074 A 
ATOM     47  C   UNL A   1      43.865  26.294  30.200  1.00  0.00     0.029 A 
ATOM     48  N   UNL A   1      42.483  27.789  31.098  1.00  0.00    -0.354 N 
ATOM     49  N   UNL A   1      41.502  29.577  33.259  1.00  0.00    -0.248 NA
ATOM     50  C   UNL A   1      41.610  30.310  35.475  1.00  0.00     0.031 C 
ATOM     51  C   UNL A   1      44.277  26.550  31.512  1.00  0.00     0.029 A 
ATOM     52  C   UNL A   1      43.423  27.493  32.068  1.00  0.00     0.049 A 
ATOM     53  H   UNL A   1      41.737  28.422  31.210  1.00  0.00     0.167 HD
ATOM     54  C   UNL A   1      42.591  28.980  33.881  1.00  0.00     0.074 A 
ATOM     55  C   UNL A   1      42.632  29.500  35.233  1.00  0.00     0.031 C 
ATOM     56  C   UNL A   1      43.465  28.067  33.389  1.00  0.00     0.034 A 
BRANCH  43  57
ATOM     57  C   UNL A   1      42.380  26.318  27.548  1.00  0.00     0.023 A 
ATOM     58  C   UNL A   1      43.142  26.884  26.508  1.00  0.00     0.012 A 
ATOM     59  C   UNL A   1      42.020  24.957  27.478  1.00  0.00     0.148 A 
ATOM     60  C   UNL A   1      43.510  26.120  25.400  1.00  0.00     0.002 A 
ATOM     61  C   UNL A   1      42.429  24.189  26.393  1.00  0.00     0.091 A 
ATOM     62  F   UNL A   1      41.270  24.441  28.463  1.00  0.00    -0.205 F 
ATOM     63  C   UNL A   1      43.162  24.772  25.347  1.00  0.00     0.022 A 
BRANCH  61  64
ATOM     64  S   UNL A   1      42.090  22.429  26.272  1.00  0.00     0.127 S 
ATOM     65  O   UNL A   1      40.630  22.410  26.212  1.00  0.00    -0.237 OA
ATOM     66  O   UNL A   1      42.756  22.071  25.019  1.00  0.00    -0.237 OA
ATOM     67  O   UNL A   1      42.677  21.826  27.461  1.00  0.00    -0.744 OA
ENDBRANCH  61  64
ENDBRANCH  43  57
BRANCH  44  68
ATOM     68  C   UNL A   1      39.236  32.043  35.184  1.00  0.00     0.023 A 
ATOM     69  C   UNL A   1      38.333  31.466  36.096  1.00  0.00     0.012 A 
ATOM     70  C   UNL A   1      39.696  33.356  35.413  1.00  0.00     0.148 A 
ATOM     71  C   UNL A   1      37.888  32.187  37.206  1.00  0.00     0.002 A 
ATOM     72  C   UNL A   1      39.302  34.042  36.555  1.00  0.00     0.091 A 
ATOM     73  F   UNL A   1      40.537  33.901  34.521  1.00  0.00    -0.205 F 
ATOM     74  C   UNL A   1      38.384  33.466  37.445  1.00  0.00     0.022 A 
BRANCH  72  75
ATOM     75  S   UNL A   1      40.018  35.625  37.014  1.00  0.00     0.127 S 
ATOM     76  O   UNL A   1      39.651  36.462  35.875  1.00  0.00    -0.237 OA
ATOM     77  O   UNL A   1      39.310  35.933  38.258  1.00  0.00    -0.237 OA
ATOM     78  O   UNL A   1      41.442  35.373  37.188  1.00  0.00    -0.744 OA
ENDBRANCH  72  75
ENDBRANCH  44  68
BRANCH  56  79
ATOM     79  C   UNL A   1      44.552  27.594  34.312  1.00  0.00     0.023 A 
ATOM     80  C   UNL A   1      45.758  28.317  34.396  1.00  0.00     0.012 A 
ATOM     81  C   UNL A   1      44.352  26.477  35.146  1.00  0.00     0.148 A 
ATOM     82  C   UNL A   1      46.762  27.917  35.276  1.00  0.00     0.002 A 
ATOM     83  C   UNL A   1      45.338  26.111  36.053  1.00  0.00     0.091 A 
ATOM     84  F   UNL A   1      43.204  25.792  35.033  1.00  0.00    -0.205 F 
ATOM     85  C   UNL A   1      46.548  26.823  36.112  1.00  0.00     0.022 A 
BRANCH  83  86
ATOM     86  S   UNL A   1      45.108  24.775  37.230  1.00  0.00     0.127 S 
ATOM     87  O   UNL A   1      44.082  25.328  38.112  1.00  0.00    -0.237 OA
ATOM     88  O   UNL A   1      44.651  23.680  36.373  1.00  0.00    -0.237 OA
ATOM     89  O   UNL A   1      46.411  24.555  37.843  1.00  0.00    -0.744 OA
ENDBRANCH  83  86
ENDBRANCH  56  79
ENDBRANCH  30  31
ENDBRANCH  23  25
ENDBRANCH  22  23
ENDBRANCH  21  22
ENDBRANCH   1  21
TORSDOF 18
ENDMDL
MODEL 3
REMARK VINA RESULT:     -10.4      2.401      3.185
REMARK SMILES N#C/C(=C/c1cccc(OC2CCCC2)c1)C(=O)OCCOC(=O)c1ccc(-c2c3nc(c(-c4cccc(S(=O)(=O)[O-])c4F)c4ccc([nH]4)c(-c4cccc(S(=O)(=O)[O-])c4F)c4nc(c(-c5cccc(S(=O)(=O)[O-])c5F)c5ccc2[nH]5)C=C4)C=C3)cc1
REMARK SMILES IDX 20 1 19 2 17 3 18 4 3 5 4 6 2 7 1 8 5 9 6 10 16 11 7 12 9 13
REMARK SMILES IDX 8 14 10 15 11 16 12 17 15 18 13 19 14 20 21 21 22 22 23 23
REMARK SMILES IDX 24 24 25 25 26 26 87 27 27 28 86 29 28 30 29 31 30 32 80 33
REMARK SMILES IDX 31 34 85 35 79 36 81 37 32 38 84 39 78 40 77 41 33 43 65 44
REMARK SMILES IDX 45 45 64 46 46 47 49 48 63 49 82 50 47 51 48 52 62 54 83 55
REMARK SMILES IDX 50 56 34 57 35 58 43 59 36 60 38 61 44 62 37 63 39 64 40 65
REMARK SMILES IDX 41 66 42 67 66 68 67 69 75 70 68 71 70 72 76 73 69 74 71 75
REMARK SMILES IDX 72 76 73 77 74 78 51 79 52 80 60 81 53 82 55 83 61 84 54 85
REMARK SMILES IDX 56 86 57 87 58 88 59 89
REMARK H PARENT 81 42 49 53
REMARK Flexibility Score: inf
ROOT
ATOM      1  C   UNL A   1      33.392  27.766  26.104  1.00  0.00     0.275 C 
ENDROOT
BRANCH   1   2
ATOM      2  O   UNL A   1      33.300  27.207  24.776  1.00  0.00    -0.458 OA
BRANCH   2   3
ATOM      3  C   UNL A   1      32.793  25.948  24.665  1.00  0.00     0.349 C 
ATOM      4  O   UNL A   1      32.273  25.302  25.553  1.00  0.00    -0.245 OA
BRANCH   3   5
ATOM      5  C   UNL A   1      32.952  25.436  23.284  1.00  0.00     0.137 C 
ATOM      6  C   UNL A   1      33.789  24.421  22.982  1.00  0.00     0.035 C 
BRANCH   5   7
ATOM      7  C   UNL A   1      32.006  25.973  22.222  1.00  0.00     0.107 C 
ATOM      8  N   UNL A   1      31.222  26.419  21.341  1.00  0.00    -0.192 NA
ENDBRANCH   5   7
BRANCH   6   9
ATOM      9  C   UNL A   1      34.608  23.688  23.961  1.00  0.00    -0.020 A 
ATOM     10  C   UNL A   1      35.466  24.379  24.817  1.00  0.00     0.008 A 
ATOM     11  C   UNL A   1      34.529  22.287  24.046  1.00  0.00     0.054 A 
ATOM     12  C   UNL A   1      36.196  23.679  25.777  1.00  0.00     0.004 A 
ATOM     13  C   UNL A   1      35.208  21.585  25.037  1.00  0.00     0.120 A 
ATOM     14  C   UNL A   1      36.057  22.292  25.891  1.00  0.00     0.046 A 
BRANCH  13  15
ATOM     15  O   UNL A   1      35.140  20.244  25.272  1.00  0.00    -0.490 OA
BRANCH  15  16
ATOM     16  C   UNL A   1      34.172  19.395  24.654  1.00  0.00     0.173 C 
ATOM     17  C   UNL A   1      34.625  17.990  24.264  1.00  0.00     0.045 C 
ATOM     18  C   UNL A   1      32.841  19.245  25.401  1.00  0.00     0.045 C 
ATOM     19  C   UNL A   1      33.326  17.203  24.173  1.00  0.00     0.004 C 
ATOM     20  C   UNL A   1      32.479  17.763  25.309  1.00  0.00     0.004 C 
ENDBRANCH  15  16
ENDBRANCH  13  15
ENDBRANCH   6   9
ENDBRANCH   3   5
ENDBRANCH   2   3
ENDBRANCH   1   2
BRANCH   1  21
ATOM     21  C   UNL A   1      33.151  29.273  26.085  1.00  0.00     0.275 C 
BRANCH  21  22
ATOM     22  O   UNL A   1      33.196  29.788  27.426  1.00  0.00    -0.458 OA
BRANCH  22  23
ATOM     23  C   UNL A   1      33.795  30.992  27.534  1.00  0.00     0.338 C 
ATOM     24  O   UNL A   1      33.256  32.087  27.610  1.00  0.00    -0.246 OA
BRANCH  23  25
ATOM     25  C   UNL A   1      35.225  30.804  27.776  1.00  0.00     0.060 A 
ATOM     26  C   UNL A   1      35.653  29.499  27.988  1.00  0.00     0.016 A 
ATOM     27  C   UNL A   1      36.085  31.872  27.997  1.00  0.00     0.016 A 
ATOM     28  C   UNL A   1      36.879  29.247  28.575  1.00  0.00     0.010 A 
ATOM     29  C   UNL A   1      37.370  31.608  28.483  1.00  0.00     0.010 A 
ATOM     30  C   UNL A   1      37.754  30.298  28.836  1.00  0.00    -0.014 A 
BRANCH  30  31
ATOM     31  C   UNL A   1      39.012  30.031  29.573  1.00  0.00     0.031 A 
ATOM     32  C   UNL A   1      40.008  29.070  28.989  1.00  0.00     0.074 A 
ATOM     33  C   UNL A   1      39.282  30.664  30.732  1.00  0.00     0.049 A 
ATOM     34  N   UNL A   1      41.023  28.481  29.560  1.00  0.00    -0.248 NA
ATOM     35  C   UNL A   1      39.818  28.702  27.575  1.00  0.00     0.031 C 
ATOM     36  C   UNL A   1      38.440  31.686  31.361  1.00  0.00     0.029 A 
ATOM     37  N   UNL A   1      40.340  30.533  31.596  1.00  0.00    -0.354 N 
ATOM     38  C   UNL A   1      41.526  27.598  28.614  1.00  0.00     0.074 A 
ATOM     39  C   UNL A   1      40.721  27.745  27.422  1.00  0.00     0.031 C 
ATOM     40  C   UNL A   1      39.015  32.093  32.501  1.00  0.00     0.029 A 
ATOM     41  C   UNL A   1      40.206  31.288  32.738  1.00  0.00     0.049 A 
ATOM     42  H   UNL A   1      41.117  29.955  31.417  1.00  0.00     0.167 HD
ATOM     43  C   UNL A   1      42.569  26.744  28.736  1.00  0.00     0.034 A 
ATOM     44  C   UNL A   1      40.920  31.283  33.879  1.00  0.00     0.034 A 
ATOM     45  C   UNL A   1      43.411  26.686  29.900  1.00  0.00     0.049 A 
ATOM     46  C   UNL A   1      42.078  30.334  33.991  1.00  0.00     0.074 A 
ATOM     47  C   UNL A   1      44.504  25.872  30.135  1.00  0.00     0.029 A 
ATOM     48  N   UNL A   1      43.268  27.500  31.015  1.00  0.00    -0.354 N 
ATOM     49  N   UNL A   1      42.531  29.478  33.105  1.00  0.00    -0.248 NA
ATOM     50  C   UNL A   1      42.827  30.347  35.254  1.00  0.00     0.031 C 
ATOM     51  C   UNL A   1      45.016  26.189  31.399  1.00  0.00     0.029 A 
ATOM     52  C   UNL A   1      44.254  27.213  31.941  1.00  0.00     0.049 A 
ATOM     53  H   UNL A   1      42.566  28.181  31.131  1.00  0.00     0.167 HD
ATOM     54  C   UNL A   1      43.626  28.862  33.696  1.00  0.00     0.074 A 
ATOM     55  C   UNL A   1      43.786  29.465  35.005  1.00  0.00     0.031 C 
ATOM     56  C   UNL A   1      44.415  27.869  33.214  1.00  0.00     0.034 A 
BRANCH  43  57
ATOM     57  C   UNL A   1      42.847  25.809  27.588  1.00  0.00     0.023 A 
ATOM     58  C   UNL A   1      43.695  26.210  26.537  1.00  0.00     0.012 A 
ATOM     59  C   UNL A   1      42.283  24.518  27.565  1.00  0.00     0.148 A 
ATOM     60  C   UNL A   1      43.948  25.357  25.464  1.00  0.00     0.002 A 
ATOM     61  C   UNL A   1      42.575  23.656  26.514  1.00  0.00     0.091 A 
ATOM     62  F   UNL A   1      41.456  24.162  28.558  1.00  0.00    -0.205 F 
ATOM     63  C   UNL A   1      43.397  24.077  25.456  1.00  0.00     0.022 A 
BRANCH  61  64
ATOM     64  S   UNL A   1      41.970  21.965  26.455  1.00  0.00     0.127 S 
ATOM     65  O   UNL A   1      40.532  22.169  26.294  1.00  0.00    -0.237 OA
ATOM     66  O   UNL A   1      42.646  21.435  25.269  1.00  0.00    -0.237 OA
ATOM     67  O   UNL A   1      42.381  21.349  27.709  1.00  0.00    -0.744 OA
ENDBRANCH  61  64
ENDBRANCH  43  57
BRANCH  44  68
ATOM     68  C   UNL A   1      40.535  32.192  34.996  1.00  0.00     0.023 A 
ATOM     69  C   UNL A   1      41.207  33.419  35.158  1.00  0.00     0.012 A 
ATOM     70  C   UNL A   1      39.462  31.881  35.855  1.00  0.00     0.148 A 
ATOM     71  C   UNL A   1      40.826  34.310  36.164  1.00  0.00     0.002 A 
ATOM     72  C   UNL A   1      39.045  32.800  36.809  1.00  0.00     0.091 A 
ATOM     73  F   UNL A   1      38.848  30.697  35.705  1.00  0.00    -0.205 F 
ATOM     74  C   UNL A   1      39.736  34.009  36.977  1.00  0.00     0.022 A 
BRANCH  72  75
ATOM     75  S   UNL A   1      37.555  32.557  37.785  1.00  0.00     0.127 S 
ATOM     76  O   UNL A   1      37.836  33.365  38.968  1.00  0.00    -0.237 OA
ATOM     77  O   UNL A   1      36.519  33.097  36.903  1.00  0.00    -0.237 OA
ATOM     78  O   UNL A   1      37.462  31.120  38.002  1.00  0.00    -0.744 OA
ENDBRANCH  72  75
ENDBRANCH  44  68
BRANCH  56  79
ATOM     79  C   UNL A   1      45.535  27.395  34.097  1.00  0.00     0.023 A 
ATOM     80  C   UNL A   1      45.335  26.284  34.940  1.00  0.00     0.012 A 
ATOM     81  C   UNL A   1      46.803  28.003  34.037  1.00  0.00     0.148 A 
ATOM     82  C   UNL A   1      46.374  25.804  35.735  1.00  0.00     0.002 A 
ATOM     83  C   UNL A   1      47.847  27.491  34.798  1.00  0.00     0.091 A 
ATOM     84  F   UNL A   1      46.964  29.072  33.243  1.00  0.00    -0.205 F 
ATOM     85  C   UNL A   1      47.631  26.400  35.656  1.00  0.00     0.022 A 
BRANCH  83  86
ATOM     86  S   UNL A   1      49.519  28.137  34.687  1.00  0.00     0.127 S 
ATOM     87  O   UNL A   1      50.233  27.275  35.628  1.00  0.00    -0.237 OA
ATOM     88  O   UNL A   1      49.848  27.908  33.280  1.00  0.00    -0.237 OA
ATOM     89  O   UNL A   1      49.431  29.541  35.064  1.00  0.00    -0.744 OA
ENDBRANCH  83  86
ENDBRANCH  56  79
ENDBRANCH  30  31
ENDBRANCH  23  25
ENDBRANCH  22  23
ENDBRANCH  21  22
ENDBRANCH   1  21
TORSDOF 18
ENDMDL
