MODEL 1
REMARK VINA RESULT:     -13.0      0.000      0.000
REMARK SMILES Cc1ccc(C(=O)N2CCC3(CCC(=O)N(CC(=O)OCCOC(=O)c4ccc(-c5c6nc(c(-c7cccc(S(=O)(=O)[O-])c7F)c7ccc([nH]7)c(-c7cccc(S(=O)(=O)[O-])c7F)c7nc(c(-c8cccc(S(=O)(=O)[O-])c8F)c8ccc5[nH]8)C=C7)C=C6)cc4)C3)CC2)cc1O
REMARK SMILES IDX 21 1 20 2 18 3 19 4 17 5 16 6 6 7 7 8 8 9 9 10 91 11 10 12
REMARK SMILES IDX 90 13 11 14 12 15 89 16 13 17 14 18 15 19 5 20 1 21 2 22
REMARK SMILES IDX 3 23 93 24 4 25 92 26 94 27 22 29 23 30 24 31 25 32 26 33
REMARK SMILES IDX 27 34 88 35 28 36 87 37 29 38 30 39 31 40 81 41 32 42 86 43
REMARK SMILES IDX 80 44 82 45 33 46 85 47 79 48 78 49 34 51 66 52 46 53 65 54
REMARK SMILES IDX 47 55 50 56 64 57 83 58 48 59 49 60 63 62 84 63 51 64 35 65
REMARK SMILES IDX 36 66 44 67 37 68 39 69 45 70 38 71 40 72 41 73 42 74 43 75
REMARK SMILES IDX 67 76 68 77 76 78 69 79 71 80 77 81 70 82 72 83 73 84 74 85
REMARK SMILES IDX 75 86 52 87 53 88 61 89 54 90 56 91 62 92 55 93 57 94 58 95
REMARK SMILES IDX 59 96 60 97
REMARK H PARENT 94 28 82 50 50 61
REMARK Flexibility Score: inf
ROOT
ATOM      1  C   UNL A   1      36.622  21.596  24.458  1.00  0.00     0.274 C 
ENDROOT
BRANCH   1   2
ATOM      2  O   UNL A   1      36.133  22.175  25.678  1.00  0.00    -0.461 OA
BRANCH   2   3
ATOM      3  C   UNL A   1      35.048  21.581  26.229  1.00  0.00     0.325 C 
ATOM      4  O   UNL A   1      34.581  21.856  27.331  1.00  0.00    -0.250 OA
BRANCH   3   5
ATOM      5  C   UNL A   1      34.397  20.535  25.330  1.00  0.00     0.242 C 
BRANCH   5   6
ATOM      6  N   UNL A   1      32.956  20.584  25.090  1.00  0.00    -0.331 N 
ATOM      7  C   UNL A   1      32.848  26.593  22.590  1.00  0.00     0.253 C 
ATOM      8  O   UNL A   1      33.603  26.985  21.704  1.00  0.00    -0.269 OA
ATOM      9  N   UNL A   1      32.459  25.265  22.711  1.00  0.00    -0.339 N 
ATOM     10  C   UNL A   1      33.366  24.222  22.265  1.00  0.00     0.120 C 
ATOM     11  C   UNL A   1      31.105  24.832  23.014  1.00  0.00     0.120 C 
ATOM     12  C   UNL A   1      33.496  23.180  23.380  1.00  0.00     0.030 C 
ATOM     13  C   UNL A   1      31.106  23.743  24.079  1.00  0.00     0.030 C 
ATOM     14  C   UNL A   1      32.129  22.595  23.836  1.00  0.00    -0.008 C 
ATOM     15  C   UNL A   1      31.573  21.591  22.788  1.00  0.00     0.019 C 
ATOM     16  C   UNL A   1      32.276  21.855  25.190  1.00  0.00     0.127 C 
ATOM     17  C   UNL A   1      32.318  20.255  22.782  1.00  0.00     0.101 C 
ATOM     18  C   UNL A   1      32.409  19.686  24.183  1.00  0.00     0.223 C 
ATOM     19  O   UNL A   1      32.051  18.556  24.485  1.00  0.00    -0.275 OA
BRANCH   7  20
ATOM     20  C   UNL A   1      32.471  27.547  23.671  1.00  0.00     0.043 A 
ATOM     21  C   UNL A   1      31.822  30.764  26.486  1.00  0.00     0.048 C 
ATOM     22  C   UNL A   1      32.002  29.632  25.516  1.00  0.00    -0.009 A 
ATOM     23  C   UNL A   1      33.017  28.694  25.743  1.00  0.00     0.008 A 
ATOM     24  C   UNL A   1      31.233  29.509  24.351  1.00  0.00     0.119 A 
ATOM     25  C   UNL A   1      33.260  27.672  24.821  1.00  0.00     0.014 A 
ATOM     26  C   UNL A   1      31.451  28.473  23.442  1.00  0.00     0.060 A 
BRANCH  24  27
ATOM     27  O   UNL A   1      30.260  30.409  24.021  1.00  0.00    -0.508 OA
ATOM     28  H   UNL A   1      30.007  31.071  24.634  1.00  0.00     0.293 HD
ENDBRANCH  24  27
ENDBRANCH   7  20
ENDBRANCH   5   6
ENDBRANCH   3   5
ENDBRANCH   2   3
ENDBRANCH   1   2
BRANCH   1  29
ATOM     29  C   UNL A   1      37.795  20.657  24.739  1.00  0.00     0.275 C 
BRANCH  29  30
ATOM     30  O   UNL A   1      38.195  20.756  26.118  1.00  0.00    -0.458 OA
BRANCH  30  31
ATOM     31  C   UNL A   1      39.530  20.769  26.338  1.00  0.00     0.338 C 
ATOM     32  O   UNL A   1      40.329  19.868  26.166  1.00  0.00    -0.246 OA
BRANCH  31  33
ATOM     33  C   UNL A   1      39.946  22.076  26.856  1.00  0.00     0.060 A 
ATOM     34  C   UNL A   1      39.432  23.243  26.291  1.00  0.00     0.016 A 
ATOM     35  C   UNL A   1      40.975  22.127  27.795  1.00  0.00     0.016 A 
ATOM     36  C   UNL A   1      39.996  24.474  26.623  1.00  0.00     0.010 A 
ATOM     37  C   UNL A   1      41.499  23.365  28.169  1.00  0.00     0.010 A 
ATOM     38  C   UNL A   1      41.037  24.544  27.561  1.00  0.00    -0.014 A 
BRANCH  38  39
ATOM     39  C   UNL A   1      41.648  25.850  27.908  1.00  0.00     0.031 A 
ATOM     40  C   UNL A   1      40.849  26.894  28.640  1.00  0.00     0.074 A 
ATOM     41  C   UNL A   1      42.913  26.108  27.525  1.00  0.00     0.049 A 
ATOM     42  N   UNL A   1      41.185  28.119  28.949  1.00  0.00    -0.248 NA
ATOM     43  C   UNL A   1      39.493  26.517  29.075  1.00  0.00     0.031 C 
ATOM     44  C   UNL A   1      43.773  25.182  26.786  1.00  0.00     0.029 A 
ATOM     45  N   UNL A   1      43.686  27.231  27.680  1.00  0.00    -0.354 N 
ATOM     46  C   UNL A   1      40.071  28.678  29.564  1.00  0.00     0.074 A 
ATOM     47  C   UNL A   1      39.047  27.655  29.594  1.00  0.00     0.031 C 
ATOM     48  C   UNL A   1      44.950  25.777  26.543  1.00  0.00     0.029 A 
ATOM     49  C   UNL A   1      44.916  27.136  27.072  1.00  0.00     0.049 A 
ATOM     50  H   UNL A   1      43.388  28.027  28.177  1.00  0.00     0.167 HD
ATOM     51  C   UNL A   1      39.920  29.925  30.067  1.00  0.00     0.034 A 
ATOM     52  C   UNL A   1      45.897  28.050  26.936  1.00  0.00     0.034 A 
ATOM     53  C   UNL A   1      40.961  30.917  30.093  1.00  0.00     0.049 A 
ATOM     54  C   UNL A   1      45.715  29.411  27.545  1.00  0.00     0.074 A 
ATOM     55  C   UNL A   1      40.927  32.183  30.651  1.00  0.00     0.029 A 
ATOM     56  N   UNL A   1      42.222  30.755  29.543  1.00  0.00    -0.354 N 
ATOM     57  N   UNL A   1      44.700  29.878  28.230  1.00  0.00    -0.248 NA
ATOM     58  C   UNL A   1      46.823  30.364  27.387  1.00  0.00     0.031 C 
ATOM     59  C   UNL A   1      42.169  32.789  30.434  1.00  0.00     0.029 A 
ATOM     60  C   UNL A   1      42.975  31.900  29.742  1.00  0.00     0.049 A 
ATOM     61  H   UNL A   1      42.536  29.946  29.078  1.00  0.00     0.167 HD
ATOM     62  C   UNL A   1      45.051  31.169  28.599  1.00  0.00     0.074 A 
ATOM     63  C   UNL A   1      46.386  31.402  28.087  1.00  0.00     0.031 C 
ATOM     64  C   UNL A   1      44.324  32.091  29.277  1.00  0.00     0.034 A 
BRANCH  51  65
ATOM     65  C   UNL A   1      38.596  30.284  30.684  1.00  0.00     0.023 A 
ATOM     66  C   UNL A   1      38.359  29.979  32.038  1.00  0.00     0.012 A 
ATOM     67  C   UNL A   1      37.628  31.001  29.954  1.00  0.00     0.148 A 
ATOM     68  C   UNL A   1      37.172  30.372  32.656  1.00  0.00     0.002 A 
ATOM     69  C   UNL A   1      36.459  31.416  30.585  1.00  0.00     0.091 A 
ATOM     70  F   UNL A   1      37.863  31.259  28.660  1.00  0.00    -0.205 F 
ATOM     71  C   UNL A   1      36.229  31.099  31.934  1.00  0.00     0.022 A 
BRANCH  69  72
ATOM     72  S   UNL A   1      35.213  32.411  29.757  1.00  0.00     0.127 S 
ATOM     73  O   UNL A   1      34.317  32.744  30.864  1.00  0.00    -0.237 OA
ATOM     74  O   UNL A   1      36.000  33.537  29.251  1.00  0.00    -0.237 OA
ATOM     75  O   UNL A   1      34.641  31.559  28.723  1.00  0.00    -0.744 OA
ENDBRANCH  69  72
ENDBRANCH  51  65
BRANCH  52  76
ATOM     76  C   UNL A   1      47.152  27.678  26.227  1.00  0.00     0.023 A 
ATOM     77  C   UNL A   1      48.181  27.032  26.937  1.00  0.00     0.012 A 
ATOM     78  C   UNL A   1      47.311  27.905  24.847  1.00  0.00     0.148 A 
ATOM     79  C   UNL A   1      49.352  26.634  26.289  1.00  0.00     0.002 A 
ATOM     80  C   UNL A   1      48.454  27.455  24.196  1.00  0.00     0.091 A 
ATOM     81  F   UNL A   1      46.335  28.544  24.185  1.00  0.00    -0.205 F 
ATOM     82  C   UNL A   1      49.482  26.832  24.917  1.00  0.00     0.022 A 
BRANCH  80  83
ATOM     83  S   UNL A   1      48.596  27.551  22.408  1.00  0.00     0.127 S 
ATOM     84  O   UNL A   1      49.870  28.243  22.239  1.00  0.00    -0.237 OA
ATOM     85  O   UNL A   1      48.605  26.142  22.011  1.00  0.00    -0.237 OA
ATOM     86  O   UNL A   1      47.404  28.275  21.985  1.00  0.00    -0.744 OA
ENDBRANCH  80  83
ENDBRANCH  52  76
BRANCH  64  87
ATOM     87  C   UNL A   1      44.955  33.434  29.513  1.00  0.00     0.023 A 
ATOM     88  C   UNL A   1      45.680  33.654  30.699  1.00  0.00     0.012 A 
ATOM     89  C   UNL A   1      44.898  34.447  28.537  1.00  0.00     0.148 A 
ATOM     90  C   UNL A   1      46.322  34.872  30.921  1.00  0.00     0.002 A 
ATOM     91  C   UNL A   1      45.570  35.646  28.749  1.00  0.00     0.091 A 
ATOM     92  F   UNL A   1      44.182  34.228  27.424  1.00  0.00    -0.205 F 
ATOM     93  C   UNL A   1      46.278  35.861  29.942  1.00  0.00     0.022 A 
BRANCH  91  94
ATOM     94  S   UNL A   1      45.623  36.933  27.498  1.00  0.00     0.127 S 
ATOM     95  O   UNL A   1      46.684  37.802  28.006  1.00  0.00    -0.237 OA
ATOM     96  O   UNL A   1      45.973  36.189  26.287  1.00  0.00    -0.237 OA
ATOM     97  O   UNL A   1      44.286  37.510  27.477  1.00  0.00    -0.744 OA
ENDBRANCH  91  94
ENDBRANCH  64  87
ENDBRANCH  38  39
ENDBRANCH  31  33
ENDBRANCH  30  31
ENDBRANCH  29  30
ENDBRANCH   1  29
TORSDOF 17
ENDMDL
MODEL 2
REMARK VINA RESULT:     -12.8      0.912      7.367
REMARK SMILES Cc1ccc(C(=O)N2CCC3(CCC(=O)N(CC(=O)OCCOC(=O)c4ccc(-c5c6nc(c(-c7cccc(S(=O)(=O)[O-])c7F)c7ccc([nH]7)c(-c7cccc(S(=O)(=O)[O-])c7F)c7nc(c(-c8cccc(S(=O)(=O)[O-])c8F)c8ccc5[nH]8)C=C7)C=C6)cc4)C3)CC2)cc1O
REMARK SMILES IDX 21 1 20 2 18 3 19 4 17 5 16 6 6 7 7 8 8 9 9 10 91 11 10 12
REMARK SMILES IDX 90 13 11 14 12 15 89 16 13 17 14 18 15 19 5 20 1 21 2 22
REMARK SMILES IDX 3 23 93 24 4 25 92 26 94 27 22 29 23 30 24 31 25 32 26 33
REMARK SMILES IDX 27 34 88 35 28 36 87 37 29 38 30 39 31 40 81 41 32 42 86 43
REMARK SMILES IDX 80 44 82 45 33 46 85 47 79 48 78 49 34 51 66 52 46 53 65 54
REMARK SMILES IDX 47 55 50 56 64 57 83 58 48 59 49 60 63 62 84 63 51 64 35 65
REMARK SMILES IDX 36 66 44 67 37 68 39 69 45 70 38 71 40 72 41 73 42 74 43 75
REMARK SMILES IDX 67 76 68 77 76 78 69 79 71 80 77 81 70 82 72 83 73 84 74 85
REMARK SMILES IDX 75 86 52 87 53 88 61 89 54 90 56 91 62 92 55 93 57 94 58 95
REMARK SMILES IDX 59 96 60 97
REMARK H PARENT 94 28 82 50 50 61
REMARK Flexibility Score: inf
ROOT
ATOM      1  C   UNL A   1      37.235  20.686  24.700  1.00  0.00     0.274 C 
ENDROOT
BRANCH   1   2
ATOM      2  O   UNL A   1      36.684  21.727  25.524  1.00  0.00    -0.461 OA
BRANCH   2   3
ATOM      3  C   UNL A   1      35.451  21.497  26.032  1.00  0.00     0.325 C 
ATOM      4  O   UNL A   1      34.971  22.079  27.001  1.00  0.00    -0.250 OA
BRANCH   3   5
ATOM      5  C   UNL A   1      34.653  20.451  25.260  1.00  0.00     0.242 C 
BRANCH   5   6
ATOM      6  N   UNL A   1      33.199  20.572  25.172  1.00  0.00    -0.331 N 
ATOM      7  C   UNL A   1      33.137  26.440  22.356  1.00  0.00     0.253 C 
ATOM      8  O   UNL A   1      33.811  26.741  21.374  1.00  0.00    -0.269 OA
ATOM      9  N   UNL A   1      32.694  25.146  22.593  1.00  0.00    -0.339 N 
ATOM     10  C   UNL A   1      33.491  24.030  22.115  1.00  0.00     0.120 C 
ATOM     11  C   UNL A   1      31.360  24.809  23.061  1.00  0.00     0.120 C 
ATOM     12  C   UNL A   1      33.686  23.041  23.268  1.00  0.00     0.030 C 
ATOM     13  C   UNL A   1      31.419  23.777  24.181  1.00  0.00     0.030 C 
ATOM     14  C   UNL A   1      32.348  22.561  23.898  1.00  0.00    -0.008 C 
ATOM     15  C   UNL A   1      31.630  21.538  22.973  1.00  0.00     0.019 C 
ATOM     16  C   UNL A   1      32.602  21.884  25.269  1.00  0.00     0.127 C 
ATOM     17  C   UNL A   1      32.298  20.162  22.966  1.00  0.00     0.101 C 
ATOM     18  C   UNL A   1      32.510  19.662  24.380  1.00  0.00     0.223 C 
ATOM     19  O   UNL A   1      32.128  18.572  24.782  1.00  0.00    -0.275 OA
BRANCH   7  20
ATOM     20  C   UNL A   1      32.931  27.469  23.414  1.00  0.00     0.043 A 
ATOM     21  C   UNL A   1      31.888  29.981  26.775  1.00  0.00     0.048 C 
ATOM     22  C   UNL A   1      32.295  29.128  25.608  1.00  0.00    -0.009 A 
ATOM     23  C   UNL A   1      31.553  29.198  24.421  1.00  0.00     0.008 A 
ATOM     24  C   UNL A   1      33.353  28.213  25.676  1.00  0.00     0.119 A 
ATOM     25  C   UNL A   1      31.857  28.365  23.343  1.00  0.00     0.014 A 
ATOM     26  C   UNL A   1      33.681  27.399  24.591  1.00  0.00     0.060 A 
BRANCH  24  27
ATOM     27  O   UNL A   1      34.093  28.038  26.810  1.00  0.00    -0.508 OA
ATOM     28  H   UNL A   1      34.682  27.312  26.878  1.00  0.00     0.293 HD
ENDBRANCH  24  27
ENDBRANCH   7  20
ENDBRANCH   5   6
ENDBRANCH   3   5
ENDBRANCH   2   3
ENDBRANCH   1   2
BRANCH   1  29
ATOM     29  C   UNL A   1      38.445  20.046  25.380  1.00  0.00     0.275 C 
BRANCH  29  30
ATOM     30  O   UNL A   1      39.500  21.013  25.539  1.00  0.00    -0.458 OA
BRANCH  30  31
ATOM     31  C   UNL A   1      40.108  21.019  26.747  1.00  0.00     0.338 C 
ATOM     32  O   UNL A   1      40.409  20.068  27.442  1.00  0.00    -0.246 OA
BRANCH  31  33
ATOM     33  C   UNL A   1      40.376  22.396  27.172  1.00  0.00     0.060 A 
ATOM     34  C   UNL A   1      39.749  23.460  26.521  1.00  0.00     0.016 A 
ATOM     35  C   UNL A   1      41.380  22.624  28.111  1.00  0.00     0.016 A 
ATOM     36  C   UNL A   1      40.176  24.764  26.767  1.00  0.00     0.010 A 
ATOM     37  C   UNL A   1      41.765  23.934  28.399  1.00  0.00     0.010 A 
ATOM     38  C   UNL A   1      41.190  25.011  27.704  1.00  0.00    -0.014 A 
BRANCH  38  39
ATOM     39  C   UNL A   1      41.655  26.396  27.960  1.00  0.00     0.031 A 
ATOM     40  C   UNL A   1      43.053  26.811  27.591  1.00  0.00     0.074 A 
ATOM     41  C   UNL A   1      40.825  27.268  28.565  1.00  0.00     0.049 A 
ATOM     42  N   UNL A   1      43.660  27.946  27.818  1.00  0.00    -0.248 NA
ATOM     43  C   UNL A   1      43.881  25.820  26.882  1.00  0.00     0.031 C 
ATOM     44  C   UNL A   1      39.458  26.967  28.995  1.00  0.00     0.029 A 
ATOM     45  N   UNL A   1      41.017  28.570  28.948  1.00  0.00    -0.354 N 
ATOM     46  C   UNL A   1      44.953  27.792  27.331  1.00  0.00     0.074 A 
ATOM     47  C   UNL A   1      45.043  26.454  26.787  1.00  0.00     0.031 C 
ATOM     48  C   UNL A   1      38.937  28.051  29.589  1.00  0.00     0.029 A 
ATOM     49  C   UNL A   1      39.943  29.107  29.619  1.00  0.00     0.049 A 
ATOM     50  H   UNL A   1      41.843  29.072  28.760  1.00  0.00     0.167 HD
ATOM     51  C   UNL A   1      45.967  28.689  27.328  1.00  0.00     0.034 A 
ATOM     52  C   UNL A   1      39.795  30.307  30.214  1.00  0.00     0.034 A 
ATOM     53  C   UNL A   1      45.853  30.038  27.811  1.00  0.00     0.049 A 
ATOM     54  C   UNL A   1      40.924  31.296  30.154  1.00  0.00     0.074 A 
ATOM     55  C   UNL A   1      46.803  31.045  27.780  1.00  0.00     0.029 A 
ATOM     56  N   UNL A   1      44.723  30.572  28.408  1.00  0.00    -0.354 N 
ATOM     57  N   UNL A   1      42.096  31.173  29.580  1.00  0.00    -0.248 NA
ATOM     58  C   UNL A   1      40.704  32.599  30.799  1.00  0.00     0.031 C 
ATOM     59  C   UNL A   1      46.247  32.189  28.363  1.00  0.00     0.029 A 
ATOM     60  C   UNL A   1      44.951  31.894  28.755  1.00  0.00     0.049 A 
ATOM     61  H   UNL A   1      43.882  30.085  28.563  1.00  0.00     0.167 HD
ATOM     62  C   UNL A   1      42.747  32.383  29.779  1.00  0.00     0.074 A 
ATOM     63  C   UNL A   1      41.827  33.239  30.500  1.00  0.00     0.031 C 
ATOM     64  C   UNL A   1      44.002  32.747  29.420  1.00  0.00     0.034 A 
BRANCH  51  65
ATOM     65  C   UNL A   1      47.284  28.265  26.737  1.00  0.00     0.023 A 
ATOM     66  C   UNL A   1      48.366  27.983  27.593  1.00  0.00     0.012 A 
ATOM     67  C   UNL A   1      47.423  28.058  25.351  1.00  0.00     0.148 A 
ATOM     68  C   UNL A   1      49.573  27.510  27.077  1.00  0.00     0.002 A 
ATOM     69  C   UNL A   1      48.619  27.559  24.846  1.00  0.00     0.091 A 
ATOM     70  F   UNL A   1      46.388  28.357  24.552  1.00  0.00    -0.205 F 
ATOM     71  C   UNL A   1      49.695  27.288  25.708  1.00  0.00     0.022 A 
BRANCH  69  72
ATOM     72  S   UNL A   1      48.854  27.180  23.106  1.00  0.00     0.127 S 
ATOM     73  O   UNL A   1      48.202  28.322  22.465  1.00  0.00    -0.237 OA
ATOM     74  O   UNL A   1      50.312  27.163  22.985  1.00  0.00    -0.237 OA
ATOM     75  O   UNL A   1      48.213  25.890  22.887  1.00  0.00    -0.744 OA
ENDBRANCH  69  72
ENDBRANCH  51  65
BRANCH  52  76
ATOM     76  C   UNL A   1      38.504  30.644  30.875  1.00  0.00     0.023 A 
ATOM     77  C   UNL A   1      38.336  30.367  32.244  1.00  0.00     0.012 A 
ATOM     78  C   UNL A   1      37.467  31.288  30.174  1.00  0.00     0.148 A 
ATOM     79  C   UNL A   1      37.152  30.710  32.899  1.00  0.00     0.002 A 
ATOM     80  C   UNL A   1      36.313  31.679  30.846  1.00  0.00     0.091 A 
ATOM     81  F   UNL A   1      37.627  31.525  28.864  1.00  0.00    -0.205 F 
ATOM     82  C   UNL A   1      36.147  31.379  32.204  1.00  0.00     0.022 A 
BRANCH  80  83
ATOM     83  S   UNL A   1      35.063  32.677  30.029  1.00  0.00     0.127 S 
ATOM     84  O   UNL A   1      34.144  32.973  31.123  1.00  0.00    -0.237 OA
ATOM     85  O   UNL A   1      35.833  33.825  29.546  1.00  0.00    -0.237 OA
ATOM     86  O   UNL A   1      34.551  31.822  28.964  1.00  0.00    -0.744 OA
ENDBRANCH  80  83
ENDBRANCH  52  76
BRANCH  64  87
ATOM     87  C   UNL A   1      44.457  34.130  29.795  1.00  0.00     0.023 A 
ATOM     88  C   UNL A   1      45.178  34.316  30.989  1.00  0.00     0.012 A 
ATOM     89  C   UNL A   1      44.238  35.225  28.938  1.00  0.00     0.148 A 
ATOM     90  C   UNL A   1      45.659  35.578  31.337  1.00  0.00     0.002 A 
ATOM     91  C   UNL A   1      44.752  36.474  29.273  1.00  0.00     0.091 A 
ATOM     92  F   UNL A   1      43.528  35.033  27.817  1.00  0.00    -0.205 F 
ATOM     93  C   UNL A   1      45.457  36.652  30.474  1.00  0.00     0.022 A 
BRANCH  91  94
ATOM     94  S   UNL A   1      44.599  37.884  28.172  1.00  0.00     0.127 S 
ATOM     95  O   UNL A   1      45.273  37.400  26.969  1.00  0.00    -0.237 OA
ATOM     96  O   UNL A   1      43.149  38.032  28.040  1.00  0.00    -0.237 OA
ATOM     97  O   UNL A   1      45.250  38.989  28.864  1.00  0.00    -0.744 OA
ENDBRANCH  91  94
ENDBRANCH  64  87
ENDBRANCH  38  39
ENDBRANCH  31  33
ENDBRANCH  30  31
ENDBRANCH  29  30
ENDBRANCH   1  29
TORSDOF 17
ENDMDL
MODEL 3
REMARK VINA RESULT:     -12.6      5.028     10.477
REMARK SMILES Cc1ccc(C(=O)N2CCC3(CCC(=O)N(CC(=O)OCCOC(=O)c4ccc(-c5c6nc(c(-c7cccc(S(=O)(=O)[O-])c7F)c7ccc([nH]7)c(-c7cccc(S(=O)(=O)[O-])c7F)c7nc(c(-c8cccc(S(=O)(=O)[O-])c8F)c8ccc5[nH]8)C=C7)C=C6)cc4)C3)CC2)cc1O
REMARK SMILES IDX 21 1 20 2 18 3 19 4 17 5 16 6 6 7 7 8 8 9 9 10 91 11 10 12
REMARK SMILES IDX 90 13 11 14 12 15 89 16 13 17 14 18 15 19 5 20 1 21 2 22
REMARK SMILES IDX 3 23 93 24 4 25 92 26 94 27 22 29 23 30 24 31 25 32 26 33
REMARK SMILES IDX 27 34 88 35 28 36 87 37 29 38 30 39 31 40 81 41 32 42 86 43
REMARK SMILES IDX 80 44 82 45 33 46 85 47 79 48 78 49 34 51 66 52 46 53 65 54
REMARK SMILES IDX 47 55 50 56 64 57 83 58 48 59 49 60 63 62 84 63 51 64 35 65
REMARK SMILES IDX 36 66 44 67 37 68 39 69 45 70 38 71 40 72 41 73 42 74 43 75
REMARK SMILES IDX 67 76 68 77 76 78 69 79 71 80 77 81 70 82 72 83 73 84 74 85
REMARK SMILES IDX 75 86 52 87 53 88 61 89 54 90 56 91 62 92 55 93 57 94 58 95
REMARK SMILES IDX 59 96 60 97
REMARK H PARENT 94 28 82 50 50 61
REMARK Flexibility Score: inf
ROOT
ATOM      1  C   UNL A   1      31.487  30.840  26.292  1.00  0.00     0.274 C 
ENDROOT
BRANCH   1   2
ATOM      2  O   UNL A   1      32.840  30.476  25.971  1.00  0.00    -0.461 OA
BRANCH   2   3
ATOM      3  C   UNL A   1      33.163  29.173  26.134  1.00  0.00     0.325 C 
ATOM      4  O   UNL A   1      34.065  28.758  26.856  1.00  0.00    -0.250 OA
BRANCH   3   5
ATOM      5  C   UNL A   1      32.263  28.215  25.360  1.00  0.00     0.242 C 
BRANCH   5   6
ATOM      6  N   UNL A   1      32.603  27.857  23.984  1.00  0.00    -0.331 N 
ATOM      7  C   UNL A   1      32.501  21.409  24.872  1.00  0.00     0.253 C 
ATOM      8  O   UNL A   1      31.588  20.804  25.426  1.00  0.00    -0.269 OA
ATOM      9  N   UNL A   1      32.302  22.594  24.176  1.00  0.00    -0.339 N 
ATOM     10  C   UNL A   1      31.230  23.482  24.589  1.00  0.00     0.120 C 
ATOM     11  C   UNL A   1      32.917  22.907  22.897  1.00  0.00     0.120 C 
ATOM     12  C   UNL A   1      31.797  24.898  24.729  1.00  0.00     0.030 C 
ATOM     13  C   UNL A   1      33.472  24.325  22.890  1.00  0.00     0.030 C 
ATOM     14  C   UNL A   1      32.498  25.409  23.438  1.00  0.00    -0.008 C 
ATOM     15  C   UNL A   1      31.456  25.796  22.352  1.00  0.00     0.019 C 
ATOM     16  C   UNL A   1      33.368  26.655  23.745  1.00  0.00     0.127 C 
ATOM     17  C   UNL A   1      30.727  27.105  22.657  1.00  0.00     0.101 C 
ATOM     18  C   UNL A   1      31.716  28.208  22.975  1.00  0.00     0.223 C 
ATOM     19  O   UNL A   1      31.728  29.294  22.413  1.00  0.00    -0.275 OA
BRANCH   7  20
ATOM     20  C   UNL A   1      33.898  20.943  25.098  1.00  0.00     0.043 A 
ATOM     21  C   UNL A   1      38.082  19.851  25.108  1.00  0.00     0.048 C 
ATOM     22  C   UNL A   1      36.632  20.237  25.153  1.00  0.00    -0.009 A 
ATOM     23  C   UNL A   1      35.672  19.338  24.668  1.00  0.00     0.008 A 
ATOM     24  C   UNL A   1      36.199  21.490  25.604  1.00  0.00     0.119 A 
ATOM     25  C   UNL A   1      34.322  19.695  24.625  1.00  0.00     0.014 A 
ATOM     26  C   UNL A   1      34.848  21.841  25.592  1.00  0.00     0.060 A 
BRANCH  24  27
ATOM     27  O   UNL A   1      37.069  22.448  26.041  1.00  0.00    -0.508 OA
ATOM     28  H   UNL A   1      36.809  23.349  26.049  1.00  0.00     0.293 HD
ENDBRANCH  24  27
ENDBRANCH   7  20
ENDBRANCH   5   6
ENDBRANCH   3   5
ENDBRANCH   2   3
ENDBRANCH   1   2
BRANCH   1  29
ATOM     29  C   UNL A   1      31.419  32.290  26.771  1.00  0.00     0.275 C 
BRANCH  29  30
ATOM     30  O   UNL A   1      32.705  32.922  26.638  1.00  0.00    -0.458 OA
BRANCH  30  31
ATOM     31  C   UNL A   1      33.165  33.546  27.747  1.00  0.00     0.338 C 
ATOM     32  O   UNL A   1      32.695  34.513  28.315  1.00  0.00    -0.246 OA
BRANCH  31  33
ATOM     33  C   UNL A   1      34.390  32.896  28.223  1.00  0.00     0.060 A 
ATOM     34  C   UNL A   1      34.328  31.616  28.776  1.00  0.00     0.016 A 
ATOM     35  C   UNL A   1      35.569  33.637  28.265  1.00  0.00     0.016 A 
ATOM     36  C   UNL A   1      35.441  31.097  29.434  1.00  0.00     0.010 A 
ATOM     37  C   UNL A   1      36.700  33.091  28.873  1.00  0.00     0.010 A 
ATOM     38  C   UNL A   1      36.635  31.832  29.492  1.00  0.00    -0.014 A 
BRANCH  38  39
ATOM     39  C   UNL A   1      37.818  31.288  30.202  1.00  0.00     0.031 A 
ATOM     40  C   UNL A   1      38.707  30.275  29.534  1.00  0.00     0.074 A 
ATOM     41  C   UNL A   1      38.066  31.680  31.466  1.00  0.00     0.049 A 
ATOM     42  N   UNL A   1      39.729  29.626  30.027  1.00  0.00    -0.248 NA
ATOM     43  C   UNL A   1      38.404  29.938  28.132  1.00  0.00     0.031 C 
ATOM     44  C   UNL A   1      37.256  32.636  32.224  1.00  0.00     0.029 A 
ATOM     45  N   UNL A   1      39.050  31.306  32.344  1.00  0.00    -0.354 N 
ATOM     46  C   UNL A   1      40.159  28.768  29.021  1.00  0.00     0.074 A 
ATOM     47  C   UNL A   1      39.293  28.984  27.882  1.00  0.00     0.031 C 
ATOM     48  C   UNL A   1      37.770  32.765  33.456  1.00  0.00     0.029 A 
ATOM     49  C   UNL A   1      38.919  31.876  33.589  1.00  0.00     0.049 A 
ATOM     50  H   UNL A   1      39.780  30.689  32.107  1.00  0.00     0.167 HD
ATOM     51  C   UNL A   1      41.190  27.891  29.043  1.00  0.00     0.034 A 
ATOM     52  C   UNL A   1      39.630  31.686  34.718  1.00  0.00     0.034 A 
ATOM     53  C   UNL A   1      42.088  27.726  30.154  1.00  0.00     0.049 A 
ATOM     54  C   UNL A   1      40.795  30.738  34.695  1.00  0.00     0.074 A 
ATOM     55  C   UNL A   1      43.207  26.918  30.240  1.00  0.00     0.029 A 
ATOM     56  N   UNL A   1      41.973  28.384  31.368  1.00  0.00    -0.354 N 
ATOM     57  N   UNL A   1      41.260  30.028  33.695  1.00  0.00    -0.248 NA
ATOM     58  C   UNL A   1      41.551  30.582  35.946  1.00  0.00     0.031 C 
ATOM     59  C   UNL A   1      43.769  27.084  31.511  1.00  0.00     0.029 A 
ATOM     60  C   UNL A   1      42.999  27.996  32.214  1.00  0.00     0.049 A 
ATOM     61  H   UNL A   1      41.267  29.031  31.596  1.00  0.00     0.167 HD
ATOM     62  C   UNL A   1      42.369  29.356  34.189  1.00  0.00     0.074 A 
ATOM     63  C   UNL A   1      42.527  29.766  35.570  1.00  0.00     0.031 C 
ATOM     64  C   UNL A   1      43.173  28.460  33.565  1.00  0.00     0.034 A 
BRANCH  51  65
ATOM     65  C   UNL A   1      41.444  27.069  27.809  1.00  0.00     0.023 A 
ATOM     66  C   UNL A   1      42.071  27.666  26.698  1.00  0.00     0.012 A 
ATOM     67  C   UNL A   1      41.150  25.692  27.783  1.00  0.00     0.148 A 
ATOM     68  C   UNL A   1      42.393  26.907  25.573  1.00  0.00     0.002 A 
ATOM     69  C   UNL A   1      41.499  24.934  26.669  1.00  0.00     0.091 A 
ATOM     70  F   UNL A   1      40.530  25.149  28.841  1.00  0.00    -0.205 F 
ATOM     71  C   UNL A   1      42.117  25.542  25.563  1.00  0.00     0.022 A 
BRANCH  69  72
ATOM     72  S   UNL A   1      41.243  23.158  26.587  1.00  0.00     0.127 S 
ATOM     73  O   UNL A   1      41.781  22.723  27.875  1.00  0.00    -0.237 OA
ATOM     74  O   UNL A   1      39.788  23.059  26.469  1.00  0.00    -0.237 OA
ATOM     75  O   UNL A   1      41.978  22.701  25.415  1.00  0.00    -0.744 OA
ENDBRANCH  69  72
ENDBRANCH  51  65
BRANCH  52  76
ATOM     76  C   UNL A   1      39.275  32.450  35.945  1.00  0.00     0.023 A 
ATOM     77  C   UNL A   1      38.405  31.876  36.890  1.00  0.00     0.012 A 
ATOM     78  C   UNL A   1      39.840  33.713  36.212  1.00  0.00     0.148 A 
ATOM     79  C   UNL A   1      38.089  32.552  38.069  1.00  0.00     0.002 A 
ATOM     80  C   UNL A   1      39.566  34.354  37.415  1.00  0.00     0.091 A 
ATOM     81  F   UNL A   1      40.648  34.261  35.294  1.00  0.00    -0.205 F 
ATOM     82  C   UNL A   1      38.680  33.784  38.339  1.00  0.00     0.022 A 
BRANCH  80  83
ATOM     83  S   UNL A   1      40.424  35.866  37.870  1.00  0.00     0.127 S 
ATOM     84  O   UNL A   1      40.024  36.777  36.803  1.00  0.00    -0.237 OA
ATOM     85  O   UNL A   1      39.858  36.173  39.184  1.00  0.00    -0.237 OA
ATOM     86  O   UNL A   1      41.832  35.490  37.908  1.00  0.00    -0.744 OA
ENDBRANCH  80  83
ENDBRANCH  52  76
BRANCH  64  87
ATOM     87  C   UNL A   1      44.297  27.863  34.364  1.00  0.00     0.023 A 
ATOM     88  C   UNL A   1      45.530  28.541  34.427  1.00  0.00     0.012 A 
ATOM     89  C   UNL A   1      44.114  26.683  35.108  1.00  0.00     0.148 A 
ATOM     90  C   UNL A   1      46.574  28.039  35.204  1.00  0.00     0.002 A 
ATOM     91  C   UNL A   1      45.148  26.208  35.909  1.00  0.00     0.091 A 
ATOM     92  F   UNL A   1      42.942  26.039  35.017  1.00  0.00    -0.205 F 
ATOM     93  C   UNL A   1      46.379  26.882  35.953  1.00  0.00     0.022 A 
BRANCH  91  94
ATOM     94  S   UNL A   1      44.941  24.769  36.964  1.00  0.00     0.127 S 
ATOM     95  O   UNL A   1      44.518  23.751  36.003  1.00  0.00    -0.237 OA
ATOM     96  O   UNL A   1      46.287  24.573  37.505  1.00  0.00    -0.237 OA
ATOM     97  O   UNL A   1      43.949  25.154  37.958  1.00  0.00    -0.744 OA
ENDBRANCH  91  94
ENDBRANCH  64  87
ENDBRANCH  38  39
ENDBRANCH  31  33
ENDBRANCH  30  31
ENDBRANCH  29  30
ENDBRANCH   1  29
TORSDOF 17
ENDMDL
