MODEL 1
REMARK VINA RESULT:     -12.1      0.000      0.000
REMARK SMILES O=C(/C=C/c1ccc(O)cc1)NC[C@@H]1CC[C@H](C(=O)OCCOC(=O)c2ccc(-c3c4nc(c(-c5cccc(S(=O)(=O)[O-])c5F)c5ccc([nH]5)c(-c5cccc(S(=O)(=O)[O-])c5F)c5nc(c(-c6cccc(S(=O)(=O)[O-])c6F)c6ccc3[nH]6)C=C5)C=C4)cc2)O1
REMARK SMILES IDX 21 1 20 2 18 3 19 4 17 5 14 6 15 7 89 8 16 9 13 10 12 11
REMARK SMILES IDX 1 12 2 13 3 15 4 16 5 17 6 18 11 19 7 20 10 21 8 22 9 23
REMARK SMILES IDX 22 25 23 26 24 27 25 28 26 29 27 30 88 31 28 32 87 33 29 34
REMARK SMILES IDX 30 35 31 36 81 37 32 38 86 39 80 40 82 41 33 42 85 43 79 44
REMARK SMILES IDX 78 45 34 47 66 48 46 49 65 50 47 51 50 52 64 53 83 54 48 55
REMARK SMILES IDX 49 56 63 58 84 59 51 60 35 61 36 62 44 63 37 64 39 65 45 66
REMARK SMILES IDX 38 67 40 68 41 69 42 70 43 71 67 72 68 73 76 74 69 75 71 76
REMARK SMILES IDX 77 77 70 78 72 79 73 80 74 81 75 82 52 83 53 84 61 85 54 86
REMARK SMILES IDX 56 87 62 88 55 89 57 90 58 91 59 92 60 93
REMARK H PARENT 12 14 9 24 82 46 50 57
REMARK Flexibility Score: inf
ROOT
ATOM      1  C   UNL A   1      36.067  22.670  23.911  1.00  0.00     0.274 C 
ENDROOT
BRANCH   1   2
ATOM      2  O   UNL A   1      35.072  23.390  24.661  1.00  0.00    -0.460 OA
BRANCH   2   3
ATOM      3  C   UNL A   1      34.529  24.491  24.076  1.00  0.00     0.335 C 
ATOM      4  O   UNL A   1      34.481  24.682  22.866  1.00  0.00    -0.249 OA
BRANCH   3   5
ATOM      5  C   UNL A   1      33.980  25.499  25.106  1.00  0.00     0.228 C 
ATOM      6  C   UNL A   1      31.654  25.496  25.216  1.00  0.00     0.138 C 
ATOM      7  C   UNL A   1      32.082  26.529  24.176  1.00  0.00     0.037 C 
ATOM      8  O   UNL A   1      32.852  24.971  25.815  1.00  0.00    -0.361 OA
ATOM      9  C   UNL A   1      33.510  26.832  24.555  1.00  0.00     0.047 C 
BRANCH   6  10
ATOM     10  C   UNL A   1      30.830  24.322  24.672  1.00  0.00     0.148 C 
BRANCH  10  11
ATOM     11  N   UNL A   1      31.410  23.030  24.974  1.00  0.00    -0.350 N 
ATOM     12  O   UNL A   1      32.018  22.558  22.806  1.00  0.00    -0.270 OA
ATOM     13  C   UNL A   1      31.895  22.224  23.978  1.00  0.00     0.244 C 
ATOM     14  H   UNL A   1      31.456  22.726  25.909  1.00  0.00     0.163 HD
BRANCH  13  15
ATOM     15  C   UNL A   1      32.309  20.866  24.392  1.00  0.00     0.072 C 
ATOM     16  C   UNL A   1      32.275  19.791  23.589  1.00  0.00     0.014 C 
BRANCH  16  17
ATOM     17  C   UNL A   1      32.800  18.481  23.992  1.00  0.00    -0.025 A 
ATOM     18  C   UNL A   1      33.568  17.685  23.132  1.00  0.00     0.012 A 
ATOM     19  C   UNL A   1      32.547  18.024  25.293  1.00  0.00     0.012 A 
ATOM     20  C   UNL A   1      34.046  16.441  23.549  1.00  0.00     0.047 A 
ATOM     21  C   UNL A   1      33.025  16.781  25.713  1.00  0.00     0.047 A 
ATOM     22  C   UNL A   1      33.765  15.997  24.836  1.00  0.00     0.115 A 
BRANCH  22  23
ATOM     23  O   UNL A   1      34.204  14.786  25.281  1.00  0.00    -0.508 OA
ATOM     24  H   UNL A   1      35.119  14.584  25.261  1.00  0.00     0.293 HD
ENDBRANCH  22  23
ENDBRANCH  16  17
ENDBRANCH  13  15
ENDBRANCH  10  11
ENDBRANCH   6  10
ENDBRANCH   3   5
ENDBRANCH   2   3
ENDBRANCH   1   2
BRANCH   1  25
ATOM     25  C   UNL A   1      36.401  21.347  24.603  1.00  0.00     0.275 C 
BRANCH  25  26
ATOM     26  O   UNL A   1      37.059  21.575  25.863  1.00  0.00    -0.458 OA
BRANCH  26  27
ATOM     27  C   UNL A   1      38.391  21.342  25.863  1.00  0.00     0.338 C 
ATOM     28  O   UNL A   1      38.984  20.399  25.367  1.00  0.00    -0.246 OA
BRANCH  27  29
ATOM     29  C   UNL A   1      39.086  22.493  26.453  1.00  0.00     0.060 A 
ATOM     30  C   UNL A   1      38.599  23.769  26.168  1.00  0.00     0.016 A 
ATOM     31  C   UNL A   1      40.256  22.326  27.192  1.00  0.00     0.016 A 
ATOM     32  C   UNL A   1      39.290  24.895  26.602  1.00  0.00     0.010 A 
ATOM     33  C   UNL A   1      40.940  23.459  27.646  1.00  0.00     0.010 A 
ATOM     34  C   UNL A   1      40.471  24.749  27.339  1.00  0.00    -0.014 A 
BRANCH  34  35
ATOM     35  C   UNL A   1      41.230  25.950  27.760  1.00  0.00     0.031 A 
ATOM     36  C   UNL A   1      40.556  27.013  28.580  1.00  0.00     0.074 A 
ATOM     37  C   UNL A   1      42.519  26.083  27.398  1.00  0.00     0.049 A 
ATOM     38  N   UNL A   1      41.017  28.174  28.963  1.00  0.00    -0.248 NA
ATOM     39  C   UNL A   1      39.180  26.735  29.023  1.00  0.00     0.031 C 
ATOM     40  C   UNL A   1      43.281  25.108  26.617  1.00  0.00     0.029 A 
ATOM     41  N   UNL A   1      43.410  27.103  27.621  1.00  0.00    -0.354 N 
ATOM     42  C   UNL A   1      39.978  28.786  29.652  1.00  0.00     0.074 A 
ATOM     43  C   UNL A   1      38.861  27.866  29.638  1.00  0.00     0.031 C 
ATOM     44  C   UNL A   1      44.521  25.583  26.413  1.00  0.00     0.029 A 
ATOM     45  C   UNL A   1      44.626  26.909  27.012  1.00  0.00     0.049 A 
ATOM     46  H   UNL A   1      43.198  27.895  28.165  1.00  0.00     0.167 HD
ATOM     47  C   UNL A   1      39.962  29.999  30.253  1.00  0.00     0.034 A 
ATOM     48  C   UNL A   1      45.697  27.723  26.922  1.00  0.00     0.034 A 
ATOM     49  C   UNL A   1      41.091  30.889  30.303  1.00  0.00     0.049 A 
ATOM     50  C   UNL A   1      45.650  29.068  27.592  1.00  0.00     0.074 A 
ATOM     51  C   UNL A   1      41.186  32.123  30.921  1.00  0.00     0.029 A 
ATOM     52  N   UNL A   1      42.322  30.640  29.714  1.00  0.00    -0.354 N 
ATOM     53  N   UNL A   1      44.689  29.598  28.311  1.00  0.00    -0.248 NA
ATOM     54  C   UNL A   1      46.839  29.921  27.457  1.00  0.00     0.031 C 
ATOM     55  C   UNL A   1      42.475  32.624  30.699  1.00  0.00     0.029 A 
ATOM     56  C   UNL A   1      43.182  31.697  29.950  1.00  0.00     0.049 A 
ATOM     57  H   UNL A   1      42.549  29.829  29.204  1.00  0.00     0.167 HD
ATOM     58  C   UNL A   1      45.164  30.834  28.732  1.00  0.00     0.074 A 
ATOM     59  C   UNL A   1      46.509  30.963  28.209  1.00  0.00     0.031 C 
ATOM     60  C   UNL A   1      44.537  31.784  29.467  1.00  0.00     0.034 A 
BRANCH  47  61
ATOM     61  C   UNL A   1      38.691  30.423  30.936  1.00  0.00     0.023 A 
ATOM     62  C   UNL A   1      38.518  30.152  32.308  1.00  0.00     0.012 A 
ATOM     63  C   UNL A   1      37.693  31.133  30.239  1.00  0.00     0.148 A 
ATOM     64  C   UNL A   1      37.362  30.561  32.971  1.00  0.00     0.002 A 
ATOM     65  C   UNL A   1      36.559  31.567  30.916  1.00  0.00     0.091 A 
ATOM     66  F   UNL A   1      37.863  31.356  28.929  1.00  0.00    -0.205 F 
ATOM     67  C   UNL A   1      36.388  31.276  32.279  1.00  0.00     0.022 A 
BRANCH  65  68
ATOM     68  S   UNL A   1      35.283  32.551  30.120  1.00  0.00     0.127 S 
ATOM     69  O   UNL A   1      34.801  31.632  29.090  1.00  0.00    -0.237 OA
ATOM     70  O   UNL A   1      34.341  32.785  31.216  1.00  0.00    -0.237 OA
ATOM     71  O   UNL A   1      35.951  33.750  29.633  1.00  0.00    -0.744 OA
ENDBRANCH  65  68
ENDBRANCH  47  61
BRANCH  48  72
ATOM     72  C   UNL A   1      46.915  27.265  26.195  1.00  0.00     0.023 A 
ATOM     73  C   UNL A   1      47.797  26.367  26.825  1.00  0.00     0.012 A 
ATOM     74  C   UNL A   1      47.178  27.675  24.873  1.00  0.00     0.148 A 
ATOM     75  C   UNL A   1      48.930  25.900  26.159  1.00  0.00     0.002 A 
ATOM     76  C   UNL A   1      48.280  27.164  24.196  1.00  0.00     0.091 A 
ATOM     77  F   UNL A   1      46.341  28.550  24.298  1.00  0.00    -0.205 F 
ATOM     78  C   UNL A   1      49.164  26.286  24.841  1.00  0.00     0.022 A 
BRANCH  76  79
ATOM     79  S   UNL A   1      48.573  27.510  22.458  1.00  0.00     0.127 S 
ATOM     80  O   UNL A   1      48.641  26.166  21.892  1.00  0.00    -0.237 OA
ATOM     81  O   UNL A   1      47.380  28.273  22.089  1.00  0.00    -0.237 OA
ATOM     82  O   UNL A   1      49.808  28.282  22.422  1.00  0.00    -0.744 OA
ENDBRANCH  76  79
ENDBRANCH  48  72
BRANCH  60  83
ATOM     83  C   UNL A   1      45.300  33.046  29.767  1.00  0.00     0.023 A 
ATOM     84  C   UNL A   1      46.125  33.101  30.908  1.00  0.00     0.012 A 
ATOM     85  C   UNL A   1      45.262  34.143  28.884  1.00  0.00     0.148 A 
ATOM     86  C   UNL A   1      46.885  34.239  31.177  1.00  0.00     0.002 A 
ATOM     87  C   UNL A   1      46.053  35.257  29.138  1.00  0.00     0.091 A 
ATOM     88  F   UNL A   1      44.453  34.078  27.817  1.00  0.00    -0.205 F 
ATOM     89  C   UNL A   1      46.859  35.310  30.287  1.00  0.00     0.022 A 
BRANCH  87  90
ATOM     90  S   UNL A   1      46.145  36.644  27.998  1.00  0.00     0.127 S 
ATOM     91  O   UNL A   1      47.108  37.517  28.667  1.00  0.00    -0.237 OA
ATOM     92  O   UNL A   1      46.641  36.013  26.774  1.00  0.00    -0.237 OA
ATOM     93  O   UNL A   1      44.787  37.163  27.897  1.00  0.00    -0.744 OA
ENDBRANCH  87  90
ENDBRANCH  60  83
ENDBRANCH  34  35
ENDBRANCH  27  29
ENDBRANCH  26  27
ENDBRANCH  25  26
ENDBRANCH   1  25
TORSDOF 19
ENDMDL
MODEL 2
REMARK VINA RESULT:     -11.9      2.588      5.071
REMARK SMILES O=C(/C=C/c1ccc(O)cc1)NC[C@@H]1CC[C@H](C(=O)OCCOC(=O)c2ccc(-c3c4nc(c(-c5cccc(S(=O)(=O)[O-])c5F)c5ccc([nH]5)c(-c5cccc(S(=O)(=O)[O-])c5F)c5nc(c(-c6cccc(S(=O)(=O)[O-])c6F)c6ccc3[nH]6)C=C5)C=C4)cc2)O1
REMARK SMILES IDX 21 1 20 2 18 3 19 4 17 5 14 6 15 7 89 8 16 9 13 10 12 11
REMARK SMILES IDX 1 12 2 13 3 15 4 16 5 17 6 18 11 19 7 20 10 21 8 22 9 23
REMARK SMILES IDX 22 25 23 26 24 27 25 28 26 29 27 30 88 31 28 32 87 33 29 34
REMARK SMILES IDX 30 35 31 36 81 37 32 38 86 39 80 40 82 41 33 42 85 43 79 44
REMARK SMILES IDX 78 45 34 47 66 48 46 49 65 50 47 51 50 52 64 53 83 54 48 55
REMARK SMILES IDX 49 56 63 58 84 59 51 60 35 61 36 62 44 63 37 64 39 65 45 66
REMARK SMILES IDX 38 67 40 68 41 69 42 70 43 71 67 72 68 73 76 74 69 75 71 76
REMARK SMILES IDX 77 77 70 78 72 79 73 80 74 81 75 82 52 83 53 84 61 85 54 86
REMARK SMILES IDX 56 87 62 88 55 89 57 90 58 91 59 92 60 93
REMARK H PARENT 12 14 9 24 82 46 50 57
REMARK Flexibility Score: inf
ROOT
ATOM      1  C   UNL A   1      35.066  20.889  24.618  1.00  0.00     0.274 C 
ENDROOT
BRANCH   1   2
ATOM      2  O   UNL A   1      34.234  20.979  25.789  1.00  0.00    -0.460 OA
BRANCH   2   3
ATOM      3  C   UNL A   1      33.131  21.771  25.708  1.00  0.00     0.335 C 
ATOM      4  O   UNL A   1      32.135  21.508  25.046  1.00  0.00    -0.249 OA
BRANCH   3   5
ATOM      5  C   UNL A   1      33.267  23.063  26.540  1.00  0.00     0.228 C 
ATOM      6  C   UNL A   1      32.973  24.989  25.266  1.00  0.00     0.138 C 
ATOM      7  C   UNL A   1      34.458  24.632  25.258  1.00  0.00     0.037 C 
ATOM      8  O   UNL A   1      32.314  24.054  26.138  1.00  0.00    -0.361 OA
ATOM      9  C   UNL A   1      34.612  23.761  26.480  1.00  0.00     0.047 C 
BRANCH   6  10
ATOM     10  C   UNL A   1      32.283  24.943  23.896  1.00  0.00     0.148 C 
BRANCH  10  11
ATOM     11  N   UNL A   1      31.807  26.237  23.455  1.00  0.00    -0.350 N 
ATOM     12  O   UNL A   1      29.756  26.072  24.485  1.00  0.00    -0.270 OA
ATOM     13  C   UNL A   1      30.533  26.655  23.740  1.00  0.00     0.244 C 
ATOM     14  H   UNL A   1      32.407  26.825  22.942  1.00  0.00     0.163 HD
BRANCH  13  15
ATOM     15  C   UNL A   1      30.111  27.917  23.096  1.00  0.00     0.072 C 
ATOM     16  C   UNL A   1      28.989  28.585  23.410  1.00  0.00     0.014 C 
BRANCH  16  17
ATOM     17  C   UNL A   1      28.655  29.893  22.835  1.00  0.00    -0.025 A 
ATOM     18  C   UNL A   1      28.664  31.069  23.597  1.00  0.00     0.012 A 
ATOM     19  C   UNL A   1      28.346  29.971  21.471  1.00  0.00     0.012 A 
ATOM     20  C   UNL A   1      28.334  32.296  23.017  1.00  0.00     0.047 A 
ATOM     21  C   UNL A   1      28.019  31.198  20.888  1.00  0.00     0.047 A 
ATOM     22  C   UNL A   1      28.009  32.348  21.666  1.00  0.00     0.115 A 
BRANCH  22  23
ATOM     23  O   UNL A   1      27.674  33.523  21.062  1.00  0.00    -0.508 OA
ATOM     24  H   UNL A   1      28.103  34.318  21.313  1.00  0.00     0.293 HD
ENDBRANCH  22  23
ENDBRANCH  16  17
ENDBRANCH  13  15
ENDBRANCH  10  11
ENDBRANCH   6  10
ENDBRANCH   3   5
ENDBRANCH   2   3
ENDBRANCH   1   2
BRANCH   1  25
ATOM     25  C   UNL A   1      36.468  20.409  24.998  1.00  0.00     0.275 C 
BRANCH  25  26
ATOM     26  O   UNL A   1      37.203  21.444  25.675  1.00  0.00    -0.458 OA
BRANCH  26  27
ATOM     27  C   UNL A   1      38.507  21.165  25.903  1.00  0.00     0.338 C 
ATOM     28  O   UNL A   1      39.114  20.148  25.613  1.00  0.00    -0.246 OA
BRANCH  27  29
ATOM     29  C   UNL A   1      39.169  22.352  26.456  1.00  0.00     0.060 A 
ATOM     30  C   UNL A   1      38.690  23.607  26.077  1.00  0.00     0.016 A 
ATOM     31  C   UNL A   1      40.305  22.236  27.255  1.00  0.00     0.016 A 
ATOM     32  C   UNL A   1      39.355  24.760  26.477  1.00  0.00     0.010 A 
ATOM     33  C   UNL A   1      40.962  23.398  27.674  1.00  0.00     0.010 A 
ATOM     34  C   UNL A   1      40.502  24.664  27.273  1.00  0.00    -0.014 A 
BRANCH  34  35
ATOM     35  C   UNL A   1      41.236  25.893  27.658  1.00  0.00     0.031 A 
ATOM     36  C   UNL A   1      40.542  26.961  28.454  1.00  0.00     0.074 A 
ATOM     37  C   UNL A   1      42.519  26.047  27.285  1.00  0.00     0.049 A 
ATOM     38  N   UNL A   1      40.979  28.142  28.805  1.00  0.00    -0.248 NA
ATOM     39  C   UNL A   1      39.175  26.664  28.913  1.00  0.00     0.031 C 
ATOM     40  C   UNL A   1      43.299  25.069  26.524  1.00  0.00     0.029 A 
ATOM     41  N   UNL A   1      43.388  27.091  27.476  1.00  0.00    -0.354 N 
ATOM     42  C   UNL A   1      39.930  28.748  29.484  1.00  0.00     0.074 A 
ATOM     43  C   UNL A   1      38.834  27.803  29.501  1.00  0.00     0.031 C 
ATOM     44  C   UNL A   1      44.526  25.566  26.301  1.00  0.00     0.029 A 
ATOM     45  C   UNL A   1      44.605  26.910  26.864  1.00  0.00     0.049 A 
ATOM     46  H   UNL A   1      43.161  27.893  28.001  1.00  0.00     0.167 HD
ATOM     47  C   UNL A   1      39.890  29.976  30.053  1.00  0.00     0.034 A 
ATOM     48  C   UNL A   1      45.657  27.745  26.746  1.00  0.00     0.034 A 
ATOM     49  C   UNL A   1      40.998  30.893  30.074  1.00  0.00     0.049 A 
ATOM     50  C   UNL A   1      45.582  29.106  27.382  1.00  0.00     0.074 A 
ATOM     51  C   UNL A   1      41.068  32.144  30.659  1.00  0.00     0.029 A 
ATOM     52  N   UNL A   1      42.230  30.656  29.483  1.00  0.00    -0.354 N 
ATOM     53  N   UNL A   1      44.613  29.632  28.093  1.00  0.00    -0.248 NA
ATOM     54  C   UNL A   1      46.750  29.982  27.218  1.00  0.00     0.031 C 
ATOM     55  C   UNL A   1      42.343  32.668  30.416  1.00  0.00     0.029 A 
ATOM     56  C   UNL A   1      43.068  31.739  29.687  1.00  0.00     0.049 A 
ATOM     57  H   UNL A   1      42.473  29.838  28.993  1.00  0.00     0.167 HD
ATOM     58  C   UNL A   1      45.062  30.889  28.480  1.00  0.00     0.074 A 
ATOM     59  C   UNL A   1      46.401  31.035  27.945  1.00  0.00     0.031 C 
ATOM     60  C   UNL A   1      44.418  31.844  29.194  1.00  0.00     0.034 A 
BRANCH  47  61
ATOM     61  C   UNL A   1      38.613  30.388  30.733  1.00  0.00     0.023 A 
ATOM     62  C   UNL A   1      38.433  30.103  32.102  1.00  0.00     0.012 A 
ATOM     63  C   UNL A   1      37.617  31.102  30.038  1.00  0.00     0.148 A 
ATOM     64  C   UNL A   1      37.272  30.501  32.762  1.00  0.00     0.002 A 
ATOM     65  C   UNL A   1      36.476  31.525  30.712  1.00  0.00     0.091 A 
ATOM     66  F   UNL A   1      37.793  31.338  28.730  1.00  0.00    -0.205 F 
ATOM     67  C   UNL A   1      36.299  31.219  32.072  1.00  0.00     0.022 A 
BRANCH  65  68
ATOM     68  S   UNL A   1      35.201  32.511  29.919  1.00  0.00     0.127 S 
ATOM     69  O   UNL A   1      34.252  32.703  31.014  1.00  0.00    -0.237 OA
ATOM     70  O   UNL A   1      35.936  33.717  29.532  1.00  0.00    -0.237 OA
ATOM     71  O   UNL A   1      34.719  31.714  28.800  1.00  0.00    -0.744 OA
ENDBRANCH  65  68
ENDBRANCH  47  61
BRANCH  48  72
ATOM     72  C   UNL A   1      46.880  27.296  26.025  1.00  0.00     0.023 A 
ATOM     73  C   UNL A   1      47.015  27.581  24.653  1.00  0.00     0.012 A 
ATOM     74  C   UNL A   1      47.926  26.632  26.696  1.00  0.00     0.148 A 
ATOM     75  C   UNL A   1      48.162  27.197  23.958  1.00  0.00     0.002 A 
ATOM     76  C   UNL A   1      49.089  26.301  26.010  1.00  0.00     0.091 A 
ATOM     77  F   UNL A   1      47.769  26.347  27.996  1.00  0.00    -0.205 F 
ATOM     78  C   UNL A   1      49.204  26.571  24.638  1.00  0.00     0.022 A 
BRANCH  76  79
ATOM     79  S   UNL A   1      50.523  25.614  26.845  1.00  0.00     0.127 S 
ATOM     80  O   UNL A   1      49.965  24.416  27.464  1.00  0.00    -0.237 OA
ATOM     81  O   UNL A   1      51.438  25.360  25.730  1.00  0.00    -0.237 OA
ATOM     82  O   UNL A   1      50.973  26.655  27.758  1.00  0.00    -0.744 OA
ENDBRANCH  76  79
ENDBRANCH  48  72
BRANCH  60  83
ATOM     83  C   UNL A   1      45.153  33.130  29.456  1.00  0.00     0.023 A 
ATOM     84  C   UNL A   1      45.967  33.240  30.601  1.00  0.00     0.012 A 
ATOM     85  C   UNL A   1      45.101  34.195  28.536  1.00  0.00     0.148 A 
ATOM     86  C   UNL A   1      46.702  34.401  30.836  1.00  0.00     0.002 A 
ATOM     87  C   UNL A   1      45.869  35.332  28.757  1.00  0.00     0.091 A 
ATOM     88  F   UNL A   1      44.303  34.078  27.465  1.00  0.00    -0.205 F 
ATOM     89  C   UNL A   1      46.663  35.441  29.910  1.00  0.00     0.022 A 
BRANCH  87  90
ATOM     90  S   UNL A   1      45.943  36.681  27.572  1.00  0.00     0.127 S 
ATOM     91  O   UNL A   1      44.672  37.363  27.814  1.00  0.00    -0.237 OA
ATOM     92  O   UNL A   1      47.126  37.422  28.012  1.00  0.00    -0.237 OA
ATOM     93  O   UNL A   1      46.082  36.052  26.265  1.00  0.00    -0.744 OA
ENDBRANCH  87  90
ENDBRANCH  60  83
ENDBRANCH  34  35
ENDBRANCH  27  29
ENDBRANCH  26  27
ENDBRANCH  25  26
ENDBRANCH   1  25
TORSDOF 19
ENDMDL
MODEL 3
REMARK VINA RESULT:     -11.9      5.068      9.520
REMARK SMILES O=C(/C=C/c1ccc(O)cc1)NC[C@@H]1CC[C@H](C(=O)OCCOC(=O)c2ccc(-c3c4nc(c(-c5cccc(S(=O)(=O)[O-])c5F)c5ccc([nH]5)c(-c5cccc(S(=O)(=O)[O-])c5F)c5nc(c(-c6cccc(S(=O)(=O)[O-])c6F)c6ccc3[nH]6)C=C5)C=C4)cc2)O1
REMARK SMILES IDX 21 1 20 2 18 3 19 4 17 5 14 6 15 7 89 8 16 9 13 10 12 11
REMARK SMILES IDX 1 12 2 13 3 15 4 16 5 17 6 18 11 19 7 20 10 21 8 22 9 23
REMARK SMILES IDX 22 25 23 26 24 27 25 28 26 29 27 30 88 31 28 32 87 33 29 34
REMARK SMILES IDX 30 35 31 36 81 37 32 38 86 39 80 40 82 41 33 42 85 43 79 44
REMARK SMILES IDX 78 45 34 47 66 48 46 49 65 50 47 51 50 52 64 53 83 54 48 55
REMARK SMILES IDX 49 56 63 58 84 59 51 60 35 61 36 62 44 63 37 64 39 65 45 66
REMARK SMILES IDX 38 67 40 68 41 69 42 70 43 71 67 72 68 73 76 74 69 75 71 76
REMARK SMILES IDX 77 77 70 78 72 79 73 80 74 81 75 82 52 83 53 84 61 85 54 86
REMARK SMILES IDX 56 87 62 88 55 89 57 90 58 91 59 92 60 93
REMARK H PARENT 12 14 9 24 82 46 50 57
REMARK Flexibility Score: inf
ROOT
ATOM      1  C   UNL A   1      31.708  28.233  26.306  1.00  0.00     0.274 C 
ENDROOT
BRANCH   1   2
ATOM      2  O   UNL A   1      31.023  27.438  25.320  1.00  0.00    -0.460 OA
BRANCH   2   3
ATOM      3  C   UNL A   1      31.406  26.140  25.193  1.00  0.00     0.335 C 
ATOM      4  O   UNL A   1      31.901  25.471  26.093  1.00  0.00    -0.249 OA
BRANCH   3   5
ATOM      5  C   UNL A   1      31.161  25.585  23.775  1.00  0.00     0.228 C 
ATOM      6  C   UNL A   1      33.060  24.605  22.852  1.00  0.00     0.138 C 
ATOM      7  C   UNL A   1      33.048  26.082  22.463  1.00  0.00     0.037 C 
ATOM      8  O   UNL A   1      31.841  24.341  23.568  1.00  0.00    -0.361 OA
ATOM      9  C   UNL A   1      31.600  26.471  22.624  1.00  0.00     0.047 C 
BRANCH   6  10
ATOM     10  C   UNL A   1      34.241  24.169  23.729  1.00  0.00     0.148 C 
BRANCH  10  11
ATOM     11  N   UNL A   1      34.116  22.813  24.220  1.00  0.00    -0.350 N 
ATOM     12  O   UNL A   1      36.347  22.564  24.726  1.00  0.00    -0.270 OA
ATOM     13  C   UNL A   1      35.219  22.101  24.614  1.00  0.00     0.244 C 
ATOM     14  H   UNL A   1      33.226  22.396  24.272  1.00  0.00     0.163 HD
BRANCH  13  15
ATOM     15  C   UNL A   1      34.984  20.677  24.938  1.00  0.00     0.072 C 
ATOM     16  C   UNL A   1      33.903  19.985  24.549  1.00  0.00     0.014 C 
BRANCH  16  17
ATOM     17  C   UNL A   1      33.753  18.544  24.787  1.00  0.00    -0.025 A 
ATOM     18  C   UNL A   1      32.643  18.007  25.452  1.00  0.00     0.012 A 
ATOM     19  C   UNL A   1      34.742  17.675  24.307  1.00  0.00     0.012 A 
ATOM     20  C   UNL A   1      32.537  16.631  25.667  1.00  0.00     0.047 A 
ATOM     21  C   UNL A   1      34.637  16.298  24.517  1.00  0.00     0.047 A 
ATOM     22  C   UNL A   1      33.541  15.788  25.201  1.00  0.00     0.115 A 
BRANCH  22  23
ATOM     23  O   UNL A   1      33.482  14.440  25.395  1.00  0.00    -0.508 OA
ATOM     24  H   UNL A   1      34.161  14.006  25.873  1.00  0.00     0.293 HD
ENDBRANCH  22  23
ENDBRANCH  16  17
ENDBRANCH  13  15
ENDBRANCH  10  11
ENDBRANCH   6  10
ENDBRANCH   3   5
ENDBRANCH   2   3
ENDBRANCH   1   2
BRANCH   1  25
ATOM     25  C   UNL A   1      31.673  29.711  25.915  1.00  0.00     0.275 C 
BRANCH  25  26
ATOM     26  O   UNL A   1      32.998  30.272  25.894  1.00  0.00    -0.458 OA
BRANCH  26  27
ATOM     27  C   UNL A   1      33.240  31.205  26.843  1.00  0.00     0.338 C 
ATOM     28  O   UNL A   1      32.488  32.081  27.238  1.00  0.00    -0.246 OA
BRANCH  27  29
ATOM     29  C   UNL A   1      34.542  30.939  27.467  1.00  0.00     0.060 A 
ATOM     30  C   UNL A   1      34.857  29.619  27.790  1.00  0.00     0.016 A 
ATOM     31  C   UNL A   1      35.397  31.982  27.819  1.00  0.00     0.016 A 
ATOM     32  C   UNL A   1      36.023  29.329  28.489  1.00  0.00     0.010 A 
ATOM     33  C   UNL A   1      36.580  31.687  28.504  1.00  0.00     0.010 A 
ATOM     34  C   UNL A   1      36.891  30.362  28.858  1.00  0.00    -0.014 A 
BRANCH  34  35
ATOM     35  C   UNL A   1      38.110  30.055  29.644  1.00  0.00     0.031 A 
ATOM     36  C   UNL A   1      39.149  29.127  29.083  1.00  0.00     0.074 A 
ATOM     37  C   UNL A   1      38.273  30.605  30.861  1.00  0.00     0.049 A 
ATOM     38  N   UNL A   1      40.230  28.661  29.650  1.00  0.00    -0.248 NA
ATOM     39  C   UNL A   1      38.943  28.658  27.702  1.00  0.00     0.031 C 
ATOM     40  C   UNL A   1      37.338  31.531  31.500  1.00  0.00     0.029 A 
ATOM     41  N   UNL A   1      39.274  30.448  31.787  1.00  0.00    -0.354 N 
ATOM     42  C   UNL A   1      40.811  27.810  28.718  1.00  0.00     0.074 A 
ATOM     43  C   UNL A   1      39.963  27.826  27.545  1.00  0.00     0.031 C 
ATOM     44  C   UNL A   1      37.802  31.850  32.720  1.00  0.00     0.029 A 
ATOM     45  C   UNL A   1      39.041  31.119  32.963  1.00  0.00     0.049 A 
ATOM     46  H   UNL A   1      40.081  29.907  31.623  1.00  0.00     0.167 HD
ATOM     47  C   UNL A   1      41.953  27.091  28.827  1.00  0.00     0.034 A 
ATOM     48  C   UNL A   1      39.735  31.121  34.119  1.00  0.00     0.034 A 
ATOM     49  C   UNL A   1      42.815  27.116  29.978  1.00  0.00     0.049 A 
ATOM     50  C   UNL A   1      40.996  30.308  34.214  1.00  0.00     0.074 A 
ATOM     51  C   UNL A   1      44.014  26.454  30.168  1.00  0.00     0.029 A 
ATOM     52  N   UNL A   1      42.571  27.843  31.133  1.00  0.00    -0.354 N 
ATOM     53  N   UNL A   1      41.575  29.574  33.295  1.00  0.00    -0.248 NA
ATOM     54  C   UNL A   1      41.711  30.338  35.498  1.00  0.00     0.031 C 
ATOM     55  C   UNL A   1      44.492  26.776  31.444  1.00  0.00     0.029 A 
ATOM     56  C   UNL A   1      43.594  27.644  32.043  1.00  0.00     0.049 A 
ATOM     57  H   UNL A   1      41.785  28.417  31.283  1.00  0.00     0.167 HD
ATOM     58  C   UNL A   1      42.732  29.073  33.879  1.00  0.00     0.074 A 
ATOM     59  C   UNL A   1      42.784  29.608  35.225  1.00  0.00     0.031 C 
ATOM     60  C   UNL A   1      43.656  28.230  33.358  1.00  0.00     0.034 A 
BRANCH  47  61
ATOM     61  C   UNL A   1      42.356  26.241  27.654  1.00  0.00     0.023 A 
ATOM     62  C   UNL A   1      43.178  26.790  26.649  1.00  0.00     0.012 A 
ATOM     63  C   UNL A   1      41.970  24.888  27.570  1.00  0.00     0.148 A 
ATOM     64  C   UNL A   1      43.591  26.013  25.568  1.00  0.00     0.002 A 
ATOM     65  C   UNL A   1      42.413  24.112  26.505  1.00  0.00     0.091 A 
ATOM     66  F   UNL A   1      41.165  24.392  28.520  1.00  0.00    -0.205 F 
ATOM     67  C   UNL A   1      43.217  24.674  25.500  1.00  0.00     0.022 A 
BRANCH  65  68
ATOM     68  S   UNL A   1      42.035  22.360  26.371  1.00  0.00     0.127 S 
ATOM     69  O   UNL A   1      40.580  22.381  26.235  1.00  0.00    -0.237 OA
ATOM     70  O   UNL A   1      42.754  21.978  25.155  1.00  0.00    -0.237 OA
ATOM     71  O   UNL A   1      42.546  21.748  27.590  1.00  0.00    -0.744 OA
ENDBRANCH  65  68
ENDBRANCH  47  61
BRANCH  48  72
ATOM     72  C   UNL A   1      39.263  31.952  35.262  1.00  0.00     0.023 A 
ATOM     73  C   UNL A   1      38.402  31.384  36.219  1.00  0.00     0.012 A 
ATOM     74  C   UNL A   1      39.698  33.282  35.432  1.00  0.00     0.148 A 
ATOM     75  C   UNL A   1      37.966  32.129  37.315  1.00  0.00     0.002 A 
ATOM     76  C   UNL A   1      39.303  34.002  36.554  1.00  0.00     0.091 A 
ATOM     77  F   UNL A   1      40.497  33.815  34.497  1.00  0.00    -0.205 F 
ATOM     78  C   UNL A   1      38.427  33.432  37.490  1.00  0.00     0.022 A 
BRANCH  76  79
ATOM     79  S   UNL A   1      39.960  35.634  36.916  1.00  0.00     0.127 S 
ATOM     80  O   UNL A   1      39.280  35.959  38.167  1.00  0.00    -0.237 OA
ATOM     81  O   UNL A   1      41.393  35.369  37.047  1.00  0.00    -0.237 OA
ATOM     82  O   UNL A   1      39.609  36.455  35.765  1.00  0.00    -0.744 OA
ENDBRANCH  76  79
ENDBRANCH  48  72
BRANCH  60  83
ATOM     83  C   UNL A   1      44.816  27.841  34.235  1.00  0.00     0.023 A 
ATOM     84  C   UNL A   1      45.941  28.686  34.309  1.00  0.00     0.012 A 
ATOM     85  C   UNL A   1      44.761  26.687  35.040  1.00  0.00     0.148 A 
ATOM     86  C   UNL A   1      47.003  28.376  35.157  1.00  0.00     0.002 A 
ATOM     87  C   UNL A   1      45.805  26.407  35.913  1.00  0.00     0.091 A 
ATOM     88  F   UNL A   1      43.691  25.885  34.937  1.00  0.00    -0.205 F 
ATOM     89  C   UNL A   1      46.930  27.245  35.967  1.00  0.00     0.022 A 
BRANCH  87  90
ATOM     90  S   UNL A   1      45.753  25.018  37.052  1.00  0.00     0.127 S 
ATOM     91  O   UNL A   1      45.747  23.879  36.136  1.00  0.00    -0.237 OA
ATOM     92  O   UNL A   1      46.995  25.185  37.809  1.00  0.00    -0.237 OA
ATOM     93  O   UNL A   1      44.542  25.199  37.841  1.00  0.00    -0.744 OA
ENDBRANCH  87  90
ENDBRANCH  60  83
ENDBRANCH  34  35
ENDBRANCH  27  29
ENDBRANCH  26  27
ENDBRANCH  25  26
ENDBRANCH   1  25
TORSDOF 19
ENDMDL
