MODEL 1
REMARK VINA RESULT:     -13.1      0.000      0.000
REMARK SMILES C[C@H](c1ccccc1)N1C(=O)c2ccc(C(=O)OCCOC(=O)c3ccc(-c4c5nc(c(-c6cccc(S(=O)(=O)[O-])c6F)c6ccc([nH]6)c(-c6cccc(S(=O)(=O)[O-])c6F)c6nc(c(-c7cccc(S(=O)(=O)[O-])c7F)c7ccc4[nH]7)C=C6)C=C5)cc3)cc2C1=O
REMARK SMILES IDX 20 1 19 2 18 3 16 4 17 5 15 6 9 7 10 8 89 9 11 10 12 11
REMARK SMILES IDX 88 12 90 13 13 14 87 15 14 16 2 17 1 18 3 19 4 20 8 21 5 22
REMARK SMILES IDX 7 23 6 24 21 25 22 26 23 27 24 28 25 29 86 30 26 31 85 32
REMARK SMILES IDX 27 33 28 34 29 35 79 36 30 37 84 38 78 39 80 40 31 41 83 42
REMARK SMILES IDX 77 43 76 44 32 46 64 47 44 48 63 49 45 50 48 51 62 52 81 53
REMARK SMILES IDX 46 54 47 55 61 57 82 58 49 59 33 60 34 61 42 62 35 63 37 64
REMARK SMILES IDX 43 65 36 66 38 67 39 68 40 69 41 70 65 71 66 72 74 73 67 74
REMARK SMILES IDX 69 75 75 76 68 77 70 78 71 79 72 80 73 81 50 82 51 83 59 84
REMARK SMILES IDX 52 85 54 86 60 87 53 88 55 89 56 90 57 91 58 92
REMARK H PARENT 80 45 48 56
REMARK Flexibility Score: inf
ROOT
ATOM      1  C   UNL A   1      36.506  20.294  24.996  1.00  0.00     0.275 C 
ENDROOT
BRANCH   1   2
ATOM      2  C   UNL A   1      35.039  20.606  25.264  1.00  0.00     0.275 C 
BRANCH   2   3
ATOM      3  O   UNL A   1      34.221  19.596  24.642  1.00  0.00    -0.458 OA
BRANCH   3   4
ATOM      4  C   UNL A   1      32.895  19.683  24.883  1.00  0.00     0.338 C 
ATOM      5  O   UNL A   1      32.167  18.845  25.383  1.00  0.00    -0.246 OA
BRANCH   4   6
ATOM      6  C   UNL A   1      32.401  20.989  24.413  1.00  0.00     0.060 A 
ATOM      7  N   UNL A   1      30.697  25.234  24.647  1.00  0.00    -0.267 N 
ATOM      8  C   UNL A   1      31.229  24.872  23.440  1.00  0.00     0.262 C 
ATOM      9  C   UNL A   1      30.708  24.186  25.530  1.00  0.00     0.262 C 
ATOM     10  O   UNL A   1      31.290  25.479  22.388  1.00  0.00    -0.269 OA
ATOM     11  C   UNL A   1      31.711  23.509  23.587  1.00  0.00     0.053 A 
ATOM     12  C   UNL A   1      31.391  23.079  24.862  1.00  0.00     0.054 A 
ATOM     13  O   UNL A   1      30.230  24.108  26.647  1.00  0.00    -0.269 OA
ATOM     14  C   UNL A   1      32.374  22.710  22.680  1.00  0.00     0.015 A 
ATOM     15  C   UNL A   1      31.732  21.821  25.317  1.00  0.00     0.030 A 
ATOM     16  C   UNL A   1      32.701  21.423  23.101  1.00  0.00     0.016 A 
BRANCH   7  17
ATOM     17  C   UNL A   1      30.176  26.558  24.978  1.00  0.00     0.121 C 
ATOM     18  C   UNL A   1      29.278  27.129  23.880  1.00  0.00     0.037 C 
BRANCH  17  19
ATOM     19  C   UNL A   1      31.291  27.512  25.394  1.00  0.00    -0.025 A 
ATOM     20  C   UNL A   1      31.881  28.410  24.488  1.00  0.00     0.006 A 
ATOM     21  C   UNL A   1      31.779  27.488  26.712  1.00  0.00     0.006 A 
ATOM     22  C   UNL A   1      32.940  29.233  24.874  1.00  0.00     0.000 A 
ATOM     23  C   UNL A   1      32.826  28.329  27.102  1.00  0.00     0.000 A 
ATOM     24  C   UNL A   1      33.412  29.193  26.182  1.00  0.00     0.000 A 
ENDBRANCH  17  19
ENDBRANCH   7  17
ENDBRANCH   4   6
ENDBRANCH   3   4
ENDBRANCH   2   3
ENDBRANCH   1   2
BRANCH   1  25
ATOM     25  O   UNL A   1      37.310  21.457  25.270  1.00  0.00    -0.458 OA
BRANCH  25  26
ATOM     26  C   UNL A   1      38.541  21.192  25.761  1.00  0.00     0.338 C 
ATOM     27  O   UNL A   1      39.170  20.149  25.671  1.00  0.00    -0.246 OA
BRANCH  26  28
ATOM     28  C   UNL A   1      39.097  22.378  26.426  1.00  0.00     0.060 A 
ATOM     29  C   UNL A   1      38.600  23.647  26.120  1.00  0.00     0.016 A 
ATOM     30  C   UNL A   1      40.242  22.230  27.204  1.00  0.00     0.016 A 
ATOM     31  C   UNL A   1      39.316  24.777  26.514  1.00  0.00     0.010 A 
ATOM     32  C   UNL A   1      40.896  23.367  27.680  1.00  0.00     0.010 A 
ATOM     33  C   UNL A   1      40.469  24.653  27.305  1.00  0.00    -0.014 A 
BRANCH  33  34
ATOM     34  C   UNL A   1      41.249  25.844  27.748  1.00  0.00     0.031 A 
ATOM     35  C   UNL A   1      40.588  26.922  28.569  1.00  0.00     0.074 A 
ATOM     36  C   UNL A   1      42.527  26.003  27.350  1.00  0.00     0.049 A 
ATOM     37  N   UNL A   1      41.003  28.135  28.834  1.00  0.00    -0.248 NA
ATOM     38  C   UNL A   1      39.274  26.602  29.150  1.00  0.00     0.031 C 
ATOM     39  C   UNL A   1      43.291  25.041  26.555  1.00  0.00     0.029 A 
ATOM     40  N   UNL A   1      43.397  27.052  27.529  1.00  0.00    -0.354 N 
ATOM     41  C   UNL A   1      39.970  28.748  29.533  1.00  0.00     0.074 A 
ATOM     42  C   UNL A   1      38.914  27.767  29.670  1.00  0.00     0.031 C 
ATOM     43  C   UNL A   1      44.511  25.541  26.312  1.00  0.00     0.029 A 
ATOM     44  C   UNL A   1      44.588  26.890  26.861  1.00  0.00     0.049 A 
ATOM     45  H   UNL A   1      43.188  27.839  28.081  1.00  0.00     0.167 HD
ATOM     46  C   UNL A   1      39.908  30.012  30.021  1.00  0.00     0.034 A 
ATOM     47  C   UNL A   1      45.611  27.743  26.660  1.00  0.00     0.034 A 
ATOM     48  C   UNL A   1      40.994  30.955  29.955  1.00  0.00     0.049 A 
ATOM     49  C   UNL A   1      45.539  29.126  27.241  1.00  0.00     0.074 A 
ATOM     50  C   UNL A   1      41.052  32.236  30.473  1.00  0.00     0.029 A 
ATOM     51  N   UNL A   1      42.215  30.714  29.345  1.00  0.00    -0.354 N 
ATOM     52  N   UNL A   1      44.576  29.671  27.944  1.00  0.00    -0.248 NA
ATOM     53  C   UNL A   1      46.695  30.004  27.018  1.00  0.00     0.031 C 
ATOM     54  C   UNL A   1      42.309  32.773  30.171  1.00  0.00     0.029 A 
ATOM     55  C   UNL A   1      43.037  31.820  29.477  1.00  0.00     0.049 A 
ATOM     56  H   UNL A   1      42.462  29.879  28.886  1.00  0.00     0.167 HD
ATOM     57  C   UNL A   1      45.018  30.948  28.267  1.00  0.00     0.074 A 
ATOM     58  C   UNL A   1      46.345  31.087  27.699  1.00  0.00     0.031 C 
ATOM     59  C   UNL A   1      44.377  31.923  28.957  1.00  0.00     0.034 A 
BRANCH  46  60
ATOM     60  C   UNL A   1      38.632  30.445  30.696  1.00  0.00     0.023 A 
ATOM     61  C   UNL A   1      38.463  30.235  32.079  1.00  0.00     0.012 A 
ATOM     62  C   UNL A   1      37.621  31.108  29.971  1.00  0.00     0.148 A 
ATOM     63  C   UNL A   1      37.295  30.647  32.722  1.00  0.00     0.002 A 
ATOM     64  C   UNL A   1      36.478  31.552  30.628  1.00  0.00     0.091 A 
ATOM     65  F   UNL A   1      37.784  31.278  28.650  1.00  0.00    -0.205 F 
ATOM     66  C   UNL A   1      36.309  31.315  32.000  1.00  0.00     0.022 A 
BRANCH  64  67
ATOM     67  S   UNL A   1      35.195  32.486  29.782  1.00  0.00     0.127 S 
ATOM     68  O   UNL A   1      34.275  32.784  30.878  1.00  0.00    -0.237 OA
ATOM     69  O   UNL A   1      35.932  33.646  29.275  1.00  0.00    -0.237 OA
ATOM     70  O   UNL A   1      34.684  31.601  28.745  1.00  0.00    -0.744 OA
ENDBRANCH  64  67
ENDBRANCH  46  60
BRANCH  47  71
ATOM     71  C   UNL A   1      46.797  27.284  25.882  1.00  0.00     0.023 A 
ATOM     72  C   UNL A   1      46.885  27.592  24.513  1.00  0.00     0.012 A 
ATOM     73  C   UNL A   1      47.878  26.635  26.513  1.00  0.00     0.148 A 
ATOM     74  C   UNL A   1      48.025  27.258  23.782  1.00  0.00     0.002 A 
ATOM     75  C   UNL A   1      49.035  26.362  25.794  1.00  0.00     0.091 A 
ATOM     76  F   UNL A   1      47.766  26.335  27.815  1.00  0.00    -0.205 F 
ATOM     77  C   UNL A   1      49.106  26.660  24.425  1.00  0.00     0.022 A 
BRANCH  75  78
ATOM     78  S   UNL A   1      50.528  25.742  26.579  1.00  0.00     0.127 S 
ATOM     79  O   UNL A   1      51.419  25.573  25.435  1.00  0.00    -0.237 OA
ATOM     80  O   UNL A   1      50.879  26.844  27.475  1.00  0.00    -0.237 OA
ATOM     81  O   UNL A   1      50.132  24.519  27.263  1.00  0.00    -0.744 OA
ENDBRANCH  75  78
ENDBRANCH  47  71
BRANCH  59  82
ATOM     82  C   UNL A   1      45.106  33.220  29.175  1.00  0.00     0.023 A 
ATOM     83  C   UNL A   1      45.926  33.378  30.308  1.00  0.00     0.012 A 
ATOM     84  C   UNL A   1      45.046  34.247  28.212  1.00  0.00     0.148 A 
ATOM     85  C   UNL A   1      46.663  34.547  30.491  1.00  0.00     0.002 A 
ATOM     86  C   UNL A   1      45.815  35.393  28.380  1.00  0.00     0.091 A 
ATOM     87  F   UNL A   1      44.241  34.084  27.152  1.00  0.00    -0.205 F 
ATOM     88  C   UNL A   1      46.617  35.548  29.522  1.00  0.00     0.022 A 
BRANCH  86  89
ATOM     89  S   UNL A   1      45.882  36.692  27.142  1.00  0.00     0.127 S 
ATOM     90  O   UNL A   1      46.793  37.651  27.765  1.00  0.00    -0.237 OA
ATOM     91  O   UNL A   1      46.436  35.990  25.982  1.00  0.00    -0.237 OA
ATOM     92  O   UNL A   1      44.512  37.152  26.968  1.00  0.00    -0.744 OA
ENDBRANCH  86  89
ENDBRANCH  59  82
ENDBRANCH  33  34
ENDBRANCH  26  28
ENDBRANCH  25  26
ENDBRANCH   1  25
TORSDOF 16
ENDMDL
MODEL 2
REMARK VINA RESULT:     -12.8      1.813      2.651
REMARK SMILES C[C@H](c1ccccc1)N1C(=O)c2ccc(C(=O)OCCOC(=O)c3ccc(-c4c5nc(c(-c6cccc(S(=O)(=O)[O-])c6F)c6ccc([nH]6)c(-c6cccc(S(=O)(=O)[O-])c6F)c6nc(c(-c7cccc(S(=O)(=O)[O-])c7F)c7ccc4[nH]7)C=C6)C=C5)cc3)cc2C1=O
REMARK SMILES IDX 20 1 19 2 18 3 16 4 17 5 15 6 9 7 10 8 89 9 11 10 12 11
REMARK SMILES IDX 88 12 90 13 13 14 87 15 14 16 2 17 1 18 3 19 4 20 8 21 5 22
REMARK SMILES IDX 7 23 6 24 21 25 22 26 23 27 24 28 25 29 86 30 26 31 85 32
REMARK SMILES IDX 27 33 28 34 29 35 79 36 30 37 84 38 78 39 80 40 31 41 83 42
REMARK SMILES IDX 77 43 76 44 32 46 64 47 44 48 63 49 45 50 48 51 62 52 81 53
REMARK SMILES IDX 46 54 47 55 61 57 82 58 49 59 33 60 34 61 42 62 35 63 37 64
REMARK SMILES IDX 43 65 36 66 38 67 39 68 40 69 41 70 65 71 66 72 74 73 67 74
REMARK SMILES IDX 69 75 75 76 68 77 70 78 71 79 72 80 73 81 50 82 51 83 59 84
REMARK SMILES IDX 52 85 54 86 60 87 53 88 55 89 56 90 57 91 58 92
REMARK H PARENT 80 45 48 56
REMARK Flexibility Score: inf
ROOT
ATOM      1  C   UNL A   1      37.073  20.283  25.108  1.00  0.00     0.275 C 
ENDROOT
BRANCH   1   2
ATOM      2  C   UNL A   1      35.625  20.738  24.977  1.00  0.00     0.275 C 
BRANCH   2   3
ATOM      3  O   UNL A   1      35.545  22.147  25.262  1.00  0.00    -0.458 OA
BRANCH   3   4
ATOM      4  C   UNL A   1      35.051  22.921  24.271  1.00  0.00     0.338 C 
ATOM      5  O   UNL A   1      35.201  22.789  23.071  1.00  0.00    -0.246 OA
BRANCH   4   6
ATOM      6  C   UNL A   1      34.281  24.030  24.862  1.00  0.00     0.060 A 
ATOM      7  N   UNL A   1      32.447  28.208  25.252  1.00  0.00    -0.267 N 
ATOM      8  C   UNL A   1      31.952  27.260  26.104  1.00  0.00     0.262 C 
ATOM      9  C   UNL A   1      33.480  27.712  24.500  1.00  0.00     0.262 C 
ATOM     10  O   UNL A   1      31.126  27.347  26.991  1.00  0.00    -0.269 OA
ATOM     11  C   UNL A   1      32.659  26.024  25.810  1.00  0.00     0.053 A 
ATOM     12  C   UNL A   1      33.600  26.294  24.833  1.00  0.00     0.054 A 
ATOM     13  O   UNL A   1      34.218  28.287  23.722  1.00  0.00    -0.269 OA
ATOM     14  C   UNL A   1      32.492  24.768  26.353  1.00  0.00     0.015 A 
ATOM     15  C   UNL A   1      34.427  25.312  24.323  1.00  0.00     0.030 A 
ATOM     16  C   UNL A   1      33.337  23.765  25.880  1.00  0.00     0.016 A 
BRANCH   7  17
ATOM     17  C   UNL A   1      31.958  29.580  25.139  1.00  0.00     0.121 C 
ATOM     18  C   UNL A   1      31.840  30.278  26.495  1.00  0.00     0.037 C 
BRANCH  17  19
ATOM     19  C   UNL A   1      30.674  29.653  24.317  1.00  0.00    -0.025 A 
ATOM     20  C   UNL A   1      29.909  30.828  24.233  1.00  0.00     0.006 A 
ATOM     21  C   UNL A   1      30.209  28.512  23.641  1.00  0.00     0.006 A 
ATOM     22  C   UNL A   1      28.707  30.857  23.524  1.00  0.00     0.000 A 
ATOM     23  C   UNL A   1      29.016  28.548  22.914  1.00  0.00     0.000 A 
ATOM     24  C   UNL A   1      28.260  29.716  22.864  1.00  0.00     0.000 A 
ENDBRANCH  17  19
ENDBRANCH   7  17
ENDBRANCH   4   6
ENDBRANCH   3   4
ENDBRANCH   2   3
ENDBRANCH   1   2
BRANCH   1  25
ATOM     25  O   UNL A   1      37.934  21.429  25.249  1.00  0.00    -0.458 OA
BRANCH  25  26
ATOM     26  C   UNL A   1      39.079  21.198  25.929  1.00  0.00     0.338 C 
ATOM     27  O   UNL A   1      39.705  20.152  25.997  1.00  0.00    -0.246 OA
BRANCH  26  28
ATOM     28  C   UNL A   1      39.542  22.424  26.590  1.00  0.00     0.060 A 
ATOM     29  C   UNL A   1      39.075  23.668  26.161  1.00  0.00     0.016 A 
ATOM     30  C   UNL A   1      40.588  22.334  27.506  1.00  0.00     0.016 A 
ATOM     31  C   UNL A   1      39.730  24.828  26.576  1.00  0.00     0.010 A 
ATOM     32  C   UNL A   1      41.172  23.502  27.994  1.00  0.00     0.010 A 
ATOM     33  C   UNL A   1      40.782  24.762  27.503  1.00  0.00    -0.014 A 
BRANCH  33  34
ATOM     34  C   UNL A   1      41.495  25.985  27.971  1.00  0.00     0.031 A 
ATOM     35  C   UNL A   1      40.754  27.045  28.746  1.00  0.00     0.074 A 
ATOM     36  C   UNL A   1      42.784  26.188  27.634  1.00  0.00     0.049 A 
ATOM     37  N   UNL A   1      41.111  28.274  29.018  1.00  0.00    -0.248 NA
ATOM     38  C   UNL A   1      39.425  26.680  29.265  1.00  0.00     0.031 C 
ATOM     39  C   UNL A   1      43.622  25.248  26.889  1.00  0.00     0.029 A 
ATOM     40  N   UNL A   1      43.604  27.270  27.845  1.00  0.00    -0.354 N 
ATOM     41  C   UNL A   1      40.021  28.855  29.659  1.00  0.00     0.074 A 
ATOM     42  C   UNL A   1      38.997  27.837  29.754  1.00  0.00     0.031 C 
ATOM     43  C   UNL A   1      44.833  25.791  26.701  1.00  0.00     0.029 A 
ATOM     44  C   UNL A   1      44.833  27.147  27.238  1.00  0.00     0.049 A 
ATOM     45  H   UNL A   1      43.340  28.054  28.377  1.00  0.00     0.167 HD
ATOM     46  C   UNL A   1      39.889  30.120  30.129  1.00  0.00     0.034 A 
ATOM     47  C   UNL A   1      45.832  28.036  27.079  1.00  0.00     0.034 A 
ATOM     48  C   UNL A   1      40.941  31.102  30.106  1.00  0.00     0.049 A 
ATOM     49  C   UNL A   1      45.680  29.420  27.640  1.00  0.00     0.074 A 
ATOM     50  C   UNL A   1      40.926  32.390  30.613  1.00  0.00     0.029 A 
ATOM     51  N   UNL A   1      42.199  30.902  29.560  1.00  0.00    -0.354 N 
ATOM     52  N   UNL A   1      44.664  29.936  28.288  1.00  0.00    -0.248 NA
ATOM     53  C   UNL A   1      46.812  30.339  27.465  1.00  0.00     0.031 C 
ATOM     54  C   UNL A   1      42.175  32.971  30.367  1.00  0.00     0.029 A 
ATOM     55  C   UNL A   1      42.972  32.040  29.720  1.00  0.00     0.049 A 
ATOM     56  H   UNL A   1      42.499  30.072  29.122  1.00  0.00     0.167 HD
ATOM     57  C   UNL A   1      45.042  31.231  28.619  1.00  0.00     0.074 A 
ATOM     58  C   UNL A   1      46.389  31.415  28.116  1.00  0.00     0.031 C 
ATOM     59  C   UNL A   1      44.331  32.187  29.266  1.00  0.00     0.034 A 
BRANCH  46  60
ATOM     60  C   UNL A   1      38.565  30.511  30.735  1.00  0.00     0.023 A 
ATOM     61  C   UNL A   1      38.307  30.237  32.093  1.00  0.00     0.012 A 
ATOM     62  C   UNL A   1      37.598  31.197  29.974  1.00  0.00     0.148 A 
ATOM     63  C   UNL A   1      37.095  30.610  32.674  1.00  0.00     0.002 A 
ATOM     64  C   UNL A   1      36.408  31.601  30.572  1.00  0.00     0.091 A 
ATOM     65  F   UNL A   1      37.847  31.429  28.677  1.00  0.00    -0.205 F 
ATOM     66  C   UNL A   1      36.151  31.301  31.918  1.00  0.00     0.022 A 
BRANCH  64  67
ATOM     67  S   UNL A   1      35.174  32.562  29.685  1.00  0.00     0.127 S 
ATOM     68  O   UNL A   1      34.687  31.589  28.708  1.00  0.00    -0.237 OA
ATOM     69  O   UNL A   1      34.216  32.896  30.740  1.00  0.00    -0.237 OA
ATOM     70  O   UNL A   1      35.888  33.708  29.139  1.00  0.00    -0.744 OA
ENDBRANCH  64  67
ENDBRANCH  46  60
BRANCH  47  71
ATOM     71  C   UNL A   1      47.071  27.615  26.365  1.00  0.00     0.023 A 
ATOM     72  C   UNL A   1      48.013  26.813  27.033  1.00  0.00     0.012 A 
ATOM     73  C   UNL A   1      47.268  27.920  25.002  1.00  0.00     0.148 A 
ATOM     74  C   UNL A   1      49.134  26.325  26.360  1.00  0.00     0.002 A 
ATOM     75  C   UNL A   1      48.353  27.380  24.323  1.00  0.00     0.091 A 
ATOM     76  F   UNL A   1      46.367  28.701  24.390  1.00  0.00    -0.205 F 
ATOM     77  C   UNL A   1      49.295  26.593  25.004  1.00  0.00     0.022 A 
BRANCH  75  78
ATOM     78  S   UNL A   1      48.548  27.541  22.544  1.00  0.00     0.127 S 
ATOM     79  O   UNL A   1      49.822  28.247  22.446  1.00  0.00    -0.237 OA
ATOM     80  O   UNL A   1      48.584  26.142  22.115  1.00  0.00    -0.237 OA
ATOM     81  O   UNL A   1      47.377  28.276  22.086  1.00  0.00    -0.744 OA
ENDBRANCH  75  78
ENDBRANCH  47  71
BRANCH  59  82
ATOM     82  C   UNL A   1      45.000  33.513  29.505  1.00  0.00     0.023 A 
ATOM     83  C   UNL A   1      45.747  33.716  30.681  1.00  0.00     0.012 A 
ATOM     84  C   UNL A   1      44.960  34.525  28.525  1.00  0.00     0.148 A 
ATOM     85  C   UNL A   1      46.431  34.914  30.887  1.00  0.00     0.002 A 
ATOM     86  C   UNL A   1      45.676  35.700  28.719  1.00  0.00     0.091 A 
ATOM     87  F   UNL A   1      44.223  34.318  27.423  1.00  0.00    -0.205 F 
ATOM     88  C   UNL A   1      46.405  35.899  29.902  1.00  0.00     0.022 A 
BRANCH  86  89
ATOM     89  S   UNL A   1      45.769  36.984  27.467  1.00  0.00     0.127 S 
ATOM     90  O   UNL A   1      44.373  37.404  27.366  1.00  0.00    -0.237 OA
ATOM     91  O   UNL A   1      46.658  37.966  28.091  1.00  0.00    -0.237 OA
ATOM     92  O   UNL A   1      46.319  36.345  26.279  1.00  0.00    -0.744 OA
ENDBRANCH  86  89
ENDBRANCH  59  82
ENDBRANCH  33  34
ENDBRANCH  26  28
ENDBRANCH  25  26
ENDBRANCH   1  25
TORSDOF 16
ENDMDL
MODEL 3
REMARK VINA RESULT:     -12.7      4.806     10.021
REMARK SMILES C[C@H](c1ccccc1)N1C(=O)c2ccc(C(=O)OCCOC(=O)c3ccc(-c4c5nc(c(-c6cccc(S(=O)(=O)[O-])c6F)c6ccc([nH]6)c(-c6cccc(S(=O)(=O)[O-])c6F)c6nc(c(-c7cccc(S(=O)(=O)[O-])c7F)c7ccc4[nH]7)C=C6)C=C5)cc3)cc2C1=O
REMARK SMILES IDX 20 1 19 2 18 3 16 4 17 5 15 6 9 7 10 8 89 9 11 10 12 11
REMARK SMILES IDX 88 12 90 13 13 14 87 15 14 16 2 17 1 18 3 19 4 20 8 21 5 22
REMARK SMILES IDX 7 23 6 24 21 25 22 26 23 27 24 28 25 29 86 30 26 31 85 32
REMARK SMILES IDX 27 33 28 34 29 35 79 36 30 37 84 38 78 39 80 40 31 41 83 42
REMARK SMILES IDX 77 43 76 44 32 46 64 47 44 48 63 49 45 50 48 51 62 52 81 53
REMARK SMILES IDX 46 54 47 55 61 57 82 58 49 59 33 60 34 61 42 62 35 63 37 64
REMARK SMILES IDX 43 65 36 66 38 67 39 68 40 69 41 70 65 71 66 72 74 73 67 74
REMARK SMILES IDX 69 75 75 76 68 77 70 78 71 79 72 80 73 81 50 82 51 83 59 84
REMARK SMILES IDX 52 85 54 86 60 87 53 88 55 89 56 90 57 91 58 92
REMARK H PARENT 80 45 48 56
REMARK Flexibility Score: inf
ROOT
ATOM      1  C   UNL A   1      31.389  30.461  25.537  1.00  0.00     0.275 C 
ENDROOT
BRANCH   1   2
ATOM      2  C   UNL A   1      31.135  29.533  24.355  1.00  0.00     0.275 C 
BRANCH   2   3
ATOM      3  O   UNL A   1      30.004  30.020  23.608  1.00  0.00    -0.458 OA
BRANCH   3   4
ATOM      4  C   UNL A   1      29.650  29.287  22.530  1.00  0.00     0.338 C 
ATOM      5  O   UNL A   1      29.149  29.674  21.491  1.00  0.00    -0.246 OA
BRANCH   4   6
ATOM      6  C   UNL A   1      29.940  27.866  22.796  1.00  0.00     0.060 A 
ATOM      7  N   UNL A   1      32.289  23.934  22.836  1.00  0.00    -0.267 N 
ATOM      8  C   UNL A   1      31.191  23.980  23.651  1.00  0.00     0.262 C 
ATOM      9  C   UNL A   1      32.404  25.080  22.091  1.00  0.00     0.262 C 
ATOM     10  O   UNL A   1      30.699  23.127  24.363  1.00  0.00    -0.269 OA
ATOM     11  C   UNL A   1      30.606  25.301  23.490  1.00  0.00     0.053 A 
ATOM     12  C   UNL A   1      31.340  25.979  22.533  1.00  0.00     0.054 A 
ATOM     13  O   UNL A   1      33.187  25.348  21.199  1.00  0.00    -0.269 OA
ATOM     14  C   UNL A   1      29.521  25.863  24.128  1.00  0.00     0.015 A 
ATOM     15  C   UNL A   1      31.041  27.276  22.165  1.00  0.00     0.030 A 
ATOM     16  C   UNL A   1      29.177  27.160  23.752  1.00  0.00     0.016 A 
BRANCH   7  17
ATOM     17  C   UNL A   1      33.231  22.821  22.749  1.00  0.00     0.121 C 
ATOM     18  C   UNL A   1      32.534  21.472  22.563  1.00  0.00     0.037 C 
BRANCH  17  19
ATOM     19  C   UNL A   1      34.217  22.828  23.913  1.00  0.00    -0.025 A 
ATOM     20  C   UNL A   1      34.630  21.644  24.547  1.00  0.00     0.006 A 
ATOM     21  C   UNL A   1      34.717  24.048  24.401  1.00  0.00     0.006 A 
ATOM     22  C   UNL A   1      35.487  21.677  25.648  1.00  0.00     0.000 A 
ATOM     23  C   UNL A   1      35.592  24.077  25.491  1.00  0.00     0.000 A 
ATOM     24  C   UNL A   1      35.969  22.894  26.119  1.00  0.00     0.000 A 
ENDBRANCH  17  19
ENDBRANCH   7  17
ENDBRANCH   4   6
ENDBRANCH   3   4
ENDBRANCH   2   3
ENDBRANCH   1   2
BRANCH   1  25
ATOM     25  O   UNL A   1      32.756  30.335  25.972  1.00  0.00    -0.458 OA
BRANCH  25  26
ATOM     26  C   UNL A   1      33.145  31.245  26.892  1.00  0.00     0.338 C 
ATOM     27  O   UNL A   1      32.501  32.188  27.324  1.00  0.00    -0.246 OA
BRANCH  26  28
ATOM     28  C   UNL A   1      34.497  30.941  27.377  1.00  0.00     0.060 A 
ATOM     29  C   UNL A   1      34.842  29.629  27.708  1.00  0.00     0.016 A 
ATOM     30  C   UNL A   1      35.349  32.000  27.684  1.00  0.00     0.016 A 
ATOM     31  C   UNL A   1      36.004  29.389  28.441  1.00  0.00     0.010 A 
ATOM     32  C   UNL A   1      36.558  31.740  28.329  1.00  0.00     0.010 A 
ATOM     33  C   UNL A   1      36.881  30.439  28.756  1.00  0.00    -0.014 A 
BRANCH  33  34
ATOM     34  C   UNL A   1      38.134  30.211  29.532  1.00  0.00     0.031 A 
ATOM     35  C   UNL A   1      39.197  29.283  29.000  1.00  0.00     0.074 A 
ATOM     36  C   UNL A   1      38.288  30.769  30.749  1.00  0.00     0.049 A 
ATOM     37  N   UNL A   1      40.222  28.756  29.619  1.00  0.00    -0.248 NA
ATOM     38  C   UNL A   1      39.077  28.875  27.590  1.00  0.00     0.031 C 
ATOM     39  C   UNL A   1      37.342  31.686  31.385  1.00  0.00     0.029 A 
ATOM     40  N   UNL A   1      39.283  30.616  31.684  1.00  0.00    -0.354 N 
ATOM     41  C   UNL A   1      40.816  27.891  28.706  1.00  0.00     0.074 A 
ATOM     42  C   UNL A   1      40.049  27.979  27.483  1.00  0.00     0.031 C 
ATOM     43  C   UNL A   1      37.796  32.012  32.603  1.00  0.00     0.029 A 
ATOM     44  C   UNL A   1      39.020  31.265  32.868  1.00  0.00     0.049 A 
ATOM     45  H   UNL A   1      40.102  30.094  31.523  1.00  0.00     0.167 HD
ATOM     46  C   UNL A   1      41.905  27.100  28.872  1.00  0.00     0.034 A 
ATOM     47  C   UNL A   1      39.656  31.229  34.055  1.00  0.00     0.034 A 
ATOM     48  C   UNL A   1      42.713  27.080  30.063  1.00  0.00     0.049 A 
ATOM     49  C   UNL A   1      40.882  30.375  34.205  1.00  0.00     0.074 A 
ATOM     50  C   UNL A   1      43.870  26.361  30.306  1.00  0.00     0.029 A 
ATOM     51  N   UNL A   1      42.458  27.823  31.205  1.00  0.00    -0.354 N 
ATOM     52  N   UNL A   1      41.459  29.604  33.316  1.00  0.00    -0.248 NA
ATOM     53  C   UNL A   1      41.553  30.396  35.512  1.00  0.00     0.031 C 
ATOM     54  C   UNL A   1      44.311  26.665  31.598  1.00  0.00     0.029 A 
ATOM     55  C   UNL A   1      43.436  27.584  32.155  1.00  0.00     0.049 A 
ATOM     56  H   UNL A   1      41.693  28.432  31.324  1.00  0.00     0.167 HD
ATOM     57  C   UNL A   1      42.574  29.066  33.947  1.00  0.00     0.074 A 
ATOM     58  C   UNL A   1      42.602  29.615  35.288  1.00  0.00     0.031 C 
ATOM     59  C   UNL A   1      43.483  28.183  33.464  1.00  0.00     0.034 A 
BRANCH  46  60
ATOM     60  C   UNL A   1      42.306  26.205  27.727  1.00  0.00     0.023 A 
ATOM     61  C   UNL A   1      43.186  26.685  26.736  1.00  0.00     0.012 A 
ATOM     62  C   UNL A   1      41.854  24.872  27.661  1.00  0.00     0.148 A 
ATOM     63  C   UNL A   1      43.582  25.863  25.681  1.00  0.00     0.002 A 
ATOM     64  C   UNL A   1      42.285  24.047  26.627  1.00  0.00     0.091 A 
ATOM     65  F   UNL A   1      40.997  24.437  28.597  1.00  0.00    -0.205 F 
ATOM     66  C   UNL A   1      43.141  24.542  25.632  1.00  0.00     0.022 A 
BRANCH  64  67
ATOM     67  S   UNL A   1      41.823  22.312  26.536  1.00  0.00     0.127 S 
ATOM     68  O   UNL A   1      42.271  21.817  27.837  1.00  0.00    -0.237 OA
ATOM     69  O   UNL A   1      40.368  22.380  26.381  1.00  0.00    -0.237 OA
ATOM     70  O   UNL A   1      42.525  21.779  25.378  1.00  0.00    -0.744 OA
ENDBRANCH  64  67
ENDBRANCH  46  60
BRANCH  47  71
ATOM     71  C   UNL A   1      39.135  32.053  35.182  1.00  0.00     0.023 A 
ATOM     72  C   UNL A   1      38.229  31.482  36.093  1.00  0.00     0.012 A 
ATOM     73  C   UNL A   1      39.611  33.361  35.410  1.00  0.00     0.148 A 
ATOM     74  C   UNL A   1      37.799  32.199  37.210  1.00  0.00     0.002 A 
ATOM     75  C   UNL A   1      39.227  34.045  36.557  1.00  0.00     0.091 A 
ATOM     76  F   UNL A   1      40.460  33.893  34.520  1.00  0.00    -0.205 F 
ATOM     77  C   UNL A   1      38.310  33.471  37.452  1.00  0.00     0.022 A 
BRANCH  75  78
ATOM     78  S   UNL A   1      39.959  35.617  37.027  1.00  0.00     0.127 S 
ATOM     79  O   UNL A   1      41.367  35.260  37.173  1.00  0.00    -0.237 OA
ATOM     80  O   UNL A   1      39.653  36.453  35.865  1.00  0.00    -0.237 OA
ATOM     81  O   UNL A   1      39.275  36.019  38.249  1.00  0.00    -0.744 OA
ENDBRANCH  75  78
ENDBRANCH  47  71
BRANCH  59  82
ATOM     82  C   UNL A   1      44.611  27.776  34.371  1.00  0.00     0.023 A 
ATOM     83  C   UNL A   1      45.791  28.544  34.406  1.00  0.00     0.012 A 
ATOM     84  C   UNL A   1      44.467  26.685  35.251  1.00  0.00     0.148 A 
ATOM     85  C   UNL A   1      46.820  28.222  35.290  1.00  0.00     0.002 A 
ATOM     86  C   UNL A   1      45.480  26.395  36.158  1.00  0.00     0.091 A 
ATOM     87  F   UNL A   1      43.344  25.955  35.186  1.00  0.00    -0.205 F 
ATOM     88  C   UNL A   1      46.659  27.156  36.173  1.00  0.00     0.022 A 
BRANCH  86  89
ATOM     89  S   UNL A   1      45.320  25.096  37.389  1.00  0.00     0.127 S 
ATOM     90  O   UNL A   1      45.224  23.902  36.551  1.00  0.00    -0.237 OA
ATOM     91  O   UNL A   1      46.574  25.217  38.136  1.00  0.00    -0.237 OA
ATOM     92  O   UNL A   1      44.128  25.419  38.160  1.00  0.00    -0.744 OA
ENDBRANCH  86  89
ENDBRANCH  59  82
ENDBRANCH  33  34
ENDBRANCH  26  28
ENDBRANCH  25  26
ENDBRANCH   1  25
TORSDOF 16
ENDMDL
