MODEL 1
REMARK VINA RESULT:     -10.8      0.000      0.000
REMARK SMILES O=C(CCC[NH2+][C@H]1CCOC2(CCOCC2)C1)OCCOC(=O)c1ccc(-c2c3nc(c(-c4cccc(S(=O)(=O)[O-])c4F)c4ccc([nH]4)c(-c4cccc(S(=O)(=O)[O-])c4F)c4nc(c(-c5cccc(S(=O)(=O)[O-])c5F)c5ccc2[nH]5)C=C4)C=C3)cc1
REMARK SMILES IDX 19 1 18 2 2 3 1 4 3 5 4 6 5 7 6 8 7 11 8 12 17 13 9 14 11 15
REMARK SMILES IDX 10 16 12 17 16 18 13 19 15 20 14 21 20 22 21 23 22 24 23 25
REMARK SMILES IDX 24 26 25 27 86 28 26 29 85 30 27 31 28 32 29 33 79 34 30 35
REMARK SMILES IDX 84 36 78 37 80 38 31 39 83 40 77 41 76 42 32 44 64 45 44 46
REMARK SMILES IDX 63 47 45 48 48 49 62 50 81 51 46 52 47 53 61 55 82 56 49 57
REMARK SMILES IDX 33 58 34 59 42 60 35 61 37 62 43 63 36 64 38 65 39 66 40 67
REMARK SMILES IDX 41 68 65 69 66 70 74 71 67 72 69 73 75 74 68 75 70 76 71 77
REMARK SMILES IDX 72 78 73 79 50 80 51 81 59 82 52 83 54 84 60 85 53 86 55 87
REMARK SMILES IDX 56 88 57 89 58 90
REMARK H PARENT 6 9 6 10 80 43 48 54
REMARK Flexibility Score: inf
ROOT
ATOM      1  C   UNL A   1      31.655  31.040  26.344  1.00  0.00     0.274 C 
ENDROOT
BRANCH   1   2
ATOM      2  O   UNL A   1      32.371  30.134  27.198  1.00  0.00    -0.462 OA
BRANCH   2   3
ATOM      3  C   UNL A   1      33.381  29.425  26.624  1.00  0.00     0.306 C 
ATOM      4  O   UNL A   1      34.388  29.127  27.258  1.00  0.00    -0.252 OA
BRANCH   3   5
ATOM      5  C   UNL A   1      33.250  29.186  25.132  1.00  0.00     0.128 C 
BRANCH   5   6
ATOM      6  C   UNL A   1      32.785  27.778  24.776  1.00  0.00     0.073 C 
BRANCH   6   7
ATOM      7  C   UNL A   1      31.273  27.551  24.892  1.00  0.00     0.261 C 
BRANCH   7   8
ATOM      8  N   UNL A   1      30.660  27.136  23.625  1.00  0.00    -0.344 N 
ATOM      9  H   UNL A   1      30.246  26.215  23.766  1.00  0.00     0.346 HD
ATOM     10  H   UNL A   1      31.414  27.157  22.938  1.00  0.00     0.346 HD
BRANCH   8  11
ATOM     11  C   UNL A   1      29.608  28.025  23.082  1.00  0.00     0.187 C 
ATOM     12  C   UNL A   1      28.170  27.743  23.533  1.00  0.00     0.093 C 
ATOM     13  C   UNL A   1      29.966  29.489  23.403  1.00  0.00     0.100 C 
ATOM     14  C   UNL A   1      27.218  28.776  22.963  1.00  0.00     0.167 C 
ATOM     15  C   UNL A   1      28.904  30.506  22.930  1.00  0.00     0.078 C 
ATOM     16  O   UNL A   1      27.598  30.088  23.360  1.00  0.00    -0.374 OA
ATOM     17  C   UNL A   1      28.936  30.742  21.408  1.00  0.00     0.064 C 
ATOM     18  C   UNL A   1      29.162  31.865  23.617  1.00  0.00     0.064 C 
ATOM     19  C   UNL A   1      27.955  31.847  21.022  1.00  0.00     0.163 C 
ATOM     20  C   UNL A   1      28.182  32.921  23.116  1.00  0.00     0.163 C 
ATOM     21  O   UNL A   1      28.276  33.063  21.698  1.00  0.00    -0.381 OA
ENDBRANCH   8  11
ENDBRANCH   7   8
ENDBRANCH   6   7
ENDBRANCH   5   6
ENDBRANCH   3   5
ENDBRANCH   2   3
ENDBRANCH   1   2
BRANCH   1  22
ATOM     22  C   UNL A   1      31.563  32.464  26.894  1.00  0.00     0.275 C 
BRANCH  22  23
ATOM     23  O   UNL A   1      32.815  33.151  26.770  1.00  0.00    -0.458 OA
BRANCH  23  24
ATOM     24  C   UNL A   1      33.175  33.838  27.885  1.00  0.00     0.338 C 
ATOM     25  O   UNL A   1      32.531  34.702  28.447  1.00  0.00    -0.246 OA
BRANCH  24  26
ATOM     26  C   UNL A   1      34.397  33.228  28.450  1.00  0.00     0.060 A 
ATOM     27  C   UNL A   1      34.241  32.054  29.196  1.00  0.00     0.016 A 
ATOM     28  C   UNL A   1      35.668  33.769  28.237  1.00  0.00     0.016 A 
ATOM     29  C   UNL A   1      35.355  31.430  29.756  1.00  0.00     0.010 A 
ATOM     30  C   UNL A   1      36.783  33.147  28.806  1.00  0.00     0.010 A 
ATOM     31  C   UNL A   1      36.628  31.989  29.587  1.00  0.00    -0.014 A 
BRANCH  31  32
ATOM     32  C   UNL A   1      37.783  31.429  30.325  1.00  0.00     0.031 A 
ATOM     33  C   UNL A   1      38.598  30.343  29.682  1.00  0.00     0.074 A 
ATOM     34  C   UNL A   1      38.087  31.864  31.561  1.00  0.00     0.049 A 
ATOM     35  N   UNL A   1      39.656  29.726  30.137  1.00  0.00    -0.248 NA
ATOM     36  C   UNL A   1      38.162  29.887  28.350  1.00  0.00     0.031 C 
ATOM     37  C   UNL A   1      37.357  32.894  32.300  1.00  0.00     0.029 A 
ATOM     38  N   UNL A   1      39.077  31.468  32.425  1.00  0.00    -0.354 N 
ATOM     39  C   UNL A   1      40.006  28.805  29.160  1.00  0.00     0.074 A 
ATOM     40  C   UNL A   1      39.041  28.930  28.090  1.00  0.00     0.031 C 
ATOM     41  C   UNL A   1      37.900  33.018  33.523  1.00  0.00     0.029 A 
ATOM     42  C   UNL A   1      39.010  32.075  33.656  1.00  0.00     0.049 A 
ATOM     43  H   UNL A   1      39.770  30.810  32.187  1.00  0.00     0.167 HD
ATOM     44  C   UNL A   1      41.052  27.945  29.145  1.00  0.00     0.034 A 
ATOM     45  C   UNL A   1      39.749  31.879  34.766  1.00  0.00     0.034 A 
ATOM     46  C   UNL A   1      42.022  27.834  30.197  1.00  0.00     0.049 A 
ATOM     47  C   UNL A   1      40.890  30.892  34.729  1.00  0.00     0.074 A 
ATOM     48  C   UNL A   1      43.168  27.059  30.230  1.00  0.00     0.029 A 
ATOM     49  N   UNL A   1      41.950  28.495  31.412  1.00  0.00    -0.354 N 
ATOM     50  N   UNL A   1      41.328  30.173  33.725  1.00  0.00    -0.248 NA
ATOM     51  C   UNL A   1      41.659  30.714  35.971  1.00  0.00     0.031 C 
ATOM     52  C   UNL A   1      43.775  27.230  31.478  1.00  0.00     0.029 A 
ATOM     53  C   UNL A   1      43.012  28.121  32.217  1.00  0.00     0.049 A 
ATOM     54  H   UNL A   1      41.247  29.136  31.666  1.00  0.00     0.167 HD
ATOM     55  C   UNL A   1      42.434  29.479  34.204  1.00  0.00     0.074 A 
ATOM     56  C   UNL A   1      42.618  29.885  35.581  1.00  0.00     0.031 C 
ATOM     57  C   UNL A   1      43.215  28.571  33.569  1.00  0.00     0.034 A 
BRANCH  44  58
ATOM     58  C   UNL A   1      41.232  27.082  27.929  1.00  0.00     0.023 A 
ATOM     59  C   UNL A   1      41.829  27.629  26.777  1.00  0.00     0.012 A 
ATOM     60  C   UNL A   1      40.889  25.716  27.955  1.00  0.00     0.148 A 
ATOM     61  C   UNL A   1      42.074  26.832  25.660  1.00  0.00     0.002 A 
ATOM     62  C   UNL A   1      41.165  24.921  26.849  1.00  0.00     0.091 A 
ATOM     63  F   UNL A   1      40.299  25.226  29.054  1.00  0.00    -0.205 F 
ATOM     64  C   UNL A   1      41.752  25.478  25.700  1.00  0.00     0.022 A 
BRANCH  62  65
ATOM     65  S   UNL A   1      40.844  23.154  26.820  1.00  0.00     0.127 S 
ATOM     66  O   UNL A   1      41.638  22.730  25.669  1.00  0.00    -0.237 OA
ATOM     67  O   UNL A   1      41.370  22.726  28.116  1.00  0.00    -0.237 OA
ATOM     68  O   UNL A   1      39.402  23.009  26.669  1.00  0.00    -0.744 OA
ENDBRANCH  62  65
ENDBRANCH  44  58
BRANCH  45  69
ATOM     69  C   UNL A   1      39.457  32.649  36.008  1.00  0.00     0.023 A 
ATOM     70  C   UNL A   1      40.073  33.899  36.214  1.00  0.00     0.012 A 
ATOM     71  C   UNL A   1      38.582  32.147  36.991  1.00  0.00     0.148 A 
ATOM     72  C   UNL A   1      39.850  34.618  37.389  1.00  0.00     0.002 A 
ATOM     73  C   UNL A   1      38.324  32.892  38.136  1.00  0.00     0.091 A 
ATOM     74  F   UNL A   1      38.025  30.943  36.795  1.00  0.00    -0.205 F 
ATOM     75  C   UNL A   1      38.969  34.120  38.345  1.00  0.00     0.022 A 
BRANCH  73  76
ATOM     76  S   UNL A   1      37.103  32.370  39.346  1.00  0.00     0.127 S 
ATOM     77  O   UNL A   1      37.280  33.363  40.402  1.00  0.00    -0.237 OA
ATOM     78  O   UNL A   1      35.850  32.484  38.597  1.00  0.00    -0.237 OA
ATOM     79  O   UNL A   1      37.467  31.000  39.685  1.00  0.00    -0.744 OA
ENDBRANCH  73  76
ENDBRANCH  45  69
BRANCH  57  80
ATOM     80  C   UNL A   1      44.345  27.947  34.345  1.00  0.00     0.023 A 
ATOM     81  C   UNL A   1      45.554  28.654  34.491  1.00  0.00     0.012 A 
ATOM     82  C   UNL A   1      44.180  26.714  35.007  1.00  0.00     0.148 A 
ATOM     83  C   UNL A   1      46.591  28.134  35.263  1.00  0.00     0.002 A 
ATOM     84  C   UNL A   1      45.202  26.221  35.811  1.00  0.00     0.091 A 
ATOM     85  F   UNL A   1      43.028  26.048  34.843  1.00  0.00    -0.205 F 
ATOM     86  C   UNL A   1      46.411  26.926  35.932  1.00  0.00     0.022 A 
BRANCH  84  87
ATOM     87  S   UNL A   1      45.024  24.722  36.785  1.00  0.00     0.127 S 
ATOM     88  O   UNL A   1      46.419  24.362  37.036  1.00  0.00    -0.237 OA
ATOM     89  O   UNL A   1      44.296  25.197  37.961  1.00  0.00    -0.237 OA
ATOM     90  O   UNL A   1      44.277  23.790  35.950  1.00  0.00    -0.744 OA
ENDBRANCH  84  87
ENDBRANCH  57  80
ENDBRANCH  31  32
ENDBRANCH  24  26
ENDBRANCH  23  24
ENDBRANCH  22  23
ENDBRANCH   1  22
TORSDOF 18
ENDMDL
MODEL 2
REMARK VINA RESULT:     -10.6      6.574      9.938
REMARK SMILES O=C(CCC[NH2+][C@H]1CCOC2(CCOCC2)C1)OCCOC(=O)c1ccc(-c2c3nc(c(-c4cccc(S(=O)(=O)[O-])c4F)c4ccc([nH]4)c(-c4cccc(S(=O)(=O)[O-])c4F)c4nc(c(-c5cccc(S(=O)(=O)[O-])c5F)c5ccc2[nH]5)C=C4)C=C3)cc1
REMARK SMILES IDX 19 1 18 2 2 3 1 4 3 5 4 6 5 7 6 8 7 11 8 12 17 13 9 14 11 15
REMARK SMILES IDX 10 16 12 17 16 18 13 19 15 20 14 21 20 22 21 23 22 24 23 25
REMARK SMILES IDX 24 26 25 27 86 28 26 29 85 30 27 31 28 32 29 33 79 34 30 35
REMARK SMILES IDX 84 36 78 37 80 38 31 39 83 40 77 41 76 42 32 44 64 45 44 46
REMARK SMILES IDX 63 47 45 48 48 49 62 50 81 51 46 52 47 53 61 55 82 56 49 57
REMARK SMILES IDX 33 58 34 59 42 60 35 61 37 62 43 63 36 64 38 65 39 66 40 67
REMARK SMILES IDX 41 68 65 69 66 70 74 71 67 72 69 73 75 74 68 75 70 76 71 77
REMARK SMILES IDX 72 78 73 79 50 80 51 81 59 82 52 83 54 84 60 85 53 86 55 87
REMARK SMILES IDX 56 88 57 89 58 90
REMARK H PARENT 6 9 6 10 80 43 48 54
REMARK Flexibility Score: inf
ROOT
ATOM      1  C   UNL A   1      37.583  19.952  24.673  1.00  0.00     0.274 C 
ENDROOT
BRANCH   1   2
ATOM      2  O   UNL A   1      36.625  20.770  25.363  1.00  0.00    -0.462 OA
BRANCH   2   3
ATOM      3  C   UNL A   1      36.340  21.978  24.803  1.00  0.00     0.306 C 
ATOM      4  O   UNL A   1      36.792  22.291  23.706  1.00  0.00    -0.252 OA
BRANCH   3   5
ATOM      5  C   UNL A   1      35.583  22.950  25.687  1.00  0.00     0.128 C 
BRANCH   5   6
ATOM      6  C   UNL A   1      34.139  23.175  25.253  1.00  0.00     0.073 C 
BRANCH   6   7
ATOM      7  C   UNL A   1      33.217  21.961  25.426  1.00  0.00     0.261 C 
BRANCH   7   8
ATOM      8  N   UNL A   1      32.601  21.529  24.167  1.00  0.00    -0.344 N 
ATOM      9  H   UNL A   1      33.170  21.891  23.401  1.00  0.00     0.346 HD
ATOM     10  H   UNL A   1      31.648  21.893  24.191  1.00  0.00     0.346 HD
BRANCH   8  11
ATOM     11  C   UNL A   1      32.461  20.068  23.971  1.00  0.00     0.187 C 
ATOM     12  C   UNL A   1      32.305  19.580  22.526  1.00  0.00     0.093 C 
ATOM     13  C   UNL A   1      33.658  19.352  24.626  1.00  0.00     0.100 C 
ATOM     14  C   UNL A   1      32.252  18.066  22.476  1.00  0.00     0.167 C 
ATOM     15  C   UNL A   1      33.645  17.820  24.435  1.00  0.00     0.078 C 
ATOM     16  O   UNL A   1      33.423  17.499  23.052  1.00  0.00    -0.374 OA
ATOM     17  C   UNL A   1      32.617  17.111  25.338  1.00  0.00     0.064 C 
ATOM     18  C   UNL A   1      35.038  17.253  24.783  1.00  0.00     0.064 C 
ATOM     19  C   UNL A   1      32.742  15.596  25.197  1.00  0.00     0.163 C 
ATOM     20  C   UNL A   1      35.046  15.731  24.685  1.00  0.00     0.163 C 
ATOM     21  O   UNL A   1      34.058  15.165  25.546  1.00  0.00    -0.381 OA
ENDBRANCH   8  11
ENDBRANCH   7   8
ENDBRANCH   6   7
ENDBRANCH   5   6
ENDBRANCH   3   5
ENDBRANCH   2   3
ENDBRANCH   1   2
BRANCH   1  22
ATOM     22  C   UNL A   1      38.900  19.774  25.431  1.00  0.00     0.275 C 
BRANCH  22  23
ATOM     23  O   UNL A   1      39.468  21.040  25.791  1.00  0.00    -0.458 OA
BRANCH  23  24
ATOM     24  C   UNL A   1      40.268  20.989  26.888  1.00  0.00     0.338 C 
ATOM     25  O   UNL A   1      40.771  19.996  27.376  1.00  0.00    -0.246 OA
BRANCH  24  26
ATOM     26  C   UNL A   1      40.617  22.368  27.290  1.00  0.00     0.060 A 
ATOM     27  C   UNL A   1      39.992  23.414  26.601  1.00  0.00     0.016 A 
ATOM     28  C   UNL A   1      41.510  22.638  28.331  1.00  0.00     0.016 A 
ATOM     29  C   UNL A   1      40.280  24.738  26.933  1.00  0.00     0.010 A 
ATOM     30  C   UNL A   1      41.803  23.965  28.657  1.00  0.00     0.010 A 
ATOM     31  C   UNL A   1      41.207  25.020  27.944  1.00  0.00    -0.014 A 
BRANCH  31  32
ATOM     32  C   UNL A   1      41.643  26.416  28.176  1.00  0.00     0.031 A 
ATOM     33  C   UNL A   1      43.027  26.823  27.756  1.00  0.00     0.074 A 
ATOM     34  C   UNL A   1      40.827  27.301  28.774  1.00  0.00     0.049 A 
ATOM     35  N   UNL A   1      43.606  27.991  27.845  1.00  0.00    -0.248 NA
ATOM     36  C   UNL A   1      43.874  25.776  27.159  1.00  0.00     0.031 C 
ATOM     37  C   UNL A   1      39.473  27.019  29.249  1.00  0.00     0.029 A 
ATOM     38  N   UNL A   1      41.035  28.615  29.112  1.00  0.00    -0.354 N 
ATOM     39  C   UNL A   1      44.883  27.820  27.331  1.00  0.00     0.074 A 
ATOM     40  C   UNL A   1      45.005  26.433  26.941  1.00  0.00     0.031 C 
ATOM     41  C   UNL A   1      38.987  28.116  29.854  1.00  0.00     0.029 A 
ATOM     42  C   UNL A   1      39.995  29.174  29.815  1.00  0.00     0.049 A 
ATOM     43  H   UNL A   1      41.852  29.110  28.874  1.00  0.00     0.167 HD
ATOM     44  C   UNL A   1      45.862  28.743  27.176  1.00  0.00     0.034 A 
ATOM     45  C   UNL A   1      39.879  30.395  30.377  1.00  0.00     0.034 A 
ATOM     46  C   UNL A   1      45.736  30.125  27.542  1.00  0.00     0.049 A 
ATOM     47  C   UNL A   1      40.998  31.393  30.212  1.00  0.00     0.074 A 
ATOM     48  C   UNL A   1      46.638  31.154  27.337  1.00  0.00     0.029 A 
ATOM     49  N   UNL A   1      44.653  30.669  28.213  1.00  0.00    -0.354 N 
ATOM     50  N   UNL A   1      42.121  31.273  29.546  1.00  0.00    -0.248 NA
ATOM     51  C   UNL A   1      40.821  32.707  30.851  1.00  0.00     0.031 C 
ATOM     52  C   UNL A   1      46.113  32.316  27.910  1.00  0.00     0.029 A 
ATOM     53  C   UNL A   1      44.877  32.012  28.460  1.00  0.00     0.049 A 
ATOM     54  H   UNL A   1      43.843  30.174  28.475  1.00  0.00     0.167 HD
ATOM     55  C   UNL A   1      42.769  32.498  29.664  1.00  0.00     0.074 A 
ATOM     56  C   UNL A   1      41.902  33.357  30.441  1.00  0.00     0.031 C 
ATOM     57  C   UNL A   1      43.984  32.873  29.191  1.00  0.00     0.034 A 
BRANCH  44  58
ATOM     58  C   UNL A   1      47.148  28.299  26.539  1.00  0.00     0.023 A 
ATOM     59  C   UNL A   1      48.232  27.931  27.358  1.00  0.00     0.012 A 
ATOM     60  C   UNL A   1      47.255  28.167  25.141  1.00  0.00     0.148 A 
ATOM     61  C   UNL A   1      49.412  27.447  26.796  1.00  0.00     0.002 A 
ATOM     62  C   UNL A   1      48.422  27.655  24.589  1.00  0.00     0.091 A 
ATOM     63  F   UNL A   1      46.217  28.548  24.382  1.00  0.00    -0.205 F 
ATOM     64  C   UNL A   1      49.503  27.300  25.414  1.00  0.00     0.022 A 
BRANCH  62  65
ATOM     65  S   UNL A   1      48.619  27.370  22.827  1.00  0.00     0.127 S 
ATOM     66  O   UNL A   1      47.530  28.174  22.275  1.00  0.00    -0.237 OA
ATOM     67  O   UNL A   1      49.958  27.904  22.578  1.00  0.00    -0.237 OA
ATOM     68  O   UNL A   1      48.490  25.932  22.634  1.00  0.00    -0.744 OA
ENDBRANCH  62  65
ENDBRANCH  44  58
BRANCH  45  69
ATOM     69  C   UNL A   1      38.645  30.761  31.128  1.00  0.00     0.023 A 
ATOM     70  C   UNL A   1      38.533  30.422  32.491  1.00  0.00     0.012 A 
ATOM     71  C   UNL A   1      37.579  31.433  30.500  1.00  0.00     0.148 A 
ATOM     72  C   UNL A   1      37.370  30.714  33.203  1.00  0.00     0.002 A 
ATOM     73  C   UNL A   1      36.444  31.767  31.229  1.00  0.00     0.091 A 
ATOM     74  F   UNL A   1      37.688  31.723  29.195  1.00  0.00    -0.205 F 
ATOM     75  C   UNL A   1      36.330  31.395  32.577  1.00  0.00     0.022 A 
BRANCH  73  76
ATOM     76  S   UNL A   1      35.122  32.754  30.518  1.00  0.00     0.127 S 
ATOM     77  O   UNL A   1      35.831  33.965  30.117  1.00  0.00    -0.237 OA
ATOM     78  O   UNL A   1      34.665  31.913  29.410  1.00  0.00    -0.237 OA
ATOM     79  O   UNL A   1      34.143  32.907  31.587  1.00  0.00    -0.744 OA
ENDBRANCH  73  76
ENDBRANCH  45  69
BRANCH  57  80
ATOM     80  C   UNL A   1      44.457  34.270  29.491  1.00  0.00     0.023 A 
ATOM     81  C   UNL A   1      45.206  34.507  30.660  1.00  0.00     0.012 A 
ATOM     82  C   UNL A   1      44.246  35.322  28.579  1.00  0.00     0.148 A 
ATOM     83  C   UNL A   1      45.717  35.775  30.929  1.00  0.00     0.002 A 
ATOM     84  C   UNL A   1      44.797  36.574  28.831  1.00  0.00     0.091 A 
ATOM     85  F   UNL A   1      43.517  35.081  27.480  1.00  0.00    -0.205 F 
ATOM     86  C   UNL A   1      45.524  36.804  30.010  1.00  0.00     0.022 A 
BRANCH  84  87
ATOM     87  S   UNL A   1      44.680  37.933  27.661  1.00  0.00     0.127 S 
ATOM     88  O   UNL A   1      45.720  37.584  26.695  1.00  0.00    -0.237 OA
ATOM     89  O   UNL A   1      43.312  37.797  27.160  1.00  0.00    -0.237 OA
ATOM     90  O   UNL A   1      44.922  39.146  28.431  1.00  0.00    -0.744 OA
ENDBRANCH  84  87
ENDBRANCH  57  80
ENDBRANCH  31  32
ENDBRANCH  24  26
ENDBRANCH  23  24
ENDBRANCH  22  23
ENDBRANCH   1  22
TORSDOF 18
ENDMDL
MODEL 3
REMARK VINA RESULT:     -10.6      5.838     10.923
REMARK SMILES O=C(CCC[NH2+][C@H]1CCOC2(CCOCC2)C1)OCCOC(=O)c1ccc(-c2c3nc(c(-c4cccc(S(=O)(=O)[O-])c4F)c4ccc([nH]4)c(-c4cccc(S(=O)(=O)[O-])c4F)c4nc(c(-c5cccc(S(=O)(=O)[O-])c5F)c5ccc2[nH]5)C=C4)C=C3)cc1
REMARK SMILES IDX 19 1 18 2 2 3 1 4 3 5 4 6 5 7 6 8 7 11 8 12 17 13 9 14 11 15
REMARK SMILES IDX 10 16 12 17 16 18 13 19 15 20 14 21 20 22 21 23 22 24 23 25
REMARK SMILES IDX 24 26 25 27 86 28 26 29 85 30 27 31 28 32 29 33 79 34 30 35
REMARK SMILES IDX 84 36 78 37 80 38 31 39 83 40 77 41 76 42 32 44 64 45 44 46
REMARK SMILES IDX 63 47 45 48 48 49 62 50 81 51 46 52 47 53 61 55 82 56 49 57
REMARK SMILES IDX 33 58 34 59 42 60 35 61 37 62 43 63 36 64 38 65 39 66 40 67
REMARK SMILES IDX 41 68 65 69 66 70 74 71 67 72 69 73 75 74 68 75 70 76 71 77
REMARK SMILES IDX 72 78 73 79 50 80 51 81 59 82 52 83 54 84 60 85 53 86 55 87
REMARK SMILES IDX 56 88 57 89 58 90
REMARK H PARENT 6 9 6 10 80 43 48 54
REMARK Flexibility Score: inf
ROOT
ATOM      1  C   UNL A   1      36.054  19.638  24.988  1.00  0.00     0.274 C 
ENDROOT
BRANCH   1   2
ATOM      2  O   UNL A   1      34.896  20.396  24.604  1.00  0.00    -0.462 OA
BRANCH   2   3
ATOM      3  C   UNL A   1      33.720  20.053  25.196  1.00  0.00     0.306 C 
ATOM      4  O   UNL A   1      33.141  19.012  24.901  1.00  0.00    -0.252 OA
BRANCH   3   5
ATOM      5  C   UNL A   1      33.106  21.106  26.098  1.00  0.00     0.128 C 
BRANCH   5   6
ATOM      6  C   UNL A   1      34.012  21.529  27.249  1.00  0.00     0.073 C 
BRANCH   6   7
ATOM      7  C   UNL A   1      34.559  22.958  27.146  1.00  0.00     0.261 C 
BRANCH   7   8
ATOM      8  N   UNL A   1      35.306  23.194  25.906  1.00  0.00    -0.344 N 
ATOM      9  H   UNL A   1      35.328  22.319  25.384  1.00  0.00     0.346 HD
ATOM     10  H   UNL A   1      36.223  23.531  26.201  1.00  0.00     0.346 HD
BRANCH   8  11
ATOM     11  C   UNL A   1      34.772  24.242  25.006  1.00  0.00     0.187 C 
ATOM     12  C   UNL A   1      34.274  23.779  23.632  1.00  0.00     0.093 C 
ATOM     13  C   UNL A   1      33.642  25.001  25.728  1.00  0.00     0.100 C 
ATOM     14  C   UNL A   1      33.687  24.941  22.856  1.00  0.00     0.167 C 
ATOM     15  C   UNL A   1      32.970  26.087  24.859  1.00  0.00     0.078 C 
ATOM     16  O   UNL A   1      32.617  25.540  23.577  1.00  0.00    -0.374 OA
ATOM     17  C   UNL A   1      33.837  27.351  24.701  1.00  0.00     0.064 C 
ATOM     18  C   UNL A   1      31.641  26.514  25.518  1.00  0.00     0.064 C 
ATOM     19  C   UNL A   1      33.067  28.430  23.942  1.00  0.00     0.163 C 
ATOM     20  C   UNL A   1      30.982  27.643  24.732  1.00  0.00     0.163 C 
ATOM     21  O   UNL A   1      31.860  28.764  24.629  1.00  0.00    -0.381 OA
ENDBRANCH   8  11
ENDBRANCH   7   8
ENDBRANCH   6   7
ENDBRANCH   5   6
ENDBRANCH   3   5
ENDBRANCH   2   3
ENDBRANCH   1   2
BRANCH   1  22
ATOM     22  C   UNL A   1      37.380  20.325  24.655  1.00  0.00     0.275 C 
BRANCH  22  23
ATOM     23  O   UNL A   1      37.826  21.146  25.742  1.00  0.00    -0.458 OA
BRANCH  23  24
ATOM     24  C   UNL A   1      39.105  20.896  26.127  1.00  0.00     0.338 C 
ATOM     25  O   UNL A   1      39.725  19.863  25.967  1.00  0.00    -0.246 OA
BRANCH  24  26
ATOM     26  C   UNL A   1      39.719  22.156  26.596  1.00  0.00     0.060 A 
ATOM     27  C   UNL A   1      39.178  23.352  26.110  1.00  0.00     0.016 A 
ATOM     28  C   UNL A   1      40.779  22.176  27.507  1.00  0.00     0.016 A 
ATOM     29  C   UNL A   1      39.714  24.575  26.513  1.00  0.00     0.010 A 
ATOM     30  C   UNL A   1      41.320  23.402  27.903  1.00  0.00     0.010 A 
ATOM     31  C   UNL A   1      40.805  24.605  27.390  1.00  0.00    -0.014 A 
BRANCH  31  32
ATOM     32  C   UNL A   1      41.483  25.889  27.678  1.00  0.00     0.031 A 
ATOM     33  C   UNL A   1      40.713  26.977  28.373  1.00  0.00     0.074 A 
ATOM     34  C   UNL A   1      42.759  26.093  27.305  1.00  0.00     0.049 A 
ATOM     35  N   UNL A   1      41.113  28.166  28.738  1.00  0.00    -0.248 NA
ATOM     36  C   UNL A   1      39.305  26.689  28.697  1.00  0.00     0.031 C 
ATOM     37  C   UNL A   1      43.601  25.125  26.603  1.00  0.00     0.029 A 
ATOM     38  N   UNL A   1      43.560  27.200  27.440  1.00  0.00    -0.354 N 
ATOM     39  C   UNL A   1      40.010  28.773  29.321  1.00  0.00     0.074 A 
ATOM     40  C   UNL A   1      38.916  27.829  29.251  1.00  0.00     0.031 C 
ATOM     41  C   UNL A   1      44.787  25.696  26.332  1.00  0.00     0.029 A 
ATOM     42  C   UNL A   1      44.787  27.069  26.835  1.00  0.00     0.049 A 
ATOM     43  H   UNL A   1      43.281  28.011  27.923  1.00  0.00     0.167 HD
ATOM     44  C   UNL A   1      39.920  30.001  29.885  1.00  0.00     0.034 A 
ATOM     45  C   UNL A   1      45.786  27.963  26.690  1.00  0.00     0.034 A 
ATOM     46  C   UNL A   1      41.010  30.931  29.974  1.00  0.00     0.049 A 
ATOM     47  C   UNL A   1      45.647  29.333  27.304  1.00  0.00     0.074 A 
ATOM     48  C   UNL A   1      41.041  32.159  30.611  1.00  0.00     0.029 A 
ATOM     49  N   UNL A   1      42.253  30.750  29.390  1.00  0.00    -0.354 N 
ATOM     50  N   UNL A   1      44.667  29.819  28.027  1.00  0.00    -0.248 NA
ATOM     51  C   UNL A   1      46.766  30.269  27.110  1.00  0.00     0.031 C 
ATOM     52  C   UNL A   1      42.295  32.735  30.386  1.00  0.00     0.029 A 
ATOM     53  C   UNL A   1      43.048  31.859  29.621  1.00  0.00     0.049 A 
ATOM     54  H   UNL A   1      42.530  29.952  28.885  1.00  0.00     0.167 HD
ATOM     55  C   UNL A   1      45.060  31.102  28.393  1.00  0.00     0.074 A 
ATOM     56  C   UNL A   1      46.381  31.310  27.837  1.00  0.00     0.031 C 
ATOM     57  C   UNL A   1      44.381  32.034  29.107  1.00  0.00     0.034 A 
BRANCH  44  58
ATOM     58  C   UNL A   1      38.606  30.397  30.496  1.00  0.00     0.023 A 
ATOM     59  C   UNL A   1      38.352  30.087  31.846  1.00  0.00     0.012 A 
ATOM     60  C   UNL A   1      37.665  31.145  29.763  1.00  0.00     0.148 A 
ATOM     61  C   UNL A   1      37.172  30.506  32.458  1.00  0.00     0.002 A 
ATOM     62  C   UNL A   1      36.505  31.587  30.388  1.00  0.00     0.091 A 
ATOM     63  F   UNL A   1      37.920  31.405  28.473  1.00  0.00    -0.205 F 
ATOM     64  C   UNL A   1      36.255  31.263  31.733  1.00  0.00     0.022 A 
BRANCH  62  65
ATOM     65  S   UNL A   1      35.289  32.617  29.562  1.00  0.00     0.127 S 
ATOM     66  O   UNL A   1      34.852  31.742  28.475  1.00  0.00    -0.237 OA
ATOM     67  O   UNL A   1      34.296  32.824  30.616  1.00  0.00    -0.237 OA
ATOM     68  O   UNL A   1      35.997  33.820  29.146  1.00  0.00    -0.744 OA
ENDBRANCH  62  65
ENDBRANCH  44  58
BRANCH  45  69
ATOM     69  C   UNL A   1      47.026  27.588  25.954  1.00  0.00     0.023 A 
ATOM     70  C   UNL A   1      48.098  26.996  26.650  1.00  0.00     0.012 A 
ATOM     71  C   UNL A   1      47.155  27.824  24.571  1.00  0.00     0.148 A 
ATOM     72  C   UNL A   1      49.286  26.678  25.991  1.00  0.00     0.002 A 
ATOM     73  C   UNL A   1      48.321  27.457  23.910  1.00  0.00     0.091 A 
ATOM     74  F   UNL A   1      46.137  28.414  23.927  1.00  0.00    -0.205 F 
ATOM     75  C   UNL A   1      49.395  26.898  24.620  1.00  0.00     0.022 A 
BRANCH  73  76
ATOM     76  S   UNL A   1      48.479  27.596  22.126  1.00  0.00     0.127 S 
ATOM     77  O   UNL A   1      49.672  28.425  21.992  1.00  0.00    -0.237 OA
ATOM     78  O   UNL A   1      48.649  26.200  21.717  1.00  0.00    -0.237 OA
ATOM     79  O   UNL A   1      47.227  28.194  21.679  1.00  0.00    -0.744 OA
ENDBRANCH  73  76
ENDBRANCH  45  69
BRANCH  57  80
ATOM     80  C   UNL A   1      45.044  33.367  29.335  1.00  0.00     0.023 A 
ATOM     81  C   UNL A   1      45.866  33.543  30.466  1.00  0.00     0.012 A 
ATOM     82  C   UNL A   1      44.933  34.407  28.392  1.00  0.00     0.148 A 
ATOM     83  C   UNL A   1      46.549  34.741  30.666  1.00  0.00     0.002 A 
ATOM     84  C   UNL A   1      45.651  35.584  28.575  1.00  0.00     0.091 A 
ATOM     85  F   UNL A   1      44.133  34.227  27.331  1.00  0.00    -0.205 F 
ATOM     86  C   UNL A   1      46.451  35.755  29.716  1.00  0.00     0.022 A 
BRANCH  84  87
ATOM     87  S   UNL A   1      45.662  36.906  27.359  1.00  0.00     0.127 S 
ATOM     88  O   UNL A   1      46.178  36.219  26.176  1.00  0.00    -0.237 OA
ATOM     89  O   UNL A   1      44.247  37.272  27.283  1.00  0.00    -0.237 OA
ATOM     90  O   UNL A   1      46.524  37.946  27.906  1.00  0.00    -0.744 OA
ENDBRANCH  84  87
ENDBRANCH  57  80
ENDBRANCH  31  32
ENDBRANCH  24  26
ENDBRANCH  23  24
ENDBRANCH  22  23
ENDBRANCH   1  22
TORSDOF 18
ENDMDL
