MODEL 1
REMARK VINA RESULT:     -11.5      0.000      0.000
REMARK SMILES CCC([NH3+])(CC)C(=O)N1Cc2nc[nH]c2C[C@H]1C(=O)OCCOC(=O)c1ccc(-c2c3nc(c(-c4cccc(S(=O)(=O)[O-])c4F)c4ccc([nH]4)c(-c4cccc(S(=O)(=O)[O-])c4F)c4nc(c(-c5cccc(S(=O)(=O)[O-])c5F)c5ccc2[nH]5)C=C4)C=C3)cc1
REMARK SMILES IDX 21 1 20 2 18 3 19 4 17 5 9 6 10 7 11 8 16 9 12 10 15 11
REMARK SMILES IDX 13 12 14 13 7 15 8 16 3 17 2 18 1 19 4 20 5 24 6 25 22 26
REMARK SMILES IDX 23 27 24 28 25 29 26 30 27 31 88 32 28 33 87 34 29 35 30 36
REMARK SMILES IDX 31 37 81 38 32 39 86 40 80 41 82 42 33 43 85 44 79 45 78 46
REMARK SMILES IDX 34 48 66 49 46 50 65 51 47 52 50 53 64 54 83 55 48 56 49 57
REMARK SMILES IDX 63 59 84 60 51 61 35 62 36 63 44 64 37 65 39 66 45 67 38 68
REMARK SMILES IDX 40 69 41 70 42 71 43 72 67 73 68 74 76 75 69 76 71 77 77 78
REMARK SMILES IDX 70 79 72 80 73 81 74 82 75 83 52 84 53 85 61 86 54 87 56 88
REMARK SMILES IDX 62 89 55 90 57 91 58 92 59 93 60 94
REMARK H PARENT 14 14 4 21 4 22 4 23 82 47 50 58
REMARK Flexibility Score: inf
ROOT
ATOM      1  C   UNL A   1      32.186  29.834  26.828  1.00  0.00     0.274 C 
ENDROOT
BRANCH   1   2
ATOM      2  O   UNL A   1      32.952  28.663  26.490  1.00  0.00    -0.461 OA
BRANCH   2   3
ATOM      3  C   UNL A   1      32.307  27.653  25.850  1.00  0.00     0.329 C 
ATOM      4  O   UNL A   1      31.253  27.157  26.239  1.00  0.00    -0.250 OA
BRANCH   3   5
ATOM      5  C   UNL A   1      33.114  27.045  24.674  1.00  0.00     0.201 C 
ATOM      6  N   UNL A   1      32.600  25.879  23.869  1.00  0.00    -0.317 N 
ATOM      7  C   UNL A   1      31.299  26.073  23.184  1.00  0.00     0.178 C 
ATOM      8  C   UNL A   1      31.190  27.483  22.692  1.00  0.00     0.081 A 
ATOM      9  C   UNL A   1      33.376  28.251  23.716  1.00  0.00     0.093 C 
ATOM     10  N   UNL A   1      30.083  28.029  22.095  1.00  0.00    -0.240 NA
ATOM     11  C   UNL A   1      32.128  28.462  22.940  1.00  0.00     0.042 A 
ATOM     12  C   UNL A   1      30.351  29.314  21.989  1.00  0.00     0.197 A 
ATOM     13  N   UNL A   1      31.590  29.626  22.485  1.00  0.00    -0.348 N 
ATOM     14  H   UNL A   1      32.008  30.517  22.509  1.00  0.00     0.167 HD
BRANCH   6  15
ATOM     15  C   UNL A   1      33.469  24.956  23.267  1.00  0.00     0.284 C 
ATOM     16  O   UNL A   1      33.768  25.073  22.074  1.00  0.00    -0.268 OA
BRANCH  15  17
ATOM     17  C   UNL A   1      33.954  23.694  24.099  1.00  0.00     0.173 C 
BRANCH  17  18
ATOM     18  C   UNL A   1      35.501  23.743  24.336  1.00  0.00     0.075 C 
ATOM     19  C   UNL A   1      36.364  22.834  23.466  1.00  0.00     0.011 C 
ENDBRANCH  17  18
BRANCH  17  20
ATOM     20  N   UNL A   1      33.632  22.485  23.317  1.00  0.00    -0.345 N 
ATOM     21  H   UNL A   1      34.360  22.324  22.621  1.00  0.00     0.345 HD
ATOM     22  H   UNL A   1      32.736  22.612  22.848  1.00  0.00     0.345 HD
ATOM     23  H   UNL A   1      33.578  21.680  23.942  1.00  0.00     0.345 HD
ENDBRANCH  17  20
BRANCH  17  24
ATOM     24  C   UNL A   1      33.289  23.533  25.489  1.00  0.00     0.075 C 
ATOM     25  C   UNL A   1      34.271  23.301  26.632  1.00  0.00     0.011 C 
ENDBRANCH  17  24
ENDBRANCH  15  17
ENDBRANCH   6  15
ENDBRANCH   3   5
ENDBRANCH   2   3
ENDBRANCH   1   2
BRANCH   1  26
ATOM     26  C   UNL A   1      33.113  30.983  27.207  1.00  0.00     0.275 C 
BRANCH  26  27
ATOM     27  O   UNL A   1      34.489  30.587  27.227  1.00  0.00    -0.458 OA
BRANCH  27  28
ATOM     28  C   UNL A   1      35.310  31.473  27.814  1.00  0.00     0.338 C 
ATOM     29  O   UNL A   1      35.376  32.688  27.605  1.00  0.00    -0.246 OA
BRANCH  28  30
ATOM     30  C   UNL A   1      36.321  30.822  28.629  1.00  0.00     0.060 A 
ATOM     31  C   UNL A   1      37.285  31.654  29.204  1.00  0.00     0.016 A 
ATOM     32  C   UNL A   1      36.522  29.448  28.478  1.00  0.00     0.016 A 
ATOM     33  C   UNL A   1      38.548  31.158  29.414  1.00  0.00     0.010 A 
ATOM     34  C   UNL A   1      37.773  28.939  28.753  1.00  0.00     0.010 A 
ATOM     35  C   UNL A   1      38.799  29.815  29.125  1.00  0.00    -0.014 A 
BRANCH  35  36
ATOM     36  C   UNL A   1      40.155  29.336  29.337  1.00  0.00     0.031 A 
ATOM     37  C   UNL A   1      40.511  29.095  30.761  1.00  0.00     0.074 A 
ATOM     38  C   UNL A   1      40.946  28.955  28.317  1.00  0.00     0.049 A 
ATOM     39  N   UNL A   1      41.576  29.459  31.400  1.00  0.00    -0.248 NA
ATOM     40  C   UNL A   1      39.495  28.435  31.599  1.00  0.00     0.031 C 
ATOM     41  C   UNL A   1      40.578  28.867  26.900  1.00  0.00     0.029 A 
ATOM     42  N   UNL A   1      42.170  28.352  28.366  1.00  0.00    -0.354 N 
ATOM     43  C   UNL A   1      41.450  28.896  32.667  1.00  0.00     0.074 A 
ATOM     44  C   UNL A   1      40.100  28.410  32.783  1.00  0.00     0.031 C 
ATOM     45  C   UNL A   1      41.392  27.972  26.303  1.00  0.00     0.029 A 
ATOM     46  C   UNL A   1      42.387  27.531  27.266  1.00  0.00     0.049 A 
ATOM     47  H   UNL A   1      42.820  28.483  29.093  1.00  0.00     0.167 HD
ATOM     48  C   UNL A   1      42.518  28.657  33.470  1.00  0.00     0.034 A 
ATOM     49  C   UNL A   1      43.219  26.467  27.207  1.00  0.00     0.034 A 
ATOM     50  C   UNL A   1      43.676  29.420  33.106  1.00  0.00     0.049 A 
ATOM     51  C   UNL A   1      44.187  26.575  28.324  1.00  0.00     0.074 A 
ATOM     52  C   UNL A   1      43.951  30.765  32.955  1.00  0.00     0.029 A 
ATOM     53  N   UNL A   1      44.729  28.756  32.530  1.00  0.00    -0.354 N 
ATOM     54  N   UNL A   1      45.124  27.477  28.401  1.00  0.00    -0.248 NA
ATOM     55  C   UNL A   1      43.896  25.869  29.561  1.00  0.00     0.031 C 
ATOM     56  C   UNL A   1      44.911  30.833  31.904  1.00  0.00     0.029 A 
ATOM     57  C   UNL A   1      45.156  29.526  31.482  1.00  0.00     0.049 A 
ATOM     58  H   UNL A   1      45.105  27.891  32.816  1.00  0.00     0.167 HD
ATOM     59  C   UNL A   1      45.237  27.750  29.759  1.00  0.00     0.074 A 
ATOM     60  C   UNL A   1      44.567  26.636  30.423  1.00  0.00     0.031 C 
ATOM     61  C   UNL A   1      45.594  28.991  30.210  1.00  0.00     0.034 A 
BRANCH  48  62
ATOM     62  C   UNL A   1      42.591  27.487  34.413  1.00  0.00     0.023 A 
ATOM     63  C   UNL A   1      42.179  27.680  35.747  1.00  0.00     0.012 A 
ATOM     64  C   UNL A   1      43.268  26.282  34.114  1.00  0.00     0.148 A 
ATOM     65  C   UNL A   1      42.443  26.728  36.736  1.00  0.00     0.002 A 
ATOM     66  C   UNL A   1      43.442  25.299  35.079  1.00  0.00     0.091 A 
ATOM     67  F   UNL A   1      43.869  26.123  32.929  1.00  0.00    -0.205 F 
ATOM     68  C   UNL A   1      43.057  25.527  36.400  1.00  0.00     0.022 A 
BRANCH  66  69
ATOM     69  S   UNL A   1      44.141  23.709  34.627  1.00  0.00     0.127 S 
ATOM     70  O   UNL A   1      45.402  24.101  34.007  1.00  0.00    -0.237 OA
ATOM     71  O   UNL A   1      44.269  23.041  35.923  1.00  0.00    -0.237 OA
ATOM     72  O   UNL A   1      43.137  23.112  33.753  1.00  0.00    -0.744 OA
ENDBRANCH  66  69
ENDBRANCH  48  62
BRANCH  49  73
ATOM     73  C   UNL A   1      43.082  25.242  26.389  1.00  0.00     0.023 A 
ATOM     74  C   UNL A   1      43.946  25.040  25.296  1.00  0.00     0.012 A 
ATOM     75  C   UNL A   1      42.248  24.169  26.782  1.00  0.00     0.148 A 
ATOM     76  C   UNL A   1      43.978  23.814  24.619  1.00  0.00     0.002 A 
ATOM     77  C   UNL A   1      42.256  22.966  26.082  1.00  0.00     0.091 A 
ATOM     78  F   UNL A   1      41.511  24.285  27.895  1.00  0.00    -0.205 F 
ATOM     79  C   UNL A   1      43.128  22.780  25.006  1.00  0.00     0.022 A 
BRANCH  77  80
ATOM     80  S   UNL A   1      41.141  21.625  26.523  1.00  0.00     0.127 S 
ATOM     81  O   UNL A   1      41.363  21.493  27.965  1.00  0.00    -0.237 OA
ATOM     82  O   UNL A   1      39.839  22.169  26.152  1.00  0.00    -0.237 OA
ATOM     83  O   UNL A   1      41.604  20.477  25.750  1.00  0.00    -0.744 OA
ENDBRANCH  77  80
ENDBRANCH  49  73
BRANCH  61  84
ATOM     84  C   UNL A   1      46.142  29.994  29.222  1.00  0.00     0.023 A 
ATOM     85  C   UNL A   1      47.509  30.013  28.877  1.00  0.00     0.012 A 
ATOM     86  C   UNL A   1      45.249  30.790  28.481  1.00  0.00     0.148 A 
ATOM     87  C   UNL A   1      47.982  30.830  27.848  1.00  0.00     0.002 A 
ATOM     88  C   UNL A   1      45.717  31.566  27.423  1.00  0.00     0.091 A 
ATOM     89  F   UNL A   1      43.946  30.761  28.801  1.00  0.00    -0.205 F 
ATOM     90  C   UNL A   1      47.085  31.596  27.112  1.00  0.00     0.022 A 
BRANCH  88  91
ATOM     91  S   UNL A   1      44.584  32.455  26.351  1.00  0.00     0.127 S 
ATOM     92  O   UNL A   1      43.656  31.404  25.940  1.00  0.00    -0.237 OA
ATOM     93  O   UNL A   1      44.006  33.460  27.249  1.00  0.00    -0.237 OA
ATOM     94  O   UNL A   1      45.415  33.021  25.294  1.00  0.00    -0.744 OA
ENDBRANCH  88  91
ENDBRANCH  61  84
ENDBRANCH  35  36
ENDBRANCH  28  30
ENDBRANCH  27  28
ENDBRANCH  26  27
ENDBRANCH   1  26
TORSDOF 19
ENDMDL
MODEL 2
REMARK VINA RESULT:     -10.7      1.854      2.293
REMARK SMILES CCC([NH3+])(CC)C(=O)N1Cc2nc[nH]c2C[C@H]1C(=O)OCCOC(=O)c1ccc(-c2c3nc(c(-c4cccc(S(=O)(=O)[O-])c4F)c4ccc([nH]4)c(-c4cccc(S(=O)(=O)[O-])c4F)c4nc(c(-c5cccc(S(=O)(=O)[O-])c5F)c5ccc2[nH]5)C=C4)C=C3)cc1
REMARK SMILES IDX 21 1 20 2 18 3 19 4 17 5 9 6 10 7 11 8 16 9 12 10 15 11
REMARK SMILES IDX 13 12 14 13 7 15 8 16 3 17 2 18 1 19 4 20 5 24 6 25 22 26
REMARK SMILES IDX 23 27 24 28 25 29 26 30 27 31 88 32 28 33 87 34 29 35 30 36
REMARK SMILES IDX 31 37 81 38 32 39 86 40 80 41 82 42 33 43 85 44 79 45 78 46
REMARK SMILES IDX 34 48 66 49 46 50 65 51 47 52 50 53 64 54 83 55 48 56 49 57
REMARK SMILES IDX 63 59 84 60 51 61 35 62 36 63 44 64 37 65 39 66 45 67 38 68
REMARK SMILES IDX 40 69 41 70 42 71 43 72 67 73 68 74 76 75 69 76 71 77 77 78
REMARK SMILES IDX 70 79 72 80 73 81 74 82 75 83 52 84 53 85 61 86 54 87 56 88
REMARK SMILES IDX 62 89 55 90 57 91 58 92 59 93 60 94
REMARK H PARENT 14 14 4 21 4 22 4 23 82 47 50 58
REMARK Flexibility Score: inf
ROOT
ATOM      1  C   UNL A   1      31.962  29.721  26.196  1.00  0.00     0.274 C 
ENDROOT
BRANCH   1   2
ATOM      2  O   UNL A   1      32.790  29.111  25.190  1.00  0.00    -0.461 OA
BRANCH   2   3
ATOM      3  C   UNL A   1      33.133  27.807  25.361  1.00  0.00     0.329 C 
ATOM      4  O   UNL A   1      33.256  27.270  26.459  1.00  0.00    -0.250 OA
BRANCH   3   5
ATOM      5  C   UNL A   1      33.542  27.093  24.047  1.00  0.00     0.201 C 
ATOM      6  N   UNL A   1      32.770  25.918  23.502  1.00  0.00    -0.317 N 
ATOM      7  C   UNL A   1      31.336  26.151  23.206  1.00  0.00     0.178 C 
ATOM      8  C   UNL A   1      31.147  27.537  22.671  1.00  0.00     0.081 A 
ATOM      9  C   UNL A   1      33.566  28.229  22.976  1.00  0.00     0.093 C 
ATOM     10  N   UNL A   1      29.939  28.116  22.380  1.00  0.00    -0.240 NA
ATOM     11  C   UNL A   1      32.157  28.472  22.576  1.00  0.00     0.042 A 
ATOM     12  C   UNL A   1      30.218  29.375  22.116  1.00  0.00     0.197 A 
ATOM     13  N   UNL A   1      31.559  29.640  22.216  1.00  0.00    -0.348 N 
ATOM     14  H   UNL A   1      32.002  30.504  22.060  1.00  0.00     0.167 HD
BRANCH   6  15
ATOM     15  C   UNL A   1      33.390  24.915  22.741  1.00  0.00     0.284 C 
ATOM     16  O   UNL A   1      33.431  25.007  21.510  1.00  0.00    -0.268 OA
BRANCH  15  17
ATOM     17  C   UNL A   1      33.919  23.607  23.469  1.00  0.00     0.173 C 
BRANCH  17  18
ATOM     18  C   UNL A   1      33.350  22.319  22.784  1.00  0.00     0.075 C 
ATOM     19  C   UNL A   1      32.166  21.638  23.465  1.00  0.00     0.011 C 
ENDBRANCH  17  18
BRANCH  17  20
ATOM     20  N   UNL A   1      33.452  23.646  24.868  1.00  0.00    -0.345 N 
ATOM     21  H   UNL A   1      34.114  23.148  25.463  1.00  0.00     0.345 HD
ATOM     22  H   UNL A   1      32.536  23.202  24.934  1.00  0.00     0.345 HD
ATOM     23  H   UNL A   1      33.382  24.616  25.177  1.00  0.00     0.345 HD
ENDBRANCH  17  20
BRANCH  17  24
ATOM     24  C   UNL A   1      35.461  23.457  23.503  1.00  0.00     0.075 C 
ATOM     25  C   UNL A   1      35.956  22.238  24.273  1.00  0.00     0.011 C 
ENDBRANCH  17  24
ENDBRANCH  15  17
ENDBRANCH   6  15
ENDBRANCH   3   5
ENDBRANCH   2   3
ENDBRANCH   1   2
BRANCH   1  26
ATOM     26  C   UNL A   1      32.702  30.873  26.867  1.00  0.00     0.275 C 
BRANCH  26  27
ATOM     27  O   UNL A   1      34.081  30.566  27.106  1.00  0.00    -0.458 OA
BRANCH  27  28
ATOM     28  C   UNL A   1      34.774  31.560  27.686  1.00  0.00     0.338 C 
ATOM     29  O   UNL A   1      34.697  32.767  27.444  1.00  0.00    -0.246 OA
BRANCH  28  30
ATOM     30  C   UNL A   1      35.837  31.056  28.539  1.00  0.00     0.060 A 
ATOM     31  C   UNL A   1      36.768  31.995  28.988  1.00  0.00     0.016 A 
ATOM     32  C   UNL A   1      36.106  29.686  28.538  1.00  0.00     0.016 A 
ATOM     33  C   UNL A   1      38.061  31.589  29.215  1.00  0.00     0.010 A 
ATOM     34  C   UNL A   1      37.388  29.274  28.832  1.00  0.00     0.010 A 
ATOM     35  C   UNL A   1      38.375  30.237  29.073  1.00  0.00    -0.014 A 
BRANCH  35  36
ATOM     36  C   UNL A   1      39.758  29.853  29.298  1.00  0.00     0.031 A 
ATOM     37  C   UNL A   1      40.220  29.996  30.705  1.00  0.00     0.074 A 
ATOM     38  C   UNL A   1      40.491  29.233  28.354  1.00  0.00     0.049 A 
ATOM     39  N   UNL A   1      41.313  30.532  31.146  1.00  0.00    -0.248 NA
ATOM     40  C   UNL A   1      39.289  29.560  31.760  1.00  0.00     0.031 C 
ATOM     41  C   UNL A   1      40.030  28.772  27.040  1.00  0.00     0.029 A 
ATOM     42  N   UNL A   1      41.736  28.685  28.465  1.00  0.00    -0.354 N 
ATOM     43  C   UNL A   1      41.295  30.316  32.521  1.00  0.00     0.074 A 
ATOM     44  C   UNL A   1      39.974  29.855  32.861  1.00  0.00     0.031 C 
ATOM     45  C   UNL A   1      40.832  27.767  26.635  1.00  0.00     0.029 A 
ATOM     46  C   UNL A   1      41.906  27.609  27.600  1.00  0.00     0.049 A 
ATOM     47  H   UNL A   1      42.430  29.012  29.082  1.00  0.00     0.167 HD
ATOM     48  C   UNL A   1      42.424  30.313  33.274  1.00  0.00     0.034 A 
ATOM     49  C   UNL A   1      42.771  26.581  27.755  1.00  0.00     0.034 A 
ATOM     50  C   UNL A   1      43.525  30.975  32.639  1.00  0.00     0.049 A 
ATOM     51  C   UNL A   1      43.809  26.992  28.730  1.00  0.00     0.074 A 
ATOM     52  C   UNL A   1      43.741  32.239  32.125  1.00  0.00     0.029 A 
ATOM     53  N   UNL A   1      44.560  30.202  32.176  1.00  0.00    -0.354 N 
ATOM     54  N   UNL A   1      44.716  27.900  28.500  1.00  0.00    -0.248 NA
ATOM     55  C   UNL A   1      43.630  26.628  30.126  1.00  0.00     0.031 C 
ATOM     56  C   UNL A   1      44.622  32.047  31.023  1.00  0.00     0.029 A 
ATOM     57  C   UNL A   1      44.885  30.680  30.935  1.00  0.00     0.049 A 
ATOM     58  H   UNL A   1      44.985  29.448  32.646  1.00  0.00     0.167 HD
ATOM     59  C   UNL A   1      44.912  28.518  29.728  1.00  0.00     0.074 A 
ATOM     60  C   UNL A   1      44.329  27.605  30.707  1.00  0.00     0.031 C 
ATOM     61  C   UNL A   1      45.254  29.840  29.816  1.00  0.00     0.034 A 
BRANCH  48  62
ATOM     62  C   UNL A   1      42.603  29.430  34.479  1.00  0.00     0.023 A 
ATOM     63  C   UNL A   1      43.145  30.002  35.649  1.00  0.00     0.012 A 
ATOM     64  C   UNL A   1      42.493  28.021  34.440  1.00  0.00     0.148 A 
ATOM     65  C   UNL A   1      43.570  29.207  36.718  1.00  0.00     0.002 A 
ATOM     66  C   UNL A   1      42.826  27.245  35.542  1.00  0.00     0.091 A 
ATOM     67  F   UNL A   1      42.188  27.401  33.294  1.00  0.00    -0.205 F 
ATOM     68  C   UNL A   1      43.393  27.828  36.675  1.00  0.00     0.022 A 
BRANCH  66  69
ATOM     69  S   UNL A   1      42.504  25.479  35.529  1.00  0.00     0.127 S 
ATOM     70  O   UNL A   1      43.046  25.065  36.819  1.00  0.00    -0.237 OA
ATOM     71  O   UNL A   1      41.045  25.426  35.423  1.00  0.00    -0.237 OA
ATOM     72  O   UNL A   1      43.199  24.997  34.340  1.00  0.00    -0.744 OA
ENDBRANCH  66  69
ENDBRANCH  48  62
BRANCH  49  73
ATOM     73  C   UNL A   1      42.622  25.183  27.295  1.00  0.00     0.023 A 
ATOM     74  C   UNL A   1      41.381  24.535  27.445  1.00  0.00     0.012 A 
ATOM     75  C   UNL A   1      43.619  24.537  26.527  1.00  0.00     0.148 A 
ATOM     76  C   UNL A   1      41.142  23.289  26.851  1.00  0.00     0.002 A 
ATOM     77  C   UNL A   1      43.390  23.281  25.972  1.00  0.00     0.091 A 
ATOM     78  F   UNL A   1      44.761  25.184  26.257  1.00  0.00    -0.205 F 
ATOM     79  C   UNL A   1      42.148  22.658  26.122  1.00  0.00     0.022 A 
BRANCH  77  80
ATOM     80  S   UNL A   1      44.678  22.416  25.063  1.00  0.00     0.127 S 
ATOM     81  O   UNL A   1      44.032  21.143  24.736  1.00  0.00    -0.237 OA
ATOM     82  O   UNL A   1      44.901  23.299  23.923  1.00  0.00    -0.237 OA
ATOM     83  O   UNL A   1      45.786  22.288  26.004  1.00  0.00    -0.744 OA
ENDBRANCH  77  80
ENDBRANCH  49  73
BRANCH  61  84
ATOM     84  C   UNL A   1      45.696  30.560  28.563  1.00  0.00     0.023 A 
ATOM     85  C   UNL A   1      44.761  31.139  27.681  1.00  0.00     0.012 A 
ATOM     86  C   UNL A   1      47.062  30.836  28.372  1.00  0.00     0.148 A 
ATOM     87  C   UNL A   1      45.174  31.940  26.615  1.00  0.00     0.002 A 
ATOM     88  C   UNL A   1      47.468  31.675  27.337  1.00  0.00     0.091 A 
ATOM     89  F   UNL A   1      47.950  30.296  29.221  1.00  0.00    -0.205 F 
ATOM     90  C   UNL A   1      46.527  32.219  26.450  1.00  0.00     0.022 A 
BRANCH  88  91
ATOM     91  S   UNL A   1      49.182  32.184  27.172  1.00  0.00     0.127 S 
ATOM     92  O   UNL A   1      49.820  30.970  26.669  1.00  0.00    -0.237 OA
ATOM     93  O   UNL A   1      49.105  33.279  26.201  1.00  0.00    -0.237 OA
ATOM     94  O   UNL A   1      49.589  32.611  28.506  1.00  0.00    -0.744 OA
ENDBRANCH  88  91
ENDBRANCH  61  84
ENDBRANCH  35  36
ENDBRANCH  28  30
ENDBRANCH  27  28
ENDBRANCH  26  27
ENDBRANCH   1  26
TORSDOF 19
ENDMDL
MODEL 3
REMARK VINA RESULT:     -10.7      3.022      8.774
REMARK SMILES CCC([NH3+])(CC)C(=O)N1Cc2nc[nH]c2C[C@H]1C(=O)OCCOC(=O)c1ccc(-c2c3nc(c(-c4cccc(S(=O)(=O)[O-])c4F)c4ccc([nH]4)c(-c4cccc(S(=O)(=O)[O-])c4F)c4nc(c(-c5cccc(S(=O)(=O)[O-])c5F)c5ccc2[nH]5)C=C4)C=C3)cc1
REMARK SMILES IDX 21 1 20 2 18 3 19 4 17 5 9 6 10 7 11 8 16 9 12 10 15 11
REMARK SMILES IDX 13 12 14 13 7 15 8 16 3 17 2 18 1 19 4 20 5 24 6 25 22 26
REMARK SMILES IDX 23 27 24 28 25 29 26 30 27 31 88 32 28 33 87 34 29 35 30 36
REMARK SMILES IDX 31 37 81 38 32 39 86 40 80 41 82 42 33 43 85 44 79 45 78 46
REMARK SMILES IDX 34 48 66 49 46 50 65 51 47 52 50 53 64 54 83 55 48 56 49 57
REMARK SMILES IDX 63 59 84 60 51 61 35 62 36 63 44 64 37 65 39 66 45 67 38 68
REMARK SMILES IDX 40 69 41 70 42 71 43 72 67 73 68 74 76 75 69 76 71 77 77 78
REMARK SMILES IDX 70 79 72 80 73 81 74 82 75 83 52 84 53 85 61 86 54 87 56 88
REMARK SMILES IDX 62 89 55 90 57 91 58 92 59 93 60 94
REMARK H PARENT 14 14 4 21 4 22 4 23 82 47 50 58
REMARK Flexibility Score: inf
ROOT
ATOM      1  C   UNL A   1      37.785  23.197  25.669  1.00  0.00     0.274 C 
ENDROOT
BRANCH   1   2
ATOM      2  O   UNL A   1      36.484  22.633  25.914  1.00  0.00    -0.461 OA
BRANCH   2   3
ATOM      3  C   UNL A   1      35.423  23.196  25.278  1.00  0.00     0.329 C 
ATOM      4  O   UNL A   1      35.428  23.519  24.093  1.00  0.00    -0.250 OA
BRANCH   3   5
ATOM      5  C   UNL A   1      34.255  23.571  26.226  1.00  0.00     0.201 C 
ATOM      6  N   UNL A   1      32.894  23.953  25.705  1.00  0.00    -0.317 N 
ATOM      7  C   UNL A   1      32.201  22.944  24.868  1.00  0.00     0.178 C 
ATOM      8  C   UNL A   1      32.492  21.569  25.385  1.00  0.00     0.081 A 
ATOM      9  C   UNL A   1      34.113  22.339  27.175  1.00  0.00     0.093 C 
ATOM     10  N   UNL A   1      32.087  20.399  24.796  1.00  0.00    -0.240 NA
ATOM     11  C   UNL A   1      33.361  21.303  26.423  1.00  0.00     0.042 A 
ATOM     12  C   UNL A   1      32.702  19.448  25.467  1.00  0.00     0.197 A 
ATOM     13  N   UNL A   1      33.486  19.949  26.474  1.00  0.00    -0.348 N 
ATOM     14  H   UNL A   1      34.033  19.432  27.108  1.00  0.00     0.167 HD
BRANCH   6  15
ATOM     15  C   UNL A   1      32.057  24.838  26.402  1.00  0.00     0.284 C 
ATOM     16  O   UNL A   1      31.251  24.405  27.232  1.00  0.00    -0.268 OA
BRANCH  15  17
ATOM     17  C   UNL A   1      32.068  26.378  26.018  1.00  0.00     0.173 C 
BRANCH  17  18
ATOM     18  C   UNL A   1      33.488  27.000  26.241  1.00  0.00     0.075 C 
ATOM     19  C   UNL A   1      33.543  28.403  26.839  1.00  0.00     0.011 C 
ENDBRANCH  17  18
BRANCH  17  20
ATOM     20  N   UNL A   1      31.103  27.071  26.894  1.00  0.00    -0.345 N 
ATOM     21  H   UNL A   1      30.238  26.532  26.942  1.00  0.00     0.345 HD
ATOM     22  H   UNL A   1      30.905  27.997  26.517  1.00  0.00     0.345 HD
ATOM     23  H   UNL A   1      31.498  27.162  27.831  1.00  0.00     0.345 HD
ENDBRANCH  17  20
BRANCH  17  24
ATOM     24  C   UNL A   1      31.665  26.689  24.554  1.00  0.00     0.075 C 
ATOM     25  C   UNL A   1      30.691  27.852  24.404  1.00  0.00     0.011 C 
ENDBRANCH  17  24
ENDBRANCH  15  17
ENDBRANCH   6  15
ENDBRANCH   3   5
ENDBRANCH   2   3
ENDBRANCH   1   2
BRANCH   1  26
ATOM     26  C   UNL A   1      38.871  22.302  26.255  1.00  0.00     0.275 C 
BRANCH  26  27
ATOM     27  O   UNL A   1      39.811  23.037  27.047  1.00  0.00    -0.458 OA
BRANCH  27  28
ATOM     28  C   UNL A   1      41.036  23.129  26.505  1.00  0.00     0.338 C 
ATOM     29  O   UNL A   1      41.711  22.217  26.019  1.00  0.00    -0.246 OA
BRANCH  28  30
ATOM     30  C   UNL A   1      41.634  24.434  26.727  1.00  0.00     0.060 A 
ATOM     31  C   UNL A   1      42.509  24.539  27.810  1.00  0.00     0.016 A 
ATOM     32  C   UNL A   1      41.036  25.554  26.145  1.00  0.00     0.016 A 
ATOM     33  C   UNL A   1      42.605  25.741  28.470  1.00  0.00     0.010 A 
ATOM     34  C   UNL A   1      41.188  26.773  26.770  1.00  0.00     0.010 A 
ATOM     35  C   UNL A   1      41.891  26.835  27.979  1.00  0.00    -0.014 A 
BRANCH  35  36
ATOM     36  C   UNL A   1      42.001  28.081  28.719  1.00  0.00     0.031 A 
ATOM     37  C   UNL A   1      43.169  28.922  28.348  1.00  0.00     0.074 A 
ATOM     38  C   UNL A   1      41.017  28.522  29.526  1.00  0.00     0.049 A 
ATOM     39  N   UNL A   1      44.019  29.514  29.124  1.00  0.00    -0.248 NA
ATOM     40  C   UNL A   1      43.475  29.040  26.911  1.00  0.00     0.031 C 
ATOM     41  C   UNL A   1      39.697  27.914  29.721  1.00  0.00     0.029 A 
ATOM     42  N   UNL A   1      40.911  29.724  30.162  1.00  0.00    -0.354 N 
ATOM     43  C   UNL A   1      44.844  30.242  28.273  1.00  0.00     0.074 A 
ATOM     44  C   UNL A   1      44.565  29.801  26.931  1.00  0.00     0.031 C 
ATOM     45  C   UNL A   1      38.842  28.873  30.131  1.00  0.00     0.029 A 
ATOM     46  C   UNL A   1      39.585  30.106  30.330  1.00  0.00     0.049 A 
ATOM     47  H   UNL A   1      41.681  30.258  30.466  1.00  0.00     0.167 HD
ATOM     48  C   UNL A   1      45.552  31.324  28.689  1.00  0.00     0.034 A 
ATOM     49  C   UNL A   1      39.122  31.369  30.470  1.00  0.00     0.034 A 
ATOM     50  C   UNL A   1      45.725  31.367  30.112  1.00  0.00     0.049 A 
ATOM     51  C   UNL A   1      40.257  32.236  30.864  1.00  0.00     0.074 A 
ATOM     52  C   UNL A   1      46.262  30.515  31.057  1.00  0.00     0.029 A 
ATOM     53  N   UNL A   1      45.025  32.313  30.816  1.00  0.00    -0.354 N 
ATOM     54  N   UNL A   1      40.857  32.183  32.020  1.00  0.00    -0.248 NA
ATOM     55  C   UNL A   1      40.970  32.958  29.823  1.00  0.00     0.031 C 
ATOM     56  C   UNL A   1      45.483  30.724  32.231  1.00  0.00     0.029 A 
ATOM     57  C   UNL A   1      44.522  31.688  31.926  1.00  0.00     0.049 A 
ATOM     58  H   UNL A   1      44.906  33.260  30.570  1.00  0.00     0.167 HD
ATOM     59  C   UNL A   1      42.184  32.482  31.740  1.00  0.00     0.074 A 
ATOM     60  C   UNL A   1      42.162  33.085  30.411  1.00  0.00     0.031 C 
ATOM     61  C   UNL A   1      43.207  31.944  32.473  1.00  0.00     0.034 A 
BRANCH  48  62
ATOM     62  C   UNL A   1      45.829  32.512  27.809  1.00  0.00     0.023 A 
ATOM     63  C   UNL A   1      44.734  33.163  27.205  1.00  0.00     0.012 A 
ATOM     64  C   UNL A   1      47.121  32.866  27.356  1.00  0.00     0.148 A 
ATOM     65  C   UNL A   1      44.917  34.107  26.190  1.00  0.00     0.002 A 
ATOM     66  C   UNL A   1      47.299  33.873  26.418  1.00  0.00     0.091 A 
ATOM     67  F   UNL A   1      48.186  32.147  27.730  1.00  0.00    -0.205 F 
ATOM     68  C   UNL A   1      46.201  34.479  25.808  1.00  0.00     0.022 A 
BRANCH  66  69
ATOM     69  S   UNL A   1      48.955  34.427  25.998  1.00  0.00     0.127 S 
ATOM     70  O   UNL A   1      49.439  34.925  27.281  1.00  0.00    -0.237 OA
ATOM     71  O   UNL A   1      49.591  33.193  25.532  1.00  0.00    -0.237 OA
ATOM     72  O   UNL A   1      48.747  35.415  24.946  1.00  0.00    -0.744 OA
ENDBRANCH  66  69
ENDBRANCH  48  62
BRANCH  49  73
ATOM     73  C   UNL A   1      37.811  31.914  30.052  1.00  0.00     0.023 A 
ATOM     74  C   UNL A   1      37.329  31.639  28.759  1.00  0.00     0.012 A 
ATOM     75  C   UNL A   1      36.932  32.535  30.970  1.00  0.00     0.148 A 
ATOM     76  C   UNL A   1      36.018  31.970  28.393  1.00  0.00     0.002 A 
ATOM     77  C   UNL A   1      35.643  32.896  30.590  1.00  0.00     0.091 A 
ATOM     78  F   UNL A   1      37.317  32.691  32.244  1.00  0.00    -0.205 F 
ATOM     79  C   UNL A   1      35.177  32.605  29.304  1.00  0.00     0.022 A 
BRANCH  77  80
ATOM     80  S   UNL A   1      34.545  33.759  31.724  1.00  0.00     0.127 S 
ATOM     81  O   UNL A   1      33.564  34.359  30.816  1.00  0.00    -0.237 OA
ATOM     82  O   UNL A   1      34.030  32.669  32.546  1.00  0.00    -0.237 OA
ATOM     83  O   UNL A   1      35.391  34.734  32.403  1.00  0.00    -0.744 OA
ENDBRANCH  77  80
ENDBRANCH  49  73
BRANCH  61  84
ATOM     84  C   UNL A   1      42.881  31.243  33.771  1.00  0.00     0.023 A 
ATOM     85  C   UNL A   1      42.675  31.966  34.964  1.00  0.00     0.012 A 
ATOM     86  C   UNL A   1      42.578  29.869  33.756  1.00  0.00     0.148 A 
ATOM     87  C   UNL A   1      42.216  31.334  36.121  1.00  0.00     0.002 A 
ATOM     88  C   UNL A   1      42.074  29.252  34.898  1.00  0.00     0.091 A 
ATOM     89  F   UNL A   1      42.761  29.185  32.616  1.00  0.00    -0.205 F 
ATOM     90  C   UNL A   1      41.903  29.980  36.085  1.00  0.00     0.022 A 
BRANCH  88  91
ATOM     91  S   UNL A   1      41.516  27.545  34.861  1.00  0.00     0.127 S 
ATOM     92  O   UNL A   1      42.723  26.833  34.449  1.00  0.00    -0.237 OA
ATOM     93  O   UNL A   1      41.110  27.305  36.248  1.00  0.00    -0.237 OA
ATOM     94  O   UNL A   1      40.407  27.521  33.913  1.00  0.00    -0.744 OA
ENDBRANCH  88  91
ENDBRANCH  61  84
ENDBRANCH  35  36
ENDBRANCH  28  30
ENDBRANCH  27  28
ENDBRANCH  26  27
ENDBRANCH   1  26
TORSDOF 19
ENDMDL
