MODEL 1
REMARK VINA RESULT:     -10.9      0.000      0.000
REMARK SMILES Cc1nn(-c2cccc(C(F)(F)F)c2)c(C)c1CC(=O)OCCOC(=O)c1ccc(-c2c3nc(c(-c4cccc(S(=O)(=O)[O-])c4F)c4ccc([nH]4)c(-c4cccc(S(=O)(=O)[O-])c4F)c4nc(c(-c5cccc(S(=O)(=O)[O-])c5F)c5ccc2[nH]5)C=C4)C=C3)cc1
REMARK SMILES IDX 22 1 21 2 19 3 20 4 18 5 17 6 1 7 2 8 3 9 4 10 15 11 16 12
REMARK SMILES IDX 5 13 6 14 14 15 7 16 9 17 8 18 10 19 11 20 12 21 13 22 23 23
REMARK SMILES IDX 24 24 25 25 26 26 27 27 28 28 89 29 29 30 88 31 30 32 31 33
REMARK SMILES IDX 32 34 82 35 33 36 87 37 81 38 83 39 34 40 86 41 80 42 79 43
REMARK SMILES IDX 35 45 67 46 47 47 66 48 48 49 51 50 65 51 84 52 49 53 50 54
REMARK SMILES IDX 64 56 85 57 52 58 36 59 37 60 45 61 38 62 40 63 46 64 39 65
REMARK SMILES IDX 41 66 42 67 43 68 44 69 68 70 69 71 77 72 70 73 72 74 78 75
REMARK SMILES IDX 71 76 73 77 74 78 75 79 76 80 53 81 54 82 62 83 55 84 57 85
REMARK SMILES IDX 63 86 56 87 58 88 59 89 60 90 61 91
REMARK H PARENT 83 44 51 55
REMARK Flexibility Score: inf
ROOT
ATOM      1  C   UNL A   1      33.726  34.124  28.565  1.00  0.00     0.274 C 
ENDROOT
BRANCH   1   2
ATOM      2  O   UNL A   1      33.762  35.571  28.567  1.00  0.00    -0.462 OA
BRANCH   2   3
ATOM      3  C   UNL A   1      33.243  36.184  29.665  1.00  0.00     0.310 C 
ATOM      4  O   UNL A   1      33.035  37.397  29.732  1.00  0.00    -0.252 OA
BRANCH   3   5
ATOM      5  C   UNL A   1      33.020  35.287  30.869  1.00  0.00     0.162 C 
BRANCH   5   6
ATOM      6  C   UNL A   1      34.146  35.102  31.840  1.00  0.00     0.007 A 
ATOM      7  C   UNL A   1      33.955  37.301  33.222  1.00  0.00     0.069 C 
ATOM      8  C   UNL A   1      34.562  35.994  32.871  1.00  0.00     0.064 A 
ATOM      9  N   UNL A   1      35.557  35.491  33.615  1.00  0.00    -0.173 NA
ATOM     10  N   UNL A   1      35.868  34.332  32.997  1.00  0.00    -0.238 N 
ATOM     11  C   UNL A   1      34.901  33.965  32.086  1.00  0.00     0.045 A 
ATOM     12  C   UNL A   1      34.802  32.567  31.596  1.00  0.00     0.067 C 
BRANCH  10  13
ATOM     13  C   UNL A   1      36.976  33.542  33.367  1.00  0.00     0.065 A 
ATOM     14  C   UNL A   1      36.770  32.351  34.063  1.00  0.00     0.028 A 
ATOM     15  C   UNL A   1      38.236  33.871  32.846  1.00  0.00     0.041 A 
ATOM     16  C   UNL A   1      37.834  31.459  34.201  1.00  0.00     0.003 A 
ATOM     17  C   UNL A   1      39.320  32.997  33.027  1.00  0.00     0.058 A 
ATOM     18  C   UNL A   1      39.097  31.778  33.689  1.00  0.00     0.013 A 
BRANCH  17  19
ATOM     19  C   UNL A   1      40.701  33.348  32.526  1.00  0.00     0.416 C 
ATOM     20  F   UNL A   1      40.656  34.213  31.473  1.00  0.00    -0.166 F 
ATOM     21  F   UNL A   1      41.473  33.945  33.470  1.00  0.00    -0.166 F 
ATOM     22  F   UNL A   1      41.406  32.270  32.081  1.00  0.00    -0.166 F 
ENDBRANCH  17  19
ENDBRANCH  10  13
ENDBRANCH   5   6
ENDBRANCH   3   5
ENDBRANCH   2   3
ENDBRANCH   1   2
BRANCH   1  23
ATOM     23  C   UNL A   1      34.726  33.479  27.596  1.00  0.00     0.275 C 
BRANCH  23  24
ATOM     24  O   UNL A   1      35.877  32.926  28.251  1.00  0.00    -0.458 OA
BRANCH  24  25
ATOM     25  C   UNL A   1      35.890  31.582  28.200  1.00  0.00     0.338 C 
ATOM     26  O   UNL A   1      35.201  30.881  27.467  1.00  0.00    -0.246 OA
BRANCH  25  27
ATOM     27  C   UNL A   1      36.683  30.956  29.256  1.00  0.00     0.060 A 
ATOM     28  C   UNL A   1      37.703  31.758  29.774  1.00  0.00     0.016 A 
ATOM     29  C   UNL A   1      36.774  29.565  29.259  1.00  0.00     0.016 A 
ATOM     30  C   UNL A   1      38.943  31.196  29.985  1.00  0.00     0.010 A 
ATOM     31  C   UNL A   1      37.998  28.994  29.559  1.00  0.00     0.010 A 
ATOM     32  C   UNL A   1      39.106  29.823  29.782  1.00  0.00    -0.014 A 
BRANCH  32  33
ATOM     33  C   UNL A   1      40.467  29.290  29.832  1.00  0.00     0.031 A 
ATOM     34  C   UNL A   1      41.024  29.067  31.198  1.00  0.00     0.074 A 
ATOM     35  C   UNL A   1      41.115  28.874  28.724  1.00  0.00     0.049 A 
ATOM     36  N   UNL A   1      42.193  29.379  31.663  1.00  0.00    -0.248 NA
ATOM     37  C   UNL A   1      40.109  28.490  32.195  1.00  0.00     0.031 C 
ATOM     38  C   UNL A   1      40.578  28.795  27.360  1.00  0.00     0.029 A 
ATOM     39  N   UNL A   1      42.317  28.231  28.624  1.00  0.00    -0.354 N 
ATOM     40  C   UNL A   1      42.220  28.870  32.961  1.00  0.00     0.074 A 
ATOM     41  C   UNL A   1      40.877  28.460  33.279  1.00  0.00     0.031 C 
ATOM     42  C   UNL A   1      41.277  27.867  26.675  1.00  0.00     0.029 A 
ATOM     43  C   UNL A   1      42.372  27.404  27.508  1.00  0.00     0.049 A 
ATOM     44  H   UNL A   1      43.056  28.341  29.265  1.00  0.00     0.167 HD
ATOM     45  C   UNL A   1      43.368  28.632  33.648  1.00  0.00     0.034 A 
ATOM     46  C   UNL A   1      43.166  26.321  27.340  1.00  0.00     0.034 A 
ATOM     47  C   UNL A   1      44.506  29.310  33.106  1.00  0.00     0.049 A 
ATOM     48  C   UNL A   1      44.275  26.401  28.314  1.00  0.00     0.074 A 
ATOM     49  C   UNL A   1      44.869  30.628  32.920  1.00  0.00     0.029 A 
ATOM     50  N   UNL A   1      45.412  28.562  32.398  1.00  0.00    -0.354 N 
ATOM     51  N   UNL A   1      45.236  27.281  28.263  1.00  0.00    -0.248 NA
ATOM     52  C   UNL A   1      44.140  25.695  29.577  1.00  0.00     0.031 C 
ATOM     53  C   UNL A   1      45.703  30.626  31.765  1.00  0.00     0.029 A 
ATOM     54  C   UNL A   1      45.781  29.308  31.311  1.00  0.00     0.049 A 
ATOM     55  H   UNL A   1      45.735  27.662  32.628  1.00  0.00     0.167 HD
ATOM     56  C   UNL A   1      45.548  27.535  29.591  1.00  0.00     0.074 A 
ATOM     57  C   UNL A   1      44.949  26.435  30.338  1.00  0.00     0.031 C 
ATOM     58  C   UNL A   1      46.004  28.760  29.989  1.00  0.00     0.034 A 
BRANCH  45  59
ATOM     59  C   UNL A   1      43.511  27.550  34.684  1.00  0.00     0.023 A 
ATOM     60  C   UNL A   1      43.680  27.929  36.032  1.00  0.00     0.012 A 
ATOM     61  C   UNL A   1      43.717  26.190  34.365  1.00  0.00     0.148 A 
ATOM     62  C   UNL A   1      44.041  26.997  37.011  1.00  0.00     0.002 A 
ATOM     63  C   UNL A   1      43.983  25.253  35.356  1.00  0.00     0.091 A 
ATOM     64  F   UNL A   1      43.782  25.804  33.084  1.00  0.00    -0.205 F 
ATOM     65  C   UNL A   1      44.172  25.653  36.678  1.00  0.00     0.022 A 
BRANCH  63  66
ATOM     66  S   UNL A   1      44.053  23.506  34.949  1.00  0.00     0.127 S 
ATOM     67  O   UNL A   1      44.577  22.931  36.183  1.00  0.00    -0.237 OA
ATOM     68  O   UNL A   1      42.652  23.193  34.666  1.00  0.00    -0.237 OA
ATOM     69  O   UNL A   1      44.920  23.445  33.777  1.00  0.00    -0.744 OA
ENDBRANCH  63  66
ENDBRANCH  45  59
BRANCH  46  70
ATOM     70  C   UNL A   1      42.880  25.096  26.560  1.00  0.00     0.023 A 
ATOM     71  C   UNL A   1      43.698  24.759  25.466  1.00  0.00     0.012 A 
ATOM     72  C   UNL A   1      41.936  24.142  27.007  1.00  0.00     0.148 A 
ATOM     73  C   UNL A   1      43.579  23.514  24.837  1.00  0.00     0.002 A 
ATOM     74  C   UNL A   1      41.803  22.916  26.361  1.00  0.00     0.091 A 
ATOM     75  F   UNL A   1      41.231  24.395  28.119  1.00  0.00    -0.205 F 
ATOM     76  C   UNL A   1      42.631  22.595  25.279  1.00  0.00     0.022 A 
BRANCH  74  77
ATOM     77  S   UNL A   1      40.582  21.701  26.876  1.00  0.00     0.127 S 
ATOM     78  O   UNL A   1      39.322  22.389  26.589  1.00  0.00    -0.237 OA
ATOM     79  O   UNL A   1      40.880  20.578  25.993  1.00  0.00    -0.237 OA
ATOM     80  O   UNL A   1      40.826  21.480  28.296  1.00  0.00    -0.744 OA
ENDBRANCH  74  77
ENDBRANCH  46  70
BRANCH  58  81
ATOM     81  C   UNL A   1      46.421  29.753  28.932  1.00  0.00     0.023 A 
ATOM     82  C   UNL A   1      47.705  29.705  28.352  1.00  0.00     0.012 A 
ATOM     83  C   UNL A   1      45.449  30.592  28.355  1.00  0.00     0.148 A 
ATOM     84  C   UNL A   1      48.024  30.487  27.240  1.00  0.00     0.002 A 
ATOM     85  C   UNL A   1      45.754  31.331  27.216  1.00  0.00     0.091 A 
ATOM     86  F   UNL A   1      44.225  30.623  28.905  1.00  0.00    -0.205 F 
ATOM     87  C   UNL A   1      47.044  31.289  26.662  1.00  0.00     0.022 A 
BRANCH  85  88
ATOM     88  S   UNL A   1      44.498  32.258  26.329  1.00  0.00     0.127 S 
ATOM     89  O   UNL A   1      43.479  31.240  26.083  1.00  0.00    -0.237 OA
ATOM     90  O   UNL A   1      44.114  33.284  27.302  1.00  0.00    -0.237 OA
ATOM     91  O   UNL A   1      45.160  32.788  25.143  1.00  0.00    -0.744 OA
ENDBRANCH  85  88
ENDBRANCH  58  81
ENDBRANCH  32  33
ENDBRANCH  25  27
ENDBRANCH  24  25
ENDBRANCH  23  24
ENDBRANCH   1  23
TORSDOF 17
ENDMDL
MODEL 2
REMARK VINA RESULT:     -10.2      4.073      7.083
REMARK SMILES Cc1nn(-c2cccc(C(F)(F)F)c2)c(C)c1CC(=O)OCCOC(=O)c1ccc(-c2c3nc(c(-c4cccc(S(=O)(=O)[O-])c4F)c4ccc([nH]4)c(-c4cccc(S(=O)(=O)[O-])c4F)c4nc(c(-c5cccc(S(=O)(=O)[O-])c5F)c5ccc2[nH]5)C=C4)C=C3)cc1
REMARK SMILES IDX 22 1 21 2 19 3 20 4 18 5 17 6 1 7 2 8 3 9 4 10 15 11 16 12
REMARK SMILES IDX 5 13 6 14 14 15 7 16 9 17 8 18 10 19 11 20 12 21 13 22 23 23
REMARK SMILES IDX 24 24 25 25 26 26 27 27 28 28 89 29 29 30 88 31 30 32 31 33
REMARK SMILES IDX 32 34 82 35 33 36 87 37 81 38 83 39 34 40 86 41 80 42 79 43
REMARK SMILES IDX 35 45 67 46 47 47 66 48 48 49 51 50 65 51 84 52 49 53 50 54
REMARK SMILES IDX 64 56 85 57 52 58 36 59 37 60 45 61 38 62 40 63 46 64 39 65
REMARK SMILES IDX 41 66 42 67 43 68 44 69 68 70 69 71 77 72 70 73 72 74 78 75
REMARK SMILES IDX 71 76 73 77 74 78 75 79 76 80 53 81 54 82 62 83 55 84 57 85
REMARK SMILES IDX 63 86 56 87 58 88 59 89 60 90 61 91
REMARK H PARENT 83 44 51 55
REMARK Flexibility Score: inf
ROOT
ATOM      1  C   UNL A   1      32.969  29.566  26.434  1.00  0.00     0.274 C 
ENDROOT
BRANCH   1   2
ATOM      2  O   UNL A   1      32.531  28.538  25.513  1.00  0.00    -0.462 OA
BRANCH   2   3
ATOM      3  C   UNL A   1      31.767  27.543  26.040  1.00  0.00     0.310 C 
ATOM      4  O   UNL A   1      31.530  27.434  27.245  1.00  0.00    -0.252 OA
BRANCH   3   5
ATOM      5  C   UNL A   1      31.292  26.493  25.053  1.00  0.00     0.162 C 
BRANCH   5   6
ATOM      6  C   UNL A   1      32.299  25.540  24.484  1.00  0.00     0.007 A 
ATOM      7  C   UNL A   1      32.869  26.730  22.239  1.00  0.00     0.069 C 
ATOM      8  C   UNL A   1      32.987  25.642  23.241  1.00  0.00     0.064 A 
ATOM      9  N   UNL A   1      33.883  24.660  23.067  1.00  0.00    -0.173 NA
ATOM     10  N   UNL A   1      33.693  23.857  24.135  1.00  0.00    -0.238 N 
ATOM     11  C   UNL A   1      32.928  24.471  25.104  1.00  0.00     0.045 A 
ATOM     12  C   UNL A   1      32.926  23.977  26.504  1.00  0.00     0.067 C 
BRANCH  10  13
ATOM     13  C   UNL A   1      34.333  22.609  24.276  1.00  0.00     0.065 A 
ATOM     14  C   UNL A   1      35.669  22.563  24.676  1.00  0.00     0.028 A 
ATOM     15  C   UNL A   1      33.553  21.445  24.212  1.00  0.00     0.041 A 
ATOM     16  C   UNL A   1      36.216  21.337  25.057  1.00  0.00     0.003 A 
ATOM     17  C   UNL A   1      34.116  20.204  24.546  1.00  0.00     0.058 A 
ATOM     18  C   UNL A   1      35.448  20.167  24.992  1.00  0.00     0.013 A 
BRANCH  17  19
ATOM     19  C   UNL A   1      33.319  18.925  24.434  1.00  0.00     0.416 C 
ATOM     20  F   UNL A   1      33.503  18.114  25.515  1.00  0.00    -0.166 F 
ATOM     21  F   UNL A   1      31.981  19.139  24.350  1.00  0.00    -0.166 F 
ATOM     22  F   UNL A   1      33.655  18.170  23.350  1.00  0.00    -0.166 F 
ENDBRANCH  17  19
ENDBRANCH  10  13
ENDBRANCH   5   6
ENDBRANCH   3   5
ENDBRANCH   2   3
ENDBRANCH   1   2
BRANCH   1  23
ATOM     23  C   UNL A   1      34.474  29.535  26.731  1.00  0.00     0.275 C 
BRANCH  23  24
ATOM     24  O   UNL A   1      34.783  29.718  28.120  1.00  0.00    -0.458 OA
BRANCH  24  25
ATOM     25  C   UNL A   1      35.607  30.762  28.321  1.00  0.00     0.338 C 
ATOM     26  O   UNL A   1      35.699  31.756  27.608  1.00  0.00    -0.246 OA
BRANCH  25  27
ATOM     27  C   UNL A   1      36.576  30.555  29.394  1.00  0.00     0.060 A 
ATOM     28  C   UNL A   1      37.641  31.460  29.402  1.00  0.00     0.016 A 
ATOM     29  C   UNL A   1      36.709  29.267  29.907  1.00  0.00     0.016 A 
ATOM     30  C   UNL A   1      38.915  30.979  29.610  1.00  0.00     0.010 A 
ATOM     31  C   UNL A   1      37.981  28.811  30.203  1.00  0.00     0.010 A 
ATOM     32  C   UNL A   1      39.085  29.627  29.917  1.00  0.00    -0.014 A 
BRANCH  32  33
ATOM     33  C   UNL A   1      40.452  29.107  29.948  1.00  0.00     0.031 A 
ATOM     34  C   UNL A   1      41.021  28.867  31.305  1.00  0.00     0.074 A 
ATOM     35  C   UNL A   1      41.096  28.718  28.828  1.00  0.00     0.049 A 
ATOM     36  N   UNL A   1      42.191  29.184  31.767  1.00  0.00    -0.248 NA
ATOM     37  C   UNL A   1      40.121  28.263  32.299  1.00  0.00     0.031 C 
ATOM     38  C   UNL A   1      40.550  28.657  27.467  1.00  0.00     0.029 A 
ATOM     39  N   UNL A   1      42.305  28.090  28.708  1.00  0.00    -0.354 N 
ATOM     40  C   UNL A   1      42.233  28.653  33.057  1.00  0.00     0.074 A 
ATOM     41  C   UNL A   1      40.897  28.222  33.377  1.00  0.00     0.031 C 
ATOM     42  C   UNL A   1      41.254  27.748  26.761  1.00  0.00     0.029 A 
ATOM     43  C   UNL A   1      42.360  27.283  27.578  1.00  0.00     0.049 A 
ATOM     44  H   UNL A   1      43.047  28.197  29.346  1.00  0.00     0.167 HD
ATOM     45  C   UNL A   1      43.388  28.416  33.731  1.00  0.00     0.034 A 
ATOM     46  C   UNL A   1      43.164  26.212  27.385  1.00  0.00     0.034 A 
ATOM     47  C   UNL A   1      44.515  29.115  33.192  1.00  0.00     0.049 A 
ATOM     48  C   UNL A   1      44.280  26.287  28.352  1.00  0.00     0.074 A 
ATOM     49  C   UNL A   1      44.862  30.440  33.026  1.00  0.00     0.029 A 
ATOM     50  N   UNL A   1      45.424  28.390  32.465  1.00  0.00    -0.354 N 
ATOM     51  N   UNL A   1      45.231  27.178  28.309  1.00  0.00    -0.248 NA
ATOM     52  C   UNL A   1      44.162  25.558  29.604  1.00  0.00     0.031 C 
ATOM     53  C   UNL A   1      45.687  30.468  31.866  1.00  0.00     0.029 A 
ATOM     54  C   UNL A   1      45.777  29.159  31.388  1.00  0.00     0.049 A 
ATOM     55  H   UNL A   1      45.759  27.489  32.677  1.00  0.00     0.167 HD
ATOM     56  C   UNL A   1      45.550  27.413  29.639  1.00  0.00     0.074 A 
ATOM     57  C   UNL A   1      44.968  26.293  30.371  1.00  0.00     0.031 C 
ATOM     58  C   UNL A   1      45.996  28.636  30.055  1.00  0.00     0.034 A 
BRANCH  45  59
ATOM     59  C   UNL A   1      43.551  27.318  34.747  1.00  0.00     0.023 A 
ATOM     60  C   UNL A   1      43.634  27.671  36.110  1.00  0.00     0.012 A 
ATOM     61  C   UNL A   1      43.856  25.981  34.405  1.00  0.00     0.148 A 
ATOM     62  C   UNL A   1      44.007  26.737  37.083  1.00  0.00     0.002 A 
ATOM     63  C   UNL A   1      44.135  25.037  35.386  1.00  0.00     0.091 A 
ATOM     64  F   UNL A   1      44.005  25.634  33.120  1.00  0.00    -0.205 F 
ATOM     65  C   UNL A   1      44.237  25.413  36.725  1.00  0.00     0.022 A 
BRANCH  63  66
ATOM     66  S   UNL A   1      44.332  23.309  34.942  1.00  0.00     0.127 S 
ATOM     67  O   UNL A   1      43.001  22.971  34.450  1.00  0.00    -0.237 OA
ATOM     68  O   UNL A   1      45.376  23.365  33.917  1.00  0.00    -0.237 OA
ATOM     69  O   UNL A   1      44.757  22.666  36.181  1.00  0.00    -0.744 OA
ENDBRANCH  63  66
ENDBRANCH  45  59
BRANCH  46  70
ATOM     70  C   UNL A   1      42.886  24.997  26.586  1.00  0.00     0.023 A 
ATOM     71  C   UNL A   1      43.726  24.664  25.508  1.00  0.00     0.012 A 
ATOM     72  C   UNL A   1      41.924  24.047  27.001  1.00  0.00     0.148 A 
ATOM     73  C   UNL A   1      43.611  23.427  24.863  1.00  0.00     0.002 A 
ATOM     74  C   UNL A   1      41.796  22.829  26.340  1.00  0.00     0.091 A 
ATOM     75  F   UNL A   1      41.196  24.295  28.099  1.00  0.00    -0.205 F 
ATOM     76  C   UNL A   1      42.646  22.512  25.274  1.00  0.00     0.022 A 
BRANCH  74  77
ATOM     77  S   UNL A   1      40.553  21.619  26.814  1.00  0.00     0.127 S 
ATOM     78  O   UNL A   1      40.919  20.463  25.993  1.00  0.00    -0.237 OA
ATOM     79  O   UNL A   1      40.810  21.462  28.242  1.00  0.00    -0.237 OA
ATOM     80  O   UNL A   1      39.271  22.217  26.458  1.00  0.00    -0.744 OA
ENDBRANCH  74  77
ENDBRANCH  46  70
BRANCH  58  81
ATOM     81  C   UNL A   1      46.393  29.652  29.012  1.00  0.00     0.023 A 
ATOM     82  C   UNL A   1      47.694  29.667  28.468  1.00  0.00     0.012 A 
ATOM     83  C   UNL A   1      45.399  30.445  28.410  1.00  0.00     0.148 A 
ATOM     84  C   UNL A   1      48.007  30.468  27.368  1.00  0.00     0.002 A 
ATOM     85  C   UNL A   1      45.700  31.202  27.283  1.00  0.00     0.091 A 
ATOM     86  F   UNL A   1      44.160  30.415  28.926  1.00  0.00    -0.205 F 
ATOM     87  C   UNL A   1      47.006  31.224  26.765  1.00  0.00     0.022 A 
BRANCH  85  88
ATOM     88  S   UNL A   1      44.426  32.070  26.362  1.00  0.00     0.127 S 
ATOM     89  O   UNL A   1      44.001  33.094  27.313  1.00  0.00    -0.237 OA
ATOM     90  O   UNL A   1      45.165  32.582  25.204  1.00  0.00    -0.237 OA
ATOM     91  O   UNL A   1      43.425  31.065  26.025  1.00  0.00    -0.744 OA
ENDBRANCH  85  88
ENDBRANCH  58  81
ENDBRANCH  32  33
ENDBRANCH  25  27
ENDBRANCH  24  25
ENDBRANCH  23  24
ENDBRANCH   1  23
TORSDOF 17
ENDMDL
MODEL 3
REMARK VINA RESULT:     -10.0      4.932     10.371
REMARK SMILES Cc1nn(-c2cccc(C(F)(F)F)c2)c(C)c1CC(=O)OCCOC(=O)c1ccc(-c2c3nc(c(-c4cccc(S(=O)(=O)[O-])c4F)c4ccc([nH]4)c(-c4cccc(S(=O)(=O)[O-])c4F)c4nc(c(-c5cccc(S(=O)(=O)[O-])c5F)c5ccc2[nH]5)C=C4)C=C3)cc1
REMARK SMILES IDX 22 1 21 2 19 3 20 4 18 5 17 6 1 7 2 8 3 9 4 10 15 11 16 12
REMARK SMILES IDX 5 13 6 14 14 15 7 16 9 17 8 18 10 19 11 20 12 21 13 22 23 23
REMARK SMILES IDX 24 24 25 25 26 26 27 27 28 28 89 29 29 30 88 31 30 32 31 33
REMARK SMILES IDX 32 34 82 35 33 36 87 37 81 38 83 39 34 40 86 41 80 42 79 43
REMARK SMILES IDX 35 45 67 46 47 47 66 48 48 49 51 50 65 51 84 52 49 53 50 54
REMARK SMILES IDX 64 56 85 57 52 58 36 59 37 60 45 61 38 62 40 63 46 64 39 65
REMARK SMILES IDX 41 66 42 67 43 68 44 69 68 70 69 71 77 72 70 73 72 74 78 75
REMARK SMILES IDX 71 76 73 77 74 78 75 79 76 80 53 81 54 82 62 83 55 84 57 85
REMARK SMILES IDX 63 86 56 87 58 88 59 89 60 90 61 91
REMARK H PARENT 83 44 51 55
REMARK Flexibility Score: inf
ROOT
ATOM      1  C   UNL A   1      36.770  22.490  24.957  1.00  0.00     0.274 C 
ENDROOT
BRANCH   1   2
ATOM      2  O   UNL A   1      35.578  22.501  25.779  1.00  0.00    -0.462 OA
BRANCH   2   3
ATOM      3  C   UNL A   1      34.392  22.595  25.118  1.00  0.00     0.310 C 
ATOM      4  O   UNL A   1      34.304  22.821  23.909  1.00  0.00    -0.252 OA
BRANCH   3   5
ATOM      5  C   UNL A   1      33.151  22.501  25.986  1.00  0.00     0.162 C 
BRANCH   5   6
ATOM      6  C   UNL A   1      32.258  23.700  26.087  1.00  0.00     0.007 A 
ATOM      7  C   UNL A   1      30.047  22.585  26.891  1.00  0.00     0.069 C 
ATOM      8  C   UNL A   1      30.889  23.735  26.477  1.00  0.00     0.064 A 
ATOM      9  N   UNL A   1      30.402  24.982  26.537  1.00  0.00    -0.173 NA
ATOM     10  N   UNL A   1      31.413  25.745  26.071  1.00  0.00    -0.238 N 
ATOM     11  C   UNL A   1      32.598  25.042  26.017  1.00  0.00     0.045 A 
ATOM     12  C   UNL A   1      33.903  25.747  25.940  1.00  0.00     0.067 C 
BRANCH  10  13
ATOM     13  C   UNL A   1      31.277  27.126  25.822  1.00  0.00     0.065 A 
ATOM     14  C   UNL A   1      31.832  28.044  26.714  1.00  0.00     0.028 A 
ATOM     15  C   UNL A   1      30.766  27.536  24.582  1.00  0.00     0.041 A 
ATOM     16  C   UNL A   1      31.915  29.385  26.336  1.00  0.00     0.003 A 
ATOM     17  C   UNL A   1      30.803  28.891  24.221  1.00  0.00     0.058 A 
ATOM     18  C   UNL A   1      31.405  29.806  25.102  1.00  0.00     0.013 A 
BRANCH  17  19
ATOM     19  C   UNL A   1      30.212  29.372  22.916  1.00  0.00     0.416 C 
ATOM     20  F   UNL A   1      29.332  28.470  22.394  1.00  0.00    -0.166 F 
ATOM     21  F   UNL A   1      29.526  30.537  23.040  1.00  0.00    -0.166 F 
ATOM     22  F   UNL A   1      31.143  29.577  21.943  1.00  0.00    -0.166 F 
ENDBRANCH  17  19
ENDBRANCH  10  13
ENDBRANCH   5   6
ENDBRANCH   3   5
ENDBRANCH   2   3
ENDBRANCH   1   2
BRANCH   1  23
ATOM     23  C   UNL A   1      38.058  22.190  25.735  1.00  0.00     0.275 C 
BRANCH  23  24
ATOM     24  O   UNL A   1      38.529  23.305  26.506  1.00  0.00    -0.458 OA
BRANCH  24  25
ATOM     25  C   UNL A   1      39.769  23.100  26.984  1.00  0.00     0.338 C 
ATOM     26  O   UNL A   1      40.151  22.111  27.601  1.00  0.00    -0.246 OA
BRANCH  25  27
ATOM     27  C   UNL A   1      40.643  24.267  26.887  1.00  0.00     0.060 A 
ATOM     28  C   UNL A   1      41.667  24.311  27.836  1.00  0.00     0.016 A 
ATOM     29  C   UNL A   1      40.112  25.430  26.332  1.00  0.00     0.016 A 
ATOM     30  C   UNL A   1      41.928  25.504  28.474  1.00  0.00     0.010 A 
ATOM     31  C   UNL A   1      40.443  26.640  26.915  1.00  0.00     0.010 A 
ATOM     32  C   UNL A   1      41.238  26.650  28.070  1.00  0.00    -0.014 A 
BRANCH  32  33
ATOM     33  C   UNL A   1      41.396  27.856  28.883  1.00  0.00     0.031 A 
ATOM     34  C   UNL A   1      42.466  28.796  28.442  1.00  0.00     0.074 A 
ATOM     35  C   UNL A   1      40.529  28.176  29.866  1.00  0.00     0.049 A 
ATOM     36  N   UNL A   1      43.366  29.400  29.154  1.00  0.00    -0.248 NA
ATOM     37  C   UNL A   1      42.588  29.022  26.993  1.00  0.00     0.031 C 
ATOM     38  C   UNL A   1      39.291  27.471  30.220  1.00  0.00     0.029 A 
ATOM     39  N   UNL A   1      40.461  29.320  30.610  1.00  0.00    -0.354 N 
ATOM     40  C   UNL A   1      44.052  30.223  28.260  1.00  0.00     0.074 A 
ATOM     41  C   UNL A   1      43.626  29.850  26.936  1.00  0.00     0.031 C 
ATOM     42  C   UNL A   1      38.459  28.341  30.829  1.00  0.00     0.029 A 
ATOM     43  C   UNL A   1      39.160  29.598  31.016  1.00  0.00     0.049 A 
ATOM     44  H   UNL A   1      41.239  29.881  30.832  1.00  0.00     0.167 HD
ATOM     45  C   UNL A   1      44.791  31.295  28.646  1.00  0.00     0.034 A 
ATOM     46  C   UNL A   1      38.656  30.809  31.348  1.00  0.00     0.034 A 
ATOM     47  C   UNL A   1      45.139  31.275  30.034  1.00  0.00     0.049 A 
ATOM     48  C   UNL A   1      39.783  31.718  31.646  1.00  0.00     0.074 A 
ATOM     49  C   UNL A   1      45.881  30.447  30.850  1.00  0.00     0.029 A 
ATOM     50  N   UNL A   1      44.461  32.124  30.871  1.00  0.00    -0.354 N 
ATOM     51  N   UNL A   1      40.561  31.607  32.687  1.00  0.00    -0.248 NA
ATOM     52  C   UNL A   1      40.277  32.581  30.586  1.00  0.00     0.031 C 
ATOM     53  C   UNL A   1      45.279  30.552  32.136  1.00  0.00     0.029 A 
ATOM     54  C   UNL A   1      44.197  31.427  32.018  1.00  0.00     0.049 A 
ATOM     55  H   UNL A   1      44.212  33.058  30.682  1.00  0.00     0.167 HD
ATOM     56  C   UNL A   1      41.803  32.039  32.243  1.00  0.00     0.074 A 
ATOM     57  C   UNL A   1      41.533  32.754  31.000  1.00  0.00     0.031 C 
ATOM     58  C   UNL A   1      42.958  31.527  32.762  1.00  0.00     0.034 A 
BRANCH  45  59
ATOM     59  C   UNL A   1      44.983  32.524  27.800  1.00  0.00     0.023 A 
ATOM     60  C   UNL A   1      43.864  33.062  27.132  1.00  0.00     0.012 A 
ATOM     61  C   UNL A   1      46.253  33.034  27.447  1.00  0.00     0.148 A 
ATOM     62  C   UNL A   1      44.004  34.058  26.159  1.00  0.00     0.002 A 
ATOM     63  C   UNL A   1      46.377  34.087  26.548  1.00  0.00     0.091 A 
ATOM     64  F   UNL A   1      47.364  32.426  27.880  1.00  0.00    -0.205 F 
ATOM     65  C   UNL A   1      45.260  34.587  25.881  1.00  0.00     0.022 A 
BRANCH  63  66
ATOM     66  S   UNL A   1      47.981  34.842  26.262  1.00  0.00     0.127 S 
ATOM     67  O   UNL A   1      48.833  34.093  27.180  1.00  0.00    -0.237 OA
ATOM     68  O   UNL A   1      48.208  34.567  24.842  1.00  0.00    -0.237 OA
ATOM     69  O   UNL A   1      47.772  36.254  26.564  1.00  0.00    -0.744 OA
ENDBRANCH  63  66
ENDBRANCH  45  59
BRANCH  46  70
ATOM     70  C   UNL A   1      37.269  31.295  31.175  1.00  0.00     0.023 A 
ATOM     71  C   UNL A   1      36.510  31.654  32.304  1.00  0.00     0.012 A 
ATOM     72  C   UNL A   1      36.752  31.608  29.896  1.00  0.00     0.148 A 
ATOM     73  C   UNL A   1      35.276  32.301  32.164  1.00  0.00     0.002 A 
ATOM     74  C   UNL A   1      35.513  32.227  29.761  1.00  0.00     0.091 A 
ATOM     75  F   UNL A   1      37.511  31.382  28.815  1.00  0.00    -0.205 F 
ATOM     76  C   UNL A   1      34.776  32.584  30.896  1.00  0.00     0.022 A 
BRANCH  74  77
ATOM     77  S   UNL A   1      34.808  32.596  28.149  1.00  0.00     0.127 S 
ATOM     78  O   UNL A   1      34.702  31.265  27.546  1.00  0.00    -0.237 OA
ATOM     79  O   UNL A   1      33.532  33.208  28.507  1.00  0.00    -0.237 OA
ATOM     80  O   UNL A   1      35.773  33.468  27.491  1.00  0.00    -0.744 OA
ENDBRANCH  74  77
ENDBRANCH  46  70
BRANCH  58  81
ATOM     81  C   UNL A   1      42.876  30.682  34.010  1.00  0.00     0.023 A 
ATOM     82  C   UNL A   1      42.924  31.269  35.292  1.00  0.00     0.012 A 
ATOM     83  C   UNL A   1      42.520  29.325  33.901  1.00  0.00     0.148 A 
ATOM     84  C   UNL A   1      42.649  30.521  36.438  1.00  0.00     0.002 A 
ATOM     85  C   UNL A   1      42.195  28.596  35.040  1.00  0.00     0.091 A 
ATOM     86  F   UNL A   1      42.463  28.778  32.676  1.00  0.00    -0.205 F 
ATOM     87  C   UNL A   1      42.269  29.188  36.312  1.00  0.00     0.022 A 
BRANCH  85  88
ATOM     88  S   UNL A   1      41.544  26.925  34.937  1.00  0.00     0.127 S 
ATOM     89  O   UNL A   1      41.166  26.655  36.322  1.00  0.00    -0.237 OA
ATOM     90  O   UNL A   1      40.416  27.081  34.015  1.00  0.00    -0.237 OA
ATOM     91  O   UNL A   1      42.630  26.108  34.407  1.00  0.00    -0.744 OA
ENDBRANCH  85  88
ENDBRANCH  58  81
ENDBRANCH  32  33
ENDBRANCH  25  27
ENDBRANCH  24  25
ENDBRANCH  23  24
ENDBRANCH   1  23
TORSDOF 17
ENDMDL
