MODEL 1
REMARK VINA RESULT:     -12.5      0.000      0.000
REMARK SMILES Cc1ccc(C(C)C)c(OCC(=O)Nc2nc(CC(=O)OCCOC(=O)c3ccc(-c4c5nc(c(-c6cccc(S(=O)(=O)[O-])c6F)c6ccc([nH]6)c(-c6cccc(S(=O)(=O)[O-])c6F)c6nc(c(-c7cccc(S(=O)(=O)[O-])c7F)c7ccc4[nH]7)C=C6)C=C5)cc3)cs2)c1
REMARK SMILES IDX 21 1 19 2 20 3 18 4 17 5 15 6 16 7 91 8 90 9 14 10 12 11
REMARK SMILES IDX 13 12 11 14 10 15 9 16 1 17 2 18 3 19 92 20 4 21 5 22 6 23
REMARK SMILES IDX 7 24 8 25 22 26 23 27 24 28 25 29 26 30 27 31 28 32 89 33
REMARK SMILES IDX 29 34 88 35 30 36 31 37 32 38 82 39 33 40 87 41 81 42 83 43
REMARK SMILES IDX 34 44 86 45 80 46 79 47 35 49 67 50 47 51 66 52 48 53 51 54
REMARK SMILES IDX 65 55 84 56 49 57 50 58 64 60 85 61 52 62 36 63 37 64 45 65
REMARK SMILES IDX 38 66 40 67 46 68 39 69 41 70 42 71 43 72 44 73 68 74 69 75
REMARK SMILES IDX 77 76 70 77 72 78 78 79 71 80 73 81 74 82 75 83 76 84 53 85
REMARK SMILES IDX 54 86 62 87 55 88 57 89 63 90 56 91 58 92 59 93 60 94 61 95
REMARK H PARENT 14 13 83 48 51 59
REMARK Flexibility Score: inf
ROOT
ATOM      1  O   UNL A   1      36.625  31.654  28.191  1.00  0.00    -0.462 OA
ENDROOT
BRANCH   1   2
ATOM      2  C   UNL A   1      35.941  30.456  27.771  1.00  0.00     0.312 C 
ATOM      3  O   UNL A   1      36.812  29.541  27.852  1.00  0.00    -0.252 OA
BRANCH   2   4
ATOM      4  C   UNL A   1      33.829  30.368  27.240  1.00  0.00     0.179 C 
BRANCH   4   5
ATOM      5  C   UNL A   1      32.801  29.129  26.520  1.00  0.00     0.065 A 
ATOM      6  C   UNL A   1      31.741  27.161  26.637  1.00  0.00     0.189 A 
ATOM      7  N   UNL A   1      32.464  28.009  27.327  1.00  0.00    -0.224 NA
ATOM      8  S   UNL A   1      31.400  27.604  25.027  1.00  0.00    -0.105 S 
ATOM      9  C   UNL A   1      32.033  29.163  25.359  1.00  0.00     0.093 A 
BRANCH   6  10
ATOM     10  N   UNL A   1      31.249  25.928  26.949  1.00  0.00    -0.299 N 
ATOM     11  C   UNL A   1      31.771  24.708  26.653  1.00  0.00     0.264 C 
ATOM     12  O   UNL A   1      31.142  23.714  27.043  1.00  0.00    -0.271 OA
ATOM     13  H   UNL A   1      30.404  25.922  27.453  1.00  0.00     0.172 HD
BRANCH  11  14
ATOM     14  C   UNL A   1      33.193  24.544  26.103  1.00  0.00     0.329 C 
BRANCH  14  15
ATOM     15  O   UNL A   1      33.482  23.913  24.894  1.00  0.00    -0.483 OA
BRANCH  15  16
ATOM     16  C   UNL A   1      33.780  22.585  24.891  1.00  0.00     0.123 A 
ATOM     17  C   UNL A   1      32.404  19.038  24.732  1.00  0.00     0.044 C 
ATOM     18  C   UNL A   1      33.327  20.208  24.838  1.00  0.00    -0.047 A 
ATOM     19  C   UNL A   1      34.694  19.948  24.880  1.00  0.00     0.004 A 
ATOM     20  C   UNL A   1      32.868  21.533  24.899  1.00  0.00     0.050 A 
ATOM     21  C   UNL A   1      35.597  20.988  24.964  1.00  0.00     0.008 A 
ATOM     22  C   UNL A   1      35.149  22.313  24.893  1.00  0.00    -0.003 A 
BRANCH  22  23
ATOM     23  C   UNL A   1      36.124  23.425  24.619  1.00  0.00     0.017 C 
ATOM     24  C   UNL A   1      37.099  23.684  25.759  1.00  0.00     0.012 C 
ATOM     25  C   UNL A   1      36.736  23.138  23.263  1.00  0.00     0.012 C 
ENDBRANCH  22  23
ENDBRANCH  15  16
ENDBRANCH  14  15
ENDBRANCH  11  14
ENDBRANCH   6  10
ENDBRANCH   4   5
ENDBRANCH   2   4
ENDBRANCH   1   2
BRANCH   1  26
ATOM     26  C   UNL A   1      36.007  32.403  29.241  1.00  0.00     0.274 C 
BRANCH  26  27
ATOM     27  C   UNL A   1      36.071  31.552  30.512  1.00  0.00     0.275 C 
BRANCH  27  28
ATOM     28  O   UNL A   1      37.406  31.267  31.026  1.00  0.00    -0.458 OA
BRANCH  28  29
ATOM     29  C   UNL A   1      37.702  30.640  32.202  1.00  0.00     0.338 C 
ATOM     30  O   UNL A   1      37.572  31.175  33.293  1.00  0.00    -0.246 OA
BRANCH  29  31
ATOM     31  C   UNL A   1      38.475  29.383  32.085  1.00  0.00     0.060 A 
ATOM     32  C   UNL A   1      40.202  29.464  32.626  1.00  0.00     0.016 A 
ATOM     33  C   UNL A   1      37.980  28.203  30.810  1.00  0.00     0.016 A 
ATOM     34  C   UNL A   1      41.472  28.558  31.671  1.00  0.00     0.010 A 
ATOM     35  C   UNL A   1      39.245  27.289  29.900  1.00  0.00     0.010 A 
ATOM     36  C   UNL A   1      40.993  27.558  30.264  1.00  0.00    -0.014 A 
BRANCH  36  37
ATOM     37  C   UNL A   1      41.831  27.399  29.047  1.00  0.00     0.031 A 
ATOM     38  C   UNL A   1      42.330  26.053  28.693  1.00  0.00     0.074 A 
ATOM     39  C   UNL A   1      41.953  28.407  28.158  1.00  0.00     0.049 A 
ATOM     40  N   UNL A   1      41.893  25.265  27.760  1.00  0.00    -0.248 NA
ATOM     41  C   UNL A   1      43.380  25.492  29.545  1.00  0.00     0.031 C 
ATOM     42  C   UNL A   1      42.395  28.304  26.774  1.00  0.00     0.029 A 
ATOM     43  N   UNL A   1      41.906  29.783  28.379  1.00  0.00    -0.354 N 
ATOM     44  C   UNL A   1      42.638  24.083  27.854  1.00  0.00     0.074 A 
ATOM     45  C   UNL A   1      43.417  24.239  29.091  1.00  0.00     0.031 C 
ATOM     46  C   UNL A   1      42.875  29.498  26.383  1.00  0.00     0.029 A 
ATOM     47  C   UNL A   1      42.885  30.358  27.557  1.00  0.00     0.049 A 
ATOM     48  H   UNL A   1      41.302  30.258  28.994  1.00  0.00     0.167 HD
ATOM     49  C   UNL A   1      43.405  23.662  26.811  1.00  0.00     0.034 A 
ATOM     50  C   UNL A   1      43.991  30.990  28.055  1.00  0.00     0.034 A 
ATOM     51  C   UNL A   1      44.188  24.727  26.210  1.00  0.00     0.049 A 
ATOM     52  C   UNL A   1      45.247  30.187  27.737  1.00  0.00     0.074 A 
ATOM     53  C   UNL A   1      44.011  25.535  25.107  1.00  0.00     0.029 A 
ATOM     54  N   UNL A   1      45.264  25.253  26.918  1.00  0.00    -0.354 N 
ATOM     55  N   UNL A   1      45.253  28.929  27.384  1.00  0.00    -0.248 NA
ATOM     56  C   UNL A   1      46.590  30.748  27.814  1.00  0.00     0.031 C 
ATOM     57  C   UNL A   1      44.937  26.610  25.211  1.00  0.00     0.029 A 
ATOM     58  C   UNL A   1      45.710  26.431  26.349  1.00  0.00     0.049 A 
ATOM     59  H   UNL A   1      45.657  24.840  27.722  1.00  0.00     0.167 HD
ATOM     60  C   UNL A   1      46.544  28.490  27.228  1.00  0.00     0.074 A 
ATOM     61  C   UNL A   1      47.338  29.682  27.489  1.00  0.00     0.031 C 
ATOM     62  C   UNL A   1      46.834  27.185  26.913  1.00  0.00     0.034 A 
BRANCH  49  63
ATOM     63  C   UNL A   1      43.273  22.231  26.344  1.00  0.00     0.023 A 
ATOM     64  C   UNL A   1      42.066  21.560  26.617  1.00  0.00     0.012 A 
ATOM     65  C   UNL A   1      44.286  21.491  25.669  1.00  0.00     0.148 A 
ATOM     66  C   UNL A   1      41.873  20.215  26.278  1.00  0.00     0.002 A 
ATOM     67  C   UNL A   1      44.088  20.145  25.328  1.00  0.00     0.091 A 
ATOM     68  F   UNL A   1      45.446  22.094  25.371  1.00  0.00    -0.205 F 
ATOM     69  C   UNL A   1      42.883  19.507  25.640  1.00  0.00     0.022 A 
BRANCH  67  70
ATOM     70  S   UNL A   1      45.317  19.124  24.490  1.00  0.00     0.127 S 
ATOM     71  O   UNL A   1      45.346  17.925  25.326  1.00  0.00    -0.237 OA
ATOM     72  O   UNL A   1      44.724  18.923  23.168  1.00  0.00    -0.237 OA
ATOM     73  O   UNL A   1      46.548  19.900  24.484  1.00  0.00    -0.744 OA
ENDBRANCH  67  70
ENDBRANCH  49  63
BRANCH  50  74
ATOM     74  C   UNL A   1      43.773  31.711  29.352  1.00  0.00     0.023 A 
ATOM     75  C   UNL A   1      44.033  31.005  30.552  1.00  0.00     0.012 A 
ATOM     76  C   UNL A   1      43.695  33.108  29.403  1.00  0.00     0.148 A 
ATOM     77  C   UNL A   1      44.435  31.681  31.705  1.00  0.00     0.002 A 
ATOM     78  C   UNL A   1      44.112  33.777  30.549  1.00  0.00     0.091 A 
ATOM     79  F   UNL A   1      43.289  33.786  28.323  1.00  0.00    -0.205 F 
ATOM     80  C   UNL A   1      44.525  33.069  31.686  1.00  0.00     0.022 A 
BRANCH  78  81
ATOM     81  S   UNL A   1      44.404  35.551  30.459  1.00  0.00     0.127 S 
ATOM     82  O   UNL A   1      44.985  35.849  31.769  1.00  0.00    -0.237 OA
ATOM     83  O   UNL A   1      45.345  35.683  29.354  1.00  0.00    -0.237 OA
ATOM     84  O   UNL A   1      43.059  36.070  30.243  1.00  0.00    -0.744 OA
ENDBRANCH  78  81
ENDBRANCH  50  74
BRANCH  62  85
ATOM     85  C   UNL A   1      48.222  26.541  26.991  1.00  0.00     0.023 A 
ATOM     86  C   UNL A   1      48.516  25.477  27.867  1.00  0.00     0.012 A 
ATOM     87  C   UNL A   1      49.285  26.932  26.130  1.00  0.00     0.148 A 
ATOM     88  C   UNL A   1      49.799  24.932  27.994  1.00  0.00     0.002 A 
ATOM     89  C   UNL A   1      50.532  26.310  26.179  1.00  0.00     0.091 A 
ATOM     90  F   UNL A   1      49.111  27.928  25.255  1.00  0.00    -0.205 F 
ATOM     91  C   UNL A   1      50.810  25.346  27.145  1.00  0.00     0.022 A 
BRANCH  89  92
ATOM     92  S   UNL A   1      51.813  26.631  24.957  1.00  0.00     0.127 S 
ATOM     93  O   UNL A   1      52.661  25.449  25.100  1.00  0.00    -0.237 OA
ATOM     94  O   UNL A   1      51.038  26.682  23.716  1.00  0.00    -0.237 OA
ATOM     95  O   UNL A   1      52.418  27.899  25.340  1.00  0.00    -0.744 OA
ENDBRANCH  89  92
ENDBRANCH  62  85
ENDBRANCH  36  37
ENDBRANCH  29  31
ENDBRANCH  28  29
ENDBRANCH  27  28
ENDBRANCH  26  27
ENDBRANCH   1  26
TORSDOF 20
ENDMDL
MODEL 2
REMARK VINA RESULT:     -11.9      2.951      7.816
REMARK SMILES Cc1ccc(C(C)C)c(OCC(=O)Nc2nc(CC(=O)OCCOC(=O)c3ccc(-c4c5nc(c(-c6cccc(S(=O)(=O)[O-])c6F)c6ccc([nH]6)c(-c6cccc(S(=O)(=O)[O-])c6F)c6nc(c(-c7cccc(S(=O)(=O)[O-])c7F)c7ccc4[nH]7)C=C6)C=C5)cc3)cs2)c1
REMARK SMILES IDX 21 1 19 2 20 3 18 4 17 5 15 6 16 7 91 8 90 9 14 10 12 11
REMARK SMILES IDX 13 12 11 14 10 15 9 16 1 17 2 18 3 19 92 20 4 21 5 22 6 23
REMARK SMILES IDX 7 24 8 25 22 26 23 27 24 28 25 29 26 30 27 31 28 32 89 33
REMARK SMILES IDX 29 34 88 35 30 36 31 37 32 38 82 39 33 40 87 41 81 42 83 43
REMARK SMILES IDX 34 44 86 45 80 46 79 47 35 49 67 50 47 51 66 52 48 53 51 54
REMARK SMILES IDX 65 55 84 56 49 57 50 58 64 60 85 61 52 62 36 63 37 64 45 65
REMARK SMILES IDX 38 66 40 67 46 68 39 69 41 70 42 71 43 72 44 73 68 74 69 75
REMARK SMILES IDX 77 76 70 77 72 78 78 79 71 80 73 81 74 82 75 83 76 84 53 85
REMARK SMILES IDX 54 86 62 87 55 88 57 89 63 90 56 91 58 92 59 93 60 94 61 95
REMARK H PARENT 14 13 83 48 51 59
REMARK Flexibility Score: inf
ROOT
ATOM      1  O   UNL A   1      34.926  30.344  27.070  1.00  0.00    -0.462 OA
ENDROOT
BRANCH   1   2
ATOM      2  C   UNL A   1      33.532  30.488  26.731  1.00  0.00     0.312 C 
ATOM      3  O   UNL A   1      33.088  31.344  27.551  1.00  0.00    -0.252 OA
BRANCH   2   4
ATOM      4  C   UNL A   1      32.559  29.469  25.069  1.00  0.00     0.179 C 
BRANCH   4   5
ATOM      5  C   UNL A   1      31.465  28.090  24.954  1.00  0.00     0.065 A 
ATOM      6  C   UNL A   1      30.594  26.212  25.806  1.00  0.00     0.189 A 
ATOM      7  N   UNL A   1      31.409  27.205  26.064  1.00  0.00    -0.224 NA
ATOM      8  S   UNL A   1      29.838  26.243  24.279  1.00  0.00    -0.105 S 
ATOM      9  C   UNL A   1      30.433  27.835  24.055  1.00  0.00     0.093 A 
BRANCH   6  10
ATOM     10  N   UNL A   1      30.273  25.095  26.519  1.00  0.00    -0.299 N 
ATOM     11  C   UNL A   1      31.008  23.965  26.698  1.00  0.00     0.264 C 
ATOM     12  O   UNL A   1      30.507  23.070  27.395  1.00  0.00    -0.271 OA
ATOM     13  H   UNL A   1      29.394  25.109  26.961  1.00  0.00     0.172 HD
BRANCH  11  14
ATOM     14  C   UNL A   1      32.485  23.883  26.297  1.00  0.00     0.329 C 
BRANCH  14  15
ATOM     15  O   UNL A   1      32.921  23.398  25.065  1.00  0.00    -0.483 OA
BRANCH  15  16
ATOM     16  C   UNL A   1      33.389  22.123  24.979  1.00  0.00     0.123 A 
ATOM     17  C   UNL A   1      32.478  18.441  24.636  1.00  0.00     0.044 C 
ATOM     18  C   UNL A   1      33.245  19.714  24.795  1.00  0.00    -0.047 A 
ATOM     19  C   UNL A   1      34.635  19.632  24.799  1.00  0.00     0.004 A 
ATOM     20  C   UNL A   1      32.621  20.962  24.940  1.00  0.00     0.050 A 
ATOM     21  C   UNL A   1      35.398  20.774  24.928  1.00  0.00     0.008 A 
ATOM     22  C   UNL A   1      34.781  22.031  24.942  1.00  0.00    -0.003 A 
BRANCH  22  23
ATOM     23  C   UNL A   1      35.597  23.275  24.717  1.00  0.00     0.017 C 
ATOM     24  C   UNL A   1      36.578  23.579  25.841  1.00  0.00     0.012 C 
ATOM     25  C   UNL A   1      36.185  23.159  23.325  1.00  0.00     0.012 C 
ENDBRANCH  22  23
ENDBRANCH  15  16
ENDBRANCH  14  15
ENDBRANCH  11  14
ENDBRANCH   6  10
ENDBRANCH   4   5
ENDBRANCH   2   4
ENDBRANCH   1   2
BRANCH   1  26
ATOM     26  C   UNL A   1      35.238  29.370  28.071  1.00  0.00     0.274 C 
BRANCH  26  27
ATOM     27  C   UNL A   1      36.223  30.017  29.049  1.00  0.00     0.275 C 
BRANCH  27  28
ATOM     28  O   UNL A   1      36.764  29.142  30.084  1.00  0.00    -0.458 OA
BRANCH  28  29
ATOM     29  C   UNL A   1      38.060  28.726  30.193  1.00  0.00     0.338 C 
ATOM     30  O   UNL A   1      38.419  27.865  30.984  1.00  0.00    -0.246 OA
BRANCH  29  31
ATOM     31  C   UNL A   1      39.068  29.576  29.521  1.00  0.00     0.060 A 
ATOM     32  C   UNL A   1      39.580  29.036  27.869  1.00  0.00     0.016 A 
ATOM     33  C   UNL A   1      40.208  30.517  30.560  1.00  0.00     0.016 A 
ATOM     34  C   UNL A   1      41.339  29.199  27.391  1.00  0.00     0.010 A 
ATOM     35  C   UNL A   1      41.933  30.698  30.056  1.00  0.00     0.010 A 
ATOM     36  C   UNL A   1      42.512  29.939  28.524  1.00  0.00    -0.014 A 
BRANCH  36  37
ATOM     37  C   UNL A   1      43.930  29.509  28.634  1.00  0.00     0.031 A 
ATOM     38  C   UNL A   1      44.994  30.419  28.158  1.00  0.00     0.074 A 
ATOM     39  C   UNL A   1      44.264  28.416  29.352  1.00  0.00     0.049 A 
ATOM     40  N   UNL A   1      45.791  31.151  28.872  1.00  0.00    -0.248 NA
ATOM     41  C   UNL A   1      45.112  30.596  26.709  1.00  0.00     0.031 C 
ATOM     42  C   UNL A   1      45.583  28.082  29.873  1.00  0.00     0.029 A 
ATOM     43  N   UNL A   1      43.523  27.259  29.586  1.00  0.00    -0.354 N 
ATOM     44  C   UNL A   1      46.575  31.883  27.974  1.00  0.00     0.074 A 
ATOM     45  C   UNL A   1      45.976  31.611  26.660  1.00  0.00     0.031 C 
ATOM     46  C   UNL A   1      45.649  26.752  30.060  1.00  0.00     0.029 A 
ATOM     47  C   UNL A   1      44.420  26.184  29.525  1.00  0.00     0.049 A 
ATOM     48  H   UNL A   1      42.556  27.207  29.762  1.00  0.00     0.167 HD
ATOM     49  C   UNL A   1      47.930  31.744  27.962  1.00  0.00     0.034 A 
ATOM     50  C   UNL A   1      44.360  25.225  28.553  1.00  0.00     0.034 A 
ATOM     51  C   UNL A   1      48.363  30.360  28.027  1.00  0.00     0.049 A 
ATOM     52  C   UNL A   1      45.569  25.329  27.631  1.00  0.00     0.074 A 
ATOM     53  C   UNL A   1      48.785  29.539  29.051  1.00  0.00     0.029 A 
ATOM     54  N   UNL A   1      48.170  29.542  26.917  1.00  0.00    -0.354 N 
ATOM     55  N   UNL A   1      46.343  26.378  27.539  1.00  0.00    -0.248 NA
ATOM     56  C   UNL A   1      45.978  24.258  26.732  1.00  0.00     0.031 C 
ATOM     57  C   UNL A   1      48.754  28.201  28.569  1.00  0.00     0.029 A 
ATOM     58  C   UNL A   1      48.361  28.211  27.238  1.00  0.00     0.049 A 
ATOM     59  H   UNL A   1      47.928  29.868  26.020  1.00  0.00     0.167 HD
ATOM     60  C   UNL A   1      47.301  26.174  26.578  1.00  0.00     0.074 A 
ATOM     61  C   UNL A   1      47.036  24.816  26.122  1.00  0.00     0.031 C 
ATOM     62  C   UNL A   1      48.211  27.146  26.241  1.00  0.00     0.034 A 
BRANCH  49  63
ATOM     63  C   UNL A   1      48.787  32.987  28.001  1.00  0.00     0.023 A 
ATOM     64  C   UNL A   1      49.494  33.261  29.188  1.00  0.00     0.012 A 
ATOM     65  C   UNL A   1      48.919  33.927  26.939  1.00  0.00     0.148 A 
ATOM     66  C   UNL A   1      50.265  34.420  29.340  1.00  0.00     0.002 A 
ATOM     67  C   UNL A   1      49.696  35.085  27.094  1.00  0.00     0.091 A 
ATOM     68  F   UNL A   1      48.280  33.699  25.782  1.00  0.00    -0.205 F 
ATOM     69  C   UNL A   1      50.362  35.332  28.299  1.00  0.00     0.022 A 
BRANCH  67  70
ATOM     70  S   UNL A   1      49.907  36.338  25.814  1.00  0.00     0.127 S 
ATOM     71  O   UNL A   1      51.082  37.070  26.288  1.00  0.00    -0.237 OA
ATOM     72  O   UNL A   1      50.141  35.537  24.612  1.00  0.00    -0.237 OA
ATOM     73  O   UNL A   1      48.671  37.105  25.793  1.00  0.00    -0.744 OA
ENDBRANCH  67  70
ENDBRANCH  49  63
BRANCH  50  74
ATOM     74  C   UNL A   1      42.977  24.901  28.075  1.00  0.00     0.023 A 
ATOM     75  C   UNL A   1      42.330  25.843  27.237  1.00  0.00     0.012 A 
ATOM     76  C   UNL A   1      42.481  23.591  28.113  1.00  0.00     0.148 A 
ATOM     77  C   UNL A   1      41.381  25.431  26.299  1.00  0.00     0.002 A 
ATOM     78  C   UNL A   1      41.547  23.183  27.166  1.00  0.00     0.091 A 
ATOM     79  F   UNL A   1      42.967  22.730  29.015  1.00  0.00    -0.205 F 
ATOM     80  C   UNL A   1      41.028  24.087  26.230  1.00  0.00     0.022 A 
BRANCH  78  81
ATOM     81  S   UNL A   1      41.237  21.421  26.960  1.00  0.00     0.127 S 
ATOM     82  O   UNL A   1      40.204  21.396  25.924  1.00  0.00    -0.237 OA
ATOM     83  O   UNL A   1      42.525  20.901  26.519  1.00  0.00    -0.237 OA
ATOM     84  O   UNL A   1      40.792  21.032  28.292  1.00  0.00    -0.744 OA
ENDBRANCH  78  81
ENDBRANCH  50  74
BRANCH  62  85
ATOM     85  C   UNL A   1      49.124  27.120  25.011  1.00  0.00     0.023 A 
ATOM     86  C   UNL A   1      50.510  26.883  25.101  1.00  0.00     0.012 A 
ATOM     87  C   UNL A   1      48.615  27.263  23.690  1.00  0.00     0.148 A 
ATOM     88  C   UNL A   1      51.360  26.929  23.990  1.00  0.00     0.002 A 
ATOM     89  C   UNL A   1      49.448  27.195  22.574  1.00  0.00     0.091 A 
ATOM     90  F   UNL A   1      47.312  27.485  23.491  1.00  0.00    -0.205 F 
ATOM     91  C   UNL A   1      50.829  27.081  22.722  1.00  0.00     0.022 A 
BRANCH  89  92
ATOM     92  S   UNL A   1      48.802  27.149  20.896  1.00  0.00     0.127 S 
ATOM     93  O   UNL A   1      49.888  27.773  20.143  1.00  0.00    -0.237 OA
ATOM     94  O   UNL A   1      48.650  25.710  20.672  1.00  0.00    -0.237 OA
ATOM     95  O   UNL A   1      47.547  27.887  20.933  1.00  0.00    -0.744 OA
ENDBRANCH  89  92
ENDBRANCH  62  85
ENDBRANCH  36  37
ENDBRANCH  29  31
ENDBRANCH  28  29
ENDBRANCH  27  28
ENDBRANCH  26  27
ENDBRANCH   1  26
TORSDOF 20
ENDMDL
MODEL 3
REMARK VINA RESULT:     -11.7      4.578      6.631
REMARK SMILES Cc1ccc(C(C)C)c(OCC(=O)Nc2nc(CC(=O)OCCOC(=O)c3ccc(-c4c5nc(c(-c6cccc(S(=O)(=O)[O-])c6F)c6ccc([nH]6)c(-c6cccc(S(=O)(=O)[O-])c6F)c6nc(c(-c7cccc(S(=O)(=O)[O-])c7F)c7ccc4[nH]7)C=C6)C=C5)cc3)cs2)c1
REMARK SMILES IDX 21 1 19 2 20 3 18 4 17 5 15 6 16 7 91 8 90 9 14 10 12 11
REMARK SMILES IDX 13 12 11 14 10 15 9 16 1 17 2 18 3 19 92 20 4 21 5 22 6 23
REMARK SMILES IDX 7 24 8 25 22 26 23 27 24 28 25 29 26 30 27 31 28 32 89 33
REMARK SMILES IDX 29 34 88 35 30 36 31 37 32 38 82 39 33 40 87 41 81 42 83 43
REMARK SMILES IDX 34 44 86 45 80 46 79 47 35 49 67 50 47 51 66 52 48 53 51 54
REMARK SMILES IDX 65 55 84 56 49 57 50 58 64 60 85 61 52 62 36 63 37 64 45 65
REMARK SMILES IDX 38 66 40 67 46 68 39 69 41 70 42 71 43 72 44 73 68 74 69 75
REMARK SMILES IDX 77 76 70 77 72 78 78 79 71 80 73 81 74 82 75 83 76 84 53 85
REMARK SMILES IDX 54 86 62 87 55 88 57 89 63 90 56 91 58 92 59 93 60 94 61 95
REMARK H PARENT 14 13 83 48 51 59
REMARK Flexibility Score: inf
ROOT
ATOM      1  O   UNL A   1      33.758  32.389  28.555  1.00  0.00    -0.462 OA
ENDROOT
BRANCH   1   2
ATOM      2  C   UNL A   1      33.871  31.293  27.625  1.00  0.00     0.312 C 
ATOM      3  O   UNL A   1      35.072  30.906  27.727  1.00  0.00    -0.252 OA
BRANCH   2   4
ATOM      4  C   UNL A   1      32.217  30.510  26.441  1.00  0.00     0.179 C 
BRANCH   4   5
ATOM      5  C   UNL A   1      31.767  28.897  25.890  1.00  0.00     0.065 A 
ATOM      6  C   UNL A   1      31.257  26.759  26.316  1.00  0.00     0.189 A 
ATOM      7  N   UNL A   1      31.532  27.908  26.883  1.00  0.00    -0.224 NA
ATOM      8  S   UNL A   1      31.242  26.750  24.612  1.00  0.00    -0.105 S 
ATOM      9  C   UNL A   1      31.343  28.461  24.637  1.00  0.00     0.093 A 
BRANCH   6  10
ATOM     10  N   UNL A   1      31.036  25.520  26.841  1.00  0.00    -0.299 N 
ATOM     11  C   UNL A   1      31.748  24.378  26.646  1.00  0.00     0.264 C 
ATOM     12  O   UNL A   1      31.356  23.359  27.234  1.00  0.00    -0.271 OA
ATOM     13  H   UNL A   1      30.258  25.442  27.439  1.00  0.00     0.172 HD
BRANCH  11  14
ATOM     14  C   UNL A   1      33.118  24.382  25.958  1.00  0.00     0.329 C 
BRANCH  14  15
ATOM     15  O   UNL A   1      33.380  23.713  24.763  1.00  0.00    -0.483 OA
BRANCH  15  16
ATOM     16  C   UNL A   1      33.738  22.401  24.800  1.00  0.00     0.123 A 
ATOM     17  C   UNL A   1      32.520  18.792  24.789  1.00  0.00     0.044 C 
ATOM     18  C   UNL A   1      33.391  20.005  24.838  1.00  0.00    -0.047 A 
ATOM     19  C   UNL A   1      34.769  19.808  24.863  1.00  0.00     0.004 A 
ATOM     20  C   UNL A   1      32.875  21.310  24.861  1.00  0.00     0.050 A 
ATOM     21  C   UNL A   1      35.626  20.888  24.894  1.00  0.00     0.008 A 
ATOM     22  C   UNL A   1      35.118  22.189  24.785  1.00  0.00    -0.003 A 
BRANCH  22  23
ATOM     23  C   UNL A   1      36.036  23.333  24.454  1.00  0.00     0.017 C 
ATOM     24  C   UNL A   1      37.018  23.676  25.568  1.00  0.00     0.012 C 
ATOM     25  C   UNL A   1      36.639  23.025  23.099  1.00  0.00     0.012 C 
ENDBRANCH  22  23
ENDBRANCH  15  16
ENDBRANCH  14  15
ENDBRANCH  11  14
ENDBRANCH   6  10
ENDBRANCH   4   5
ENDBRANCH   2   4
ENDBRANCH   1   2
BRANCH   1  26
ATOM     26  C   UNL A   1      33.657  33.698  27.985  1.00  0.00     0.274 C 
BRANCH  26  27
ATOM     27  C   UNL A   1      33.909  34.708  29.108  1.00  0.00     0.275 C 
BRANCH  27  28
ATOM     28  O   UNL A   1      33.505  34.291  30.447  1.00  0.00    -0.458 OA
BRANCH  28  29
ATOM     29  C   UNL A   1      34.139  34.601  31.616  1.00  0.00     0.338 C 
ATOM     30  O   UNL A   1      34.368  35.751  31.964  1.00  0.00    -0.246 OA
BRANCH  29  31
ATOM     31  C   UNL A   1      34.807  33.475  32.305  1.00  0.00     0.060 A 
ATOM     32  C   UNL A   1      35.909  33.926  33.670  1.00  0.00     0.016 A 
ATOM     33  C   UNL A   1      35.108  31.965  31.360  1.00  0.00     0.016 A 
ATOM     34  C   UNL A   1      37.475  33.005  33.885  1.00  0.00     0.010 A 
ATOM     35  C   UNL A   1      36.643  31.047  31.609  1.00  0.00     0.010 A 
ATOM     36  C   UNL A   1      37.869  31.639  32.795  1.00  0.00    -0.014 A 
BRANCH  36  37
ATOM     37  C   UNL A   1      39.251  31.311  32.357  1.00  0.00     0.031 A 
ATOM     38  C   UNL A   1      39.515  29.988  31.751  1.00  0.00     0.074 A 
ATOM     39  C   UNL A   1      40.200  32.268  32.301  1.00  0.00     0.049 A 
ATOM     40  N   UNL A   1      39.698  29.712  30.498  1.00  0.00    -0.248 NA
ATOM     41  C   UNL A   1      39.475  28.831  32.647  1.00  0.00     0.031 C 
ATOM     42  C   UNL A   1      41.451  32.216  31.555  1.00  0.00     0.029 A 
ATOM     43  N   UNL A   1      40.339  33.414  33.082  1.00  0.00    -0.354 N 
ATOM     44  C   UNL A   1      39.847  28.323  30.411  1.00  0.00     0.074 A 
ATOM     45  C   UNL A   1      39.524  27.837  31.760  1.00  0.00     0.031 C 
ATOM     46  C   UNL A   1      42.329  33.059  32.126  1.00  0.00     0.029 A 
ATOM     47  C   UNL A   1      41.708  33.565  33.342  1.00  0.00     0.049 A 
ATOM     48  H   UNL A   1      39.614  34.005  33.391  1.00  0.00     0.167 HD
ATOM     49  C   UNL A   1      40.996  27.776  29.927  1.00  0.00     0.034 A 
ATOM     50  C   UNL A   1      42.239  33.455  34.597  1.00  0.00     0.034 A 
ATOM     51  C   UNL A   1      42.194  28.398  30.461  1.00  0.00     0.049 A 
ATOM     52  C   UNL A   1      43.109  32.207  34.695  1.00  0.00     0.074 A 
ATOM     53  C   UNL A   1      43.050  29.375  29.998  1.00  0.00     0.029 A 
ATOM     54  N   UNL A   1      42.532  28.174  31.793  1.00  0.00    -0.354 N 
ATOM     55  N   UNL A   1      43.066  31.205  33.858  1.00  0.00    -0.248 NA
ATOM     56  C   UNL A   1      44.080  31.997  35.762  1.00  0.00     0.031 C 
ATOM     57  C   UNL A   1      43.846  29.803  31.096  1.00  0.00     0.029 A 
ATOM     58  C   UNL A   1      43.511  29.054  32.215  1.00  0.00     0.049 A 
ATOM     59  H   UNL A   1      42.126  27.480  32.361  1.00  0.00     0.167 HD
ATOM     60  C   UNL A   1      43.929  30.217  34.260  1.00  0.00     0.074 A 
ATOM     61  C   UNL A   1      44.555  30.781  35.448  1.00  0.00     0.031 C 
ATOM     62  C   UNL A   1      44.037  29.026  33.584  1.00  0.00     0.034 A 
BRANCH  49  63
ATOM     63  C   UNL A   1      40.900  26.719  28.853  1.00  0.00     0.023 A 
ATOM     64  C   UNL A   1      39.790  26.759  27.988  1.00  0.00     0.012 A 
ATOM     65  C   UNL A   1      41.833  25.659  28.658  1.00  0.00     0.148 A 
ATOM     66  C   UNL A   1      39.583  25.786  27.002  1.00  0.00     0.002 A 
ATOM     67  C   UNL A   1      41.624  24.689  27.667  1.00  0.00     0.091 A 
ATOM     68  F   UNL A   1      42.915  25.590  29.446  1.00  0.00    -0.205 F 
ATOM     69  C   UNL A   1      40.494  24.751  26.845  1.00  0.00     0.022 A 
BRANCH  67  70
ATOM     70  S   UNL A   1      42.738  23.304  27.359  1.00  0.00     0.127 S 
ATOM     71  O   UNL A   1      42.713  22.596  28.639  1.00  0.00    -0.237 OA
ATOM     72  O   UNL A   1      42.078  22.594  26.264  1.00  0.00    -0.237 OA
ATOM     73  O   UNL A   1      44.022  23.892  27.007  1.00  0.00    -0.744 OA
ENDBRANCH  67  70
ENDBRANCH  49  63
BRANCH  50  74
ATOM     74  C   UNL A   1      41.346  33.933  35.702  1.00  0.00     0.023 A 
ATOM     75  C   UNL A   1      41.017  35.311  35.735  1.00  0.00     0.012 A 
ATOM     76  C   UNL A   1      40.558  33.041  36.438  1.00  0.00     0.148 A 
ATOM     77  C   UNL A   1      39.809  35.743  36.286  1.00  0.00     0.002 A 
ATOM     78  C   UNL A   1      39.348  33.474  36.973  1.00  0.00     0.091 A 
ATOM     79  F   UNL A   1      40.943  31.765  36.557  1.00  0.00    -0.205 F 
ATOM     80  C   UNL A   1      38.949  34.813  36.860  1.00  0.00     0.022 A 
BRANCH  78  81
ATOM     81  S   UNL A   1      38.163  32.244  37.542  1.00  0.00     0.127 S 
ATOM     82  O   UNL A   1      38.561  32.035  38.935  1.00  0.00    -0.237 OA
ATOM     83  O   UNL A   1      36.879  32.917  37.392  1.00  0.00    -0.237 OA
ATOM     84  O   UNL A   1      38.429  31.127  36.644  1.00  0.00    -0.744 OA
ENDBRANCH  78  81
ENDBRANCH  50  74
BRANCH  62  85
ATOM     85  C   UNL A   1      44.751  27.773  34.101  1.00  0.00     0.023 A 
ATOM     86  C   UNL A   1      46.153  27.686  34.199  1.00  0.00     0.012 A 
ATOM     87  C   UNL A   1      44.035  26.641  34.582  1.00  0.00     0.148 A 
ATOM     88  C   UNL A   1      46.814  26.520  34.602  1.00  0.00     0.002 A 
ATOM     89  C   UNL A   1      44.693  25.522  35.090  1.00  0.00     0.091 A 
ATOM     90  F   UNL A   1      42.699  26.622  34.540  1.00  0.00    -0.205 F 
ATOM     91  C   UNL A   1      46.083  25.435  35.053  1.00  0.00     0.022 A 
BRANCH  89  92
ATOM     92  S   UNL A   1      43.815  24.181  35.905  1.00  0.00     0.127 S 
ATOM     93  O   UNL A   1      44.919  23.381  36.433  1.00  0.00    -0.237 OA
ATOM     94  O   UNL A   1      43.042  24.901  36.918  1.00  0.00    -0.237 OA
ATOM     95  O   UNL A   1      43.008  23.547  34.871  1.00  0.00    -0.744 OA
ENDBRANCH  89  92
ENDBRANCH  62  85
ENDBRANCH  36  37
ENDBRANCH  29  31
ENDBRANCH  28  29
ENDBRANCH  27  28
ENDBRANCH  26  27
ENDBRANCH   1  26
TORSDOF 20
ENDMDL
