MODEL 1
REMARK VINA RESULT:     -13.0      0.000      0.000
REMARK SMILES Cc1c(CC(=O)OCCOC(=O)c2ccc(-c3c4nc(c(-c5cccc(S(=O)(=O)[O-])c5F)c5ccc([nH]5)c(-c5cccc(S(=O)(=O)[O-])c5F)c5nc(c(-c6cccc(S(=O)(=O)[O-])c6F)c6ccc3[nH]6)C=C5)C=C4)cc2)cc(-c2ccc(S(C)(=O)=O)cc2)n1-c1ccccc1
REMARK SMILES IDX 8 1 7 2 5 3 6 4 4 5 3 6 1 7 2 8 88 9 76 10 77 11 89 12 90 13
REMARK SMILES IDX 94 14 91 15 93 16 92 17 78 18 79 19 87 20 80 21 86 22 81 23
REMARK SMILES IDX 82 24 83 25 84 26 85 27 9 28 10 29 11 30 12 31 13 32 14 33
REMARK SMILES IDX 75 34 15 35 74 36 16 37 17 38 18 39 68 40 19 41 73 42 67 43
REMARK SMILES IDX 69 44 20 45 72 46 66 47 65 48 21 50 53 51 33 52 52 53 34 54
REMARK SMILES IDX 37 55 51 56 70 57 35 58 36 59 50 61 71 62 38 63 22 64 23 65
REMARK SMILES IDX 31 66 24 67 26 68 32 69 25 70 27 71 28 72 29 73 30 74 54 75
REMARK SMILES IDX 55 76 63 77 56 78 58 79 64 80 57 81 59 82 60 83 61 84 62 85
REMARK SMILES IDX 39 86 40 87 48 88 41 89 43 90 49 91 42 92 44 93 45 94 46 95
REMARK SMILES IDX 47 96
REMARK H PARENT 69 49 37 60
REMARK Flexibility Score: inf
ROOT
ATOM      1  C   UNL A   1      42.710  19.553  25.869  1.00  0.00     0.274 C 
ENDROOT
BRANCH   1   2
ATOM      2  O   UNL A   1      42.648  20.641  26.814  1.00  0.00    -0.462 OA
BRANCH   2   3
ATOM      3  C   UNL A   1      41.413  20.987  27.243  1.00  0.00     0.310 C 
ATOM      4  O   UNL A   1      40.800  20.387  28.124  1.00  0.00    -0.252 OA
BRANCH   3   5
ATOM      5  C   UNL A   1      40.812  22.166  26.510  1.00  0.00     0.160 C 
BRANCH   5   6
ATOM      6  C   UNL A   1      39.376  22.073  26.063  1.00  0.00    -0.015 A 
ATOM      7  C   UNL A   1      38.399  24.375  26.825  1.00  0.00     0.065 C 
ATOM      8  C   UNL A   1      38.375  23.031  26.178  1.00  0.00     0.024 A 
ATOM      9  N   UNL A   1      37.201  22.512  25.660  1.00  0.00    -0.314 N 
ATOM     10  C   UNL A   1      38.731  20.894  25.583  1.00  0.00     0.033 A 
ATOM     11  C   UNL A   1      37.383  21.159  25.404  1.00  0.00     0.053 A 
BRANCH   9  12
ATOM     12  C   UNL A   1      35.997  23.240  25.503  1.00  0.00     0.046 A 
ATOM     13  C   UNL A   1      35.724  23.889  24.296  1.00  0.00     0.026 A 
ATOM     14  C   UNL A   1      35.091  23.286  26.568  1.00  0.00     0.026 A 
ATOM     15  C   UNL A   1      34.532  24.595  24.157  1.00  0.00     0.002 A 
ATOM     16  C   UNL A   1      33.911  24.013  26.427  1.00  0.00     0.002 A 
ATOM     17  C   UNL A   1      33.633  24.665  25.224  1.00  0.00     0.000 A 
ENDBRANCH   9  12
BRANCH  11  18
ATOM     18  C   UNL A   1      36.307  20.257  24.994  1.00  0.00    -0.001 A 
ATOM     19  C   UNL A   1      35.000  20.732  24.810  1.00  0.00     0.011 A 
ATOM     20  C   UNL A   1      36.566  18.887  24.858  1.00  0.00     0.011 A 
ATOM     21  C   UNL A   1      33.959  19.851  24.515  1.00  0.00     0.021 A 
ATOM     22  C   UNL A   1      35.531  17.999  24.558  1.00  0.00     0.021 A 
ATOM     23  C   UNL A   1      34.232  18.488  24.390  1.00  0.00     0.067 A 
BRANCH  23  24
ATOM     24  S   UNL A   1      32.930  17.377  23.921  1.00  0.00     0.175 S 
ATOM     25  C   UNL A   1      32.205  18.091  22.472  1.00  0.00     0.163 C 
ATOM     26  O   UNL A   1      33.583  16.123  23.522  1.00  0.00    -0.224 OA
ATOM     27  O   UNL A   1      31.936  17.382  24.960  1.00  0.00    -0.224 OA
ENDBRANCH  23  24
ENDBRANCH  11  18
ENDBRANCH   5   6
ENDBRANCH   3   5
ENDBRANCH   2   3
ENDBRANCH   1   2
BRANCH   1  28
ATOM     28  C   UNL A   1      43.996  19.651  24.972  1.00  0.00     0.275 C 
BRANCH  28  29
ATOM     29  O   UNL A   1      44.523  20.821  24.149  1.00  0.00    -0.458 OA
BRANCH  29  30
ATOM     30  C   UNL A   1      45.277  21.903  24.585  1.00  0.00     0.338 C 
ATOM     31  O   UNL A   1      46.458  21.986  24.267  1.00  0.00    -0.246 OA
BRANCH  30  32
ATOM     32  C   UNL A   1      44.528  23.091  25.474  1.00  0.00     0.060 A 
ATOM     33  C   UNL A   1      43.640  23.977  24.885  1.00  0.00     0.016 A 
ATOM     34  C   UNL A   1      44.605  23.447  26.849  1.00  0.00     0.016 A 
ATOM     35  C   UNL A   1      42.885  25.067  25.671  1.00  0.00     0.010 A 
ATOM     36  C   UNL A   1      43.777  24.594  27.655  1.00  0.00     0.010 A 
ATOM     37  C   UNL A   1      42.842  25.515  27.126  1.00  0.00    -0.014 A 
BRANCH  37  38
ATOM     38  C   UNL A   1      41.687  26.825  27.810  1.00  0.00     0.031 A 
ATOM     39  C   UNL A   1      42.705  27.898  27.688  1.00  0.00     0.074 A 
ATOM     40  C   UNL A   1      40.468  27.397  28.653  1.00  0.00     0.049 A 
ATOM     41  N   UNL A   1      43.672  27.671  28.517  1.00  0.00    -0.248 NA
ATOM     42  C   UNL A   1      43.150  28.739  26.575  1.00  0.00     0.031 C 
ATOM     43  C   UNL A   1      39.451  26.758  29.629  1.00  0.00     0.029 A 
ATOM     44  N   UNL A   1      39.852  28.894  28.935  1.00  0.00    -0.354 N 
ATOM     45  C   UNL A   1      44.691  28.538  28.324  1.00  0.00     0.074 A 
ATOM     46  C   UNL A   1      44.371  29.124  27.016  1.00  0.00     0.031 C 
ATOM     47  C   UNL A   1      38.412  27.567  30.126  1.00  0.00     0.029 A 
ATOM     48  C   UNL A   1      38.426  29.018  29.715  1.00  0.00     0.049 A 
ATOM     49  H   UNL A   1      40.336  29.699  28.639  1.00  0.00     0.167 HD
ATOM     50  C   UNL A   1      44.971  29.026  29.553  1.00  0.00     0.034 A 
ATOM     51  C   UNL A   1      37.546  30.206  30.126  1.00  0.00     0.034 A 
ATOM     52  C   UNL A   1      44.089  30.154  29.752  1.00  0.00     0.049 A 
ATOM     53  C   UNL A   1      38.523  31.193  30.520  1.00  0.00     0.074 A 
ATOM     54  C   UNL A   1      43.464  31.054  28.883  1.00  0.00     0.029 A 
ATOM     55  N   UNL A   1      43.334  30.109  30.876  1.00  0.00    -0.354 N 
ATOM     56  N   UNL A   1      39.119  30.952  31.641  1.00  0.00    -0.248 NA
ATOM     57  C   UNL A   1      38.734  32.517  29.950  1.00  0.00     0.031 C 
ATOM     58  C   UNL A   1      42.167  31.222  29.372  1.00  0.00     0.029 A 
ATOM     59  C   UNL A   1      42.233  30.896  30.709  1.00  0.00     0.049 A 
ATOM     60  H   UNL A   1      43.546  29.590  31.686  1.00  0.00     0.167 HD
ATOM     61  C   UNL A   1      40.228  31.702  31.534  1.00  0.00     0.074 A 
ATOM     62  C   UNL A   1      39.918  32.742  30.531  1.00  0.00     0.031 C 
ATOM     63  C   UNL A   1      41.326  30.960  31.787  1.00  0.00     0.034 A 
BRANCH  50  64
ATOM     64  C   UNL A   1      45.193  27.771  30.544  1.00  0.00     0.023 A 
ATOM     65  C   UNL A   1      44.056  27.387  31.270  1.00  0.00     0.012 A 
ATOM     66  C   UNL A   1      46.469  27.245  31.021  1.00  0.00     0.148 A 
ATOM     67  C   UNL A   1      44.156  26.567  32.408  1.00  0.00     0.002 A 
ATOM     68  C   UNL A   1      46.565  26.517  32.221  1.00  0.00     0.091 A 
ATOM     69  F   UNL A   1      47.593  27.489  30.326  1.00  0.00    -0.205 F 
ATOM     70  C   UNL A   1      45.397  26.161  32.898  1.00  0.00     0.022 A 
BRANCH  68  71
ATOM     71  S   UNL A   1      48.131  26.173  33.098  1.00  0.00     0.127 S 
ATOM     72  O   UNL A   1      47.677  25.508  34.329  1.00  0.00    -0.237 OA
ATOM     73  O   UNL A   1      48.844  25.289  32.182  1.00  0.00    -0.237 OA
ATOM     74  O   UNL A   1      48.763  27.466  33.344  1.00  0.00    -0.744 OA
ENDBRANCH  68  71
ENDBRANCH  50  64
BRANCH  51  75
ATOM     75  C   UNL A   1      36.160  31.107  30.797  1.00  0.00     0.023 A 
ATOM     76  C   UNL A   1      35.990  31.624  32.204  1.00  0.00     0.012 A 
ATOM     77  C   UNL A   1      35.443  31.935  29.913  1.00  0.00     0.148 A 
ATOM     78  C   UNL A   1      35.224  32.807  32.607  1.00  0.00     0.002 A 
ATOM     79  C   UNL A   1      34.723  33.129  30.315  1.00  0.00     0.091 A 
ATOM     80  F   UNL A   1      35.536  31.617  28.624  1.00  0.00    -0.205 F 
ATOM     81  C   UNL A   1      34.607  33.576  31.642  1.00  0.00     0.022 A 
BRANCH  79  82
ATOM     82  S   UNL A   1      34.045  34.273  29.081  1.00  0.00     0.127 S 
ATOM     83  O   UNL A   1      35.248  34.793  28.430  1.00  0.00    -0.237 OA
ATOM     84  O   UNL A   1      33.240  33.381  28.245  1.00  0.00    -0.237 OA
ATOM     85  O   UNL A   1      33.289  35.249  29.850  1.00  0.00    -0.744 OA
ENDBRANCH  79  82
ENDBRANCH  51  75
BRANCH  63  86
ATOM     86  C   UNL A   1      41.349  29.912  32.900  1.00  0.00     0.023 A 
ATOM     87  C   UNL A   1      40.979  28.552  32.780  1.00  0.00     0.012 A 
ATOM     88  C   UNL A   1      41.960  30.300  34.100  1.00  0.00     0.148 A 
ATOM     89  C   UNL A   1      41.111  27.651  33.852  1.00  0.00     0.002 A 
ATOM     90  C   UNL A   1      42.151  29.394  35.140  1.00  0.00     0.091 A 
ATOM     91  F   UNL A   1      42.441  31.550  34.163  1.00  0.00    -0.205 F 
ATOM     92  C   UNL A   1      41.685  28.079  35.043  1.00  0.00     0.022 A 
BRANCH  90  93
ATOM     93  S   UNL A   1      43.114  29.851  36.579  1.00  0.00     0.127 S 
ATOM     94  O   UNL A   1      43.356  28.550  37.202  1.00  0.00    -0.237 OA
ATOM     95  O   UNL A   1      44.294  30.487  35.998  1.00  0.00    -0.237 OA
ATOM     96  O   UNL A   1      42.266  30.757  37.346  1.00  0.00    -0.744 OA
ENDBRANCH  90  93
ENDBRANCH  63  86
ENDBRANCH  37  38
ENDBRANCH  30  32
ENDBRANCH  29  30
ENDBRANCH  28  29
ENDBRANCH   1  28
TORSDOF 18
ENDMDL
MODEL 2
REMARK VINA RESULT:     -12.3      5.247     10.531
REMARK SMILES Cc1c(CC(=O)OCCOC(=O)c2ccc(-c3c4nc(c(-c5cccc(S(=O)(=O)[O-])c5F)c5ccc([nH]5)c(-c5cccc(S(=O)(=O)[O-])c5F)c5nc(c(-c6cccc(S(=O)(=O)[O-])c6F)c6ccc3[nH]6)C=C5)C=C4)cc2)cc(-c2ccc(S(C)(=O)=O)cc2)n1-c1ccccc1
REMARK SMILES IDX 8 1 7 2 5 3 6 4 4 5 3 6 1 7 2 8 88 9 76 10 77 11 89 12 90 13
REMARK SMILES IDX 94 14 91 15 93 16 92 17 78 18 79 19 87 20 80 21 86 22 81 23
REMARK SMILES IDX 82 24 83 25 84 26 85 27 9 28 10 29 11 30 12 31 13 32 14 33
REMARK SMILES IDX 75 34 15 35 74 36 16 37 17 38 18 39 68 40 19 41 73 42 67 43
REMARK SMILES IDX 69 44 20 45 72 46 66 47 65 48 21 50 53 51 33 52 52 53 34 54
REMARK SMILES IDX 37 55 51 56 70 57 35 58 36 59 50 61 71 62 38 63 22 64 23 65
REMARK SMILES IDX 31 66 24 67 26 68 32 69 25 70 27 71 28 72 29 73 30 74 54 75
REMARK SMILES IDX 55 76 63 77 56 78 58 79 64 80 57 81 59 82 60 83 61 84 62 85
REMARK SMILES IDX 39 86 40 87 48 88 41 89 43 90 49 91 42 92 44 93 45 94 46 95
REMARK SMILES IDX 47 96
REMARK H PARENT 69 49 37 60
REMARK Flexibility Score: inf
ROOT
ATOM      1  C   UNL A   1      34.757  21.417  24.826  1.00  0.00     0.274 C 
ENDROOT
BRANCH   1   2
ATOM      2  O   UNL A   1      33.901  21.805  23.733  1.00  0.00    -0.462 OA
BRANCH   2   3
ATOM      3  C   UNL A   1      32.685  21.214  23.690  1.00  0.00     0.310 C 
ATOM      4  O   UNL A   1      32.423  20.233  22.998  1.00  0.00    -0.252 OA
BRANCH   3   5
ATOM      5  C   UNL A   1      31.638  21.893  24.546  1.00  0.00     0.160 C 
BRANCH   5   6
ATOM      6  C   UNL A   1      31.634  23.398  24.612  1.00  0.00    -0.015 A 
ATOM      7  C   UNL A   1      32.845  23.865  26.881  1.00  0.00     0.065 C 
ATOM      8  C   UNL A   1      32.177  24.218  25.594  1.00  0.00     0.024 A 
ATOM      9  N   UNL A   1      31.920  25.537  25.266  1.00  0.00    -0.314 N 
ATOM     10  C   UNL A   1      30.910  24.265  23.741  1.00  0.00     0.033 A 
ATOM     11  C   UNL A   1      31.038  25.568  24.194  1.00  0.00     0.053 A 
BRANCH   9  12
ATOM     12  C   UNL A   1      32.418  26.658  25.974  1.00  0.00     0.046 A 
ATOM     13  C   UNL A   1      33.720  27.110  25.741  1.00  0.00     0.026 A 
ATOM     14  C   UNL A   1      31.584  27.302  26.893  1.00  0.00     0.026 A 
ATOM     15  C   UNL A   1      34.191  28.217  26.442  1.00  0.00     0.002 A 
ATOM     16  C   UNL A   1      32.071  28.396  27.605  1.00  0.00     0.002 A 
ATOM     17  C   UNL A   1      33.372  28.851  27.379  1.00  0.00     0.000 A 
ENDBRANCH   9  12
BRANCH  11  18
ATOM     18  C   UNL A   1      30.427  26.793  23.677  1.00  0.00    -0.001 A 
ATOM     19  C   UNL A   1      29.047  27.014  23.796  1.00  0.00     0.011 A 
ATOM     20  C   UNL A   1      31.215  27.723  22.986  1.00  0.00     0.011 A 
ATOM     21  C   UNL A   1      28.455  28.137  23.216  1.00  0.00     0.021 A 
ATOM     22  C   UNL A   1      30.631  28.851  22.407  1.00  0.00     0.021 A 
ATOM     23  C   UNL A   1      29.252  29.050  22.525  1.00  0.00     0.067 A 
BRANCH  23  24
ATOM     24  S   UNL A   1      28.520  30.527  21.868  1.00  0.00     0.175 S 
ATOM     25  C   UNL A   1      27.428  31.110  23.134  1.00  0.00     0.163 C 
ATOM     26  O   UNL A   1      29.610  31.502  21.734  1.00  0.00    -0.224 OA
ATOM     27  O   UNL A   1      27.721  30.166  20.728  1.00  0.00    -0.224 OA
ENDBRANCH  23  24
ENDBRANCH  11  18
ENDBRANCH   5   6
ENDBRANCH   3   5
ENDBRANCH   2   3
ENDBRANCH   1   2
BRANCH   1  28
ATOM     28  C   UNL A   1      36.102  22.229  24.812  1.00  0.00     0.275 C 
BRANCH  28  29
ATOM     29  O   UNL A   1      37.261  22.210  25.801  1.00  0.00    -0.458 OA
BRANCH  29  30
ATOM     30  C   UNL A   1      38.414  21.436  25.755  1.00  0.00     0.338 C 
ATOM     31  O   UNL A   1      38.349  20.275  25.366  1.00  0.00    -0.246 OA
BRANCH  30  32
ATOM     32  C   UNL A   1      39.863  22.138  26.167  1.00  0.00     0.060 A 
ATOM     33  C   UNL A   1      41.064  21.475  25.974  1.00  0.00     0.016 A 
ATOM     34  C   UNL A   1      40.184  23.400  26.741  1.00  0.00     0.016 A 
ATOM     35  C   UNL A   1      42.436  22.097  26.297  1.00  0.00     0.010 A 
ATOM     36  C   UNL A   1      41.649  24.036  27.053  1.00  0.00     0.010 A 
ATOM     37  C   UNL A   1      42.912  23.429  26.861  1.00  0.00    -0.014 A 
BRANCH  37  38
ATOM     38  C   UNL A   1      44.709  23.948  27.014  1.00  0.00     0.031 A 
ATOM     39  C   UNL A   1      44.622  24.092  28.489  1.00  0.00     0.074 A 
ATOM     40  C   UNL A   1      46.093  24.565  26.539  1.00  0.00     0.049 A 
ATOM     41  N   UNL A   1      43.840  25.081  28.781  1.00  0.00    -0.248 NA
ATOM     42  C   UNL A   1      44.706  23.141  29.599  1.00  0.00     0.031 C 
ATOM     43  C   UNL A   1      46.555  25.282  25.248  1.00  0.00     0.029 A 
ATOM     44  N   UNL A   1      47.558  24.808  27.242  1.00  0.00    -0.354 N 
ATOM     45  C   UNL A   1      43.611  25.144  30.111  1.00  0.00     0.074 A 
ATOM     46  C   UNL A   1      44.085  23.835  30.580  1.00  0.00     0.031 C 
ATOM     47  C   UNL A   1      47.918  25.611  25.126  1.00  0.00     0.029 A 
ATOM     48  C   UNL A   1      48.801  25.297  26.308  1.00  0.00     0.049 A 
ATOM     49  H   UNL A   1      47.682  24.661  28.208  1.00  0.00     0.167 HD
ATOM     50  C   UNL A   1      43.856  26.431  30.446  1.00  0.00     0.034 A 
ATOM     51  C   UNL A   1      50.281  25.595  26.588  1.00  0.00     0.034 A 
ATOM     52  C   UNL A   1      45.273  26.518  30.715  1.00  0.00     0.049 A 
ATOM     53  C   UNL A   1      50.228  26.232  27.883  1.00  0.00     0.074 A 
ATOM     54  C   UNL A   1      46.229  25.597  31.157  1.00  0.00     0.029 A 
ATOM     55  N   UNL A   1      45.940  27.466  30.014  1.00  0.00    -0.354 N 
ATOM     56  N   UNL A   1      49.749  27.433  27.881  1.00  0.00    -0.248 NA
ATOM     57  C   UNL A   1      50.861  25.794  29.119  1.00  0.00     0.031 C 
ATOM     58  C   UNL A   1      47.371  25.830  30.387  1.00  0.00     0.029 A 
ATOM     59  C   UNL A   1      47.261  27.131  29.951  1.00  0.00     0.049 A 
ATOM     60  H   UNL A   1      45.536  28.270  29.613  1.00  0.00     0.167 HD
ATOM     61  C   UNL A   1      49.387  27.591  29.164  1.00  0.00     0.074 A 
ATOM     62  C   UNL A   1      50.181  26.609  29.932  1.00  0.00     0.031 C 
ATOM     63  C   UNL A   1      48.108  28.011  29.244  1.00  0.00     0.034 A 
BRANCH  50  64
ATOM     64  C   UNL A   1      42.988  27.370  29.460  1.00  0.00     0.023 A 
ATOM     65  C   UNL A   1      41.687  27.645  29.906  1.00  0.00     0.012 A 
ATOM     66  C   UNL A   1      43.260  27.654  28.054  1.00  0.00     0.148 A 
ATOM     67  C   UNL A   1      40.702  28.137  29.031  1.00  0.00     0.002 A 
ATOM     68  C   UNL A   1      42.238  28.042  27.168  1.00  0.00     0.091 A 
ATOM     69  F   UNL A   1      44.506  27.507  27.572  1.00  0.00    -0.205 F 
ATOM     70  C   UNL A   1      40.963  28.306  27.671  1.00  0.00     0.022 A 
BRANCH  68  71
ATOM     71  S   UNL A   1      42.389  28.026  25.347  1.00  0.00     0.127 S 
ATOM     72  O   UNL A   1      41.639  26.819  24.968  1.00  0.00    -0.237 OA
ATOM     73  O   UNL A   1      41.742  29.270  24.943  1.00  0.00    -0.237 OA
ATOM     74  O   UNL A   1      43.815  27.933  25.048  1.00  0.00    -0.744 OA
ENDBRANCH  68  71
ENDBRANCH  50  64
BRANCH  51  75
ATOM     75  C   UNL A   1      51.984  26.031  26.289  1.00  0.00     0.023 A 
ATOM     76  C   UNL A   1      53.207  25.172  26.498  1.00  0.00     0.012 A 
ATOM     77  C   UNL A   1      52.241  26.951  25.255  1.00  0.00     0.148 A 
ATOM     78  C   UNL A   1      54.461  25.250  25.745  1.00  0.00     0.002 A 
ATOM     79  C   UNL A   1      53.470  26.993  24.485  1.00  0.00     0.091 A 
ATOM     80  F   UNL A   1      51.227  27.753  24.935  1.00  0.00    -0.205 F 
ATOM     81  C   UNL A   1      54.577  26.158  24.713  1.00  0.00     0.022 A 
BRANCH  79  82
ATOM     82  S   UNL A   1      53.613  28.037  23.009  1.00  0.00     0.127 S 
ATOM     83  O   UNL A   1      55.003  27.830  22.603  1.00  0.00    -0.237 OA
ATOM     84  O   UNL A   1      52.623  27.440  22.112  1.00  0.00    -0.237 OA
ATOM     85  O   UNL A   1      53.298  29.381  23.468  1.00  0.00    -0.744 OA
ENDBRANCH  79  82
ENDBRANCH  51  75
BRANCH  63  86
ATOM     86  C   UNL A   1      47.537  29.044  28.271  1.00  0.00     0.023 A 
ATOM     87  C   UNL A   1      47.072  28.792  26.960  1.00  0.00     0.012 A 
ATOM     88  C   UNL A   1      47.295  30.320  28.797  1.00  0.00     0.148 A 
ATOM     89  C   UNL A   1      46.493  29.804  26.173  1.00  0.00     0.002 A 
ATOM     90  C   UNL A   1      46.664  31.304  28.043  1.00  0.00     0.091 A 
ATOM     91  F   UNL A   1      47.605  30.517  30.087  1.00  0.00    -0.205 F 
ATOM     92  C   UNL A   1      46.303  31.071  26.712  1.00  0.00     0.022 A 
BRANCH  90  93
ATOM     93  S   UNL A   1      46.179  32.856  28.795  1.00  0.00     0.127 S 
ATOM     94  O   UNL A   1      45.651  32.411  30.085  1.00  0.00    -0.237 OA
ATOM     95  O   UNL A   1      47.436  33.595  28.864  1.00  0.00    -0.237 OA
ATOM     96  O   UNL A   1      45.194  33.438  27.890  1.00  0.00    -0.744 OA
ENDBRANCH  90  93
ENDBRANCH  63  86
ENDBRANCH  37  38
ENDBRANCH  30  32
ENDBRANCH  29  30
ENDBRANCH  28  29
ENDBRANCH   1  28
TORSDOF 18
ENDMDL
MODEL 3
REMARK VINA RESULT:     -12.3      2.054      3.410
REMARK SMILES Cc1c(CC(=O)OCCOC(=O)c2ccc(-c3c4nc(c(-c5cccc(S(=O)(=O)[O-])c5F)c5ccc([nH]5)c(-c5cccc(S(=O)(=O)[O-])c5F)c5nc(c(-c6cccc(S(=O)(=O)[O-])c6F)c6ccc3[nH]6)C=C5)C=C4)cc2)cc(-c2ccc(S(C)(=O)=O)cc2)n1-c1ccccc1
REMARK SMILES IDX 8 1 7 2 5 3 6 4 4 5 3 6 1 7 2 8 88 9 76 10 77 11 89 12 90 13
REMARK SMILES IDX 94 14 91 15 93 16 92 17 78 18 79 19 87 20 80 21 86 22 81 23
REMARK SMILES IDX 82 24 83 25 84 26 85 27 9 28 10 29 11 30 12 31 13 32 14 33
REMARK SMILES IDX 75 34 15 35 74 36 16 37 17 38 18 39 68 40 19 41 73 42 67 43
REMARK SMILES IDX 69 44 20 45 72 46 66 47 65 48 21 50 53 51 33 52 52 53 34 54
REMARK SMILES IDX 37 55 51 56 70 57 35 58 36 59 50 61 71 62 38 63 22 64 23 65
REMARK SMILES IDX 31 66 24 67 26 68 32 69 25 70 27 71 28 72 29 73 30 74 54 75
REMARK SMILES IDX 55 76 63 77 56 78 58 79 64 80 57 81 59 82 60 83 61 84 62 85
REMARK SMILES IDX 39 86 40 87 48 88 41 89 43 90 49 91 42 92 44 93 45 94 46 95
REMARK SMILES IDX 47 96
REMARK H PARENT 69 49 37 60
REMARK Flexibility Score: inf
ROOT
ATOM      1  C   UNL A   1      41.936  19.778  27.453  1.00  0.00     0.274 C 
ENDROOT
BRANCH   1   2
ATOM      2  O   UNL A   1      40.741  20.584  27.443  1.00  0.00    -0.462 OA
BRANCH   2   3
ATOM      3  C   UNL A   1      39.986  20.514  26.323  1.00  0.00     0.310 C 
ATOM      4  O   UNL A   1      39.766  19.472  25.707  1.00  0.00    -0.252 OA
BRANCH   3   5
ATOM      5  C   UNL A   1      39.455  21.850  25.850  1.00  0.00     0.160 C 
BRANCH   5   6
ATOM      6  C   UNL A   1      37.963  22.028  25.740  1.00  0.00    -0.015 A 
ATOM      7  C   UNL A   1      37.239  19.900  24.404  1.00  0.00     0.065 C 
ATOM      8  C   UNL A   1      37.036  21.176  25.150  1.00  0.00     0.024 A 
ATOM      9  N   UNL A   1      35.779  21.747  25.254  1.00  0.00    -0.314 N 
ATOM     10  C   UNL A   1      37.241  23.210  26.083  1.00  0.00     0.033 A 
ATOM     11  C   UNL A   1      35.914  23.049  25.716  1.00  0.00     0.053 A 
BRANCH   9  12
ATOM     12  C   UNL A   1      34.572  21.116  24.865  1.00  0.00     0.046 A 
ATOM     13  C   UNL A   1      34.085  20.029  25.596  1.00  0.00     0.026 A 
ATOM     14  C   UNL A   1      33.880  21.607  23.753  1.00  0.00     0.026 A 
ATOM     15  C   UNL A   1      32.893  19.425  25.204  1.00  0.00     0.002 A 
ATOM     16  C   UNL A   1      32.700  20.983  23.356  1.00  0.00     0.002 A 
ATOM     17  C   UNL A   1      32.208  19.895  24.080  1.00  0.00     0.000 A 
ENDBRANCH   9  12
BRANCH  11  18
ATOM     18  C   UNL A   1      34.807  24.001  25.802  1.00  0.00    -0.001 A 
ATOM     19  C   UNL A   1      33.702  23.747  26.627  1.00  0.00     0.011 A 
ATOM     20  C   UNL A   1      34.813  25.146  24.994  1.00  0.00     0.011 A 
ATOM     21  C   UNL A   1      32.605  24.610  26.631  1.00  0.00     0.021 A 
ATOM     22  C   UNL A   1      33.721  26.016  24.995  1.00  0.00     0.021 A 
ATOM     23  C   UNL A   1      32.622  25.741  25.814  1.00  0.00     0.067 A 
BRANCH  23  24
ATOM     24  S   UNL A   1      31.273  26.891  25.886  1.00  0.00     0.175 S 
ATOM     25  C   UNL A   1      29.882  26.021  25.221  1.00  0.00     0.163 C 
ATOM     26  O   UNL A   1      31.010  27.128  27.312  1.00  0.00    -0.224 OA
ATOM     27  O   UNL A   1      31.568  27.990  25.007  1.00  0.00    -0.224 OA
ENDBRANCH  23  24
ENDBRANCH  11  18
ENDBRANCH   5   6
ENDBRANCH   3   5
ENDBRANCH   2   3
ENDBRANCH   1   2
BRANCH   1  28
ATOM     28  C   UNL A   1      42.816  20.049  26.179  1.00  0.00     0.275 C 
BRANCH  28  29
ATOM     29  O   UNL A   1      43.842  21.146  25.920  1.00  0.00    -0.458 OA
BRANCH  29  30
ATOM     30  C   UNL A   1      43.697  22.288  25.143  1.00  0.00     0.338 C 
ATOM     31  O   UNL A   1      44.140  22.305  24.000  1.00  0.00    -0.246 OA
BRANCH  30  32
ATOM     32  C   UNL A   1      42.860  23.579  25.772  1.00  0.00     0.060 A 
ATOM     33  C   UNL A   1      42.516  23.627  27.113  1.00  0.00     0.016 A 
ATOM     34  C   UNL A   1      42.359  24.772  25.181  1.00  0.00     0.016 A 
ATOM     35  C   UNL A   1      41.781  24.820  27.757  1.00  0.00     0.010 A 
ATOM     36  C   UNL A   1      41.601  26.024  25.894  1.00  0.00     0.010 A 
ATOM     37  C   UNL A   1      41.239  26.152  27.255  1.00  0.00    -0.014 A 
BRANCH  37  38
ATOM     38  C   UNL A   1      40.492  27.483  28.345  1.00  0.00     0.031 A 
ATOM     39  C   UNL A   1      41.570  28.455  28.032  1.00  0.00     0.074 A 
ATOM     40  C   UNL A   1      39.631  28.073  29.543  1.00  0.00     0.049 A 
ATOM     41  N   UNL A   1      42.687  28.035  28.532  1.00  0.00    -0.248 NA
ATOM     42  C   UNL A   1      41.804  29.371  26.914  1.00  0.00     0.031 C 
ATOM     43  C   UNL A   1      38.842  27.431  30.708  1.00  0.00     0.029 A 
ATOM     44  N   UNL A   1      39.315  29.581  30.113  1.00  0.00    -0.354 N 
ATOM     45  C   UNL A   1      43.720  28.810  28.133  1.00  0.00     0.074 A 
ATOM     46  C   UNL A   1      43.137  29.575  27.023  1.00  0.00     0.031 C 
ATOM     47  C   UNL A   1      38.090  28.277  31.545  1.00  0.00     0.029 A 
ATOM     48  C   UNL A   1      38.181  29.757  31.270  1.00  0.00     0.049 A 
ATOM     49  H   UNL A   1      39.801  30.363  29.761  1.00  0.00     0.167 HD
ATOM     50  C   UNL A   1      44.382  29.120  29.271  1.00  0.00     0.034 A 
ATOM     51  C   UNL A   1      37.607  30.972  32.012  1.00  0.00     0.034 A 
ATOM     52  C   UNL A   1      43.742  30.300  29.805  1.00  0.00     0.049 A 
ATOM     53  C   UNL A   1      38.774  31.802  32.197  1.00  0.00     0.074 A 
ATOM     54  C   UNL A   1      43.027  31.355  29.227  1.00  0.00     0.029 A 
ATOM     55  N   UNL A   1      43.319  30.201  31.088  1.00  0.00    -0.354 N 
ATOM     56  N   UNL A   1      39.614  31.372  33.080  1.00  0.00    -0.248 NA
ATOM     57  C   UNL A   1      38.993  33.155  31.705  1.00  0.00     0.031 C 
ATOM     58  C   UNL A   1      41.944  31.596  30.075  1.00  0.00     0.029 A 
ATOM     59  C   UNL A   1      42.325  31.110  31.306  1.00  0.00     0.049 A 
ATOM     60  H   UNL A   1      43.672  29.571  31.758  1.00  0.00     0.167 HD
ATOM     61  C   UNL A   1      40.740  32.013  32.728  1.00  0.00     0.074 A 
ATOM     62  C   UNL A   1      40.309  33.189  31.945  1.00  0.00     0.031 C 
ATOM     63  C   UNL A   1      41.759  31.138  32.597  1.00  0.00     0.034 A 
BRANCH  50  64
ATOM     64  C   UNL A   1      44.698  27.741  30.049  1.00  0.00     0.023 A 
ATOM     65  C   UNL A   1      43.577  27.113  30.610  1.00  0.00     0.012 A 
ATOM     66  C   UNL A   1      45.999  27.282  30.526  1.00  0.00     0.148 A 
ATOM     67  C   UNL A   1      43.711  26.121  31.597  1.00  0.00     0.002 A 
ATOM     68  C   UNL A   1      46.115  26.368  31.590  1.00  0.00     0.091 A 
ATOM     69  F   UNL A   1      47.123  27.767  29.970  1.00  0.00    -0.205 F 
ATOM     70  C   UNL A   1      44.963  25.772  32.105  1.00  0.00     0.022 A 
BRANCH  68  71
ATOM     71  S   UNL A   1      47.659  26.047  32.513  1.00  0.00     0.127 S 
ATOM     72  O   UNL A   1      48.025  27.381  33.011  1.00  0.00    -0.237 OA
ATOM     73  O   UNL A   1      47.240  25.124  33.562  1.00  0.00    -0.237 OA
ATOM     74  O   UNL A   1      48.617  25.512  31.549  1.00  0.00    -0.744 OA
ENDBRANCH  68  71
ENDBRANCH  50  64
BRANCH  51  75
ATOM     75  C   UNL A   1      36.583  31.925  33.120  1.00  0.00     0.023 A 
ATOM     76  C   UNL A   1      36.962  32.498  34.463  1.00  0.00     0.012 A 
ATOM     77  C   UNL A   1      35.586  32.731  32.541  1.00  0.00     0.148 A 
ATOM     78  C   UNL A   1      36.412  33.710  35.076  1.00  0.00     0.002 A 
ATOM     79  C   UNL A   1      35.077  33.953  33.135  1.00  0.00     0.091 A 
ATOM     80  F   UNL A   1      35.181  32.362  31.328  1.00  0.00    -0.205 F 
ATOM     81  C   UNL A   1      35.476  34.453  34.387  1.00  0.00     0.022 A 
BRANCH  79  82
ATOM     82  S   UNL A   1      33.983  35.061  32.204  1.00  0.00     0.127 S 
ATOM     83  O   UNL A   1      34.360  34.792  30.816  1.00  0.00    -0.237 OA
ATOM     84  O   UNL A   1      32.657  34.570  32.578  1.00  0.00    -0.237 OA
ATOM     85  O   UNL A   1      34.306  36.396  32.684  1.00  0.00    -0.744 OA
ENDBRANCH  79  82
ENDBRANCH  51  75
BRANCH  63  86
ATOM     86  C   UNL A   1      41.946  29.970  33.566  1.00  0.00     0.023 A 
ATOM     87  C   UNL A   1      41.606  28.618  33.325  1.00  0.00     0.012 A 
ATOM     88  C   UNL A   1      42.682  30.242  34.727  1.00  0.00     0.148 A 
ATOM     89  C   UNL A   1      41.892  27.606  34.258  1.00  0.00     0.002 A 
ATOM     90  C   UNL A   1      43.022  29.232  35.621  1.00  0.00     0.091 A 
ATOM     91  F   UNL A   1      43.129  31.497  34.885  1.00  0.00    -0.205 F 
ATOM     92  C   UNL A   1      42.588  27.917  35.420  1.00  0.00     0.022 A 
BRANCH  90  93
ATOM     93  S   UNL A   1      44.134  29.560  36.986  1.00  0.00     0.127 S 
ATOM     94  O   UNL A   1      43.373  30.539  37.762  1.00  0.00    -0.237 OA
ATOM     95  O   UNL A   1      44.278  28.250  37.615  1.00  0.00    -0.237 OA
ATOM     96  O   UNL A   1      45.359  30.068  36.380  1.00  0.00    -0.744 OA
ENDBRANCH  90  93
ENDBRANCH  63  86
ENDBRANCH  37  38
ENDBRANCH  30  32
ENDBRANCH  29  30
ENDBRANCH  28  29
ENDBRANCH   1  28
TORSDOF 18
ENDMDL
