MODEL 1
REMARK VINA RESULT:     -11.6      0.000      0.000
REMARK SMILES CN(CC(N)=O)S(=O)(=O)c1ccc(C(=O)OCCOC(=O)c2ccc(-c3c4nc(c(-c5cccc(S(=O)(=O)[O-])c5F)c5ccc([nH]5)c(-c5cccc(S(=O)(=O)[O-])c5F)c5nc(c(-c6cccc(S(=O)(=O)[O-])c6F)c6ccc3[nH]6)C=C5)C=C4)cc2)cc1Br
REMARK SMILES IDX 17 1 16 2 14 3 15 4 13 5 10 6 11 7 86 8 12 9 85 10 87 11
REMARK SMILES IDX 7 12 8 13 9 14 2 15 1 16 3 17 4 18 5 19 6 20 18 23 19 24
REMARK SMILES IDX 20 25 21 26 22 27 23 28 84 29 24 30 83 31 25 32 26 33 27 34
REMARK SMILES IDX 77 35 28 36 82 37 76 38 78 39 29 40 81 41 75 42 74 43 30 45
REMARK SMILES IDX 62 46 42 47 61 48 43 49 46 50 60 51 79 52 44 53 45 54 59 56
REMARK SMILES IDX 80 57 47 58 31 59 32 60 40 61 33 62 35 63 41 64 34 65 36 66
REMARK SMILES IDX 37 67 38 68 39 69 63 70 64 71 72 72 65 73 67 74 73 75 66 76
REMARK SMILES IDX 68 77 69 78 70 79 71 80 48 81 49 82 57 83 50 84 52 85 58 86
REMARK SMILES IDX 51 87 53 88 54 89 55 90 56 91
REMARK H PARENT 5 21 5 22 78 44 46 55
REMARK Flexibility Score: inf
ROOT
ATOM      1  C   UNL A   1      34.699  20.844  25.608  1.00  0.00     0.275 C 
ENDROOT
BRANCH   1   2
ATOM      2  O   UNL A   1      34.321  22.218  25.366  1.00  0.00    -0.458 OA
BRANCH   2   3
ATOM      3  C   UNL A   1      32.999  22.420  25.144  1.00  0.00     0.338 C 
ATOM      4  O   UNL A   1      32.101  21.604  25.252  1.00  0.00    -0.246 OA
BRANCH   3   5
ATOM      5  C   UNL A   1      32.738  23.834  24.804  1.00  0.00     0.061 A 
ATOM      6  C   UNL A   1      31.986  26.469  24.210  1.00  0.00     0.096 A 
ATOM      7  C   UNL A   1      32.046  26.030  25.540  1.00  0.00     0.024 A 
ATOM      8  C   UNL A   1      32.297  25.581  23.173  1.00  0.00     0.038 A 
ATOM      9  C   UNL A   1      32.382  24.713  25.826  1.00  0.00     0.017 A 
ATOM     10  C   UNL A   1      32.710  24.270  23.477  1.00  0.00     0.032 A 
ATOM     11  Br  UNL A   1      32.114  25.974  21.325  1.00  0.00    -0.049 Br
BRANCH   6  12
ATOM     12  S   UNL A   1      31.385  28.124  23.988  1.00  0.00     0.244 S 
ATOM     13  O   UNL A   1      32.259  28.764  23.025  1.00  0.00    -0.207 OA
ATOM     14  O   UNL A   1      31.214  28.673  25.313  1.00  0.00    -0.207 OA
BRANCH  12  15
ATOM     15  N   UNL A   1      29.864  28.019  23.249  1.00  0.00    -0.192 NA
ATOM     16  C   UNL A   1      29.065  26.884  23.774  1.00  0.00     0.125 C 
BRANCH  15  17
ATOM     17  C   UNL A   1      29.072  29.268  23.134  1.00  0.00     0.201 C 
BRANCH  17  18
ATOM     18  C   UNL A   1      29.082  29.967  21.787  1.00  0.00     0.232 C 
ATOM     19  N   UNL A   1      30.286  30.462  21.377  1.00  0.00    -0.369 N 
ATOM     20  O   UNL A   1      28.086  30.061  21.075  1.00  0.00    -0.274 OA
ATOM     21  H   UNL A   1      31.076  30.380  21.958  1.00  0.00     0.159 HD
ATOM     22  H   UNL A   1      30.364  30.901  20.500  1.00  0.00     0.159 HD
ENDBRANCH  17  18
ENDBRANCH  15  17
ENDBRANCH  12  15
ENDBRANCH   6  12
ENDBRANCH   3   5
ENDBRANCH   2   3
ENDBRANCH   1   2
BRANCH   1  23
ATOM     23  C   UNL A   1      36.125  20.569  25.131  1.00  0.00     0.275 C 
BRANCH  23  24
ATOM     24  O   UNL A   1      37.000  21.614  25.589  1.00  0.00    -0.458 OA
BRANCH  24  25
ATOM     25  C   UNL A   1      38.304  21.288  25.731  1.00  0.00     0.338 C 
ATOM     26  O   UNL A   1      38.847  20.244  25.414  1.00  0.00    -0.246 OA
BRANCH  25  27
ATOM     27  C   UNL A   1      39.037  22.440  26.289  1.00  0.00     0.060 A 
ATOM     28  C   UNL A   1      38.537  23.719  26.078  1.00  0.00     0.016 A 
ATOM     29  C   UNL A   1      40.266  22.271  26.922  1.00  0.00     0.016 A 
ATOM     30  C   UNL A   1      39.306  24.837  26.387  1.00  0.00     0.010 A 
ATOM     31  C   UNL A   1      40.972  23.398  27.365  1.00  0.00     0.010 A 
ATOM     32  C   UNL A   1      40.517  24.700  27.079  1.00  0.00    -0.014 A 
BRANCH  32  33
ATOM     33  C   UNL A   1      41.270  25.909  27.532  1.00  0.00     0.031 A 
ATOM     34  C   UNL A   1      40.610  26.955  28.396  1.00  0.00     0.074 A 
ATOM     35  C   UNL A   1      42.551  26.089  27.145  1.00  0.00     0.049 A 
ATOM     36  N   UNL A   1      41.047  28.143  28.731  1.00  0.00    -0.248 NA
ATOM     37  C   UNL A   1      39.282  26.634  28.945  1.00  0.00     0.031 C 
ATOM     38  C   UNL A   1      43.322  25.165  26.309  1.00  0.00     0.029 A 
ATOM     39  N   UNL A   1      43.433  27.114  27.393  1.00  0.00    -0.354 N 
ATOM     40  C   UNL A   1      40.022  28.740  29.456  1.00  0.00     0.074 A 
ATOM     41  C   UNL A   1      38.944  27.776  29.530  1.00  0.00     0.031 C 
ATOM     42  C   UNL A   1      44.563  25.642  26.145  1.00  0.00     0.029 A 
ATOM     43  C   UNL A   1      44.651  26.954  26.770  1.00  0.00     0.049 A 
ATOM     44  H   UNL A   1      43.216  27.888  27.962  1.00  0.00     0.167 HD
ATOM     45  C   UNL A   1      39.982  29.973  30.016  1.00  0.00     0.034 A 
ATOM     46  C   UNL A   1      45.708  27.783  26.658  1.00  0.00     0.034 A 
ATOM     47  C   UNL A   1      41.082  30.902  30.012  1.00  0.00     0.049 A 
ATOM     48  C   UNL A   1      45.639  29.142  27.290  1.00  0.00     0.074 A 
ATOM     49  C   UNL A   1      41.154  32.150  30.606  1.00  0.00     0.029 A 
ATOM     50  N   UNL A   1      42.303  30.684  29.394  1.00  0.00    -0.354 N 
ATOM     51  N   UNL A   1      44.679  29.665  28.014  1.00  0.00    -0.248 NA
ATOM     52  C   UNL A   1      46.796  30.025  27.092  1.00  0.00     0.031 C 
ATOM     53  C   UNL A   1      42.415  32.693  30.333  1.00  0.00     0.029 A 
ATOM     54  C   UNL A   1      43.132  31.778  29.580  1.00  0.00     0.049 A 
ATOM     55  H   UNL A   1      42.546  29.870  28.895  1.00  0.00     0.167 HD
ATOM     56  C   UNL A   1      45.117  30.936  28.360  1.00  0.00     0.074 A 
ATOM     57  C   UNL A   1      46.445  31.089  27.801  1.00  0.00     0.031 C 
ATOM     58  C   UNL A   1      44.465  31.903  29.052  1.00  0.00     0.034 A 
BRANCH  45  59
ATOM     59  C   UNL A   1      38.711  30.394  30.709  1.00  0.00     0.023 A 
ATOM     60  C   UNL A   1      38.548  30.146  32.087  1.00  0.00     0.012 A 
ATOM     61  C   UNL A   1      37.712  31.102  30.011  1.00  0.00     0.148 A 
ATOM     62  C   UNL A   1      37.400  30.574  32.752  1.00  0.00     0.002 A 
ATOM     63  C   UNL A   1      36.587  31.558  30.690  1.00  0.00     0.091 A 
ATOM     64  F   UNL A   1      37.875  31.310  28.696  1.00  0.00    -0.205 F 
ATOM     65  C   UNL A   1      36.426  31.287  32.059  1.00  0.00     0.022 A 
BRANCH  63  66
ATOM     66  S   UNL A   1      35.313  32.547  29.897  1.00  0.00     0.127 S 
ATOM     67  O   UNL A   1      34.894  31.668  28.807  1.00  0.00    -0.237 OA
ATOM     68  O   UNL A   1      34.328  32.701  30.968  1.00  0.00    -0.237 OA
ATOM     69  O   UNL A   1      35.964  33.785  29.490  1.00  0.00    -0.744 OA
ENDBRANCH  63  66
ENDBRANCH  45  59
BRANCH  46  70
ATOM     70  C   UNL A   1      46.915  27.343  25.900  1.00  0.00     0.023 A 
ATOM     71  C   UNL A   1      47.804  26.423  26.487  1.00  0.00     0.012 A 
ATOM     72  C   UNL A   1      47.152  27.781  24.582  1.00  0.00     0.148 A 
ATOM     73  C   UNL A   1      48.912  25.957  25.778  1.00  0.00     0.002 A 
ATOM     74  C   UNL A   1      48.219  27.261  23.859  1.00  0.00     0.091 A 
ATOM     75  F   UNL A   1      46.313  28.682  24.049  1.00  0.00    -0.205 F 
ATOM     76  C   UNL A   1      49.110  26.362  24.461  1.00  0.00     0.022 A 
BRANCH  74  77
ATOM     77  S   UNL A   1      48.436  27.608  22.109  1.00  0.00     0.127 S 
ATOM     78  O   UNL A   1      48.668  26.272  21.565  1.00  0.00    -0.237 OA
ATOM     79  O   UNL A   1      47.149  28.205  21.751  1.00  0.00    -0.237 OA
ATOM     80  O   UNL A   1      49.561  28.533  22.037  1.00  0.00    -0.744 OA
ENDBRANCH  74  77
ENDBRANCH  46  70
BRANCH  58  81
ATOM     81  C   UNL A   1      45.179  33.214  29.242  1.00  0.00     0.023 A 
ATOM     82  C   UNL A   1      46.020  33.386  30.359  1.00  0.00     0.012 A 
ATOM     83  C   UNL A   1      45.063  34.249  28.294  1.00  0.00     0.148 A 
ATOM     84  C   UNL A   1      46.712  34.580  30.547  1.00  0.00     0.002 A 
ATOM     85  C   UNL A   1      45.789  35.422  28.467  1.00  0.00     0.091 A 
ATOM     86  F   UNL A   1      44.241  34.072  27.250  1.00  0.00    -0.205 F 
ATOM     87  C   UNL A   1      46.606  35.593  29.597  1.00  0.00     0.022 A 
BRANCH  85  88
ATOM     88  S   UNL A   1      45.778  36.746  27.253  1.00  0.00     0.127 S 
ATOM     89  O   UNL A   1      44.345  36.976  27.077  1.00  0.00    -0.237 OA
ATOM     90  O   UNL A   1      46.487  37.818  27.954  1.00  0.00    -0.237 OA
ATOM     91  O   UNL A   1      46.477  36.225  26.086  1.00  0.00    -0.744 OA
ENDBRANCH  85  88
ENDBRANCH  58  81
ENDBRANCH  32  33
ENDBRANCH  25  27
ENDBRANCH  24  25
ENDBRANCH  23  24
ENDBRANCH   1  23
TORSDOF 18
ENDMDL
MODEL 2
REMARK VINA RESULT:     -11.5      5.496     10.493
REMARK SMILES CN(CC(N)=O)S(=O)(=O)c1ccc(C(=O)OCCOC(=O)c2ccc(-c3c4nc(c(-c5cccc(S(=O)(=O)[O-])c5F)c5ccc([nH]5)c(-c5cccc(S(=O)(=O)[O-])c5F)c5nc(c(-c6cccc(S(=O)(=O)[O-])c6F)c6ccc3[nH]6)C=C5)C=C4)cc2)cc1Br
REMARK SMILES IDX 17 1 16 2 14 3 15 4 13 5 10 6 11 7 86 8 12 9 85 10 87 11
REMARK SMILES IDX 7 12 8 13 9 14 2 15 1 16 3 17 4 18 5 19 6 20 18 23 19 24
REMARK SMILES IDX 20 25 21 26 22 27 23 28 84 29 24 30 83 31 25 32 26 33 27 34
REMARK SMILES IDX 77 35 28 36 82 37 76 38 78 39 29 40 81 41 75 42 74 43 30 45
REMARK SMILES IDX 62 46 42 47 61 48 43 49 46 50 60 51 79 52 44 53 45 54 59 56
REMARK SMILES IDX 80 57 47 58 31 59 32 60 40 61 33 62 35 63 41 64 34 65 36 66
REMARK SMILES IDX 37 67 38 68 39 69 63 70 64 71 72 72 65 73 67 74 73 75 66 76
REMARK SMILES IDX 68 77 69 78 70 79 71 80 48 81 49 82 57 83 50 84 52 85 58 86
REMARK SMILES IDX 51 87 53 88 54 89 55 90 56 91
REMARK H PARENT 5 21 5 22 78 44 46 55
REMARK Flexibility Score: inf
ROOT
ATOM      1  C   UNL A   1      31.474  28.611  25.286  1.00  0.00     0.275 C 
ENDROOT
BRANCH   1   2
ATOM      2  O   UNL A   1      32.751  28.018  24.956  1.00  0.00    -0.458 OA
BRANCH   2   3
ATOM      3  C   UNL A   1      32.725  27.126  23.937  1.00  0.00     0.338 C 
ATOM      4  O   UNL A   1      32.531  27.360  22.757  1.00  0.00    -0.246 OA
BRANCH   3   5
ATOM      5  C   UNL A   1      33.045  25.768  24.424  1.00  0.00     0.061 A 
ATOM      6  C   UNL A   1      33.588  23.103  25.107  1.00  0.00     0.096 A 
ATOM      7  C   UNL A   1      34.475  23.823  24.295  1.00  0.00     0.024 A 
ATOM      8  C   UNL A   1      32.419  23.719  25.572  1.00  0.00     0.038 A 
ATOM      9  C   UNL A   1      34.182  25.131  23.929  1.00  0.00     0.017 A 
ATOM     10  C   UNL A   1      32.169  25.068  25.258  1.00  0.00     0.032 A 
ATOM     11  Br  UNL A   1      31.049  22.838  26.545  1.00  0.00    -0.049 Br
BRANCH   6  12
ATOM     12  S   UNL A   1      34.008  21.398  25.358  1.00  0.00     0.244 S 
ATOM     13  O   UNL A   1      33.831  21.123  26.769  1.00  0.00    -0.207 OA
ATOM     14  O   UNL A   1      35.289  21.199  24.719  1.00  0.00    -0.207 OA
BRANCH  12  15
ATOM     15  N   UNL A   1      32.852  20.462  24.545  1.00  0.00    -0.192 NA
ATOM     16  C   UNL A   1      32.348  21.137  23.322  1.00  0.00     0.125 C 
BRANCH  15  17
ATOM     17  C   UNL A   1      33.166  19.031  24.317  1.00  0.00     0.201 C 
BRANCH  17  18
ATOM     18  C   UNL A   1      32.537  18.030  25.267  1.00  0.00     0.232 C 
ATOM     19  N   UNL A   1      32.853  18.173  26.587  1.00  0.00    -0.369 N 
ATOM     20  O   UNL A   1      31.757  17.156  24.898  1.00  0.00    -0.274 OA
ATOM     21  H   UNL A   1      33.481  18.877  26.870  1.00  0.00     0.159 HD
ATOM     22  H   UNL A   1      32.455  17.572  27.257  1.00  0.00     0.159 HD
ENDBRANCH  17  18
ENDBRANCH  15  17
ENDBRANCH  12  15
ENDBRANCH   6  12
ENDBRANCH   3   5
ENDBRANCH   2   3
ENDBRANCH   1   2
BRANCH   1  23
ATOM     23  C   UNL A   1      31.594  30.124  25.463  1.00  0.00     0.275 C 
BRANCH  23  24
ATOM     24  O   UNL A   1      32.942  30.465  25.825  1.00  0.00    -0.458 OA
BRANCH  24  25
ATOM     25  C   UNL A   1      33.090  31.318  26.864  1.00  0.00     0.338 C 
ATOM     26  O   UNL A   1      32.273  32.116  27.290  1.00  0.00    -0.246 OA
BRANCH  25  27
ATOM     27  C   UNL A   1      34.410  31.108  27.484  1.00  0.00     0.060 A 
ATOM     28  C   UNL A   1      34.793  29.816  27.825  1.00  0.00     0.016 A 
ATOM     29  C   UNL A   1      35.221  32.185  27.831  1.00  0.00     0.016 A 
ATOM     30  C   UNL A   1      35.921  29.598  28.611  1.00  0.00     0.010 A 
ATOM     31  C   UNL A   1      36.433  31.949  28.496  1.00  0.00     0.010 A 
ATOM     32  C   UNL A   1      36.788  30.654  28.922  1.00  0.00    -0.014 A 
BRANCH  32  33
ATOM     33  C   UNL A   1      38.069  30.392  29.646  1.00  0.00     0.031 A 
ATOM     34  C   UNL A   1      39.152  29.546  29.025  1.00  0.00     0.074 A 
ATOM     35  C   UNL A   1      38.257  30.894  30.886  1.00  0.00     0.049 A 
ATOM     36  N   UNL A   1      40.242  29.070  29.572  1.00  0.00    -0.248 NA
ATOM     37  C   UNL A   1      38.987  29.175  27.610  1.00  0.00     0.031 C 
ATOM     38  C   UNL A   1      37.299  31.728  31.617  1.00  0.00     0.029 A 
ATOM     39  N   UNL A   1      39.310  30.770  31.759  1.00  0.00    -0.354 N 
ATOM     40  C   UNL A   1      40.846  28.279  28.601  1.00  0.00     0.074 A 
ATOM     41  C   UNL A   1      40.012  28.355  27.420  1.00  0.00     0.031 C 
ATOM     42  C   UNL A   1      37.819  32.070  32.803  1.00  0.00     0.029 A 
ATOM     43  C   UNL A   1      39.100  31.396  32.967  1.00  0.00     0.049 A 
ATOM     44  H   UNL A   1      40.138  30.282  31.542  1.00  0.00     0.167 HD
ATOM     45  C   UNL A   1      41.994  27.564  28.680  1.00  0.00     0.034 A 
ATOM     46  C   UNL A   1      39.818  31.392  34.109  1.00  0.00     0.034 A 
ATOM     47  C   UNL A   1      42.866  27.552  29.827  1.00  0.00     0.049 A 
ATOM     48  C   UNL A   1      41.087  30.593  34.168  1.00  0.00     0.074 A 
ATOM     49  C   UNL A   1      44.079  26.903  29.976  1.00  0.00     0.029 A 
ATOM     50  N   UNL A   1      42.624  28.222  31.014  1.00  0.00    -0.354 N 
ATOM     51  N   UNL A   1      41.665  29.895  33.221  1.00  0.00    -0.248 NA
ATOM     52  C   UNL A   1      41.802  30.580  35.451  1.00  0.00     0.031 C 
ATOM     53  C   UNL A   1      44.565  27.171  31.260  1.00  0.00     0.029 A 
ATOM     54  C   UNL A   1      43.659  27.996  31.907  1.00  0.00     0.049 A 
ATOM     55  H   UNL A   1      41.833  28.779  31.197  1.00  0.00     0.167 HD
ATOM     56  C   UNL A   1      42.813  29.363  33.792  1.00  0.00     0.074 A 
ATOM     57  C   UNL A   1      42.870  29.852  35.155  1.00  0.00     0.031 C 
ATOM     58  C   UNL A   1      43.723  28.518  33.247  1.00  0.00     0.034 A 
BRANCH  45  59
ATOM     59  C   UNL A   1      42.399  26.742  27.483  1.00  0.00     0.023 A 
ATOM     60  C   UNL A   1      43.157  27.332  26.452  1.00  0.00     0.012 A 
ATOM     61  C   UNL A   1      42.092  25.368  27.416  1.00  0.00     0.148 A 
ATOM     62  C   UNL A   1      43.582  26.573  25.361  1.00  0.00     0.002 A 
ATOM     63  C   UNL A   1      42.551  24.609  26.344  1.00  0.00     0.091 A 
ATOM     64  F   UNL A   1      41.352  24.829  28.396  1.00  0.00    -0.205 F 
ATOM     65  C   UNL A   1      43.289  25.213  25.313  1.00  0.00     0.022 A 
BRANCH  63  66
ATOM     66  S   UNL A   1      42.284  22.836  26.230  1.00  0.00     0.127 S 
ATOM     67  O   UNL A   1      43.086  22.344  27.349  1.00  0.00    -0.237 OA
ATOM     68  O   UNL A   1      40.838  22.727  26.423  1.00  0.00    -0.237 OA
ATOM     69  O   UNL A   1      42.750  22.447  24.906  1.00  0.00    -0.744 OA
ENDBRANCH  63  66
ENDBRANCH  45  59
BRANCH  46  70
ATOM     70  C   UNL A   1      39.335  32.166  35.288  1.00  0.00     0.023 A 
ATOM     71  C   UNL A   1      39.441  33.570  35.287  1.00  0.00     0.012 A 
ATOM     72  C   UNL A   1      38.717  31.526  36.381  1.00  0.00     0.148 A 
ATOM     73  C   UNL A   1      38.949  34.319  36.357  1.00  0.00     0.002 A 
ATOM     74  C   UNL A   1      38.169  32.283  37.409  1.00  0.00     0.091 A 
ATOM     75  F   UNL A   1      38.652  30.186  36.381  1.00  0.00    -0.205 F 
ATOM     76  C   UNL A   1      38.299  33.679  37.408  1.00  0.00     0.022 A 
BRANCH  74  77
ATOM     77  S   UNL A   1      37.173  31.538  38.708  1.00  0.00     0.127 S 
ATOM     78  O   UNL A   1      38.084  31.583  39.848  1.00  0.00    -0.237 OA
ATOM     79  O   UNL A   1      36.037  32.457  38.789  1.00  0.00    -0.237 OA
ATOM     80  O   UNL A   1      36.829  30.211  38.215  1.00  0.00    -0.744 OA
ENDBRANCH  74  77
ENDBRANCH  46  70
BRANCH  58  81
ATOM     81  C   UNL A   1      44.858  28.068  34.126  1.00  0.00     0.023 A 
ATOM     82  C   UNL A   1      46.106  28.714  34.027  1.00  0.00     0.012 A 
ATOM     83  C   UNL A   1      44.677  27.050  35.082  1.00  0.00     0.148 A 
ATOM     84  C   UNL A   1      47.167  28.334  34.846  1.00  0.00     0.002 A 
ATOM     85  C   UNL A   1      45.728  26.704  35.924  1.00  0.00     0.091 A 
ATOM     86  F   UNL A   1      43.488  26.433  35.144  1.00  0.00    -0.205 F 
ATOM     87  C   UNL A   1      46.975  27.338  35.801  1.00  0.00     0.022 A 
BRANCH  85  88
ATOM     88  S   UNL A   1      45.548  25.491  37.236  1.00  0.00     0.127 S 
ATOM     89  O   UNL A   1      44.513  26.104  38.068  1.00  0.00    -0.237 OA
ATOM     90  O   UNL A   1      45.115  24.300  36.503  1.00  0.00    -0.237 OA
ATOM     91  O   UNL A   1      46.862  25.373  37.855  1.00  0.00    -0.744 OA
ENDBRANCH  85  88
ENDBRANCH  58  81
ENDBRANCH  32  33
ENDBRANCH  25  27
ENDBRANCH  24  25
ENDBRANCH  23  24
ENDBRANCH   1  23
TORSDOF 18
ENDMDL
MODEL 3
REMARK VINA RESULT:     -11.5      5.444     10.323
REMARK SMILES CN(CC(N)=O)S(=O)(=O)c1ccc(C(=O)OCCOC(=O)c2ccc(-c3c4nc(c(-c5cccc(S(=O)(=O)[O-])c5F)c5ccc([nH]5)c(-c5cccc(S(=O)(=O)[O-])c5F)c5nc(c(-c6cccc(S(=O)(=O)[O-])c6F)c6ccc3[nH]6)C=C5)C=C4)cc2)cc1Br
REMARK SMILES IDX 17 1 16 2 14 3 15 4 13 5 10 6 11 7 86 8 12 9 85 10 87 11
REMARK SMILES IDX 7 12 8 13 9 14 2 15 1 16 3 17 4 18 5 19 6 20 18 23 19 24
REMARK SMILES IDX 20 25 21 26 22 27 23 28 84 29 24 30 83 31 25 32 26 33 27 34
REMARK SMILES IDX 77 35 28 36 82 37 76 38 78 39 29 40 81 41 75 42 74 43 30 45
REMARK SMILES IDX 62 46 42 47 61 48 43 49 46 50 60 51 79 52 44 53 45 54 59 56
REMARK SMILES IDX 80 57 47 58 31 59 32 60 40 61 33 62 35 63 41 64 34 65 36 66
REMARK SMILES IDX 37 67 38 68 39 69 63 70 64 71 72 72 65 73 67 74 73 75 66 76
REMARK SMILES IDX 68 77 69 78 70 79 71 80 48 81 49 82 57 83 50 84 52 85 58 86
REMARK SMILES IDX 51 87 53 88 54 89 55 90 56 91
REMARK H PARENT 5 21 5 22 78 44 46 55
REMARK Flexibility Score: inf
ROOT
ATOM      1  C   UNL A   1      30.962  29.727  24.468  1.00  0.00     0.275 C 
ENDROOT
BRANCH   1   2
ATOM      2  O   UNL A   1      30.704  28.466  23.809  1.00  0.00    -0.458 OA
BRANCH   2   3
ATOM      3  C   UNL A   1      31.795  27.855  23.289  1.00  0.00     0.338 C 
ATOM      4  O   UNL A   1      32.659  28.357  22.592  1.00  0.00    -0.246 OA
BRANCH   3   5
ATOM      5  C   UNL A   1      31.870  26.449  23.739  1.00  0.00     0.061 A 
ATOM      6  C   UNL A   1      31.937  23.869  24.835  1.00  0.00     0.096 A 
ATOM      7  C   UNL A   1      30.712  24.487  24.546  1.00  0.00     0.024 A 
ATOM      8  C   UNL A   1      33.134  24.552  24.581  1.00  0.00     0.038 A 
ATOM      9  C   UNL A   1      30.684  25.779  24.039  1.00  0.00     0.017 A 
ATOM     10  C   UNL A   1      33.096  25.832  23.997  1.00  0.00     0.032 A 
ATOM     11  Br  UNL A   1      34.859  23.920  25.058  1.00  0.00    -0.049 Br
BRANCH   6  12
ATOM     12  S   UNL A   1      31.817  22.287  25.628  1.00  0.00     0.244 S 
ATOM     13  O   UNL A   1      30.433  22.116  26.020  1.00  0.00    -0.207 OA
ATOM     14  O   UNL A   1      32.877  22.246  26.610  1.00  0.00    -0.207 OA
BRANCH  12  15
ATOM     15  N   UNL A   1      32.126  21.103  24.455  1.00  0.00    -0.192 NA
ATOM     16  C   UNL A   1      32.263  21.687  23.097  1.00  0.00     0.125 C 
BRANCH  15  17
ATOM     17  C   UNL A   1      33.177  20.101  24.753  1.00  0.00     0.201 C 
BRANCH  17  18
ATOM     18  C   UNL A   1      32.711  18.725  25.189  1.00  0.00     0.232 C 
ATOM     19  N   UNL A   1      32.906  18.413  26.503  1.00  0.00    -0.369 N 
ATOM     20  O   UNL A   1      32.153  17.936  24.431  1.00  0.00    -0.274 OA
ATOM     21  H   UNL A   1      33.354  19.054  27.101  1.00  0.00     0.159 HD
ATOM     22  H   UNL A   1      32.599  17.546  26.854  1.00  0.00     0.159 HD
ENDBRANCH  17  18
ENDBRANCH  15  17
ENDBRANCH  12  15
ENDBRANCH   6  12
ENDBRANCH   3   5
ENDBRANCH   2   3
ENDBRANCH   1   2
BRANCH   1  23
ATOM     23  C   UNL A   1      31.692  29.520  25.795  1.00  0.00     0.275 C 
BRANCH  23  24
ATOM     24  O   UNL A   1      32.922  30.263  25.794  1.00  0.00    -0.458 OA
BRANCH  24  25
ATOM     25  C   UNL A   1      33.060  31.200  26.759  1.00  0.00     0.338 C 
ATOM     26  O   UNL A   1      32.323  32.144  26.987  1.00  0.00    -0.246 OA
BRANCH  25  27
ATOM     27  C   UNL A   1      34.243  30.885  27.580  1.00  0.00     0.060 A 
ATOM     28  C   UNL A   1      35.091  31.918  27.961  1.00  0.00     0.016 A 
ATOM     29  C   UNL A   1      34.578  29.567  27.881  1.00  0.00     0.016 A 
ATOM     30  C   UNL A   1      36.327  31.641  28.536  1.00  0.00     0.010 A 
ATOM     31  C   UNL A   1      35.756  29.302  28.593  1.00  0.00     0.010 A 
ATOM     32  C   UNL A   1      36.664  30.332  28.906  1.00  0.00    -0.014 A 
BRANCH  32  33
ATOM     33  C   UNL A   1      37.931  30.059  29.651  1.00  0.00     0.031 A 
ATOM     34  C   UNL A   1      39.015  29.200  29.049  1.00  0.00     0.074 A 
ATOM     35  C   UNL A   1      38.105  30.563  30.892  1.00  0.00     0.049 A 
ATOM     36  N   UNL A   1      40.091  28.713  29.614  1.00  0.00    -0.248 NA
ATOM     37  C   UNL A   1      38.867  28.826  27.633  1.00  0.00     0.031 C 
ATOM     38  C   UNL A   1      37.145  31.410  31.605  1.00  0.00     0.029 A 
ATOM     39  N   UNL A   1      39.144  30.431  31.782  1.00  0.00    -0.354 N 
ATOM     40  C   UNL A   1      40.702  27.914  28.655  1.00  0.00     0.074 A 
ATOM     41  C   UNL A   1      39.887  27.994  27.462  1.00  0.00     0.031 C 
ATOM     42  C   UNL A   1      37.650  31.749  32.798  1.00  0.00     0.029 A 
ATOM     43  C   UNL A   1      38.921  31.063  32.985  1.00  0.00     0.049 A 
ATOM     44  H   UNL A   1      39.969  29.933  31.578  1.00  0.00     0.167 HD
ATOM     45  C   UNL A   1      41.841  27.186  28.754  1.00  0.00     0.034 A 
ATOM     46  C   UNL A   1      39.622  31.055  34.137  1.00  0.00     0.034 A 
ATOM     47  C   UNL A   1      42.694  27.169  29.914  1.00  0.00     0.049 A 
ATOM     48  C   UNL A   1      40.881  30.244  34.218  1.00  0.00     0.074 A 
ATOM     49  C   UNL A   1      43.899  26.508  30.084  1.00  0.00     0.029 A 
ATOM     50  N   UNL A   1      42.441  27.846  31.096  1.00  0.00    -0.354 N 
ATOM     51  N   UNL A   1      41.466  29.536  33.283  1.00  0.00    -0.248 NA
ATOM     52  C   UNL A   1      41.577  30.227  35.512  1.00  0.00     0.031 C 
ATOM     53  C   UNL A   1      44.367  26.775  31.375  1.00  0.00     0.029 A 
ATOM     54  C   UNL A   1      43.460  27.612  32.005  1.00  0.00     0.049 A 
ATOM     55  H   UNL A   1      41.654  28.412  31.265  1.00  0.00     0.167 HD
ATOM     56  C   UNL A   1      42.600  28.994  33.873  1.00  0.00     0.074 A 
ATOM     57  C   UNL A   1      42.641  29.487  35.234  1.00  0.00     0.031 C 
ATOM     58  C   UNL A   1      43.509  28.138  33.344  1.00  0.00     0.034 A 
BRANCH  45  59
ATOM     59  C   UNL A   1      42.255  26.356  27.567  1.00  0.00     0.023 A 
ATOM     60  C   UNL A   1      43.070  26.923  26.565  1.00  0.00     0.012 A 
ATOM     61  C   UNL A   1      41.900  24.995  27.479  1.00  0.00     0.148 A 
ATOM     62  C   UNL A   1      43.502  26.154  25.485  1.00  0.00     0.002 A 
ATOM     63  C   UNL A   1      42.367  24.226  26.419  1.00  0.00     0.091 A 
ATOM     64  F   UNL A   1      41.107  24.480  28.430  1.00  0.00    -0.205 F 
ATOM     65  C   UNL A   1      43.161  24.807  25.417  1.00  0.00     0.022 A 
BRANCH  63  66
ATOM     66  S   UNL A   1      42.038  22.464  26.284  1.00  0.00     0.127 S 
ATOM     67  O   UNL A   1      40.578  22.440  26.234  1.00  0.00    -0.237 OA
ATOM     68  O   UNL A   1      42.696  22.121  25.023  1.00  0.00    -0.237 OA
ATOM     69  O   UNL A   1      42.635  21.855  27.464  1.00  0.00    -0.744 OA
ENDBRANCH  63  66
ENDBRANCH  45  59
BRANCH  46  70
ATOM     70  C   UNL A   1      39.130  31.838  35.307  1.00  0.00     0.023 A 
ATOM     71  C   UNL A   1      38.252  31.234  36.226  1.00  0.00     0.012 A 
ATOM     72  C   UNL A   1      39.575  33.153  35.547  1.00  0.00     0.148 A 
ATOM     73  C   UNL A   1      37.819  31.930  37.356  1.00  0.00     0.002 A 
ATOM     74  C   UNL A   1      39.194  33.814  36.708  1.00  0.00     0.091 A 
ATOM     75  F   UNL A   1      40.387  33.726  34.645  1.00  0.00    -0.205 F 
ATOM     76  C   UNL A   1      38.302  33.211  37.606  1.00  0.00     0.022 A 
BRANCH  74  77
ATOM     77  S   UNL A   1      39.909  35.396  37.176  1.00  0.00     0.127 S 
ATOM     78  O   UNL A   1      41.329  35.068  37.270  1.00  0.00    -0.237 OA
ATOM     79  O   UNL A   1      39.545  36.246  36.042  1.00  0.00    -0.237 OA
ATOM     80  O   UNL A   1      39.252  35.760  38.426  1.00  0.00    -0.744 OA
ENDBRANCH  74  77
ENDBRANCH  46  70
BRANCH  58  81
ATOM     81  C   UNL A   1      44.626  27.679  34.242  1.00  0.00     0.023 A 
ATOM     82  C   UNL A   1      45.797  28.457  34.341  1.00  0.00     0.012 A 
ATOM     83  C   UNL A   1      44.497  26.515  35.025  1.00  0.00     0.148 A 
ATOM     84  C   UNL A   1      46.836  28.068  35.183  1.00  0.00     0.002 A 
ATOM     85  C   UNL A   1      45.521  26.157  35.894  1.00  0.00     0.091 A 
ATOM     86  F   UNL A   1      43.384  25.779  34.899  1.00  0.00    -0.205 F 
ATOM     87  C   UNL A   1      46.694  26.926  35.968  1.00  0.00     0.022 A 
BRANCH  85  88
ATOM     88  S   UNL A   1      45.391  24.748  37.001  1.00  0.00     0.127 S 
ATOM     89  O   UNL A   1      45.016  23.678  36.079  1.00  0.00    -0.237 OA
ATOM     90  O   UNL A   1      46.751  24.644  37.535  1.00  0.00    -0.237 OA
ATOM     91  O   UNL A   1      44.383  25.108  37.989  1.00  0.00    -0.744 OA
ENDBRANCH  85  88
ENDBRANCH  58  81
ENDBRANCH  32  33
ENDBRANCH  25  27
ENDBRANCH  24  25
ENDBRANCH  23  24
ENDBRANCH   1  23
TORSDOF 18
ENDMDL
