MODEL 1
REMARK VINA RESULT:     -10.7      0.000      0.000
REMARK SMILES CC(C)C[C@H](NC(=O)[C@H](C)NC(=O)[C@@H](NC(=O)CNC(=O)OCc1ccccc1)C(C)C)C(=O)OCCOC(=O)c1ccc(-c2c3nc(c(-c4cccc(S(=O)(=O)[O-])c4F)c4ccc([nH]4)c(-c4cccc(S(=O)(=O)[O-])c4F)c4nc(c(-c5cccc(S(=O)(=O)[O-])c5F)c5ccc2[nH]5)C=C4)C=C3)cc1
REMARK SMILES IDX 5 1 4 2 2 3 1 4 3 5 33 6 34 7 35 8 36 9 37 10 38 11 39 12
REMARK SMILES IDX 40 13 41 14 42 15 103 16 43 17 102 18 44 19 45 20 46 21
REMARK SMILES IDX 96 22 47 23 101 24 95 25 97 26 48 27 100 28 94 29 93 30
REMARK SMILES IDX 49 32 81 33 61 34 80 35 62 36 65 37 79 38 98 39 63 40 64 41
REMARK SMILES IDX 78 43 99 44 66 45 50 46 51 47 59 48 52 49 54 50 60 51 53 52
REMARK SMILES IDX 55 53 56 54 57 55 58 56 82 57 83 58 91 59 84 60 86 61 92 62
REMARK SMILES IDX 85 63 87 64 88 65 89 66 90 67 67 68 68 69 76 70 69 71 71 72
REMARK SMILES IDX 77 73 70 74 72 75 73 76 74 77 75 78 6 79 7 80 8 82 9 83
REMARK SMILES IDX 10 84 11 85 12 86 13 88 14 89 15 90 16 91 17 93 18 94 19 95
REMARK SMILES IDX 20 96 21 98 22 99 23 100 24 101 25 102 29 103 26 104 28 105
REMARK SMILES IDX 27 106 30 107 31 108 32 109
REMARK H PARENT 97 31 65 42 6 81 11 87 15 92 19 97
REMARK Flexibility Score: inf
ROOT
ATOM      1  C   UNL A   1      31.319  29.320  22.967  1.00  0.00     0.192 C 
ENDROOT
BRANCH   1   2
ATOM      2  C   UNL A   1      29.780  29.341  22.963  1.00  0.00     0.040 C 
BRANCH   2   3
ATOM      3  C   UNL A   1      28.976  30.566  22.490  1.00  0.00    -0.015 C 
ATOM      4  C   UNL A   1      28.163  30.292  21.228  1.00  0.00     0.007 C 
ATOM      5  C   UNL A   1      27.973  31.002  23.576  1.00  0.00     0.007 C 
ENDBRANCH   2   3
ENDBRANCH   1   2
BRANCH   1   6
ATOM      6  C   UNL A   1      31.886  29.591  24.377  1.00  0.00     0.328 C 
ATOM      7  O   UNL A   1      32.946  29.115  24.764  1.00  0.00    -0.250 OA
BRANCH   6   8
ATOM      8  O   UNL A   1      31.151  30.458  25.129  1.00  0.00    -0.461 OA
BRANCH   8   9
ATOM      9  C   UNL A   1      31.761  30.778  26.401  1.00  0.00     0.274 C 
BRANCH   9  10
ATOM     10  C   UNL A   1      31.917  32.289  26.631  1.00  0.00     0.275 C 
BRANCH  10  11
ATOM     11  O   UNL A   1      32.571  32.600  27.877  1.00  0.00    -0.458 OA
BRANCH  11  12
ATOM     12  C   UNL A   1      33.613  33.460  27.769  1.00  0.00     0.338 C 
ATOM     13  O   UNL A   1      33.544  34.648  27.495  1.00  0.00    -0.246 OA
BRANCH  12  14
ATOM     14  C   UNL A   1      34.843  32.839  28.292  1.00  0.00     0.060 A 
ATOM     15  C   UNL A   1      34.677  31.661  29.024  1.00  0.00     0.016 A 
ATOM     16  C   UNL A   1      36.114  33.379  28.124  1.00  0.00     0.016 A 
ATOM     17  C   UNL A   1      35.758  30.968  29.535  1.00  0.00     0.010 A 
ATOM     18  C   UNL A   1      37.211  32.709  28.679  1.00  0.00     0.010 A 
ATOM     19  C   UNL A   1      37.035  31.497  29.378  1.00  0.00    -0.014 A 
BRANCH  19  20
ATOM     20  C   UNL A   1      38.157  30.821  30.058  1.00  0.00     0.031 A 
ATOM     21  C   UNL A   1      38.464  31.187  31.476  1.00  0.00     0.074 A 
ATOM     22  C   UNL A   1      38.847  29.857  29.422  1.00  0.00     0.049 A 
ATOM     23  N   UNL A   1      39.467  30.820  32.225  1.00  0.00    -0.248 NA
ATOM     24  C   UNL A   1      37.511  32.092  32.142  1.00  0.00     0.031 C 
ATOM     25  C   UNL A   1      38.569  29.372  28.068  1.00  0.00     0.029 A 
ATOM     26  N   UNL A   1      39.936  29.126  29.823  1.00  0.00    -0.354 N 
ATOM     27  C   UNL A   1      39.308  31.502  33.424  1.00  0.00     0.074 A 
ATOM     28  C   UNL A   1      38.102  32.292  33.311  1.00  0.00     0.031 C 
ATOM     29  C   UNL A   1      39.484  28.446  27.739  1.00  0.00     0.029 A 
ATOM     30  C   UNL A   1      40.444  28.321  28.831  1.00  0.00     0.049 A 
ATOM     31  H   UNL A   1      40.315  29.174  30.731  1.00  0.00     0.167 HD
ATOM     32  C   UNL A   1      40.107  31.470  34.515  1.00  0.00     0.034 A 
ATOM     33  C   UNL A   1      41.587  27.611  28.793  1.00  0.00     0.034 A 
ATOM     34  C   UNL A   1      41.284  30.653  34.612  1.00  0.00     0.049 A 
ATOM     35  C   UNL A   1      42.478  27.626  30.004  1.00  0.00     0.074 A 
ATOM     36  C   UNL A   1      42.157  30.521  35.675  1.00  0.00     0.029 A 
ATOM     37  N   UNL A   1      41.759  29.833  33.597  1.00  0.00    -0.354 N 
ATOM     38  N   UNL A   1      42.303  28.240  31.150  1.00  0.00    -0.248 NA
ATOM     39  C   UNL A   1      43.715  26.838  29.928  1.00  0.00     0.031 C 
ATOM     40  C   UNL A   1      43.181  29.651  35.290  1.00  0.00     0.029 A 
ATOM     41  C   UNL A   1      42.921  29.203  34.003  1.00  0.00     0.049 A 
ATOM     42  H   UNL A   1      41.332  29.717  32.718  1.00  0.00     0.167 HD
ATOM     43  C   UNL A   1      43.386  27.887  31.944  1.00  0.00     0.074 A 
ATOM     44  C   UNL A   1      44.203  26.988  31.153  1.00  0.00     0.031 C 
ATOM     45  C   UNL A   1      43.687  28.275  33.208  1.00  0.00     0.034 A 
BRANCH  32  46
ATOM     46  C   UNL A   1      39.743  32.363  35.671  1.00  0.00     0.023 A 
ATOM     47  C   UNL A   1      38.992  31.859  36.753  1.00  0.00     0.012 A 
ATOM     48  C   UNL A   1      40.169  33.705  35.692  1.00  0.00     0.148 A 
ATOM     49  C   UNL A   1      38.640  32.688  37.819  1.00  0.00     0.002 A 
ATOM     50  C   UNL A   1      39.857  34.511  36.780  1.00  0.00     0.091 A 
ATOM     51  F   UNL A   1      40.858  34.173  34.642  1.00  0.00    -0.205 F 
ATOM     52  C   UNL A   1      39.081  34.009  37.837  1.00  0.00     0.022 A 
BRANCH  50  53
ATOM     53  S   UNL A   1      40.445  36.201  36.932  1.00  0.00     0.127 S 
ATOM     54  O   UNL A   1      41.893  36.006  36.993  1.00  0.00    -0.237 OA
ATOM     55  O   UNL A   1      39.964  36.805  35.690  1.00  0.00    -0.237 OA
ATOM     56  O   UNL A   1      39.838  36.733  38.143  1.00  0.00    -0.744 OA
ENDBRANCH  50  53
ENDBRANCH  32  46
BRANCH  33  57
ATOM     57  C   UNL A   1      41.952  26.843  27.568  1.00  0.00     0.023 A 
ATOM     58  C   UNL A   1      42.506  27.514  26.462  1.00  0.00     0.012 A 
ATOM     59  C   UNL A   1      41.774  25.446  27.505  1.00  0.00     0.148 A 
ATOM     60  C   UNL A   1      42.846  26.814  25.304  1.00  0.00     0.002 A 
ATOM     61  C   UNL A   1      42.169  24.746  26.371  1.00  0.00     0.091 A 
ATOM     62  F   UNL A   1      41.232  24.825  28.562  1.00  0.00    -0.205 F 
ATOM     63  C   UNL A   1      42.688  25.431  25.261  1.00  0.00     0.022 A 
BRANCH  61  64
ATOM     64  S   UNL A   1      42.121  22.953  26.276  1.00  0.00     0.127 S 
ATOM     65  O   UNL A   1      42.766  22.704  24.988  1.00  0.00    -0.237 OA
ATOM     66  O   UNL A   1      42.913  22.569  27.445  1.00  0.00    -0.237 OA
ATOM     67  O   UNL A   1      40.713  22.590  26.357  1.00  0.00    -0.744 OA
ENDBRANCH  61  64
ENDBRANCH  33  57
BRANCH  45  68
ATOM     68  C   UNL A   1      44.925  27.691  33.836  1.00  0.00     0.023 A 
ATOM     69  C   UNL A   1      46.170  28.328  33.670  1.00  0.00     0.012 A 
ATOM     70  C   UNL A   1      44.831  26.550  34.656  1.00  0.00     0.148 A 
ATOM     71  C   UNL A   1      47.310  27.817  34.287  1.00  0.00     0.002 A 
ATOM     72  C   UNL A   1      45.961  26.080  35.312  1.00  0.00     0.091 A 
ATOM     73  F   UNL A   1      43.638  25.951  34.785  1.00  0.00    -0.205 F 
ATOM     74  C   UNL A   1      47.205  26.703  35.116  1.00  0.00     0.022 A 
BRANCH  72  75
ATOM     75  S   UNL A   1      45.899  24.719  36.481  1.00  0.00     0.127 S 
ATOM     76  O   UNL A   1      46.182  23.573  35.619  1.00  0.00    -0.237 OA
ATOM     77  O   UNL A   1      46.974  25.063  37.413  1.00  0.00    -0.237 OA
ATOM     78  O   UNL A   1      44.563  24.746  37.062  1.00  0.00    -0.744 OA
ENDBRANCH  72  75
ENDBRANCH  45  68
ENDBRANCH  19  20
ENDBRANCH  12  14
ENDBRANCH  11  12
ENDBRANCH  10  11
ENDBRANCH   9  10
ENDBRANCH   8   9
ENDBRANCH   6   8
ENDBRANCH   1   6
BRANCH   1  79
ATOM     79  N   UNL A   1      31.938  28.125  22.327  1.00  0.00    -0.341 N 
ATOM     80  C   UNL A   1      31.408  26.856  22.268  1.00  0.00     0.242 C 
ATOM     81  H   UNL A   1      32.815  28.257  21.902  1.00  0.00     0.164 HD
ATOM     82  O   UNL A   1      31.185  26.368  21.155  1.00  0.00    -0.273 OA
BRANCH  80  83
ATOM     83  C   UNL A   1      31.490  25.916  23.494  1.00  0.00     0.168 C 
ATOM     84  C   UNL A   1      30.286  24.972  23.558  1.00  0.00     0.041 C 
BRANCH  83  85
ATOM     85  N   UNL A   1      31.738  26.497  24.791  1.00  0.00    -0.343 N 
ATOM     86  C   UNL A   1      32.155  25.908  25.946  1.00  0.00     0.243 C 
ATOM     87  H   UNL A   1      31.581  27.467  24.850  1.00  0.00     0.164 HD
ATOM     88  O   UNL A   1      32.297  26.664  26.917  1.00  0.00    -0.273 OA
BRANCH  86  89
ATOM     89  C   UNL A   1      32.447  24.383  26.110  1.00  0.00     0.174 C 
BRANCH  89  90
ATOM     90  N   UNL A   1      33.913  24.230  26.337  1.00  0.00    -0.343 N 
ATOM     91  C   UNL A   1      34.976  23.696  25.673  1.00  0.00     0.240 C 
ATOM     92  H   UNL A   1      34.186  24.622  27.197  1.00  0.00     0.164 HD
ATOM     93  O   UNL A   1      36.027  23.635  26.325  1.00  0.00    -0.273 OA
BRANCH  91  94
ATOM     94  C   UNL A   1      34.980  23.214  24.194  1.00  0.00     0.219 C 
BRANCH  94  95
ATOM     95  N   UNL A   1      33.717  22.748  23.634  1.00  0.00    -0.312 N 
ATOM     96  C   UNL A   1      33.016  21.607  23.937  1.00  0.00     0.407 C 
ATOM     97  H   UNL A   1      33.314  23.327  22.949  1.00  0.00     0.167 HD
ATOM     98  O   UNL A   1      32.069  21.262  23.258  1.00  0.00    -0.225 OA
BRANCH  96  99
ATOM     99  O   UNL A   1      33.518  20.906  24.994  1.00  0.00    -0.445 OA
BRANCH  99 100
ATOM    100  C   UNL A   1      34.565  19.959  24.668  1.00  0.00     0.270 C 
BRANCH 100 101
ATOM    101  C   UNL A   1      34.109  18.522  24.691  1.00  0.00    -0.011 A 
ATOM    102  C   UNL A   1      34.329  17.703  23.575  1.00  0.00     0.007 A 
ATOM    103  C   UNL A   1      33.361  18.027  25.762  1.00  0.00     0.007 A 
ATOM    104  C   UNL A   1      33.715  16.457  23.478  1.00  0.00     0.000 A 
ATOM    105  C   UNL A   1      32.745  16.781  25.664  1.00  0.00     0.000 A 
ATOM    106  C   UNL A   1      32.901  16.009  24.514  1.00  0.00     0.000 A 
ENDBRANCH 100 101
ENDBRANCH  99 100
ENDBRANCH  96  99
ENDBRANCH  94  95
ENDBRANCH  91  94
ENDBRANCH  89  90
BRANCH  89 107
ATOM    107  C   UNL A   1      31.601  23.382  26.926  1.00  0.00     0.015 C 
ATOM    108  C   UNL A   1      30.496  22.490  26.382  1.00  0.00     0.010 C 
ATOM    109  C   UNL A   1      32.540  22.475  27.736  1.00  0.00     0.010 C 
ENDBRANCH  89 107
ENDBRANCH  86  89
ENDBRANCH  83  85
ENDBRANCH  80  83
ENDBRANCH   1  79
TORSDOF 27
ENDMDL
MODEL 2
REMARK VINA RESULT:     -10.6      1.935      2.355
REMARK SMILES CC(C)C[C@H](NC(=O)[C@H](C)NC(=O)[C@@H](NC(=O)CNC(=O)OCc1ccccc1)C(C)C)C(=O)OCCOC(=O)c1ccc(-c2c3nc(c(-c4cccc(S(=O)(=O)[O-])c4F)c4ccc([nH]4)c(-c4cccc(S(=O)(=O)[O-])c4F)c4nc(c(-c5cccc(S(=O)(=O)[O-])c5F)c5ccc2[nH]5)C=C4)C=C3)cc1
REMARK SMILES IDX 5 1 4 2 2 3 1 4 3 5 33 6 34 7 35 8 36 9 37 10 38 11 39 12
REMARK SMILES IDX 40 13 41 14 42 15 103 16 43 17 102 18 44 19 45 20 46 21
REMARK SMILES IDX 96 22 47 23 101 24 95 25 97 26 48 27 100 28 94 29 93 30
REMARK SMILES IDX 49 32 81 33 61 34 80 35 62 36 65 37 79 38 98 39 63 40 64 41
REMARK SMILES IDX 78 43 99 44 66 45 50 46 51 47 59 48 52 49 54 50 60 51 53 52
REMARK SMILES IDX 55 53 56 54 57 55 58 56 82 57 83 58 91 59 84 60 86 61 92 62
REMARK SMILES IDX 85 63 87 64 88 65 89 66 90 67 67 68 68 69 76 70 69 71 71 72
REMARK SMILES IDX 77 73 70 74 72 75 73 76 74 77 75 78 6 79 7 80 8 82 9 83
REMARK SMILES IDX 10 84 11 85 12 86 13 88 14 89 15 90 16 91 17 93 18 94 19 95
REMARK SMILES IDX 20 96 21 98 22 99 23 100 24 101 25 102 29 103 26 104 28 105
REMARK SMILES IDX 27 106 30 107 31 108 32 109
REMARK H PARENT 97 31 65 42 6 81 11 87 15 92 19 97
REMARK Flexibility Score: inf
ROOT
ATOM      1  C   UNL A   1      31.509  29.670  24.143  1.00  0.00     0.192 C 
ENDROOT
BRANCH   1   2
ATOM      2  C   UNL A   1      30.317  28.988  23.448  1.00  0.00     0.040 C 
BRANCH   2   3
ATOM      3  C   UNL A   1      29.062  29.768  23.015  1.00  0.00    -0.015 C 
ATOM      4  C   UNL A   1      29.135  30.254  21.570  1.00  0.00     0.007 C 
ATOM      5  C   UNL A   1      27.812  28.873  23.117  1.00  0.00     0.007 C 
ENDBRANCH   2   3
ENDBRANCH   1   2
BRANCH   1   6
ATOM      6  C   UNL A   1      31.386  29.601  25.679  1.00  0.00     0.328 C 
ATOM      7  O   UNL A   1      31.545  28.562  26.307  1.00  0.00    -0.250 OA
BRANCH   6   8
ATOM      8  O   UNL A   1      31.156  30.799  26.286  1.00  0.00    -0.461 OA
BRANCH   8   9
ATOM      9  C   UNL A   1      32.352  31.412  26.824  1.00  0.00     0.274 C 
BRANCH   9  10
ATOM     10  C   UNL A   1      32.254  32.943  26.917  1.00  0.00     0.275 C 
BRANCH  10  11
ATOM     11  O   UNL A   1      32.451  33.435  28.256  1.00  0.00    -0.458 OA
BRANCH  11  12
ATOM     12  C   UNL A   1      33.498  34.285  28.398  1.00  0.00     0.338 C 
ATOM     13  O   UNL A   1      33.451  35.503  28.335  1.00  0.00    -0.246 OA
BRANCH  12  14
ATOM     14  C   UNL A   1      34.675  33.563  28.912  1.00  0.00     0.060 A 
ATOM     15  C   UNL A   1      34.416  32.419  29.671  1.00  0.00     0.016 A 
ATOM     16  C   UNL A   1      35.987  33.980  28.710  1.00  0.00     0.016 A 
ATOM     17  C   UNL A   1      35.439  31.639  30.176  1.00  0.00     0.010 A 
ATOM     18  C   UNL A   1      37.028  33.222  29.258  1.00  0.00     0.010 A 
ATOM     19  C   UNL A   1      36.756  32.045  29.985  1.00  0.00    -0.014 A 
BRANCH  19  20
ATOM     20  C   UNL A   1      37.824  31.281  30.658  1.00  0.00     0.031 A 
ATOM     21  C   UNL A   1      38.054  31.501  32.120  1.00  0.00     0.074 A 
ATOM     22  C   UNL A   1      38.533  30.367  29.971  1.00  0.00     0.049 A 
ATOM     23  N   UNL A   1      39.005  31.041  32.885  1.00  0.00    -0.248 NA
ATOM     24  C   UNL A   1      37.080  32.360  32.816  1.00  0.00     0.031 C 
ATOM     25  C   UNL A   1      38.326  30.021  28.563  1.00  0.00     0.029 A 
ATOM     26  N   UNL A   1      39.583  29.576  30.359  1.00  0.00    -0.354 N 
ATOM     27  C   UNL A   1      38.789  31.608  34.133  1.00  0.00     0.074 A 
ATOM     28  C   UNL A   1      37.605  32.433  34.031  1.00  0.00     0.031 C 
ATOM     29  C   UNL A   1      39.243  29.110  28.197  1.00  0.00     0.029 A 
ATOM     30  C   UNL A   1      40.135  28.859  29.324  1.00  0.00     0.049 A 
ATOM     31  H   UNL A   1      39.910  29.528  31.288  1.00  0.00     0.167 HD
ATOM     32  C   UNL A   1      39.521  31.453  35.260  1.00  0.00     0.034 A 
ATOM     33  C   UNL A   1      41.265  28.129  29.281  1.00  0.00     0.034 A 
ATOM     34  C   UNL A   1      40.677  30.603  35.343  1.00  0.00     0.049 A 
ATOM     35  C   UNL A   1      42.085  28.007  30.537  1.00  0.00     0.074 A 
ATOM     36  C   UNL A   1      41.483  30.350  36.436  1.00  0.00     0.029 A 
ATOM     37  N   UNL A   1      41.196  29.874  34.281  1.00  0.00    -0.354 N 
ATOM     38  N   UNL A   1      41.854  28.512  31.725  1.00  0.00    -0.248 NA
ATOM     39  C   UNL A   1      43.310  27.202  30.455  1.00  0.00     0.031 C 
ATOM     40  C   UNL A   1      42.513  29.497  36.026  1.00  0.00     0.029 A 
ATOM     41  C   UNL A   1      42.321  29.181  34.689  1.00  0.00     0.049 A 
ATOM     42  H   UNL A   1      40.819  29.853  33.373  1.00  0.00     0.167 HD
ATOM     43  C   UNL A   1      42.882  28.059  32.541  1.00  0.00     0.074 A 
ATOM     44  C   UNL A   1      43.728  27.222  31.713  1.00  0.00     0.031 C 
ATOM     45  C   UNL A   1      43.116  28.317  33.852  1.00  0.00     0.034 A 
BRANCH  32  46
ATOM     46  C   UNL A   1      39.106  32.239  36.475  1.00  0.00     0.023 A 
ATOM     47  C   UNL A   1      39.562  33.560  36.661  1.00  0.00     0.012 A 
ATOM     48  C   UNL A   1      38.239  31.667  37.427  1.00  0.00     0.148 A 
ATOM     49  C   UNL A   1      39.191  34.286  37.793  1.00  0.00     0.002 A 
ATOM     50  C   UNL A   1      37.835  32.413  38.527  1.00  0.00     0.091 A 
ATOM     51  F   UNL A   1      37.839  30.401  37.247  1.00  0.00    -0.205 F 
ATOM     52  C   UNL A   1      38.320  33.716  38.719  1.00  0.00     0.022 A 
BRANCH  50  53
ATOM     53  S   UNL A   1      36.655  31.796  39.733  1.00  0.00     0.127 S 
ATOM     54  O   UNL A   1      36.300  33.020  40.450  1.00  0.00    -0.237 OA
ATOM     55  O   UNL A   1      35.596  31.261  38.878  1.00  0.00    -0.237 OA
ATOM     56  O   UNL A   1      37.365  30.798  40.519  1.00  0.00    -0.744 OA
ENDBRANCH  50  53
ENDBRANCH  32  46
BRANCH  33  57
ATOM     57  C   UNL A   1      41.688  27.474  28.011  1.00  0.00     0.023 A 
ATOM     58  C   UNL A   1      42.216  28.254  26.964  1.00  0.00     0.012 A 
ATOM     59  C   UNL A   1      41.590  26.078  27.843  1.00  0.00     0.148 A 
ATOM     60  C   UNL A   1      42.608  27.661  25.765  1.00  0.00     0.002 A 
ATOM     61  C   UNL A   1      42.037  25.486  26.668  1.00  0.00     0.091 A 
ATOM     62  F   UNL A   1      41.071  25.352  28.845  1.00  0.00    -0.205 F 
ATOM     63  C   UNL A   1      42.529  26.278  25.619  1.00  0.00     0.022 A 
BRANCH  61  64
ATOM     64  S   UNL A   1      42.092  23.704  26.443  1.00  0.00     0.127 S 
ATOM     65  O   UNL A   1      42.250  23.591  24.995  1.00  0.00    -0.237 OA
ATOM     66  O   UNL A   1      43.276  23.339  27.222  1.00  0.00    -0.237 OA
ATOM     67  O   UNL A   1      40.837  23.199  26.983  1.00  0.00    -0.744 OA
ENDBRANCH  61  64
ENDBRANCH  33  57
BRANCH  45  68
ATOM     68  C   UNL A   1      44.304  27.647  34.489  1.00  0.00     0.023 A 
ATOM     69  C   UNL A   1      45.531  28.331  34.590  1.00  0.00     0.012 A 
ATOM     70  C   UNL A   1      44.174  26.364  35.057  1.00  0.00     0.148 A 
ATOM     71  C   UNL A   1      46.621  27.732  35.219  1.00  0.00     0.002 A 
ATOM     72  C   UNL A   1      45.247  25.798  35.731  1.00  0.00     0.091 A 
ATOM     73  F   UNL A   1      43.001  25.727  34.933  1.00  0.00    -0.205 F 
ATOM     74  C   UNL A   1      46.477  26.474  35.800  1.00  0.00     0.022 A 
BRANCH  72  75
ATOM     75  S   UNL A   1      45.120  24.232  36.599  1.00  0.00     0.127 S 
ATOM     76  O   UNL A   1      43.829  23.735  36.129  1.00  0.00    -0.237 OA
ATOM     77  O   UNL A   1      46.280  23.501  36.086  1.00  0.00    -0.237 OA
ATOM     78  O   UNL A   1      45.185  24.551  38.019  1.00  0.00    -0.744 OA
ENDBRANCH  72  75
ENDBRANCH  45  68
ENDBRANCH  19  20
ENDBRANCH  12  14
ENDBRANCH  11  12
ENDBRANCH  10  11
ENDBRANCH   9  10
ENDBRANCH   8   9
ENDBRANCH   6   8
ENDBRANCH   1   6
BRANCH   1  79
ATOM     79  N   UNL A   1      32.852  29.240  23.661  1.00  0.00    -0.341 N 
ATOM     80  C   UNL A   1      33.116  28.334  22.660  1.00  0.00     0.242 C 
ATOM     81  H   UNL A   1      33.631  29.645  24.105  1.00  0.00     0.164 HD
ATOM     82  O   UNL A   1      33.750  28.723  21.672  1.00  0.00    -0.273 OA
BRANCH  80  83
ATOM     83  C   UNL A   1      33.017  26.814  22.932  1.00  0.00     0.168 C 
ATOM     84  C   UNL A   1      31.842  26.185  22.179  1.00  0.00     0.041 C 
BRANCH  83  85
ATOM     85  N   UNL A   1      33.033  26.358  24.301  1.00  0.00    -0.343 N 
ATOM     86  C   UNL A   1      33.772  25.375  24.885  1.00  0.00     0.243 C 
ATOM     87  H   UNL A   1      32.415  26.830  24.904  1.00  0.00     0.164 HD
ATOM     88  O   UNL A   1      33.585  25.206  26.097  1.00  0.00    -0.273 OA
BRANCH  86  89
ATOM     89  C   UNL A   1      34.802  24.472  24.133  1.00  0.00     0.174 C 
BRANCH  89  90
ATOM     90  N   UNL A   1      36.032  24.403  24.974  1.00  0.00    -0.343 N 
ATOM     91  C   UNL A   1      36.473  23.680  26.040  1.00  0.00     0.240 C 
ATOM     92  H   UNL A   1      36.706  25.055  24.677  1.00  0.00     0.164 HD
ATOM     93  O   UNL A   1      37.531  24.080  26.546  1.00  0.00    -0.273 OA
BRANCH  91  94
ATOM     94  C   UNL A   1      35.795  22.408  26.624  1.00  0.00     0.219 C 
BRANCH  94  95
ATOM     95  N   UNL A   1      34.633  22.599  27.485  1.00  0.00    -0.312 N 
ATOM     96  C   UNL A   1      33.486  21.847  27.552  1.00  0.00     0.407 C 
ATOM     97  H   UNL A   1      34.676  23.368  28.097  1.00  0.00     0.167 HD
ATOM     98  O   UNL A   1      32.528  22.235  28.192  1.00  0.00    -0.225 OA
BRANCH  96  99
ATOM     99  O   UNL A   1      33.520  20.706  26.806  1.00  0.00    -0.445 OA
BRANCH  99 100
ATOM    100  C   UNL A   1      32.964  20.820  25.474  1.00  0.00     0.270 C 
BRANCH 100 101
ATOM    101  C   UNL A   1      33.309  19.662  24.573  1.00  0.00    -0.011 A 
ATOM    102  C   UNL A   1      32.380  19.219  23.620  1.00  0.00     0.007 A 
ATOM    103  C   UNL A   1      34.494  18.945  24.753  1.00  0.00     0.007 A 
ATOM    104  C   UNL A   1      32.576  18.016  22.946  1.00  0.00     0.000 A 
ATOM    105  C   UNL A   1      34.689  17.741  24.080  1.00  0.00     0.000 A 
ATOM    106  C   UNL A   1      33.720  17.265  23.197  1.00  0.00     0.000 A 
ENDBRANCH 100 101
ENDBRANCH  99 100
ENDBRANCH  96  99
ENDBRANCH  94  95
ENDBRANCH  91  94
ENDBRANCH  89  90
BRANCH  89 107
ATOM    107  C   UNL A   1      34.485  23.145  23.413  1.00  0.00     0.015 C 
ATOM    108  C   UNL A   1      33.402  22.928  22.367  1.00  0.00     0.010 C 
ATOM    109  C   UNL A   1      35.783  22.571  22.826  1.00  0.00     0.010 C 
ENDBRANCH  89 107
ENDBRANCH  86  89
ENDBRANCH  83  85
ENDBRANCH  80  83
ENDBRANCH   1  79
TORSDOF 27
ENDMDL
MODEL 3
REMARK VINA RESULT:     -10.5      1.870      2.462
REMARK SMILES CC(C)C[C@H](NC(=O)[C@H](C)NC(=O)[C@@H](NC(=O)CNC(=O)OCc1ccccc1)C(C)C)C(=O)OCCOC(=O)c1ccc(-c2c3nc(c(-c4cccc(S(=O)(=O)[O-])c4F)c4ccc([nH]4)c(-c4cccc(S(=O)(=O)[O-])c4F)c4nc(c(-c5cccc(S(=O)(=O)[O-])c5F)c5ccc2[nH]5)C=C4)C=C3)cc1
REMARK SMILES IDX 5 1 4 2 2 3 1 4 3 5 33 6 34 7 35 8 36 9 37 10 38 11 39 12
REMARK SMILES IDX 40 13 41 14 42 15 103 16 43 17 102 18 44 19 45 20 46 21
REMARK SMILES IDX 96 22 47 23 101 24 95 25 97 26 48 27 100 28 94 29 93 30
REMARK SMILES IDX 49 32 81 33 61 34 80 35 62 36 65 37 79 38 98 39 63 40 64 41
REMARK SMILES IDX 78 43 99 44 66 45 50 46 51 47 59 48 52 49 54 50 60 51 53 52
REMARK SMILES IDX 55 53 56 54 57 55 58 56 82 57 83 58 91 59 84 60 86 61 92 62
REMARK SMILES IDX 85 63 87 64 88 65 89 66 90 67 67 68 68 69 76 70 69 71 71 72
REMARK SMILES IDX 77 73 70 74 72 75 73 76 74 77 75 78 6 79 7 80 8 82 9 83
REMARK SMILES IDX 10 84 11 85 12 86 13 88 14 89 15 90 16 91 17 93 18 94 19 95
REMARK SMILES IDX 20 96 21 98 22 99 23 100 24 101 25 102 29 103 26 104 28 105
REMARK SMILES IDX 27 106 30 107 31 108 32 109
REMARK H PARENT 97 31 65 42 6 81 11 87 15 92 19 97
REMARK Flexibility Score: inf
ROOT
ATOM      1  C   UNL A   1      31.904  30.073  24.795  1.00  0.00     0.192 C 
ENDROOT
BRANCH   1   2
ATOM      2  C   UNL A   1      30.585  29.562  24.186  1.00  0.00     0.040 C 
BRANCH   2   3
ATOM      3  C   UNL A   1      29.786  30.379  23.154  1.00  0.00    -0.015 C 
ATOM      4  C   UNL A   1      29.877  29.805  21.743  1.00  0.00     0.007 C 
ATOM      5  C   UNL A   1      28.291  30.399  23.528  1.00  0.00     0.007 C 
ENDBRANCH   2   3
ENDBRANCH   1   2
BRANCH   1   6
ATOM      6  C   UNL A   1      31.866  30.039  26.337  1.00  0.00     0.328 C 
ATOM      7  O   UNL A   1      32.062  29.014  26.978  1.00  0.00    -0.250 OA
BRANCH   6   8
ATOM      8  O   UNL A   1      31.669  31.250  26.929  1.00  0.00    -0.461 OA
BRANCH   8   9
ATOM      9  C   UNL A   1      32.865  31.801  27.528  1.00  0.00     0.274 C 
BRANCH   9  10
ATOM     10  C   UNL A   1      32.876  33.337  27.547  1.00  0.00     0.275 C 
BRANCH  10  11
ATOM     11  O   UNL A   1      32.538  33.883  28.837  1.00  0.00    -0.458 OA
BRANCH  11  12
ATOM     12  C   UNL A   1      33.458  34.737  29.349  1.00  0.00     0.338 C 
ATOM     13  O   UNL A   1      33.284  35.919  29.599  1.00  0.00    -0.246 OA
BRANCH  12  14
ATOM     14  C   UNL A   1      34.636  33.991  29.826  1.00  0.00     0.060 A 
ATOM     15  C   UNL A   1      34.398  33.010  30.791  1.00  0.00     0.016 A 
ATOM     16  C   UNL A   1      35.935  34.241  29.395  1.00  0.00     0.016 A 
ATOM     17  C   UNL A   1      35.418  32.222  31.288  1.00  0.00     0.010 A 
ATOM     18  C   UNL A   1      36.981  33.479  29.928  1.00  0.00     0.010 A 
ATOM     19  C   UNL A   1      36.722  32.461  30.870  1.00  0.00    -0.014 A 
BRANCH  19  20
ATOM     20  C   UNL A   1      37.812  31.710  31.523  1.00  0.00     0.031 A 
ATOM     21  C   UNL A   1      38.215  32.090  32.914  1.00  0.00     0.074 A 
ATOM     22  C   UNL A   1      38.386  30.671  30.891  1.00  0.00     0.049 A 
ATOM     23  N   UNL A   1      39.216  31.659  33.630  1.00  0.00    -0.248 NA
ATOM     24  C   UNL A   1      37.375  33.094  33.589  1.00  0.00     0.031 C 
ATOM     25  C   UNL A   1      38.005  30.171  29.567  1.00  0.00     0.029 A 
ATOM     26  N   UNL A   1      39.425  29.859  31.268  1.00  0.00    -0.354 N 
ATOM     27  C   UNL A   1      39.172  32.387  34.811  1.00  0.00     0.074 A 
ATOM     28  C   UNL A   1      38.034  33.276  34.724  1.00  0.00     0.031 C 
ATOM     29  C   UNL A   1      38.821  29.159  29.230  1.00  0.00     0.029 A 
ATOM     30  C   UNL A   1      39.815  28.983  30.283  1.00  0.00     0.049 A 
ATOM     31  H   UNL A   1      39.849  29.901  32.157  1.00  0.00     0.167 HD
ATOM     32  C   UNL A   1      40.014  32.319  35.867  1.00  0.00     0.034 A 
ATOM     33  C   UNL A   1      40.890  28.174  30.219  1.00  0.00     0.034 A 
ATOM     34  C   UNL A   1      41.120  31.404  35.940  1.00  0.00     0.049 A 
ATOM     35  C   UNL A   1      41.834  28.147  31.390  1.00  0.00     0.074 A 
ATOM     36  C   UNL A   1      42.026  31.228  36.968  1.00  0.00     0.029 A 
ATOM     37  N   UNL A   1      41.475  30.515  34.934  1.00  0.00    -0.354 N 
ATOM     38  N   UNL A   1      41.766  28.809  32.520  1.00  0.00    -0.248 NA
ATOM     39  C   UNL A   1      42.993  27.252  31.287  1.00  0.00     0.031 C 
ATOM     40  C   UNL A   1      42.952  30.260  36.569  1.00  0.00     0.029 A 
ATOM     41  C   UNL A   1      42.596  29.798  35.310  1.00  0.00     0.049 A 
ATOM     42  H   UNL A   1      40.999  30.411  34.079  1.00  0.00     0.167 HD
ATOM     43  C   UNL A   1      42.849  28.385  33.279  1.00  0.00     0.074 A 
ATOM     44  C   UNL A   1      43.548  27.395  32.483  1.00  0.00     0.031 C 
ATOM     45  C   UNL A   1      43.241  28.783  34.515  1.00  0.00     0.034 A 
BRANCH  32  46
ATOM     46  C   UNL A   1      39.782  33.274  37.007  1.00  0.00     0.023 A 
ATOM     47  C   UNL A   1      38.755  33.034  37.941  1.00  0.00     0.012 A 
ATOM     48  C   UNL A   1      40.606  34.406  37.162  1.00  0.00     0.148 A 
ATOM     49  C   UNL A   1      38.528  33.925  38.991  1.00  0.00     0.002 A 
ATOM     50  C   UNL A   1      40.406  35.262  38.237  1.00  0.00     0.091 A 
ATOM     51  F   UNL A   1      41.560  34.632  36.248  1.00  0.00    -0.205 F 
ATOM     52  C   UNL A   1      39.359  35.032  39.144  1.00  0.00     0.022 A 
BRANCH  50  53
ATOM     53  S   UNL A   1      41.472  36.670  38.564  1.00  0.00     0.127 S 
ATOM     54  O   UNL A   1      42.473  36.083  39.454  1.00  0.00    -0.237 OA
ATOM     55  O   UNL A   1      41.964  36.998  37.226  1.00  0.00    -0.237 OA
ATOM     56  O   UNL A   1      40.624  37.688  39.168  1.00  0.00    -0.744 OA
ENDBRANCH  50  53
ENDBRANCH  32  46
BRANCH  33  57
ATOM     57  C   UNL A   1      41.130  27.341  29.007  1.00  0.00     0.023 A 
ATOM     58  C   UNL A   1      40.558  26.059  28.915  1.00  0.00     0.012 A 
ATOM     59  C   UNL A   1      41.907  27.824  27.934  1.00  0.00     0.148 A 
ATOM     60  C   UNL A   1      40.779  25.260  27.793  1.00  0.00     0.002 A 
ATOM     61  C   UNL A   1      42.076  27.047  26.794  1.00  0.00     0.091 A 
ATOM     62  F   UNL A   1      42.457  29.041  28.045  1.00  0.00    -0.205 F 
ATOM     63  C   UNL A   1      41.528  25.757  26.728  1.00  0.00     0.022 A 
BRANCH  61  64
ATOM     64  S   UNL A   1      42.915  27.654  25.326  1.00  0.00     0.127 S 
ATOM     65  O   UNL A   1      42.830  26.500  24.434  1.00  0.00    -0.237 OA
ATOM     66  O   UNL A   1      42.074  28.790  24.946  1.00  0.00    -0.237 OA
ATOM     67  O   UNL A   1      44.257  28.019  25.760  1.00  0.00    -0.744 OA
ENDBRANCH  61  64
ENDBRANCH  33  57
BRANCH  45  68
ATOM     68  C   UNL A   1      44.451  28.112  35.107  1.00  0.00     0.023 A 
ATOM     69  C   UNL A   1      45.715  28.728  35.021  1.00  0.00     0.012 A 
ATOM     70  C   UNL A   1      44.313  26.905  35.820  1.00  0.00     0.148 A 
ATOM     71  C   UNL A   1      46.830  28.132  35.607  1.00  0.00     0.002 A 
ATOM     72  C   UNL A   1      45.418  26.347  36.449  1.00  0.00     0.091 A 
ATOM     73  F   UNL A   1      43.103  26.330  35.875  1.00  0.00    -0.205 F 
ATOM     74  C   UNL A   1      46.681  26.952  36.331  1.00  0.00     0.022 A 
BRANCH  72  75
ATOM     75  S   UNL A   1      45.298  24.889  37.489  1.00  0.00     0.127 S 
ATOM     76  O   UNL A   1      44.647  23.937  36.593  1.00  0.00    -0.237 OA
ATOM     77  O   UNL A   1      46.704  24.598  37.774  1.00  0.00    -0.237 OA
ATOM     78  O   UNL A   1      44.515  25.285  38.652  1.00  0.00    -0.744 OA
ENDBRANCH  72  75
ENDBRANCH  45  68
ENDBRANCH  19  20
ENDBRANCH  12  14
ENDBRANCH  11  12
ENDBRANCH  10  11
ENDBRANCH   9  10
ENDBRANCH   8   9
ENDBRANCH   6   8
ENDBRANCH   1   6
BRANCH   1  79
ATOM     79  N   UNL A   1      33.139  29.449  24.243  1.00  0.00    -0.341 N 
ATOM     80  C   UNL A   1      33.218  28.579  23.179  1.00  0.00     0.242 C 
ATOM     81  H   UNL A   1      33.987  29.682  24.685  1.00  0.00     0.164 HD
ATOM     82  O   UNL A   1      33.887  28.918  22.197  1.00  0.00    -0.273 OA
BRANCH  80  83
ATOM     83  C   UNL A   1      32.859  27.086  23.360  1.00  0.00     0.168 C 
ATOM     84  C   UNL A   1      31.516  26.748  22.707  1.00  0.00     0.041 C 
BRANCH  83  85
ATOM     85  N   UNL A   1      32.926  26.518  24.684  1.00  0.00    -0.343 N 
ATOM     86  C   UNL A   1      33.652  25.462  25.146  1.00  0.00     0.243 C 
ATOM     87  H   UNL A   1      32.360  26.961  25.356  1.00  0.00     0.164 HD
ATOM     88  O   UNL A   1      33.521  25.201  26.349  1.00  0.00    -0.273 OA
BRANCH  86  89
ATOM     89  C   UNL A   1      34.604  24.588  24.269  1.00  0.00     0.174 C 
BRANCH  89  90
ATOM     90  N   UNL A   1      35.904  24.480  24.992  1.00  0.00    -0.343 N 
ATOM     91  C   UNL A   1      36.426  23.729  26.002  1.00  0.00     0.240 C 
ATOM     92  H   UNL A   1      36.562  25.124  24.645  1.00  0.00     0.164 HD
ATOM     93  O   UNL A   1      37.533  24.100  26.415  1.00  0.00    -0.273 OA
BRANCH  91  94
ATOM     94  C   UNL A   1      35.777  22.460  26.625  1.00  0.00     0.219 C 
BRANCH  94  95
ATOM     95  N   UNL A   1      34.625  22.652  27.498  1.00  0.00    -0.312 N 
ATOM     96  C   UNL A   1      33.452  21.939  27.536  1.00  0.00     0.407 C 
ATOM     97  H   UNL A   1      34.696  23.391  28.144  1.00  0.00     0.167 HD
ATOM     98  O   UNL A   1      32.510  22.330  28.197  1.00  0.00    -0.225 OA
BRANCH  96  99
ATOM     99  O   UNL A   1      33.444  20.833  26.738  1.00  0.00    -0.445 OA
BRANCH  99 100
ATOM    100  C   UNL A   1      32.604  20.923  25.562  1.00  0.00     0.270 C 
BRANCH 100 101
ATOM    101  C   UNL A   1      32.598  19.670  24.726  1.00  0.00    -0.011 A 
ATOM    102  C   UNL A   1      33.104  18.474  25.257  1.00  0.00     0.007 A 
ATOM    103  C   UNL A   1      32.208  19.708  23.385  1.00  0.00     0.007 A 
ATOM    104  C   UNL A   1      33.327  17.372  24.435  1.00  0.00     0.000 A 
ATOM    105  C   UNL A   1      32.434  18.606  22.562  1.00  0.00     0.000 A 
ATOM    106  C   UNL A   1      33.015  17.449  23.082  1.00  0.00     0.000 A 
ENDBRANCH 100 101
ENDBRANCH  99 100
ENDBRANCH  96  99
ENDBRANCH  94  95
ENDBRANCH  91  94
ENDBRANCH  89  90
BRANCH  89 107
ATOM    107  C   UNL A   1      34.214  23.292  23.527  1.00  0.00     0.015 C 
ATOM    108  C   UNL A   1      33.143  23.159  22.455  1.00  0.00     0.010 C 
ATOM    109  C   UNL A   1      35.484  22.635  22.964  1.00  0.00     0.010 C 
ENDBRANCH  89 107
ENDBRANCH  86  89
ENDBRANCH  83  85
ENDBRANCH  80  83
ENDBRANCH   1  79
TORSDOF 27
ENDMDL
