MODEL 1
REMARK VINA RESULT:     -10.6      0.000      0.000
REMARK SMILES C[C@H]([C@@H](C)C(=O)OCCOC(=O)c1ccc(-c2c3nc(c(-c4cccc(S(=O)(=O)[O-])c4F)c4ccc([nH]4)c(-c4cccc(S(=O)(=O)[O-])c4F)c4nc(c(-c5cccc(S(=O)(=O)[O-])c5F)c5ccc2[nH]5)C=C4)C=C3)cc1)[S@@](=O)c1ccc2ccccc2c1
REMARK SMILES IDX 8 1 7 2 5 3 6 4 3 5 4 6 2 7 1 8 76 9 77 10 78 11 79 12 87 13
REMARK SMILES IDX 80 14 86 15 81 16 85 17 82 18 84 19 83 20 9 21 10 22 11 23
REMARK SMILES IDX 12 24 13 25 14 26 75 27 15 28 74 29 16 30 17 31 18 32 68 33
REMARK SMILES IDX 19 34 73 35 67 36 69 37 20 38 72 39 66 40 65 41 21 43 53 44
REMARK SMILES IDX 33 45 52 46 34 47 37 48 51 49 70 50 35 51 36 52 50 54 71 55
REMARK SMILES IDX 38 56 22 57 23 58 31 59 24 60 26 61 32 62 25 63 27 64 28 65
REMARK SMILES IDX 29 66 30 67 54 68 55 69 63 70 56 71 58 72 64 73 57 74 59 75
REMARK SMILES IDX 60 76 61 77 62 78 39 79 40 80 48 81 41 82 43 83 49 84 42 85
REMARK SMILES IDX 44 86 45 87 46 88 47 89
REMARK H PARENT 69 42 37 53
REMARK Flexibility Score: inf
ROOT
ATOM      1  C   UNL A   1      33.819  34.601  28.507  1.00  0.00     0.274 C 
ENDROOT
BRANCH   1   2
ATOM      2  O   UNL A   1      32.682  35.132  29.220  1.00  0.00    -0.462 OA
BRANCH   2   3
ATOM      3  C   UNL A   1      32.950  36.039  30.189  1.00  0.00     0.309 C 
ATOM      4  O   UNL A   1      33.167  37.227  29.970  1.00  0.00    -0.252 OA
BRANCH   3   5
ATOM      5  C   UNL A   1      32.907  35.478  31.610  1.00  0.00     0.112 C 
ATOM      6  C   UNL A   1      31.630  36.002  32.275  1.00  0.00     0.021 C 
BRANCH   5   7
ATOM      7  C   UNL A   1      34.198  35.644  32.447  1.00  0.00     0.095 C 
ATOM      8  C   UNL A   1      34.100  36.619  33.620  1.00  0.00     0.023 C 
BRANCH   7   9
ATOM      9  S   UNL A   1      34.933  34.019  32.980  1.00  0.00     0.057 S 
ATOM     10  O   UNL A   1      34.074  32.929  32.404  1.00  0.00    -0.254 OA
BRANCH   9  11
ATOM     11  C   UNL A   1      36.475  33.953  32.046  1.00  0.00     0.040 A 
ATOM     12  C   UNL A   1      36.427  33.664  30.679  1.00  0.00     0.018 A 
ATOM     13  C   UNL A   1      37.701  34.277  32.632  1.00  0.00     0.026 A 
ATOM     14  C   UNL A   1      37.596  33.657  29.913  1.00  0.00     0.010 A 
ATOM     15  C   UNL A   1      38.888  34.265  31.878  1.00  0.00    -0.017 A 
ATOM     16  C   UNL A   1      38.834  33.954  30.500  1.00  0.00    -0.018 A 
ATOM     17  C   UNL A   1      40.127  34.570  32.464  1.00  0.00     0.009 A 
ATOM     18  C   UNL A   1      40.019  33.963  29.746  1.00  0.00     0.009 A 
ATOM     19  C   UNL A   1      41.296  34.569  31.702  1.00  0.00     0.001 A 
ATOM     20  C   UNL A   1      41.242  34.268  30.344  1.00  0.00     0.001 A 
ENDBRANCH   9  11
ENDBRANCH   7   9
ENDBRANCH   5   7
ENDBRANCH   3   5
ENDBRANCH   2   3
ENDBRANCH   1   2
BRANCH   1  21
ATOM     21  C   UNL A   1      33.588  33.143  28.090  1.00  0.00     0.275 C 
BRANCH  21  22
ATOM     22  O   UNL A   1      34.815  32.391  28.010  1.00  0.00    -0.458 OA
BRANCH  22  23
ATOM     23  C   UNL A   1      34.666  31.050  27.946  1.00  0.00     0.338 C 
ATOM     24  O   UNL A   1      33.677  30.436  27.564  1.00  0.00    -0.246 OA
BRANCH  23  25
ATOM     25  C   UNL A   1      35.925  30.369  28.276  1.00  0.00     0.060 A 
ATOM     26  C   UNL A   1      36.049  29.815  29.551  1.00  0.00     0.016 A 
ATOM     27  C   UNL A   1      37.008  30.368  27.397  1.00  0.00     0.016 A 
ATOM     28  C   UNL A   1      37.266  29.303  29.979  1.00  0.00     0.010 A 
ATOM     29  C   UNL A   1      38.226  29.820  27.816  1.00  0.00     0.010 A 
ATOM     30  C   UNL A   1      38.368  29.306  29.118  1.00  0.00    -0.014 A 
BRANCH  30  31
ATOM     31  C   UNL A   1      39.665  28.774  29.598  1.00  0.00     0.031 A 
ATOM     32  C   UNL A   1      40.395  29.458  30.719  1.00  0.00     0.074 A 
ATOM     33  C   UNL A   1      40.174  27.665  29.028  1.00  0.00     0.049 A 
ATOM     34  N   UNL A   1      41.555  29.163  31.244  1.00  0.00    -0.248 NA
ATOM     35  C   UNL A   1      39.737  30.625  31.328  1.00  0.00     0.031 C 
ATOM     36  C   UNL A   1      39.546  26.913  27.940  1.00  0.00     0.029 A 
ATOM     37  N   UNL A   1      41.339  26.986  29.277  1.00  0.00    -0.354 N 
ATOM     38  C   UNL A   1      41.790  30.133  32.211  1.00  0.00     0.074 A 
ATOM     39  C   UNL A   1      40.649  31.022  32.204  1.00  0.00     0.031 C 
ATOM     40  C   UNL A   1      40.337  25.880  27.609  1.00  0.00     0.029 A 
ATOM     41  C   UNL A   1      41.542  25.920  28.431  1.00  0.00     0.049 A 
ATOM     42  H   UNL A   1      41.969  27.236  29.989  1.00  0.00     0.167 HD
ATOM     43  C   UNL A   1      42.856  30.260  33.037  1.00  0.00     0.034 A 
ATOM     44  C   UNL A   1      42.592  25.085  28.315  1.00  0.00     0.034 A 
ATOM     45  C   UNL A   1      43.965  29.345  33.070  1.00  0.00     0.049 A 
ATOM     46  C   UNL A   1      43.762  25.254  29.245  1.00  0.00     0.074 A 
ATOM     47  C   UNL A   1      45.066  29.358  33.908  1.00  0.00     0.029 A 
ATOM     48  N   UNL A   1      44.118  28.254  32.226  1.00  0.00    -0.354 N 
ATOM     49  N   UNL A   1      43.920  26.112  30.224  1.00  0.00    -0.248 NA
ATOM     50  C   UNL A   1      44.888  24.324  29.072  1.00  0.00     0.031 C 
ATOM     51  C   UNL A   1      45.892  28.283  33.562  1.00  0.00     0.029 A 
ATOM     52  C   UNL A   1      45.299  27.592  32.517  1.00  0.00     0.049 A 
ATOM     53  H   UNL A   1      43.481  27.990  31.524  1.00  0.00     0.167 HD
ATOM     54  C   UNL A   1      45.148  25.810  30.800  1.00  0.00     0.074 A 
ATOM     55  C   UNL A   1      45.681  24.674  30.076  1.00  0.00     0.031 C 
ATOM     56  C   UNL A   1      45.787  26.429  31.822  1.00  0.00     0.034 A 
BRANCH  43  57
ATOM     57  C   UNL A   1      42.863  31.417  33.999  1.00  0.00     0.023 A 
ATOM     58  C   UNL A   1      43.521  32.612  33.646  1.00  0.00     0.012 A 
ATOM     59  C   UNL A   1      42.167  31.343  35.221  1.00  0.00     0.148 A 
ATOM     60  C   UNL A   1      43.505  33.709  34.506  1.00  0.00     0.002 A 
ATOM     61  C   UNL A   1      42.127  32.455  36.057  1.00  0.00     0.091 A 
ATOM     62  F   UNL A   1      41.571  30.189  35.550  1.00  0.00    -0.205 F 
ATOM     63  C   UNL A   1      42.800  33.635  35.704  1.00  0.00     0.022 A 
BRANCH  61  64
ATOM     64  S   UNL A   1      41.187  32.473  37.588  1.00  0.00     0.127 S 
ATOM     65  O   UNL A   1      41.190  33.898  37.918  1.00  0.00    -0.237 OA
ATOM     66  O   UNL A   1      39.888  31.949  37.163  1.00  0.00    -0.237 OA
ATOM     67  O   UNL A   1      41.912  31.612  38.512  1.00  0.00    -0.744 OA
ENDBRANCH  61  64
ENDBRANCH  43  57
BRANCH  44  68
ATOM     68  C   UNL A   1      42.563  23.992  27.304  1.00  0.00     0.023 A 
ATOM     69  C   UNL A   1      43.171  24.195  26.051  1.00  0.00     0.012 A 
ATOM     70  C   UNL A   1      41.974  22.744  27.589  1.00  0.00     0.148 A 
ATOM     71  C   UNL A   1      43.174  23.182  25.091  1.00  0.00     0.002 A 
ATOM     72  C   UNL A   1      42.029  21.722  26.649  1.00  0.00     0.091 A 
ATOM     73  F   UNL A   1      41.379  22.578  28.779  1.00  0.00    -0.205 F 
ATOM     74  C   UNL A   1      42.616  21.943  25.394  1.00  0.00     0.022 A 
BRANCH  72  75
ATOM     75  S   UNL A   1      41.454  20.059  27.015  1.00  0.00     0.127 S 
ATOM     76  O   UNL A   1      42.707  19.311  27.055  1.00  0.00    -0.237 OA
ATOM     77  O   UNL A   1      40.800  20.239  28.311  1.00  0.00    -0.237 OA
ATOM     78  O   UNL A   1      40.542  19.718  25.930  1.00  0.00    -0.744 OA
ENDBRANCH  72  75
ENDBRANCH  44  68
BRANCH  56  79
ATOM     79  C   UNL A   1      47.125  25.880  32.239  1.00  0.00     0.023 A 
ATOM     80  C   UNL A   1      48.297  26.366  31.626  1.00  0.00     0.012 A 
ATOM     81  C   UNL A   1      47.228  24.944  33.286  1.00  0.00     0.148 A 
ATOM     82  C   UNL A   1      49.549  25.908  32.029  1.00  0.00     0.002 A 
ATOM     83  C   UNL A   1      48.481  24.523  33.712  1.00  0.00     0.091 A 
ATOM     84  F   UNL A   1      46.100  24.476  33.842  1.00  0.00    -0.205 F 
ATOM     85  C   UNL A   1      49.643  24.996  33.080  1.00  0.00     0.022 A 
BRANCH  83  86
ATOM     86  S   UNL A   1      48.694  23.422  35.115  1.00  0.00     0.127 S 
ATOM     87  O   UNL A   1      50.149  23.349  35.221  1.00  0.00    -0.237 OA
ATOM     88  O   UNL A   1      48.041  24.161  36.197  1.00  0.00    -0.237 OA
ATOM     89  O   UNL A   1      48.026  22.180  34.750  1.00  0.00    -0.744 OA
ENDBRANCH  83  86
ENDBRANCH  56  79
ENDBRANCH  30  31
ENDBRANCH  23  25
ENDBRANCH  22  23
ENDBRANCH  21  22
ENDBRANCH   1  21
TORSDOF 17
ENDMDL
MODEL 2
REMARK VINA RESULT:     -10.5      5.776     11.438
REMARK SMILES C[C@H]([C@@H](C)C(=O)OCCOC(=O)c1ccc(-c2c3nc(c(-c4cccc(S(=O)(=O)[O-])c4F)c4ccc([nH]4)c(-c4cccc(S(=O)(=O)[O-])c4F)c4nc(c(-c5cccc(S(=O)(=O)[O-])c5F)c5ccc2[nH]5)C=C4)C=C3)cc1)[S@@](=O)c1ccc2ccccc2c1
REMARK SMILES IDX 8 1 7 2 5 3 6 4 3 5 4 6 2 7 1 8 76 9 77 10 78 11 79 12 87 13
REMARK SMILES IDX 80 14 86 15 81 16 85 17 82 18 84 19 83 20 9 21 10 22 11 23
REMARK SMILES IDX 12 24 13 25 14 26 75 27 15 28 74 29 16 30 17 31 18 32 68 33
REMARK SMILES IDX 19 34 73 35 67 36 69 37 20 38 72 39 66 40 65 41 21 43 53 44
REMARK SMILES IDX 33 45 52 46 34 47 37 48 51 49 70 50 35 51 36 52 50 54 71 55
REMARK SMILES IDX 38 56 22 57 23 58 31 59 24 60 26 61 32 62 25 63 27 64 28 65
REMARK SMILES IDX 29 66 30 67 54 68 55 69 63 70 56 71 58 72 64 73 57 74 59 75
REMARK SMILES IDX 60 76 61 77 62 78 39 79 40 80 48 81 41 82 43 83 49 84 42 85
REMARK SMILES IDX 44 86 45 87 46 88 47 89
REMARK H PARENT 69 42 37 53
REMARK Flexibility Score: inf
ROOT
ATOM      1  C   UNL A   1      35.987  19.694  24.997  1.00  0.00     0.274 C 
ENDROOT
BRANCH   1   2
ATOM      2  O   UNL A   1      35.037  20.744  24.718  1.00  0.00    -0.462 OA
BRANCH   2   3
ATOM      3  C   UNL A   1      34.287  21.169  25.762  1.00  0.00     0.309 C 
ATOM      4  O   UNL A   1      34.747  21.434  26.869  1.00  0.00    -0.252 OA
BRANCH   3   5
ATOM      5  C   UNL A   1      32.805  21.355  25.443  1.00  0.00     0.112 C 
ATOM      6  C   UNL A   1      32.367  20.172  24.572  1.00  0.00     0.021 C 
BRANCH   5   7
ATOM      7  C   UNL A   1      32.392  22.749  24.911  1.00  0.00     0.095 C 
ATOM      8  C   UNL A   1      32.271  22.863  23.392  1.00  0.00     0.023 C 
BRANCH   7   9
ATOM      9  S   UNL A   1      30.886  23.435  25.763  1.00  0.00     0.057 S 
ATOM     10  O   UNL A   1      31.059  23.200  27.236  1.00  0.00    -0.254 OA
BRANCH   9  11
ATOM     11  C   UNL A   1      31.078  25.215  25.539  1.00  0.00     0.040 A 
ATOM     12  C   UNL A   1      30.472  25.828  24.438  1.00  0.00     0.018 A 
ATOM     13  C   UNL A   1      31.733  26.007  26.486  1.00  0.00     0.026 A 
ATOM     14  C   UNL A   1      30.554  27.212  24.261  1.00  0.00     0.010 A 
ATOM     15  C   UNL A   1      31.833  27.400  26.318  1.00  0.00    -0.017 A 
ATOM     16  C   UNL A   1      31.234  28.010  25.193  1.00  0.00    -0.018 A 
ATOM     17  C   UNL A   1      32.506  28.200  27.255  1.00  0.00     0.009 A 
ATOM     18  C   UNL A   1      31.319  29.404  25.040  1.00  0.00     0.009 A 
ATOM     19  C   UNL A   1      32.587  29.583  27.085  1.00  0.00     0.001 A 
ATOM     20  C   UNL A   1      31.992  30.185  25.980  1.00  0.00     0.001 A 
ENDBRANCH   9  11
ENDBRANCH   7   9
ENDBRANCH   5   7
ENDBRANCH   3   5
ENDBRANCH   2   3
ENDBRANCH   1   2
BRANCH   1  21
ATOM     21  C   UNL A   1      37.426  20.156  24.736  1.00  0.00     0.275 C 
BRANCH  21  22
ATOM     22  O   UNL A   1      37.857  21.170  25.665  1.00  0.00    -0.458 OA
BRANCH  22  23
ATOM     23  C   UNL A   1      39.106  21.009  26.154  1.00  0.00     0.338 C 
ATOM     24  O   UNL A   1      39.795  19.997  26.098  1.00  0.00    -0.246 OA
BRANCH  23  25
ATOM     25  C   UNL A   1      39.630  22.279  26.672  1.00  0.00     0.060 A 
ATOM     26  C   UNL A   1      39.067  23.461  26.186  1.00  0.00     0.016 A 
ATOM     27  C   UNL A   1      40.727  22.322  27.533  1.00  0.00     0.016 A 
ATOM     28  C   UNL A   1      39.625  24.690  26.511  1.00  0.00     0.010 A 
ATOM     29  C   UNL A   1      41.267  23.563  27.889  1.00  0.00     0.010 A 
ATOM     30  C   UNL A   1      40.733  24.753  27.361  1.00  0.00    -0.014 A 
BRANCH  30  31
ATOM     31  C   UNL A   1      41.328  26.071  27.682  1.00  0.00     0.031 A 
ATOM     32  C   UNL A   1      42.725  26.398  27.240  1.00  0.00     0.074 A 
ATOM     33  C   UNL A   1      40.597  26.977  28.359  1.00  0.00     0.049 A 
ATOM     34  N   UNL A   1      43.425  27.480  27.462  1.00  0.00    -0.248 NA
ATOM     35  C   UNL A   1      43.430  25.377  26.449  1.00  0.00     0.031 C 
ATOM     36  C   UNL A   1      39.224  26.771  28.828  1.00  0.00     0.029 A 
ATOM     37  N   UNL A   1      40.908  28.244  28.781  1.00  0.00    -0.354 N 
ATOM     38  C   UNL A   1      44.667  27.254  26.881  1.00  0.00     0.074 A 
ATOM     39  C   UNL A   1      44.623  25.934  26.291  1.00  0.00     0.031 C 
ATOM     40  C   UNL A   1      38.816  27.871  29.479  1.00  0.00     0.029 A 
ATOM     41  C   UNL A   1      39.906  28.840  29.510  1.00  0.00     0.049 A 
ATOM     42  H   UNL A   1      41.766  28.683  28.583  1.00  0.00     0.167 HD
ATOM     43  C   UNL A   1      45.740  28.079  26.834  1.00  0.00     0.034 A 
ATOM     44  C   UNL A   1      39.878  30.025  30.150  1.00  0.00     0.034 A 
ATOM     45  C   UNL A   1      45.759  29.409  27.381  1.00  0.00     0.049 A 
ATOM     46  C   UNL A   1      41.086  30.918  30.081  1.00  0.00     0.074 A 
ATOM     47  C   UNL A   1      46.780  30.342  27.336  1.00  0.00     0.029 A 
ATOM     48  N   UNL A   1      44.713  29.995  28.077  1.00  0.00    -0.354 N 
ATOM     49  N   UNL A   1      42.214  30.731  29.438  1.00  0.00    -0.248 NA
ATOM     50  C   UNL A   1      41.010  32.195  30.806  1.00  0.00     0.031 C 
ATOM     51  C   UNL A   1      46.355  31.488  28.017  1.00  0.00     0.029 A 
ATOM     52  C   UNL A   1      45.065  31.274  28.475  1.00  0.00     0.049 A 
ATOM     53  H   UNL A   1      43.846  29.565  28.261  1.00  0.00     0.167 HD
ATOM     54  C   UNL A   1      42.970  31.876  29.657  1.00  0.00     0.074 A 
ATOM     55  C   UNL A   1      42.162  32.761  30.472  1.00  0.00     0.031 C 
ATOM     56  C   UNL A   1      44.227  32.162  29.239  1.00  0.00     0.034 A 
BRANCH  43  57
ATOM     57  C   UNL A   1      46.977  27.581  26.138  1.00  0.00     0.023 A 
ATOM     58  C   UNL A   1      47.899  26.783  26.845  1.00  0.00     0.012 A 
ATOM     59  C   UNL A   1      47.196  27.849  24.773  1.00  0.00     0.148 A 
ATOM     60  C   UNL A   1      49.032  26.278  26.208  1.00  0.00     0.002 A 
ATOM     61  C   UNL A   1      48.309  27.311  24.137  1.00  0.00     0.091 A 
ATOM     62  F   UNL A   1      46.321  28.631  24.126  1.00  0.00    -0.205 F 
ATOM     63  C   UNL A   1      49.231  26.532  24.853  1.00  0.00     0.022 A 
BRANCH  61  64
ATOM     64  S   UNL A   1      48.612  27.529  22.379  1.00  0.00     0.127 S 
ATOM     65  O   UNL A   1      49.885  28.248  22.386  1.00  0.00    -0.237 OA
ATOM     66  O   UNL A   1      48.696  26.147  21.904  1.00  0.00    -0.237 OA
ATOM     67  O   UNL A   1      47.471  28.275  21.866  1.00  0.00    -0.744 OA
ENDBRANCH  61  64
ENDBRANCH  43  57
BRANCH  44  68
ATOM     68  C   UNL A   1      38.648  30.446  30.877  1.00  0.00     0.023 A 
ATOM     69  C   UNL A   1      38.547  30.204  32.260  1.00  0.00     0.012 A 
ATOM     70  C   UNL A   1      37.600  31.118  30.218  1.00  0.00     0.148 A 
ATOM     71  C   UNL A   1      37.414  30.604  32.970  1.00  0.00     0.002 A 
ATOM     72  C   UNL A   1      36.499  31.563  30.942  1.00  0.00     0.091 A 
ATOM     73  F   UNL A   1      37.705  31.319  28.897  1.00  0.00    -0.205 F 
ATOM     74  C   UNL A   1      36.398  31.294  32.315  1.00  0.00     0.022 A 
BRANCH  72  75
ATOM     75  S   UNL A   1      35.216  32.575  30.197  1.00  0.00     0.127 S 
ATOM     76  O   UNL A   1      34.748  31.716  29.113  1.00  0.00    -0.237 OA
ATOM     77  O   UNL A   1      34.274  32.741  31.304  1.00  0.00    -0.237 OA
ATOM     78  O   UNL A   1      35.881  33.807  29.792  1.00  0.00    -0.744 OA
ENDBRANCH  72  75
ENDBRANCH  44  68
BRANCH  56  79
ATOM     79  C   UNL A   1      44.804  33.495  29.632  1.00  0.00     0.023 A 
ATOM     80  C   UNL A   1      45.562  33.602  30.815  1.00  0.00     0.012 A 
ATOM     81  C   UNL A   1      44.661  34.620  28.797  1.00  0.00     0.148 A 
ATOM     82  C   UNL A   1      46.146  34.815  31.175  1.00  0.00     0.002 A 
ATOM     83  C   UNL A   1      45.281  35.815  29.140  1.00  0.00     0.091 A 
ATOM     84  F   UNL A   1      43.917  34.505  27.687  1.00  0.00    -0.205 F 
ATOM     85  C   UNL A   1      46.016  35.917  30.333  1.00  0.00     0.022 A 
BRANCH  83  86
ATOM     86  S   UNL A   1      45.240  37.255  28.068  1.00  0.00     0.127 S 
ATOM     87  O   UNL A   1      45.889  36.749  26.861  1.00  0.00    -0.237 OA
ATOM     88  O   UNL A   1      43.803  37.503  27.929  1.00  0.00    -0.237 OA
ATOM     89  O   UNL A   1      45.962  38.301  28.780  1.00  0.00    -0.744 OA
ENDBRANCH  83  86
ENDBRANCH  56  79
ENDBRANCH  30  31
ENDBRANCH  23  25
ENDBRANCH  22  23
ENDBRANCH  21  22
ENDBRANCH   1  21
TORSDOF 17
ENDMDL
MODEL 3
REMARK VINA RESULT:     -10.5      3.958      6.893
REMARK SMILES C[C@H]([C@@H](C)C(=O)OCCOC(=O)c1ccc(-c2c3nc(c(-c4cccc(S(=O)(=O)[O-])c4F)c4ccc([nH]4)c(-c4cccc(S(=O)(=O)[O-])c4F)c4nc(c(-c5cccc(S(=O)(=O)[O-])c5F)c5ccc2[nH]5)C=C4)C=C3)cc1)[S@@](=O)c1ccc2ccccc2c1
REMARK SMILES IDX 8 1 7 2 5 3 6 4 3 5 4 6 2 7 1 8 76 9 77 10 78 11 79 12 87 13
REMARK SMILES IDX 80 14 86 15 81 16 85 17 82 18 84 19 83 20 9 21 10 22 11 23
REMARK SMILES IDX 12 24 13 25 14 26 75 27 15 28 74 29 16 30 17 31 18 32 68 33
REMARK SMILES IDX 19 34 73 35 67 36 69 37 20 38 72 39 66 40 65 41 21 43 53 44
REMARK SMILES IDX 33 45 52 46 34 47 37 48 51 49 70 50 35 51 36 52 50 54 71 55
REMARK SMILES IDX 38 56 22 57 23 58 31 59 24 60 26 61 32 62 25 63 27 64 28 65
REMARK SMILES IDX 29 66 30 67 54 68 55 69 63 70 56 71 58 72 64 73 57 74 59 75
REMARK SMILES IDX 60 76 61 77 62 78 39 79 40 80 48 81 41 82 43 83 49 84 42 85
REMARK SMILES IDX 44 86 45 87 46 88 47 89
REMARK H PARENT 69 42 37 53
REMARK Flexibility Score: inf
ROOT
ATOM      1  C   UNL A   1      31.760  28.997  26.995  1.00  0.00     0.274 C 
ENDROOT
BRANCH   1   2
ATOM      2  O   UNL A   1      31.667  28.054  25.907  1.00  0.00    -0.462 OA
BRANCH   2   3
ATOM      3  C   UNL A   1      32.836  27.538  25.458  1.00  0.00     0.309 C 
ATOM      4  O   UNL A   1      33.727  27.125  26.195  1.00  0.00    -0.252 OA
BRANCH   3   5
ATOM      5  C   UNL A   1      32.947  27.450  23.937  1.00  0.00     0.112 C 
ATOM      6  C   UNL A   1      33.181  28.870  23.407  1.00  0.00     0.021 C 
BRANCH   5   7
ATOM      7  C   UNL A   1      31.828  26.659  23.217  1.00  0.00     0.095 C 
ATOM      8  C   UNL A   1      30.651  27.493  22.714  1.00  0.00     0.023 C 
BRANCH   7   9
ATOM      9  S   UNL A   1      32.477  25.533  21.884  1.00  0.00     0.057 S 
ATOM     10  O   UNL A   1      33.652  26.222  21.249  1.00  0.00    -0.254 OA
BRANCH   9  11
ATOM     11  C   UNL A   1      33.179  24.163  22.825  1.00  0.00     0.040 A 
ATOM     12  C   UNL A   1      32.331  23.148  23.276  1.00  0.00     0.018 A 
ATOM     13  C   UNL A   1      34.556  24.043  23.029  1.00  0.00     0.026 A 
ATOM     14  C   UNL A   1      32.846  22.045  23.962  1.00  0.00     0.010 A 
ATOM     15  C   UNL A   1      35.090  22.945  23.725  1.00  0.00    -0.017 A 
ATOM     16  C   UNL A   1      34.225  21.931  24.196  1.00  0.00    -0.018 A 
ATOM     17  C   UNL A   1      36.471  22.827  23.952  1.00  0.00     0.009 A 
ATOM     18  C   UNL A   1      34.764  20.825  24.873  1.00  0.00     0.009 A 
ATOM     19  C   UNL A   1      36.990  21.725  24.633  1.00  0.00     0.001 A 
ATOM     20  C   UNL A   1      36.139  20.724  25.090  1.00  0.00     0.001 A 
ENDBRANCH   9  11
ENDBRANCH   7   9
ENDBRANCH   5   7
ENDBRANCH   3   5
ENDBRANCH   2   3
ENDBRANCH   1   2
BRANCH   1  21
ATOM     21  C   UNL A   1      31.725  30.444  26.486  1.00  0.00     0.275 C 
BRANCH  21  22
ATOM     22  O   UNL A   1      33.042  30.975  26.240  1.00  0.00    -0.458 OA
BRANCH  22  23
ATOM     23  C   UNL A   1      33.480  31.873  27.149  1.00  0.00     0.338 C 
ATOM     24  O   UNL A   1      32.891  32.875  27.537  1.00  0.00    -0.246 OA
BRANCH  23  25
ATOM     25  C   UNL A   1      34.744  31.431  27.751  1.00  0.00     0.060 A 
ATOM     26  C   UNL A   1      34.849  30.092  28.133  1.00  0.00     0.016 A 
ATOM     27  C   UNL A   1      35.770  32.331  28.042  1.00  0.00     0.016 A 
ATOM     28  C   UNL A   1      35.951  29.651  28.852  1.00  0.00     0.010 A 
ATOM     29  C   UNL A   1      36.897  31.878  28.737  1.00  0.00     0.010 A 
ATOM     30  C   UNL A   1      36.984  30.541  29.166  1.00  0.00    -0.014 A 
BRANCH  30  31
ATOM     31  C   UNL A   1      38.143  30.058  29.951  1.00  0.00     0.031 A 
ATOM     32  C   UNL A   1      38.367  30.553  31.352  1.00  0.00     0.074 A 
ATOM     33  C   UNL A   1      38.984  29.161  29.402  1.00  0.00     0.049 A 
ATOM     34  N   UNL A   1      39.344  30.275  32.174  1.00  0.00    -0.248 NA
ATOM     35  C   UNL A   1      37.365  31.482  31.898  1.00  0.00     0.031 C 
ATOM     36  C   UNL A   1      38.858  28.603  28.054  1.00  0.00     0.029 A 
ATOM     37  N   UNL A   1      40.116  28.571  29.903  1.00  0.00    -0.354 N 
ATOM     38  C   UNL A   1      39.103  31.029  33.317  1.00  0.00     0.074 A 
ATOM     39  C   UNL A   1      37.884  31.772  33.083  1.00  0.00     0.031 C 
ATOM     40  C   UNL A   1      39.876  27.758  27.833  1.00  0.00     0.029 A 
ATOM     41  C   UNL A   1      40.747  27.745  29.003  1.00  0.00     0.049 A 
ATOM     42  H   UNL A   1      40.445  28.725  30.818  1.00  0.00     0.167 HD
ATOM     43  C   UNL A   1      39.827  31.085  34.460  1.00  0.00     0.034 A 
ATOM     44  C   UNL A   1      41.910  27.071  29.102  1.00  0.00     0.034 A 
ATOM     45  C   UNL A   1      41.013  30.308  34.702  1.00  0.00     0.049 A 
ATOM     46  C   UNL A   1      42.693  27.156  30.384  1.00  0.00     0.074 A 
ATOM     47  C   UNL A   1      41.786  30.255  35.849  1.00  0.00     0.029 A 
ATOM     48  N   UNL A   1      41.601  29.451  33.784  1.00  0.00    -0.354 N 
ATOM     49  N   UNL A   1      42.395  27.791  31.492  1.00  0.00    -0.248 NA
ATOM     50  C   UNL A   1      43.960  26.412  30.438  1.00  0.00     0.031 C 
ATOM     51  C   UNL A   1      42.850  29.375  35.618  1.00  0.00     0.029 A 
ATOM     52  C   UNL A   1      42.732  28.871  34.333  1.00  0.00     0.049 A 
ATOM     53  H   UNL A   1      41.264  29.281  32.875  1.00  0.00     0.167 HD
ATOM     54  C   UNL A   1      43.421  27.502  32.383  1.00  0.00     0.074 A 
ATOM     55  C   UNL A   1      44.336  26.615  31.694  1.00  0.00     0.031 C 
ATOM     56  C   UNL A   1      43.601  27.947  33.651  1.00  0.00     0.034 A 
BRANCH  43  57
ATOM     57  C   UNL A   1      39.342  31.997  35.553  1.00  0.00     0.023 A 
ATOM     58  C   UNL A   1      38.427  31.512  36.509  1.00  0.00     0.012 A 
ATOM     59  C   UNL A   1      39.837  33.311  35.671  1.00  0.00     0.148 A 
ATOM     60  C   UNL A   1      37.995  32.329  37.553  1.00  0.00     0.002 A 
ATOM     61  C   UNL A   1      39.428  34.106  36.736  1.00  0.00     0.091 A 
ATOM     62  F   UNL A   1      40.685  33.761  34.737  1.00  0.00    -0.205 F 
ATOM     63  C   UNL A   1      38.503  33.620  37.674  1.00  0.00     0.022 A 
BRANCH  61  64
ATOM     64  S   UNL A   1      40.081  35.758  37.010  1.00  0.00     0.127 S 
ATOM     65  O   UNL A   1      39.642  36.452  35.800  1.00  0.00    -0.237 OA
ATOM     66  O   UNL A   1      39.388  36.167  38.233  1.00  0.00    -0.237 OA
ATOM     67  O   UNL A   1      41.521  35.599  37.156  1.00  0.00    -0.744 OA
ENDBRANCH  61  64
ENDBRANCH  43  57
BRANCH  44  68
ATOM     68  C   UNL A   1      42.379  26.229  27.966  1.00  0.00     0.023 A 
ATOM     69  C   UNL A   1      43.342  26.744  27.078  1.00  0.00     0.012 A 
ATOM     70  C   UNL A   1      41.908  24.914  27.785  1.00  0.00     0.148 A 
ATOM     71  C   UNL A   1      43.812  25.971  26.016  1.00  0.00     0.002 A 
ATOM     72  C   UNL A   1      42.421  24.131  26.758  1.00  0.00     0.091 A 
ATOM     73  F   UNL A   1      40.974  24.451  28.628  1.00  0.00    -0.205 F 
ATOM     74  C   UNL A   1      43.362  24.662  25.864  1.00  0.00     0.022 A 
BRANCH  72  75
ATOM     75  S   UNL A   1      41.994  22.395  26.580  1.00  0.00     0.127 S 
ATOM     76  O   UNL A   1      42.476  21.837  27.840  1.00  0.00    -0.237 OA
ATOM     77  O   UNL A   1      40.538  22.449  26.446  1.00  0.00    -0.237 OA
ATOM     78  O   UNL A   1      42.686  21.948  25.377  1.00  0.00    -0.744 OA
ENDBRANCH  72  75
ENDBRANCH  44  68
BRANCH  56  79
ATOM     79  C   UNL A   1      44.821  27.465  34.389  1.00  0.00     0.023 A 
ATOM     80  C   UNL A   1      46.005  28.228  34.346  1.00  0.00     0.012 A 
ATOM     81  C   UNL A   1      44.774  26.303  35.183  1.00  0.00     0.148 A 
ATOM     82  C   UNL A   1      47.132  27.827  35.061  1.00  0.00     0.002 A 
ATOM     83  C   UNL A   1      45.887  25.932  35.927  1.00  0.00     0.091 A 
ATOM     84  F   UNL A   1      43.646  25.578  35.193  1.00  0.00    -0.205 F 
ATOM     85  C   UNL A   1      47.070  26.687  35.860  1.00  0.00     0.022 A 
BRANCH  83  86
ATOM     86  S   UNL A   1      45.863  24.530  37.050  1.00  0.00     0.127 S 
ATOM     87  O   UNL A   1      44.813  24.917  37.989  1.00  0.00    -0.237 OA
ATOM     88  O   UNL A   1      45.507  23.422  36.161  1.00  0.00    -0.237 OA
ATOM     89  O   UNL A   1      47.206  24.445  37.606  1.00  0.00    -0.744 OA
ENDBRANCH  83  86
ENDBRANCH  56  79
ENDBRANCH  30  31
ENDBRANCH  23  25
ENDBRANCH  22  23
ENDBRANCH  21  22
ENDBRANCH   1  21
TORSDOF 17
ENDMDL
