MODEL 1
REMARK VINA RESULT:     -11.7      0.000      0.000
REMARK SMILES O=C(OCCOC(=O)c1ccc2nc(C3CCCCC3)[nH]c2c1)c1ccc(-c2c3nc(c(-c4cccc(S(=O)(=O)[O-])c4F)c4ccc([nH]4)c(-c4cccc(S(=O)(=O)[O-])c4F)c4nc(c(-c5cccc(S(=O)(=O)[O-])c5F)c5ccc2[nH]5)C=C4)C=C3)cc1
REMARK SMILES IDX 4 1 3 2 2 3 1 4 24 5 25 6 86 7 26 8 85 9 27 10 28 11 29 12
REMARK SMILES IDX 79 13 30 14 84 15 78 16 80 17 31 18 83 19 77 20 76 21 32 23
REMARK SMILES IDX 64 24 44 25 63 26 45 27 48 28 62 29 81 30 46 31 47 32 61 34
REMARK SMILES IDX 82 35 49 36 33 37 34 38 42 39 35 40 37 41 43 42 36 43 38 44
REMARK SMILES IDX 39 45 40 46 41 47 65 48 66 49 74 50 67 51 69 52 75 53 68 54
REMARK SMILES IDX 70 55 71 56 72 57 73 58 50 59 51 60 59 61 52 62 54 63 60 64
REMARK SMILES IDX 53 65 55 66 56 67 57 68 58 69 5 70 6 71 7 72 8 73 9 74 10 75
REMARK SMILES IDX 23 76 11 77 22 78 12 79 21 80 13 81 14 82 15 84 16 85 20 86
REMARK SMILES IDX 17 87 19 88 18 89
REMARK H PARENT 80 22 48 33 21 83
REMARK Flexibility Score: inf
ROOT
ATOM      1  C   UNL A   1      31.937  32.802  26.708  1.00  0.00     0.275 C 
ENDROOT
BRANCH   1   2
ATOM      2  O   UNL A   1      32.652  33.511  27.735  1.00  0.00    -0.458 OA
BRANCH   2   3
ATOM      3  C   UNL A   1      33.961  33.848  27.816  1.00  0.00     0.338 C 
ATOM      4  O   UNL A   1      34.346  34.845  27.204  1.00  0.00    -0.246 OA
BRANCH   3   5
ATOM      5  C   UNL A   1      34.998  33.012  28.502  1.00  0.00     0.060 A 
ATOM      6  C   UNL A   1      34.760  31.859  29.255  1.00  0.00     0.016 A 
ATOM      7  C   UNL A   1      36.330  33.444  28.367  1.00  0.00     0.016 A 
ATOM      8  C   UNL A   1      35.815  31.110  29.783  1.00  0.00     0.010 A 
ATOM      9  C   UNL A   1      37.391  32.696  28.885  1.00  0.00     0.010 A 
ATOM     10  C   UNL A   1      37.133  31.521  29.598  1.00  0.00    -0.014 A 
BRANCH  10  11
ATOM     11  C   UNL A   1      38.233  30.800  30.270  1.00  0.00     0.031 A 
ATOM     12  C   UNL A   1      38.636  31.243  31.642  1.00  0.00     0.074 A 
ATOM     13  C   UNL A   1      38.858  29.773  29.664  1.00  0.00     0.049 A 
ATOM     14  N   UNL A   1      39.564  30.759  32.421  1.00  0.00    -0.248 NA
ATOM     15  C   UNL A   1      37.867  32.353  32.234  1.00  0.00     0.031 C 
ATOM     16  C   UNL A   1      38.495  29.216  28.365  1.00  0.00     0.029 A 
ATOM     17  N   UNL A   1      39.961  29.049  30.036  1.00  0.00    -0.354 N 
ATOM     18  C   UNL A   1      39.485  31.494  33.595  1.00  0.00     0.074 A 
ATOM     19  C   UNL A   1      38.444  32.481  33.419  1.00  0.00     0.031 C 
ATOM     20  C   UNL A   1      39.427  28.325  27.988  1.00  0.00     0.029 A 
ATOM     21  C   UNL A   1      40.439  28.237  29.032  1.00  0.00     0.049 A 
ATOM     22  H   UNL A   1      40.369  29.103  30.930  1.00  0.00     0.167 HD
ATOM     23  C   UNL A   1      40.200  31.332  34.730  1.00  0.00     0.034 A 
ATOM     24  C   UNL A   1      41.581  27.525  28.963  1.00  0.00     0.034 A 
ATOM     25  C   UNL A   1      41.240  30.354  34.877  1.00  0.00     0.049 A 
ATOM     26  C   UNL A   1      42.443  27.457  30.194  1.00  0.00     0.074 A 
ATOM     27  C   UNL A   1      41.994  30.058  35.996  1.00  0.00     0.029 A 
ATOM     28  N   UNL A   1      41.698  29.538  33.852  1.00  0.00    -0.354 N 
ATOM     29  N   UNL A   1      42.254  28.029  31.361  1.00  0.00    -0.248 NA
ATOM     30  C   UNL A   1      43.632  26.596  30.134  1.00  0.00     0.031 C 
ATOM     31  C   UNL A   1      42.939  29.093  35.635  1.00  0.00     0.029 A 
ATOM     32  C   UNL A   1      42.750  28.763  34.300  1.00  0.00     0.049 A 
ATOM     33  H   UNL A   1      41.328  29.514  32.940  1.00  0.00     0.167 HD
ATOM     34  C   UNL A   1      43.260  27.549  32.189  1.00  0.00     0.074 A 
ATOM     35  C   UNL A   1      44.059  26.643  31.389  1.00  0.00     0.031 C 
ATOM     36  C   UNL A   1      43.496  27.827  33.495  1.00  0.00     0.034 A 
BRANCH  23  37
ATOM     37  C   UNL A   1      39.862  32.224  35.889  1.00  0.00     0.023 A 
ATOM     38  C   UNL A   1      40.588  33.416  36.088  1.00  0.00     0.012 A 
ATOM     39  C   UNL A   1      38.822  31.888  36.774  1.00  0.00     0.148 A 
ATOM     40  C   UNL A   1      40.305  34.246  37.172  1.00  0.00     0.002 A 
ATOM     41  C   UNL A   1      38.520  32.739  37.831  1.00  0.00     0.091 A 
ATOM     42  F   UNL A   1      38.165  30.736  36.581  1.00  0.00    -0.205 F 
ATOM     43  C   UNL A   1      39.267  33.911  38.038  1.00  0.00     0.022 A 
BRANCH  41  44
ATOM     44  S   UNL A   1      37.169  32.426  38.971  1.00  0.00     0.127 S 
ATOM     45  O   UNL A   1      37.322  30.994  39.221  1.00  0.00    -0.237 OA
ATOM     46  O   UNL A   1      37.521  33.285  40.102  1.00  0.00    -0.237 OA
ATOM     47  O   UNL A   1      35.952  32.808  38.269  1.00  0.00    -0.744 OA
ENDBRANCH  41  44
ENDBRANCH  23  37
BRANCH  24  48
ATOM     48  C   UNL A   1      41.944  26.788  27.718  1.00  0.00     0.023 A 
ATOM     49  C   UNL A   1      42.455  27.495  26.612  1.00  0.00     0.012 A 
ATOM     50  C   UNL A   1      41.778  25.391  27.620  1.00  0.00     0.148 A 
ATOM     51  C   UNL A   1      42.756  26.832  25.420  1.00  0.00     0.002 A 
ATOM     52  C   UNL A   1      42.114  24.731  26.441  1.00  0.00     0.091 A 
ATOM     53  F   UNL A   1      41.287  24.734  28.680  1.00  0.00    -0.205 F 
ATOM     54  C   UNL A   1      42.589  25.454  25.335  1.00  0.00     0.022 A 
BRANCH  52  55
ATOM     55  S   UNL A   1      42.015  22.947  26.253  1.00  0.00     0.127 S 
ATOM     56  O   UNL A   1      40.572  22.720  26.303  1.00  0.00    -0.237 OA
ATOM     57  O   UNL A   1      42.621  22.748  24.937  1.00  0.00    -0.237 OA
ATOM     58  O   UNL A   1      42.779  22.389  27.359  1.00  0.00    -0.744 OA
ENDBRANCH  52  55
ENDBRANCH  24  48
BRANCH  36  59
ATOM     59  C   UNL A   1      44.637  27.112  34.164  1.00  0.00     0.023 A 
ATOM     60  C   UNL A   1      45.930  27.670  34.132  1.00  0.00     0.012 A 
ATOM     61  C   UNL A   1      44.400  25.942  34.913  1.00  0.00     0.148 A 
ATOM     62  C   UNL A   1      46.976  27.060  34.820  1.00  0.00     0.002 A 
ATOM     63  C   UNL A   1      45.435  25.373  35.641  1.00  0.00     0.091 A 
ATOM     64  F   UNL A   1      43.165  25.422  34.912  1.00  0.00    -0.205 F 
ATOM     65  C   UNL A   1      46.726  25.923  35.587  1.00  0.00     0.022 A 
BRANCH  63  66
ATOM     66  S   UNL A   1      45.182  23.977  36.741  1.00  0.00     0.127 S 
ATOM     67  O   UNL A   1      44.246  24.531  37.716  1.00  0.00    -0.237 OA
ATOM     68  O   UNL A   1      44.607  22.976  35.842  1.00  0.00    -0.237 OA
ATOM     69  O   UNL A   1      46.496  23.632  37.266  1.00  0.00    -0.744 OA
ENDBRANCH  63  66
ENDBRANCH  36  59
ENDBRANCH  10  11
ENDBRANCH   3   5
ENDBRANCH   2   3
ENDBRANCH   1   2
BRANCH   1  70
ATOM     70  C   UNL A   1      31.733  31.305  26.961  1.00  0.00     0.275 C 
BRANCH  70  71
ATOM     71  O   UNL A   1      32.030  30.476  25.832  1.00  0.00    -0.458 OA
BRANCH  71  72
ATOM     72  C   UNL A   1      33.077  29.620  26.011  1.00  0.00     0.338 C 
ATOM     73  O   UNL A   1      34.122  29.863  26.574  1.00  0.00    -0.246 OA
BRANCH  72  74
ATOM     74  C   UNL A   1      32.691  28.274  25.533  1.00  0.00     0.062 A 
ATOM     75  C   UNL A   1      31.395  28.018  25.074  1.00  0.00     0.018 A 
ATOM     76  C   UNL A   1      33.674  27.268  25.572  1.00  0.00     0.044 A 
ATOM     77  C   UNL A   1      31.035  26.726  24.663  1.00  0.00     0.031 A 
ATOM     78  C   UNL A   1      33.261  25.982  25.209  1.00  0.00     0.066 A 
ATOM     79  C   UNL A   1      31.977  25.694  24.767  1.00  0.00     0.089 A 
ATOM     80  N   UNL A   1      33.903  24.769  25.184  1.00  0.00    -0.342 N 
ATOM     81  N   UNL A   1      31.850  24.366  24.474  1.00  0.00    -0.233 NA
ATOM     82  C   UNL A   1      33.033  23.831  24.679  1.00  0.00     0.110 A 
ATOM     83  H   UNL A   1      34.828  24.600  25.476  1.00  0.00     0.168 HD
BRANCH  82  84
ATOM     84  C   UNL A   1      33.429  22.438  24.294  1.00  0.00     0.055 C 
ATOM     85  C   UNL A   1      34.521  21.925  25.245  1.00  0.00     0.011 C 
ATOM     86  C   UNL A   1      32.237  21.475  24.226  1.00  0.00     0.011 C 
ATOM     87  C   UNL A   1      34.954  20.505  24.904  1.00  0.00     0.001 C 
ATOM     88  C   UNL A   1      32.690  20.051  23.893  1.00  0.00     0.001 C 
ATOM     89  C   UNL A   1      33.760  19.557  24.862  1.00  0.00     0.000 C 
ENDBRANCH  82  84
ENDBRANCH  72  74
ENDBRANCH  71  72
ENDBRANCH  70  71
ENDBRANCH   1  70
TORSDOF 15
ENDMDL
MODEL 2
REMARK VINA RESULT:     -11.7      4.590      9.947
REMARK SMILES O=C(OCCOC(=O)c1ccc2nc(C3CCCCC3)[nH]c2c1)c1ccc(-c2c3nc(c(-c4cccc(S(=O)(=O)[O-])c4F)c4ccc([nH]4)c(-c4cccc(S(=O)(=O)[O-])c4F)c4nc(c(-c5cccc(S(=O)(=O)[O-])c5F)c5ccc2[nH]5)C=C4)C=C3)cc1
REMARK SMILES IDX 4 1 3 2 2 3 1 4 24 5 25 6 86 7 26 8 85 9 27 10 28 11 29 12
REMARK SMILES IDX 79 13 30 14 84 15 78 16 80 17 31 18 83 19 77 20 76 21 32 23
REMARK SMILES IDX 64 24 44 25 63 26 45 27 48 28 62 29 81 30 46 31 47 32 61 34
REMARK SMILES IDX 82 35 49 36 33 37 34 38 42 39 35 40 37 41 43 42 36 43 38 44
REMARK SMILES IDX 39 45 40 46 41 47 65 48 66 49 74 50 67 51 69 52 75 53 68 54
REMARK SMILES IDX 70 55 71 56 72 57 73 58 50 59 51 60 59 61 52 62 54 63 60 64
REMARK SMILES IDX 53 65 55 66 56 67 57 68 58 69 5 70 6 71 7 72 8 73 9 74 10 75
REMARK SMILES IDX 23 76 11 77 22 78 12 79 21 80 13 81 14 82 15 84 16 85 20 86
REMARK SMILES IDX 17 87 19 88 18 89
REMARK H PARENT 80 22 48 33 21 83
REMARK Flexibility Score: inf
ROOT
ATOM      1  C   UNL A   1      37.436  21.716  24.706  1.00  0.00     0.275 C 
ENDROOT
BRANCH   1   2
ATOM      2  O   UNL A   1      37.802  22.509  25.849  1.00  0.00    -0.458 OA
BRANCH   2   3
ATOM      3  C   UNL A   1      39.019  22.761  26.385  1.00  0.00     0.338 C 
ATOM      4  O   UNL A   1      39.757  21.806  26.633  1.00  0.00    -0.246 OA
BRANCH   3   5
ATOM      5  C   UNL A   1      39.478  24.121  26.812  1.00  0.00     0.060 A 
ATOM      6  C   UNL A   1      40.145  25.054  26.013  1.00  0.00     0.016 A 
ATOM      7  C   UNL A   1      39.206  24.476  28.145  1.00  0.00     0.016 A 
ATOM      8  C   UNL A   1      40.454  26.329  26.495  1.00  0.00     0.010 A 
ATOM      9  C   UNL A   1      39.504  25.752  28.632  1.00  0.00     0.010 A 
ATOM     10  C   UNL A   1      40.132  26.686  27.802  1.00  0.00    -0.014 A 
BRANCH  10  11
ATOM     11  C   UNL A   1      40.579  27.985  28.345  1.00  0.00     0.031 A 
ATOM     12  C   UNL A   1      42.038  28.172  28.621  1.00  0.00     0.074 A 
ATOM     13  C   UNL A   1      39.697  28.973  28.586  1.00  0.00     0.049 A 
ATOM     14  N   UNL A   1      42.657  29.220  29.090  1.00  0.00    -0.248 NA
ATOM     15  C   UNL A   1      42.927  27.043  28.290  1.00  0.00     0.031 C 
ATOM     16  C   UNL A   1      38.270  28.920  28.282  1.00  0.00     0.029 A 
ATOM     17  N   UNL A   1      39.860  30.193  29.188  1.00  0.00    -0.354 N 
ATOM     18  C   UNL A   1      44.003  28.885  29.101  1.00  0.00     0.074 A 
ATOM     19  C   UNL A   1      44.114  27.525  28.625  1.00  0.00     0.031 C 
ATOM     20  C   UNL A   1      37.665  29.998  28.809  1.00  0.00     0.029 A 
ATOM     21  C   UNL A   1      38.669  30.823  29.467  1.00  0.00     0.049 A 
ATOM     22  H   UNL A   1      40.741  30.580  29.400  1.00  0.00     0.167 HD
ATOM     23  C   UNL A   1      45.052  29.662  29.447  1.00  0.00     0.034 A 
ATOM     24  C   UNL A   1      38.423  31.930  30.195  1.00  0.00     0.034 A 
ATOM     25  C   UNL A   1      44.917  31.006  29.931  1.00  0.00     0.049 A 
ATOM     26  C   UNL A   1      39.602  32.722  30.692  1.00  0.00     0.074 A 
ATOM     27  C   UNL A   1      45.909  31.909  30.259  1.00  0.00     0.029 A 
ATOM     28  N   UNL A   1      43.702  31.625  30.194  1.00  0.00    -0.354 N 
ATOM     29  N   UNL A   1      40.881  32.472  30.538  1.00  0.00    -0.248 NA
ATOM     30  C   UNL A   1      39.317  33.979  31.396  1.00  0.00     0.031 C 
ATOM     31  C   UNL A   1      45.294  33.060  30.762  1.00  0.00     0.029 A 
ATOM     32  C   UNL A   1      43.918  32.886  30.715  1.00  0.00     0.049 A 
ATOM     33  H   UNL A   1      42.818  31.224  30.032  1.00  0.00     0.167 HD
ATOM     34  C   UNL A   1      41.551  33.566  31.068  1.00  0.00     0.074 A 
ATOM     35  C   UNL A   1      40.535  34.479  31.552  1.00  0.00     0.031 C 
ATOM     36  C   UNL A   1      42.886  33.798  31.140  1.00  0.00     0.034 A 
BRANCH  23  37
ATOM     37  C   UNL A   1      46.424  29.072  29.296  1.00  0.00     0.023 A 
ATOM     38  C   UNL A   1      47.001  28.363  30.370  1.00  0.00     0.012 A 
ATOM     39  C   UNL A   1      47.137  29.209  28.092  1.00  0.00     0.148 A 
ATOM     40  C   UNL A   1      48.283  27.826  30.257  1.00  0.00     0.002 A 
ATOM     41  C   UNL A   1      48.400  28.640  27.974  1.00  0.00     0.091 A 
ATOM     42  F   UNL A   1      46.579  29.912  27.096  1.00  0.00    -0.205 F 
ATOM     43  C   UNL A   1      48.978  27.959  29.058  1.00  0.00     0.022 A 
BRANCH  41  44
ATOM     44  S   UNL A   1      49.355  28.708  26.455  1.00  0.00     0.127 S 
ATOM     45  O   UNL A   1      49.758  30.113  26.424  1.00  0.00    -0.237 OA
ATOM     46  O   UNL A   1      50.440  27.768  26.736  1.00  0.00    -0.237 OA
ATOM     47  O   UNL A   1      48.451  28.297  25.391  1.00  0.00    -0.744 OA
ENDBRANCH  41  44
ENDBRANCH  23  37
BRANCH  24  48
ATOM     48  C   UNL A   1      37.023  32.378  30.449  1.00  0.00     0.023 A 
ATOM     49  C   UNL A   1      36.409  32.084  31.682  1.00  0.00     0.012 A 
ATOM     50  C   UNL A   1      36.292  33.087  29.473  1.00  0.00     0.148 A 
ATOM     51  C   UNL A   1      35.084  32.451  31.924  1.00  0.00     0.002 A 
ATOM     52  C   UNL A   1      34.983  33.482  29.733  1.00  0.00     0.091 A 
ATOM     53  F   UNL A   1      36.890  33.356  28.304  1.00  0.00    -0.205 F 
ATOM     54  C   UNL A   1      34.373  33.152  30.953  1.00  0.00     0.022 A 
BRANCH  52  55
ATOM     55  S   UNL A   1      34.007  34.460  28.584  1.00  0.00     0.127 S 
ATOM     56  O   UNL A   1      32.785  34.693  29.353  1.00  0.00    -0.237 OA
ATOM     57  O   UNL A   1      34.851  35.641  28.402  1.00  0.00    -0.237 OA
ATOM     58  O   UNL A   1      33.855  33.637  27.393  1.00  0.00    -0.744 OA
ENDBRANCH  52  55
ENDBRANCH  24  48
BRANCH  36  59
ATOM     59  C   UNL A   1      43.333  35.110  31.723  1.00  0.00     0.023 A 
ATOM     60  C   UNL A   1      43.616  36.196  30.873  1.00  0.00     0.012 A 
ATOM     61  C   UNL A   1      43.368  35.290  33.120  1.00  0.00     0.148 A 
ATOM     62  C   UNL A   1      43.948  37.439  31.407  1.00  0.00     0.002 A 
ATOM     63  C   UNL A   1      43.644  36.545  33.643  1.00  0.00     0.091 A 
ATOM     64  F   UNL A   1      43.111  34.236  33.908  1.00  0.00    -0.205 F 
ATOM     65  C   UNL A   1      43.946  37.618  32.789  1.00  0.00     0.022 A 
BRANCH  63  66
ATOM     66  S   UNL A   1      43.555  36.896  35.402  1.00  0.00     0.127 S 
ATOM     67  O   UNL A   1      44.605  36.029  35.933  1.00  0.00    -0.237 OA
ATOM     68  O   UNL A   1      43.862  38.326  35.447  1.00  0.00    -0.237 OA
ATOM     69  O   UNL A   1      42.200  36.556  35.814  1.00  0.00    -0.744 OA
ENDBRANCH  63  66
ENDBRANCH  36  59
ENDBRANCH  10  11
ENDBRANCH   3   5
ENDBRANCH   2   3
ENDBRANCH   1   2
BRANCH   1  70
ATOM     70  C   UNL A   1      36.507  20.533  24.995  1.00  0.00     0.275 C 
BRANCH  70  71
ATOM     71  O   UNL A   1      35.276  20.898  25.630  1.00  0.00    -0.458 OA
BRANCH  71  72
ATOM     72  C   UNL A   1      34.206  20.990  24.790  1.00  0.00     0.338 C 
ATOM     73  O   UNL A   1      33.464  20.091  24.461  1.00  0.00    -0.246 OA
BRANCH  72  74
ATOM     74  C   UNL A   1      33.985  22.412  24.440  1.00  0.00     0.062 A 
ATOM     75  C   UNL A   1      33.668  22.790  23.131  1.00  0.00     0.018 A 
ATOM     76  C   UNL A   1      34.120  23.359  25.471  1.00  0.00     0.044 A 
ATOM     77  C   UNL A   1      33.502  24.145  22.810  1.00  0.00     0.031 A 
ATOM     78  C   UNL A   1      34.004  24.702  25.100  1.00  0.00     0.066 A 
ATOM     79  C   UNL A   1      33.708  25.109  23.805  1.00  0.00     0.089 A 
ATOM     80  N   UNL A   1      34.134  25.877  25.797  1.00  0.00    -0.342 N 
ATOM     81  N   UNL A   1      33.647  26.471  23.726  1.00  0.00    -0.233 NA
ATOM     82  C   UNL A   1      33.854  26.918  24.944  1.00  0.00     0.110 A 
ATOM     83  H   UNL A   1      34.383  25.960  26.746  1.00  0.00     0.168 HD
BRANCH  82  84
ATOM     84  C   UNL A   1      33.676  28.341  25.383  1.00  0.00     0.055 C 
ATOM     85  C   UNL A   1      32.196  28.739  25.271  1.00  0.00     0.011 C 
ATOM     86  C   UNL A   1      34.230  28.607  26.788  1.00  0.00     0.011 C 
ATOM     87  C   UNL A   1      31.956  30.175  25.716  1.00  0.00     0.001 C 
ATOM     88  C   UNL A   1      33.972  30.051  27.224  1.00  0.00     0.001 C 
ATOM     89  C   UNL A   1      32.494  30.417  27.122  1.00  0.00     0.000 C 
ENDBRANCH  82  84
ENDBRANCH  72  74
ENDBRANCH  71  72
ENDBRANCH  70  71
ENDBRANCH   1  70
TORSDOF 15
ENDMDL
MODEL 3
REMARK VINA RESULT:     -11.7      3.026      3.932
REMARK SMILES O=C(OCCOC(=O)c1ccc2nc(C3CCCCC3)[nH]c2c1)c1ccc(-c2c3nc(c(-c4cccc(S(=O)(=O)[O-])c4F)c4ccc([nH]4)c(-c4cccc(S(=O)(=O)[O-])c4F)c4nc(c(-c5cccc(S(=O)(=O)[O-])c5F)c5ccc2[nH]5)C=C4)C=C3)cc1
REMARK SMILES IDX 4 1 3 2 2 3 1 4 24 5 25 6 86 7 26 8 85 9 27 10 28 11 29 12
REMARK SMILES IDX 79 13 30 14 84 15 78 16 80 17 31 18 83 19 77 20 76 21 32 23
REMARK SMILES IDX 64 24 44 25 63 26 45 27 48 28 62 29 81 30 46 31 47 32 61 34
REMARK SMILES IDX 82 35 49 36 33 37 34 38 42 39 35 40 37 41 43 42 36 43 38 44
REMARK SMILES IDX 39 45 40 46 41 47 65 48 66 49 74 50 67 51 69 52 75 53 68 54
REMARK SMILES IDX 70 55 71 56 72 57 73 58 50 59 51 60 59 61 52 62 54 63 60 64
REMARK SMILES IDX 53 65 55 66 56 67 57 68 58 69 5 70 6 71 7 72 8 73 9 74 10 75
REMARK SMILES IDX 23 76 11 77 22 78 12 79 21 80 13 81 14 82 15 84 16 85 20 86
REMARK SMILES IDX 17 87 19 88 18 89
REMARK H PARENT 80 22 48 33 21 83
REMARK Flexibility Score: inf
ROOT
ATOM      1  C   UNL A   1      32.256  29.691  27.231  1.00  0.00     0.275 C 
ENDROOT
BRANCH   1   2
ATOM      2  O   UNL A   1      33.666  29.855  27.001  1.00  0.00    -0.458 OA
BRANCH   2   3
ATOM      3  C   UNL A   1      34.576  30.615  27.653  1.00  0.00     0.338 C 
ATOM      4  O   UNL A   1      34.328  31.810  27.818  1.00  0.00    -0.246 OA
BRANCH   3   5
ATOM      5  C   UNL A   1      35.925  30.123  28.078  1.00  0.00     0.060 A 
ATOM      6  C   UNL A   1      37.096  30.165  27.316  1.00  0.00     0.016 A 
ATOM      7  C   UNL A   1      36.003  29.567  29.368  1.00  0.00     0.016 A 
ATOM      8  C   UNL A   1      38.320  29.751  27.847  1.00  0.00     0.010 A 
ATOM      9  C   UNL A   1      37.225  29.158  29.910  1.00  0.00     0.010 A 
ATOM     10  C   UNL A   1      38.393  29.251  29.145  1.00  0.00    -0.014 A 
BRANCH  10  11
ATOM     11  C   UNL A   1      39.662  28.692  29.652  1.00  0.00     0.031 A 
ATOM     12  C   UNL A   1      40.419  29.471  30.683  1.00  0.00     0.074 A 
ATOM     13  C   UNL A   1      40.127  27.513  29.198  1.00  0.00     0.049 A 
ATOM     14  N   UNL A   1      41.544  29.176  31.272  1.00  0.00    -0.248 NA
ATOM     15  C   UNL A   1      39.808  30.732  31.141  1.00  0.00     0.031 C 
ATOM     16  C   UNL A   1      39.434  26.641  28.254  1.00  0.00     0.029 A 
ATOM     17  N   UNL A   1      41.315  26.868  29.428  1.00  0.00    -0.354 N 
ATOM     18  C   UNL A   1      41.772  30.204  32.175  1.00  0.00     0.074 A 
ATOM     19  C   UNL A   1      40.689  31.150  32.036  1.00  0.00     0.031 C 
ATOM     20  C   UNL A   1      40.253  25.642  27.888  1.00  0.00     0.029 A 
ATOM     21  C   UNL A   1      41.521  25.796  28.591  1.00  0.00     0.049 A 
ATOM     22  H   UNL A   1      41.957  27.145  30.123  1.00  0.00     0.167 HD
ATOM     23  C   UNL A   1      42.783  30.323  33.064  1.00  0.00     0.034 A 
ATOM     24  C   UNL A   1      42.622  25.043  28.401  1.00  0.00     0.034 A 
ATOM     25  C   UNL A   1      43.856  29.378  33.174  1.00  0.00     0.049 A 
ATOM     26  C   UNL A   1      43.797  25.273  29.312  1.00  0.00     0.074 A 
ATOM     27  C   UNL A   1      44.904  29.363  34.073  1.00  0.00     0.029 A 
ATOM     28  N   UNL A   1      44.036  28.295  32.323  1.00  0.00    -0.354 N 
ATOM     29  N   UNL A   1      43.924  26.146  30.283  1.00  0.00    -0.248 NA
ATOM     30  C   UNL A   1      44.950  24.376  29.158  1.00  0.00     0.031 C 
ATOM     31  C   UNL A   1      45.743  28.296  33.738  1.00  0.00     0.029 A 
ATOM     32  C   UNL A   1      45.199  27.625  32.652  1.00  0.00     0.049 A 
ATOM     33  H   UNL A   1      43.426  28.042  31.594  1.00  0.00     0.167 HD
ATOM     34  C   UNL A   1      45.138  25.865  30.895  1.00  0.00     0.074 A 
ATOM     35  C   UNL A   1      45.711  24.742  30.181  1.00  0.00     0.031 C 
ATOM     36  C   UNL A   1      45.721  26.475  31.957  1.00  0.00     0.034 A 
BRANCH  23  37
ATOM     37  C   UNL A   1      42.753  31.510  33.984  1.00  0.00     0.023 A 
ATOM     38  C   UNL A   1      43.303  32.737  33.559  1.00  0.00     0.012 A 
ATOM     39  C   UNL A   1      42.173  31.413  35.261  1.00  0.00     0.148 A 
ATOM     40  C   UNL A   1      43.305  33.843  34.408  1.00  0.00     0.002 A 
ATOM     41  C   UNL A   1      42.145  32.530  36.087  1.00  0.00     0.091 A 
ATOM     42  F   UNL A   1      41.681  30.229  35.652  1.00  0.00    -0.205 F 
ATOM     43  C   UNL A   1      42.721  33.742  35.667  1.00  0.00     0.022 A 
BRANCH  41  44
ATOM     44  S   UNL A   1      41.368  32.520  37.705  1.00  0.00     0.127 S 
ATOM     45  O   UNL A   1      40.019  32.059  37.381  1.00  0.00    -0.237 OA
ATOM     46  O   UNL A   1      42.188  31.548  38.429  1.00  0.00    -0.237 OA
ATOM     47  O   UNL A   1      41.455  33.884  38.204  1.00  0.00    -0.744 OA
ENDBRANCH  41  44
ENDBRANCH  23  37
BRANCH  24  48
ATOM     48  C   UNL A   1      42.646  23.981  27.353  1.00  0.00     0.023 A 
ATOM     49  C   UNL A   1      43.163  24.272  26.076  1.00  0.00     0.012 A 
ATOM     50  C   UNL A   1      42.152  22.686  27.612  1.00  0.00     0.148 A 
ATOM     51  C   UNL A   1      43.152  23.309  25.066  1.00  0.00     0.002 A 
ATOM     52  C   UNL A   1      42.177  21.718  26.611  1.00  0.00     0.091 A 
ATOM     53  F   UNL A   1      41.660  22.426  28.831  1.00  0.00    -0.205 F 
ATOM     54  C   UNL A   1      42.663  22.034  25.333  1.00  0.00     0.022 A 
BRANCH  52  55
ATOM     55  S   UNL A   1      41.647  20.021  26.874  1.00  0.00     0.127 S 
ATOM     56  O   UNL A   1      40.366  20.210  27.553  1.00  0.00    -0.237 OA
ATOM     57  O   UNL A   1      41.545  19.522  25.503  1.00  0.00    -0.237 OA
ATOM     58  O   UNL A   1      42.695  19.397  27.667  1.00  0.00    -0.744 OA
ENDBRANCH  52  55
ENDBRANCH  24  48
BRANCH  36  59
ATOM     59  C   UNL A   1      47.029  25.919  32.447  1.00  0.00     0.023 A 
ATOM     60  C   UNL A   1      47.047  25.017  33.528  1.00  0.00     0.012 A 
ATOM     61  C   UNL A   1      48.226  26.211  31.762  1.00  0.00     0.148 A 
ATOM     62  C   UNL A   1      48.243  24.430  33.934  1.00  0.00     0.002 A 
ATOM     63  C   UNL A   1      49.402  25.579  32.137  1.00  0.00     0.091 A 
ATOM     64  F   UNL A   1      48.184  27.086  30.747  1.00  0.00    -0.205 F 
ATOM     65  C   UNL A   1      49.416  24.697  33.230  1.00  0.00     0.022 A 
BRANCH  63  66
ATOM     66  S   UNL A   1      50.934  25.776  31.222  1.00  0.00     0.127 S 
ATOM     67  O   UNL A   1      51.850  24.932  31.987  1.00  0.00    -0.237 OA
ATOM     68  O   UNL A   1      50.575  25.250  29.904  1.00  0.00    -0.237 OA
ATOM     69  O   UNL A   1      51.237  27.201  31.241  1.00  0.00    -0.744 OA
ENDBRANCH  63  66
ENDBRANCH  36  59
ENDBRANCH  10  11
ENDBRANCH   3   5
ENDBRANCH   2   3
ENDBRANCH   1   2
BRANCH   1  70
ATOM     70  C   UNL A   1      31.796  28.256  27.507  1.00  0.00     0.275 C 
BRANCH  70  71
ATOM     71  O   UNL A   1      32.217  27.308  26.519  1.00  0.00    -0.458 OA
BRANCH  71  72
ATOM     72  C   UNL A   1      31.398  26.227  26.378  1.00  0.00     0.338 C 
ATOM     73  O   UNL A   1      30.187  26.229  26.397  1.00  0.00    -0.246 OA
BRANCH  72  74
ATOM     74  C   UNL A   1      32.216  25.039  26.046  1.00  0.00     0.062 A 
ATOM     75  C   UNL A   1      33.606  25.132  25.928  1.00  0.00     0.018 A 
ATOM     76  C   UNL A   1      31.536  23.823  25.845  1.00  0.00     0.044 A 
ATOM     77  C   UNL A   1      34.360  24.004  25.573  1.00  0.00     0.031 A 
ATOM     78  C   UNL A   1      32.315  22.736  25.437  1.00  0.00     0.066 A 
ATOM     79  C   UNL A   1      33.695  22.803  25.293  1.00  0.00     0.089 A 
ATOM     80  N   UNL A   1      32.007  21.444  25.094  1.00  0.00    -0.342 N 
ATOM     81  N   UNL A   1      34.201  21.599  24.893  1.00  0.00    -0.233 NA
ATOM     82  C   UNL A   1      33.178  20.776  24.828  1.00  0.00     0.110 A 
ATOM     83  H   UNL A   1      31.101  21.060  25.047  1.00  0.00     0.168 HD
BRANCH  82  84
ATOM     84  C   UNL A   1      33.276  19.293  24.631  1.00  0.00     0.055 C 
ATOM     85  C   UNL A   1      32.548  18.891  23.339  1.00  0.00     0.011 C 
ATOM     86  C   UNL A   1      34.722  18.781  24.650  1.00  0.00     0.011 C 
ATOM     87  C   UNL A   1      32.626  17.392  23.083  1.00  0.00     0.001 C 
ATOM     88  C   UNL A   1      34.783  17.276  24.381  1.00  0.00     0.001 C 
ATOM     89  C   UNL A   1      34.070  16.904  23.084  1.00  0.00     0.000 C 
ENDBRANCH  82  84
ENDBRANCH  72  74
ENDBRANCH  71  72
ENDBRANCH  70  71
ENDBRANCH   1  70
TORSDOF 15
ENDMDL
