MODEL 1
REMARK VINA RESULT:     -11.3      0.000      0.000
REMARK SMILES CN(CC(=O)OCCOC(=O)c1ccc(-c2c3nc(c(-c4cccc(S(=O)(=O)[O-])c4F)c4ccc([nH]4)c(-c4cccc(S(=O)(=O)[O-])c4F)c4nc(c(-c5cccc(S(=O)(=O)[O-])c5F)c5ccc2[nH]5)C=C4)C=C3)cc1)c1nc2cc(N)ccc2[nH]1
REMARK SMILES IDX 7 1 6 2 4 3 5 4 3 5 2 6 1 7 75 8 76 9 84 10 77 11 83 12
REMARK SMILES IDX 78 14 82 15 79 16 81 17 80 18 8 21 9 22 10 23 11 24 12 25
REMARK SMILES IDX 13 26 74 27 14 28 73 29 15 30 16 31 17 32 67 33 18 34 72 35
REMARK SMILES IDX 66 36 68 37 19 38 71 39 65 40 64 41 20 43 52 44 32 45 51 46
REMARK SMILES IDX 33 47 36 48 50 49 69 50 34 51 35 52 49 54 70 55 37 56 21 57
REMARK SMILES IDX 22 58 30 59 23 60 25 61 31 62 24 63 26 64 27 65 28 66 29 67
REMARK SMILES IDX 53 68 54 69 62 70 55 71 57 72 63 73 56 74 58 75 59 76 60 77
REMARK SMILES IDX 61 78 38 79 39 80 47 81 40 82 42 83 48 84 41 85 43 86 44 87
REMARK SMILES IDX 45 88 46 89
REMARK H PARENT 84 13 80 19 80 20 68 42 36 53
REMARK Flexibility Score: inf
ROOT
ATOM      1  C   UNL A   1      31.645  28.430  27.004  1.00  0.00     0.274 C 
ENDROOT
BRANCH   1   2
ATOM      2  O   UNL A   1      32.333  27.227  26.609  1.00  0.00    -0.461 OA
BRANCH   2   3
ATOM      3  C   UNL A   1      31.525  26.247  26.118  1.00  0.00     0.325 C 
ATOM      4  O   UNL A   1      30.396  26.009  26.546  1.00  0.00    -0.250 OA
BRANCH   3   5
ATOM      5  C   UNL A   1      32.141  25.387  25.023  1.00  0.00     0.241 C 
BRANCH   5   6
ATOM      6  N   UNL A   1      31.557  25.482  23.678  1.00  0.00    -0.334 N 
ATOM      7  C   UNL A   1      31.599  24.313  22.827  1.00  0.00     0.147 C 
BRANCH   6   8
ATOM      8  C   UNL A   1      30.891  26.613  23.335  1.00  0.00     0.204 A 
ATOM      9  N   UNL A   1      31.374  27.697  22.774  1.00  0.00    -0.213 NA
ATOM     10  N   UNL A   1      29.548  26.763  23.585  1.00  0.00    -0.324 N 
ATOM     11  C   UNL A   1      30.296  28.537  22.584  1.00  0.00     0.093 A 
ATOM     12  C   UNL A   1      29.140  27.981  23.112  1.00  0.00     0.067 A 
ATOM     13  H   UNL A   1      28.972  26.102  24.032  1.00  0.00     0.170 HD
ATOM     14  C   UNL A   1      30.214  29.786  21.949  1.00  0.00     0.056 A 
ATOM     15  C   UNL A   1      27.899  28.618  23.078  1.00  0.00     0.030 A 
ATOM     16  C   UNL A   1      28.991  30.467  21.898  1.00  0.00     0.034 A 
ATOM     17  C   UNL A   1      27.852  29.868  22.444  1.00  0.00     0.028 A 
BRANCH  16  18
ATOM     18  N   UNL A   1      28.887  31.650  21.178  1.00  0.00    -0.399 N 
ATOM     19  H   UNL A   1      28.483  32.446  21.594  1.00  0.00     0.156 HD
ATOM     20  H   UNL A   1      29.218  31.694  20.251  1.00  0.00     0.156 HD
ENDBRANCH  16  18
ENDBRANCH   6   8
ENDBRANCH   5   6
ENDBRANCH   3   5
ENDBRANCH   2   3
ENDBRANCH   1   2
BRANCH   1  21
ATOM     21  C   UNL A   1      31.774  29.516  25.937  1.00  0.00     0.275 C 
BRANCH  21  22
ATOM     22  O   UNL A   1      33.097  30.072  25.958  1.00  0.00    -0.458 OA
BRANCH  22  23
ATOM     23  C   UNL A   1      33.289  31.021  26.907  1.00  0.00     0.338 C 
ATOM     24  O   UNL A   1      32.500  31.906  27.202  1.00  0.00    -0.246 OA
BRANCH  23  25
ATOM     25  C   UNL A   1      34.613  30.867  27.562  1.00  0.00     0.060 A 
ATOM     26  C   UNL A   1      35.489  31.941  27.758  1.00  0.00     0.016 A 
ATOM     27  C   UNL A   1      35.021  29.574  27.909  1.00  0.00     0.016 A 
ATOM     28  C   UNL A   1      36.773  31.723  28.270  1.00  0.00     0.010 A 
ATOM     29  C   UNL A   1      36.286  29.361  28.456  1.00  0.00     0.010 A 
ATOM     30  C   UNL A   1      37.172  30.433  28.641  1.00  0.00    -0.014 A 
BRANCH  30  31
ATOM     31  C   UNL A   1      38.452  30.180  29.348  1.00  0.00     0.031 A 
ATOM     32  C   UNL A   1      39.443  29.179  28.828  1.00  0.00     0.074 A 
ATOM     33  C   UNL A   1      38.625  30.742  30.559  1.00  0.00     0.049 A 
ATOM     34  N   UNL A   1      40.489  28.673  29.428  1.00  0.00    -0.248 NA
ATOM     35  C   UNL A   1      39.224  28.670  27.465  1.00  0.00     0.031 C 
ATOM     36  C   UNL A   1      37.704  31.694  31.182  1.00  0.00     0.029 A 
ATOM     37  N   UNL A   1      39.594  30.540  31.511  1.00  0.00    -0.354 N 
ATOM     38  C   UNL A   1      41.033  27.756  28.539  1.00  0.00     0.074 A 
ATOM     39  C   UNL A   1      40.204  27.782  27.351  1.00  0.00     0.031 C 
ATOM     40  C   UNL A   1      38.119  31.952  32.430  1.00  0.00     0.029 A 
ATOM     41  C   UNL A   1      39.306  31.153  32.709  1.00  0.00     0.049 A 
ATOM     42  H   UNL A   1      40.410  30.012  31.352  1.00  0.00     0.167 HD
ATOM     43  C   UNL A   1      42.129  26.974  28.700  1.00  0.00     0.034 A 
ATOM     44  C   UNL A   1      39.896  31.047  33.914  1.00  0.00     0.034 A 
ATOM     45  C   UNL A   1      42.965  26.981  29.873  1.00  0.00     0.049 A 
ATOM     46  C   UNL A   1      41.106  30.173  34.065  1.00  0.00     0.074 A 
ATOM     47  C   UNL A   1      44.151  26.298  30.088  1.00  0.00     0.029 A 
ATOM     48  N   UNL A   1      42.701  27.689  31.036  1.00  0.00    -0.354 N 
ATOM     49  N   UNL A   1      41.697  29.426  33.166  1.00  0.00    -0.248 NA
ATOM     50  C   UNL A   1      41.749  30.152  35.387  1.00  0.00     0.031 C 
ATOM     51  C   UNL A   1      44.592  26.578  31.387  1.00  0.00     0.029 A 
ATOM     52  C   UNL A   1      43.688  27.447  31.977  1.00  0.00     0.049 A 
ATOM     53  H   UNL A   1      41.924  28.279  31.172  1.00  0.00     0.167 HD
ATOM     54  C   UNL A   1      42.796  28.864  33.804  1.00  0.00     0.074 A 
ATOM     55  C   UNL A   1      42.800  29.374  35.159  1.00  0.00     0.031 C 
ATOM     56  C   UNL A   1      43.710  27.992  33.310  1.00  0.00     0.034 A 
BRANCH  43  57
ATOM     57  C   UNL A   1      42.527  26.068  27.564  1.00  0.00     0.023 A 
ATOM     58  C   UNL A   1      43.436  26.535  26.594  1.00  0.00     0.012 A 
ATOM     59  C   UNL A   1      42.085  24.731  27.510  1.00  0.00     0.148 A 
ATOM     60  C   UNL A   1      43.886  25.692  25.578  1.00  0.00     0.002 A 
ATOM     61  C   UNL A   1      42.565  23.887  26.513  1.00  0.00     0.091 A 
ATOM     62  F   UNL A   1      41.204  24.308  28.427  1.00  0.00    -0.205 F 
ATOM     63  C   UNL A   1      43.461  24.367  25.544  1.00  0.00     0.022 A 
BRANCH  61  64
ATOM     64  S   UNL A   1      42.125  22.145  26.436  1.00  0.00     0.127 S 
ATOM     65  O   UNL A   1      42.512  21.684  27.768  1.00  0.00    -0.237 OA
ATOM     66  O   UNL A   1      40.680  22.196  26.206  1.00  0.00    -0.237 OA
ATOM     67  O   UNL A   1      42.891  21.593  25.328  1.00  0.00    -0.744 OA
ENDBRANCH  61  64
ENDBRANCH  43  57
BRANCH  44  68
ATOM     68  C   UNL A   1      39.348  31.829  35.055  1.00  0.00     0.023 A 
ATOM     69  C   UNL A   1      38.470  31.201  35.958  1.00  0.00     0.012 A 
ATOM     70  C   UNL A   1      39.764  33.152  35.302  1.00  0.00     0.148 A 
ATOM     71  C   UNL A   1      38.009  31.881  37.084  1.00  0.00     0.002 A 
ATOM     72  C   UNL A   1      39.344  33.805  36.454  1.00  0.00     0.091 A 
ATOM     73  F   UNL A   1      40.588  33.735  34.419  1.00  0.00    -0.205 F 
ATOM     74  C   UNL A   1      38.456  33.175  37.340  1.00  0.00     0.022 A 
BRANCH  72  75
ATOM     75  S   UNL A   1      39.986  35.412  36.935  1.00  0.00     0.127 S 
ATOM     76  O   UNL A   1      39.466  36.272  35.875  1.00  0.00    -0.237 OA
ATOM     77  O   UNL A   1      39.367  35.608  38.246  1.00  0.00    -0.237 OA
ATOM     78  O   UNL A   1      41.434  35.259  36.976  1.00  0.00    -0.744 OA
ENDBRANCH  72  75
ENDBRANCH  44  68
BRANCH  56  79
ATOM     79  C   UNL A   1      44.808  27.540  34.236  1.00  0.00     0.023 A 
ATOM     80  C   UNL A   1      46.011  28.269  34.293  1.00  0.00     0.012 A 
ATOM     81  C   UNL A   1      44.626  26.437  35.093  1.00  0.00     0.148 A 
ATOM     82  C   UNL A   1      47.029  27.893  35.168  1.00  0.00     0.002 A 
ATOM     83  C   UNL A   1      45.629  26.091  35.992  1.00  0.00     0.091 A 
ATOM     84  F   UNL A   1      43.483  25.741  35.009  1.00  0.00    -0.205 F 
ATOM     85  C   UNL A   1      46.834  26.811  36.025  1.00  0.00     0.022 A 
BRANCH  83  86
ATOM     86  S   UNL A   1      45.430  24.765  37.188  1.00  0.00     0.127 S 
ATOM     87  O   UNL A   1      45.233  23.605  36.320  1.00  0.00    -0.237 OA
ATOM     88  O   UNL A   1      46.712  24.785  37.896  1.00  0.00    -0.237 OA
ATOM     89  O   UNL A   1      44.286  25.137  38.010  1.00  0.00    -0.744 OA
ENDBRANCH  83  86
ENDBRANCH  56  79
ENDBRANCH  30  31
ENDBRANCH  23  25
ENDBRANCH  22  23
ENDBRANCH  21  22
ENDBRANCH   1  21
TORSDOF 17
ENDMDL
MODEL 2
REMARK VINA RESULT:     -11.1      1.446      3.094
REMARK SMILES CN(CC(=O)OCCOC(=O)c1ccc(-c2c3nc(c(-c4cccc(S(=O)(=O)[O-])c4F)c4ccc([nH]4)c(-c4cccc(S(=O)(=O)[O-])c4F)c4nc(c(-c5cccc(S(=O)(=O)[O-])c5F)c5ccc2[nH]5)C=C4)C=C3)cc1)c1nc2cc(N)ccc2[nH]1
REMARK SMILES IDX 7 1 6 2 4 3 5 4 3 5 2 6 1 7 75 8 76 9 84 10 77 11 83 12
REMARK SMILES IDX 78 14 82 15 79 16 81 17 80 18 8 21 9 22 10 23 11 24 12 25
REMARK SMILES IDX 13 26 74 27 14 28 73 29 15 30 16 31 17 32 67 33 18 34 72 35
REMARK SMILES IDX 66 36 68 37 19 38 71 39 65 40 64 41 20 43 52 44 32 45 51 46
REMARK SMILES IDX 33 47 36 48 50 49 69 50 34 51 35 52 49 54 70 55 37 56 21 57
REMARK SMILES IDX 22 58 30 59 23 60 25 61 31 62 24 63 26 64 27 65 28 66 29 67
REMARK SMILES IDX 53 68 54 69 62 70 55 71 57 72 63 73 56 74 58 75 59 76 60 77
REMARK SMILES IDX 61 78 38 79 39 80 47 81 40 82 42 83 48 84 41 85 43 86 44 87
REMARK SMILES IDX 45 88 46 89
REMARK H PARENT 84 13 80 19 80 20 68 42 36 53
REMARK Flexibility Score: inf
ROOT
ATOM      1  C   UNL A   1      31.188  29.370  24.447  1.00  0.00     0.274 C 
ENDROOT
BRANCH   1   2
ATOM      2  O   UNL A   1      30.826  28.053  23.990  1.00  0.00    -0.461 OA
BRANCH   2   3
ATOM      3  C   UNL A   1      30.649  27.950  22.643  1.00  0.00     0.325 C 
ATOM      4  O   UNL A   1      30.037  28.775  21.965  1.00  0.00    -0.250 OA
BRANCH   3   5
ATOM      5  C   UNL A   1      31.204  26.681  22.012  1.00  0.00     0.241 C 
BRANCH   5   6
ATOM      6  N   UNL A   1      32.607  26.342  22.292  1.00  0.00    -0.334 N 
ATOM      7  C   UNL A   1      33.599  27.389  22.191  1.00  0.00     0.147 C 
BRANCH   6   8
ATOM      8  C   UNL A   1      32.896  25.101  22.755  1.00  0.00     0.204 A 
ATOM      9  N   UNL A   1      33.908  24.733  23.505  1.00  0.00    -0.213 NA
ATOM     10  N   UNL A   1      32.117  24.013  22.440  1.00  0.00    -0.324 N 
ATOM     11  C   UNL A   1      33.732  23.387  23.747  1.00  0.00     0.093 A 
ATOM     12  C   UNL A   1      32.625  22.905  23.062  1.00  0.00     0.067 A 
ATOM     13  H   UNL A   1      31.322  24.029  21.859  1.00  0.00     0.170 HD
ATOM     14  C   UNL A   1      34.461  22.501  24.555  1.00  0.00     0.056 A 
ATOM     15  C   UNL A   1      32.216  21.572  23.108  1.00  0.00     0.030 A 
ATOM     16  C   UNL A   1      34.094  21.151  24.626  1.00  0.00     0.034 A 
ATOM     17  C   UNL A   1      32.970  20.711  23.919  1.00  0.00     0.028 A 
BRANCH  16  18
ATOM     18  N   UNL A   1      34.747  20.300  25.508  1.00  0.00    -0.399 N 
ATOM     19  H   UNL A   1      35.700  20.441  25.713  1.00  0.00     0.156 HD
ATOM     20  H   UNL A   1      34.258  19.557  25.929  1.00  0.00     0.156 HD
ENDBRANCH  16  18
ENDBRANCH   6   8
ENDBRANCH   5   6
ENDBRANCH   3   5
ENDBRANCH   2   3
ENDBRANCH   1   2
BRANCH   1  21
ATOM     21  C   UNL A   1      31.838  29.316  25.829  1.00  0.00     0.275 C 
BRANCH  21  22
ATOM     22  O   UNL A   1      33.064  30.060  25.826  1.00  0.00    -0.458 OA
BRANCH  22  23
ATOM     23  C   UNL A   1      33.189  30.936  26.853  1.00  0.00     0.338 C 
ATOM     24  O   UNL A   1      32.344  31.744  27.210  1.00  0.00    -0.246 OA
BRANCH  23  25
ATOM     25  C   UNL A   1      34.515  30.809  27.511  1.00  0.00     0.060 A 
ATOM     26  C   UNL A   1      35.349  31.908  27.747  1.00  0.00     0.016 A 
ATOM     27  C   UNL A   1      34.968  29.522  27.819  1.00  0.00     0.016 A 
ATOM     28  C   UNL A   1      36.637  31.721  28.260  1.00  0.00     0.010 A 
ATOM     29  C   UNL A   1      36.236  29.337  28.367  1.00  0.00     0.010 A 
ATOM     30  C   UNL A   1      37.082  30.434  28.592  1.00  0.00    -0.014 A 
BRANCH  30  31
ATOM     31  C   UNL A   1      38.367  30.205  29.299  1.00  0.00     0.031 A 
ATOM     32  C   UNL A   1      39.365  29.205  28.793  1.00  0.00     0.074 A 
ATOM     33  C   UNL A   1      38.538  30.789  30.500  1.00  0.00     0.049 A 
ATOM     34  N   UNL A   1      40.418  28.719  29.397  1.00  0.00    -0.248 NA
ATOM     35  C   UNL A   1      39.147  28.671  27.439  1.00  0.00     0.031 C 
ATOM     36  C   UNL A   1      37.611  31.743  31.110  1.00  0.00     0.029 A 
ATOM     37  N   UNL A   1      39.513  30.613  31.451  1.00  0.00    -0.354 N 
ATOM     38  C   UNL A   1      40.968  27.792  28.522  1.00  0.00     0.074 A 
ATOM     39  C   UNL A   1      40.135  27.790  27.337  1.00  0.00     0.031 C 
ATOM     40  C   UNL A   1      38.027  32.026  32.352  1.00  0.00     0.029 A 
ATOM     41  C   UNL A   1      39.223  31.242  32.640  1.00  0.00     0.049 A 
ATOM     42  H   UNL A   1      40.332  30.090  31.299  1.00  0.00     0.167 HD
ATOM     43  C   UNL A   1      42.071  27.023  28.692  1.00  0.00     0.034 A 
ATOM     44  C   UNL A   1      39.818  31.163  33.845  1.00  0.00     0.034 A 
ATOM     45  C   UNL A   1      42.912  27.058  29.863  1.00  0.00     0.049 A 
ATOM     46  C   UNL A   1      41.036  30.303  34.006  1.00  0.00     0.074 A 
ATOM     47  C   UNL A   1      44.104  26.390  30.085  1.00  0.00     0.029 A 
ATOM     48  N   UNL A   1      42.644  27.783  31.014  1.00  0.00    -0.354 N 
ATOM     49  N   UNL A   1      41.631  29.546  33.118  1.00  0.00    -0.248 NA
ATOM     50  C   UNL A   1      41.684  30.310  35.326  1.00  0.00     0.031 C 
ATOM     51  C   UNL A   1      44.547  26.696  31.377  1.00  0.00     0.029 A 
ATOM     52  C   UNL A   1      43.637  27.566  31.955  1.00  0.00     0.049 A 
ATOM     53  H   UNL A   1      41.862  28.368  31.142  1.00  0.00     0.167 HD
ATOM     54  C   UNL A   1      42.738  29.006  33.761  1.00  0.00     0.074 A 
ATOM     55  C   UNL A   1      42.741  29.539  35.108  1.00  0.00     0.031 C 
ATOM     56  C   UNL A   1      43.658  28.134  33.279  1.00  0.00     0.034 A 
BRANCH  43  57
ATOM     57  C   UNL A   1      42.475  26.102  27.571  1.00  0.00     0.023 A 
ATOM     58  C   UNL A   1      43.414  26.544  26.618  1.00  0.00     0.012 A 
ATOM     59  C   UNL A   1      42.006  24.774  27.515  1.00  0.00     0.148 A 
ATOM     60  C   UNL A   1      43.867  25.685  25.616  1.00  0.00     0.002 A 
ATOM     61  C   UNL A   1      42.489  23.914  26.534  1.00  0.00     0.091 A 
ATOM     62  F   UNL A   1      41.096  24.376  28.415  1.00  0.00    -0.205 F 
ATOM     63  C   UNL A   1      43.415  24.369  25.581  1.00  0.00     0.022 A 
BRANCH  61  64
ATOM     64  S   UNL A   1      42.014  22.182  26.457  1.00  0.00     0.127 S 
ATOM     65  O   UNL A   1      40.566  22.281  26.274  1.00  0.00    -0.237 OA
ATOM     66  O   UNL A   1      42.744  21.707  25.280  1.00  0.00    -0.237 OA
ATOM     67  O   UNL A   1      42.454  21.595  27.715  1.00  0.00    -0.744 OA
ENDBRANCH  61  64
ENDBRANCH  43  57
BRANCH  44  68
ATOM     68  C   UNL A   1      39.266  31.958  34.975  1.00  0.00     0.023 A 
ATOM     69  C   UNL A   1      38.349  31.356  35.854  1.00  0.00     0.012 A 
ATOM     70  C   UNL A   1      39.715  33.269  35.234  1.00  0.00     0.148 A 
ATOM     71  C   UNL A   1      37.881  32.047  36.971  1.00  0.00     0.002 A 
ATOM     72  C   UNL A   1      39.287  33.932  36.377  1.00  0.00     0.091 A 
ATOM     73  F   UNL A   1      40.576  33.828  34.372  1.00  0.00    -0.205 F 
ATOM     74  C   UNL A   1      38.360  33.327  37.241  1.00  0.00     0.022 A 
BRANCH  72  75
ATOM     75  S   UNL A   1      39.964  35.519  36.876  1.00  0.00     0.127 S 
ATOM     76  O   UNL A   1      39.540  36.384  35.779  1.00  0.00    -0.237 OA
ATOM     77  O   UNL A   1      39.279  35.757  38.148  1.00  0.00    -0.237 OA
ATOM     78  O   UNL A   1      41.400  35.309  37.003  1.00  0.00    -0.744 OA
ENDBRANCH  72  75
ENDBRANCH  44  68
BRANCH  56  79
ATOM     79  C   UNL A   1      44.763  27.709  34.209  1.00  0.00     0.023 A 
ATOM     80  C   UNL A   1      45.950  28.464  34.268  1.00  0.00     0.012 A 
ATOM     81  C   UNL A   1      44.604  26.602  35.066  1.00  0.00     0.148 A 
ATOM     82  C   UNL A   1      46.973  28.112  35.147  1.00  0.00     0.002 A 
ATOM     83  C   UNL A   1      45.612  26.280  35.969  1.00  0.00     0.091 A 
ATOM     84  F   UNL A   1      43.477  25.881  34.980  1.00  0.00    -0.205 F 
ATOM     85  C   UNL A   1      46.800  27.028  36.004  1.00  0.00     0.022 A 
BRANCH  83  86
ATOM     86  S   UNL A   1      45.440  24.952  37.166  1.00  0.00     0.127 S 
ATOM     87  O   UNL A   1      44.244  25.362  37.900  1.00  0.00    -0.237 OA
ATOM     88  O   UNL A   1      45.258  23.778  36.310  1.00  0.00    -0.237 OA
ATOM     89  O   UNL A   1      46.677  24.946  37.936  1.00  0.00    -0.744 OA
ENDBRANCH  83  86
ENDBRANCH  56  79
ENDBRANCH  30  31
ENDBRANCH  23  25
ENDBRANCH  22  23
ENDBRANCH  21  22
ENDBRANCH   1  21
TORSDOF 17
ENDMDL
MODEL 3
REMARK VINA RESULT:     -11.0      6.713     10.524
REMARK SMILES CN(CC(=O)OCCOC(=O)c1ccc(-c2c3nc(c(-c4cccc(S(=O)(=O)[O-])c4F)c4ccc([nH]4)c(-c4cccc(S(=O)(=O)[O-])c4F)c4nc(c(-c5cccc(S(=O)(=O)[O-])c5F)c5ccc2[nH]5)C=C4)C=C3)cc1)c1nc2cc(N)ccc2[nH]1
REMARK SMILES IDX 7 1 6 2 4 3 5 4 3 5 2 6 1 7 75 8 76 9 84 10 77 11 83 12
REMARK SMILES IDX 78 14 82 15 79 16 81 17 80 18 8 21 9 22 10 23 11 24 12 25
REMARK SMILES IDX 13 26 74 27 14 28 73 29 15 30 16 31 17 32 67 33 18 34 72 35
REMARK SMILES IDX 66 36 68 37 19 38 71 39 65 40 64 41 20 43 52 44 32 45 51 46
REMARK SMILES IDX 33 47 36 48 50 49 69 50 34 51 35 52 49 54 70 55 37 56 21 57
REMARK SMILES IDX 22 58 30 59 23 60 25 61 31 62 24 63 26 64 27 65 28 66 29 67
REMARK SMILES IDX 53 68 54 69 62 70 55 71 57 72 63 73 56 74 58 75 59 76 60 77
REMARK SMILES IDX 61 78 38 79 39 80 47 81 40 82 42 83 48 84 41 85 43 86 44 87
REMARK SMILES IDX 45 88 46 89
REMARK H PARENT 84 13 80 19 80 20 68 42 36 53
REMARK Flexibility Score: inf
ROOT
ATOM      1  C   UNL A   1      42.217  20.051  25.715  1.00  0.00     0.274 C 
ENDROOT
BRANCH   1   2
ATOM      2  O   UNL A   1      43.480  19.528  26.170  1.00  0.00    -0.461 OA
BRANCH   2   3
ATOM      3  C   UNL A   1      44.390  19.307  25.183  1.00  0.00     0.325 C 
ATOM      4  O   UNL A   1      44.287  18.416  24.340  1.00  0.00    -0.250 OA
BRANCH   3   5
ATOM      5  C   UNL A   1      45.619  20.205  25.220  1.00  0.00     0.241 C 
BRANCH   5   6
ATOM      6  N   UNL A   1      45.407  21.651  25.060  1.00  0.00    -0.334 N 
ATOM      7  C   UNL A   1      44.876  22.132  23.804  1.00  0.00     0.147 C 
BRANCH   6   8
ATOM      8  C   UNL A   1      45.596  22.459  26.133  1.00  0.00     0.204 A 
ATOM      9  N   UNL A   1      46.594  23.280  26.362  1.00  0.00    -0.213 NA
ATOM     10  N   UNL A   1      44.710  22.482  27.183  1.00  0.00    -0.324 N 
ATOM     11  C   UNL A   1      46.302  23.909  27.554  1.00  0.00     0.093 A 
ATOM     12  C   UNL A   1      45.133  23.402  28.104  1.00  0.00     0.067 A 
ATOM     13  H   UNL A   1      43.901  21.927  27.261  1.00  0.00     0.170 HD
ATOM     14  C   UNL A   1      46.972  24.940  28.230  1.00  0.00     0.056 A 
ATOM     15  C   UNL A   1      44.605  23.841  29.318  1.00  0.00     0.030 A 
ATOM     16  C   UNL A   1      46.484  25.408  29.457  1.00  0.00     0.034 A 
ATOM     17  C   UNL A   1      45.302  24.867  29.973  1.00  0.00     0.028 A 
BRANCH  16  18
ATOM     18  N   UNL A   1      47.085  26.499  30.071  1.00  0.00    -0.399 N 
ATOM     19  H   UNL A   1      47.995  26.770  29.812  1.00  0.00     0.156 HD
ATOM     20  H   UNL A   1      46.601  27.002  30.766  1.00  0.00     0.156 HD
ENDBRANCH  16  18
ENDBRANCH   6   8
ENDBRANCH   5   6
ENDBRANCH   3   5
ENDBRANCH   2   3
ENDBRANCH   1   2
BRANCH   1  21
ATOM     21  C   UNL A   1      41.056  19.470  26.520  1.00  0.00     0.275 C 
BRANCH  21  22
ATOM     22  O   UNL A   1      40.467  20.488  27.342  1.00  0.00    -0.458 OA
BRANCH  22  23
ATOM     23  C   UNL A   1      39.741  21.408  26.660  1.00  0.00     0.338 C 
ATOM     24  O   UNL A   1      38.807  21.166  25.909  1.00  0.00    -0.246 OA
BRANCH  23  25
ATOM     25  C   UNL A   1      40.229  22.785  26.927  1.00  0.00     0.060 A 
ATOM     26  C   UNL A   1      41.036  23.100  28.026  1.00  0.00     0.016 A 
ATOM     27  C   UNL A   1      39.780  23.809  26.086  1.00  0.00     0.016 A 
ATOM     28  C   UNL A   1      41.369  24.431  28.301  1.00  0.00     0.010 A 
ATOM     29  C   UNL A   1      40.144  25.131  26.336  1.00  0.00     0.010 A 
ATOM     30  C   UNL A   1      40.941  25.454  27.444  1.00  0.00    -0.014 A 
BRANCH  30  31
ATOM     31  C   UNL A   1      41.414  26.853  27.595  1.00  0.00     0.031 A 
ATOM     32  C   UNL A   1      42.829  27.234  27.272  1.00  0.00     0.074 A 
ATOM     33  C   UNL A   1      40.592  27.734  28.196  1.00  0.00     0.049 A 
ATOM     34  N   UNL A   1      43.466  28.341  27.556  1.00  0.00    -0.248 NA
ATOM     35  C   UNL A   1      43.638  26.242  26.546  1.00  0.00     0.031 C 
ATOM     36  C   UNL A   1      39.212  27.458  28.596  1.00  0.00     0.029 A 
ATOM     37  N   UNL A   1      40.820  29.014  28.639  1.00  0.00    -0.354 N 
ATOM     38  C   UNL A   1      44.761  28.168  27.086  1.00  0.00     0.074 A 
ATOM     39  C   UNL A   1      44.817  26.849  26.487  1.00  0.00     0.031 C 
ATOM     40  C   UNL A   1      38.732  28.511  29.272  1.00  0.00     0.029 A 
ATOM     41  C   UNL A   1      39.783  29.515  29.392  1.00  0.00     0.049 A 
ATOM     42  H   UNL A   1      41.641  29.520  28.438  1.00  0.00     0.167 HD
ATOM     43  C   UNL A   1      45.801  29.035  27.143  1.00  0.00     0.034 A 
ATOM     44  C   UNL A   1      39.699  30.631  30.139  1.00  0.00     0.034 A 
ATOM     45  C   UNL A   1      45.725  30.358  27.711  1.00  0.00     0.049 A 
ATOM     46  C   UNL A   1      40.864  31.573  30.186  1.00  0.00     0.074 A 
ATOM     47  C   UNL A   1      46.696  31.345  27.725  1.00  0.00     0.029 A 
ATOM     48  N   UNL A   1      44.626  30.874  28.381  1.00  0.00    -0.354 N 
ATOM     49  N   UNL A   1      42.035  31.462  29.607  1.00  0.00    -0.248 NA
ATOM     50  C   UNL A   1      40.689  32.809  30.961  1.00  0.00     0.031 C 
ATOM     51  C   UNL A   1      46.190  32.450  28.420  1.00  0.00     0.029 A 
ATOM     52  C   UNL A   1      44.899  32.157  28.827  1.00  0.00     0.049 A 
ATOM     53  H   UNL A   1      43.774  30.398  28.518  1.00  0.00     0.167 HD
ATOM     54  C   UNL A   1      42.727  32.623  29.926  1.00  0.00     0.074 A 
ATOM     55  C   UNL A   1      41.838  33.433  30.732  1.00  0.00     0.031 C 
ATOM     56  C   UNL A   1      43.993  32.976  29.591  1.00  0.00     0.034 A 
BRANCH  43  57
ATOM     57  C   UNL A   1      47.112  28.612  26.535  1.00  0.00     0.023 A 
ATOM     58  C   UNL A   1      48.226  28.401  27.372  1.00  0.00     0.012 A 
ATOM     59  C   UNL A   1      47.219  28.329  25.158  1.00  0.00     0.148 A 
ATOM     60  C   UNL A   1      49.430  27.930  26.847  1.00  0.00     0.002 A 
ATOM     61  C   UNL A   1      48.413  27.827  24.649  1.00  0.00     0.091 A 
ATOM     62  F   UNL A   1      46.158  28.556  24.372  1.00  0.00    -0.205 F 
ATOM     63  C   UNL A   1      49.520  27.633  25.490  1.00  0.00     0.022 A 
BRANCH  61  64
ATOM     64  S   UNL A   1      48.595  27.350  22.925  1.00  0.00     0.127 S 
ATOM     65  O   UNL A   1      49.999  27.672  22.676  1.00  0.00    -0.237 OA
ATOM     66  O   UNL A   1      48.297  25.917  22.962  1.00  0.00    -0.237 OA
ATOM     67  O   UNL A   1      47.624  28.147  22.189  1.00  0.00    -0.744 OA
ENDBRANCH  61  64
ENDBRANCH  43  57
BRANCH  44  68
ATOM     68  C   UNL A   1      38.435  30.913  30.872  1.00  0.00     0.023 A 
ATOM     69  C   UNL A   1      38.347  30.589  32.238  1.00  0.00     0.012 A 
ATOM     70  C   UNL A   1      37.362  31.582  30.249  1.00  0.00     0.148 A 
ATOM     71  C   UNL A   1      37.208  30.920  32.972  1.00  0.00     0.002 A 
ATOM     72  C   UNL A   1      36.254  31.956  30.998  1.00  0.00     0.091 A 
ATOM     73  F   UNL A   1      37.462  31.866  28.943  1.00  0.00    -0.205 F 
ATOM     74  C   UNL A   1      36.170  31.616  32.358  1.00  0.00     0.022 A 
BRANCH  72  75
ATOM     75  S   UNL A   1      34.941  32.981  30.324  1.00  0.00     0.127 S 
ATOM     76  O   UNL A   1      34.390  32.115  29.285  1.00  0.00    -0.237 OA
ATOM     77  O   UNL A   1      34.076  33.174  31.488  1.00  0.00    -0.237 OA
ATOM     78  O   UNL A   1      35.595  34.197  29.857  1.00  0.00    -0.744 OA
ENDBRANCH  72  75
ENDBRANCH  44  68
BRANCH  56  79
ATOM     79  C   UNL A   1      44.494  34.308  30.083  1.00  0.00     0.023 A 
ATOM     80  C   UNL A   1      45.239  34.371  31.276  1.00  0.00     0.012 A 
ATOM     81  C   UNL A   1      44.283  35.483  29.336  1.00  0.00     0.148 A 
ATOM     82  C   UNL A   1      45.744  35.588  31.734  1.00  0.00     0.002 A 
ATOM     83  C   UNL A   1      44.825  36.686  29.776  1.00  0.00     0.091 A 
ATOM     84  F   UNL A   1      43.553  35.407  28.214  1.00  0.00    -0.205 F 
ATOM     85  C   UNL A   1      45.547  36.742  30.979  1.00  0.00     0.022 A 
BRANCH  83  86
ATOM     86  S   UNL A   1      44.690  38.205  28.826  1.00  0.00     0.127 S 
ATOM     87  O   UNL A   1      45.050  37.752  27.484  1.00  0.00    -0.237 OA
ATOM     88  O   UNL A   1      43.278  38.556  28.993  1.00  0.00    -0.237 OA
ATOM     89  O   UNL A   1      45.618  39.144  29.442  1.00  0.00    -0.744 OA
ENDBRANCH  83  86
ENDBRANCH  56  79
ENDBRANCH  30  31
ENDBRANCH  23  25
ENDBRANCH  22  23
ENDBRANCH  21  22
ENDBRANCH   1  21
TORSDOF 17
ENDMDL
