MODEL 1
REMARK VINA RESULT:     -11.2      0.000      0.000
REMARK SMILES C[C@@H](C(=O)OCCOC(=O)c1ccc(-c2c3nc(c(-c4cccc(S(=O)(=O)[O-])c4F)c4ccc([nH]4)c(-c4cccc(S(=O)(=O)[O-])c4F)c4nc(c(-c5cccc(S(=O)(=O)[O-])c5F)c5ccc2[nH]5)C=C4)C=C3)cc1)N(C)c1ccc(C(N)=O)nn1
REMARK SMILES IDX 6 1 5 2 3 3 4 4 2 5 1 6 74 7 75 8 76 9 77 10 84 11 78 12
REMARK SMILES IDX 83 13 79 14 80 15 81 16 82 17 7 20 8 21 9 22 10 23 11 24
REMARK SMILES IDX 12 25 73 26 13 27 72 28 14 29 15 30 16 31 66 32 17 33 71 34
REMARK SMILES IDX 65 35 67 36 18 37 70 38 64 39 63 40 19 42 51 43 31 44 50 45
REMARK SMILES IDX 32 46 35 47 49 48 68 49 33 50 34 51 48 53 69 54 36 55 20 56
REMARK SMILES IDX 21 57 29 58 22 59 24 60 30 61 23 62 25 63 26 64 27 65 28 66
REMARK SMILES IDX 52 67 53 68 61 69 54 70 56 71 62 72 55 73 57 74 58 75 59 76
REMARK SMILES IDX 60 77 37 78 38 79 46 80 39 81 41 82 47 83 40 84 42 85 43 86
REMARK SMILES IDX 44 87 45 88
REMARK H PARENT 81 18 81 19 67 41 35 52
REMARK Flexibility Score: inf
ROOT
ATOM      1  C   UNL A   1      36.050  23.099  23.562  1.00  0.00     0.274 C 
ENDROOT
BRANCH   1   2
ATOM      2  O   UNL A   1      34.856  23.084  22.751  1.00  0.00    -0.461 OA
BRANCH   2   3
ATOM      3  C   UNL A   1      33.835  23.889  23.158  1.00  0.00     0.328 C 
ATOM      4  O   UNL A   1      33.968  25.065  23.485  1.00  0.00    -0.250 OA
BRANCH   3   5
ATOM      5  C   UNL A   1      32.487  23.149  23.235  1.00  0.00     0.190 C 
ATOM      6  C   UNL A   1      31.260  24.019  22.986  1.00  0.00     0.044 C 
BRANCH   5   7
ATOM      7  N   UNL A   1      32.375  22.243  24.412  1.00  0.00    -0.345 N 
ATOM      8  C   UNL A   1      31.380  22.657  25.414  1.00  0.00     0.146 C 
BRANCH   7   9
ATOM      9  C   UNL A   1      32.563  20.864  24.336  1.00  0.00     0.151 A 
ATOM     10  C   UNL A   1      33.009  20.089  25.400  1.00  0.00     0.051 A 
ATOM     11  N   UNL A   1      32.265  20.209  23.196  1.00  0.00    -0.132 NA
ATOM     12  C   UNL A   1      33.245  18.716  25.259  1.00  0.00     0.040 A 
ATOM     13  N   UNL A   1      32.518  18.850  23.024  1.00  0.00    -0.143 NA
ATOM     14  C   UNL A   1      33.022  18.131  24.036  1.00  0.00     0.150 A 
BRANCH  14  15
ATOM     15  C   UNL A   1      33.316  16.690  23.801  1.00  0.00     0.269 C 
ATOM     16  N   UNL A   1      32.738  15.789  24.652  1.00  0.00    -0.364 N 
ATOM     17  O   UNL A   1      34.030  16.327  22.873  1.00  0.00    -0.268 OA
ATOM     18  H   UNL A   1      32.167  16.104  25.390  1.00  0.00     0.160 HD
ATOM     19  H   UNL A   1      32.892  14.825  24.527  1.00  0.00     0.160 HD
ENDBRANCH  14  15
ENDBRANCH   7   9
ENDBRANCH   5   7
ENDBRANCH   3   5
ENDBRANCH   2   3
ENDBRANCH   1   2
BRANCH   1  20
ATOM     20  C   UNL A   1      36.321  21.722  24.157  1.00  0.00     0.275 C 
BRANCH  20  21
ATOM     21  O   UNL A   1      36.811  21.876  25.498  1.00  0.00    -0.458 OA
BRANCH  21  22
ATOM     22  C   UNL A   1      38.121  21.604  25.686  1.00  0.00     0.338 C 
ATOM     23  O   UNL A   1      38.722  20.607  25.302  1.00  0.00    -0.246 OA
BRANCH  22  24
ATOM     24  C   UNL A   1      38.774  22.704  26.420  1.00  0.00     0.060 A 
ATOM     25  C   UNL A   1      38.335  24.019  26.257  1.00  0.00     0.016 A 
ATOM     26  C   UNL A   1      39.937  22.444  27.150  1.00  0.00     0.016 A 
ATOM     27  C   UNL A   1      39.123  25.075  26.720  1.00  0.00     0.010 A 
ATOM     28  C   UNL A   1      40.683  23.503  27.680  1.00  0.00     0.010 A 
ATOM     29  C   UNL A   1      40.309  24.833  27.430  1.00  0.00    -0.014 A 
BRANCH  29  30
ATOM     30  C   UNL A   1      41.155  25.955  27.919  1.00  0.00     0.031 A 
ATOM     31  C   UNL A   1      40.588  27.022  28.811  1.00  0.00     0.074 A 
ATOM     32  C   UNL A   1      42.444  26.043  27.552  1.00  0.00     0.049 A 
ATOM     33  N   UNL A   1      40.921  28.279  28.937  1.00  0.00    -0.248 NA
ATOM     34  C   UNL A   1      39.466  26.622  29.659  1.00  0.00     0.031 C 
ATOM     35  C   UNL A   1      43.164  25.062  26.745  1.00  0.00     0.029 A 
ATOM     36  N   UNL A   1      43.366  27.024  27.804  1.00  0.00    -0.354 N 
ATOM     37  C   UNL A   1      39.948  28.848  29.757  1.00  0.00     0.074 A 
ATOM     38  C   UNL A   1      39.035  27.788  30.125  1.00  0.00     0.031 C 
ATOM     39  C   UNL A   1      44.424  25.484  26.572  1.00  0.00     0.029 A 
ATOM     40  C   UNL A   1      44.563  26.807  27.169  1.00  0.00     0.049 A 
ATOM     41  H   UNL A   1      43.190  27.802  28.380  1.00  0.00     0.167 HD
ATOM     42  C   UNL A   1      39.859  30.131  30.185  1.00  0.00     0.034 A 
ATOM     43  C   UNL A   1      45.632  27.613  27.030  1.00  0.00     0.034 A 
ATOM     44  C   UNL A   1      40.939  31.074  30.040  1.00  0.00     0.049 A 
ATOM     45  C   UNL A   1      45.593  28.977  27.653  1.00  0.00     0.074 A 
ATOM     46  C   UNL A   1      41.010  32.387  30.472  1.00  0.00     0.029 A 
ATOM     47  N   UNL A   1      42.181  30.761  29.508  1.00  0.00    -0.354 N 
ATOM     48  N   UNL A   1      44.603  29.568  28.278  1.00  0.00    -0.248 NA
ATOM     49  C   UNL A   1      46.821  29.777  27.573  1.00  0.00     0.031 C 
ATOM     50  C   UNL A   1      42.314  32.846  30.253  1.00  0.00     0.029 A 
ATOM     51  C   UNL A   1      43.049  31.826  29.670  1.00  0.00     0.049 A 
ATOM     52  H   UNL A   1      42.411  29.906  29.077  1.00  0.00     0.167 HD
ATOM     53  C   UNL A   1      45.086  30.808  28.671  1.00  0.00     0.074 A 
ATOM     54  C   UNL A   1      46.471  30.867  28.245  1.00  0.00     0.031 C 
ATOM     55  C   UNL A   1      44.437  31.825  29.293  1.00  0.00     0.034 A 
BRANCH  42  56
ATOM     56  C   UNL A   1      38.614  30.583  30.911  1.00  0.00     0.023 A 
ATOM     57  C   UNL A   1      38.526  30.484  32.313  1.00  0.00     0.012 A 
ATOM     58  C   UNL A   1      37.563  31.207  30.204  1.00  0.00     0.148 A 
ATOM     59  C   UNL A   1      37.405  30.964  32.993  1.00  0.00     0.002 A 
ATOM     60  C   UNL A   1      36.472  31.732  30.893  1.00  0.00     0.091 A 
ATOM     61  F   UNL A   1      37.644  31.280  28.867  1.00  0.00    -0.205 F 
ATOM     62  C   UNL A   1      36.386  31.599  32.287  1.00  0.00     0.022 A 
BRANCH  60  63
ATOM     63  S   UNL A   1      35.178  32.672  30.070  1.00  0.00     0.127 S 
ATOM     64  O   UNL A   1      34.718  31.725  29.056  1.00  0.00    -0.237 OA
ATOM     65  O   UNL A   1      34.224  32.912  31.155  1.00  0.00    -0.237 OA
ATOM     66  O   UNL A   1      35.825  33.876  29.567  1.00  0.00    -0.744 OA
ENDBRANCH  60  63
ENDBRANCH  42  56
BRANCH  43  67
ATOM     67  C   UNL A   1      46.808  27.103  26.279  1.00  0.00     0.023 A 
ATOM     68  C   UNL A   1      46.972  27.457  24.928  1.00  0.00     0.012 A 
ATOM     69  C   UNL A   1      47.840  26.407  26.940  1.00  0.00     0.148 A 
ATOM     70  C   UNL A   1      48.146  27.128  24.249  1.00  0.00     0.002 A 
ATOM     71  C   UNL A   1      49.035  26.151  26.279  1.00  0.00     0.091 A 
ATOM     72  F   UNL A   1      47.659  26.061  28.223  1.00  0.00    -0.205 F 
ATOM     73  C   UNL A   1      49.185  26.497  24.929  1.00  0.00     0.022 A 
BRANCH  71  74
ATOM     74  S   UNL A   1      50.475  25.536  27.163  1.00  0.00     0.127 S 
ATOM     75  O   UNL A   1      49.986  24.267  27.692  1.00  0.00    -0.237 OA
ATOM     76  O   UNL A   1      51.471  25.418  26.097  1.00  0.00    -0.237 OA
ATOM     77  O   UNL A   1      50.783  26.569  28.145  1.00  0.00    -0.744 OA
ENDBRANCH  71  74
ENDBRANCH  43  67
BRANCH  55  78
ATOM     78  C   UNL A   1      45.227  33.071  29.567  1.00  0.00     0.023 A 
ATOM     79  C   UNL A   1      45.985  33.155  30.751  1.00  0.00     0.012 A 
ATOM     80  C   UNL A   1      45.269  34.124  28.635  1.00  0.00     0.148 A 
ATOM     81  C   UNL A   1      46.756  34.284  31.016  1.00  0.00     0.002 A 
ATOM     82  C   UNL A   1      46.064  35.234  28.892  1.00  0.00     0.091 A 
ATOM     83  F   UNL A   1      44.522  34.030  27.526  1.00  0.00    -0.205 F 
ATOM     84  C   UNL A   1      46.802  35.318  30.084  1.00  0.00     0.022 A 
BRANCH  82  85
ATOM     85  S   UNL A   1      46.231  36.581  27.716  1.00  0.00     0.127 S 
ATOM     86  O   UNL A   1      44.882  36.660  27.160  1.00  0.00    -0.237 OA
ATOM     87  O   UNL A   1      46.603  37.707  28.575  1.00  0.00    -0.237 OA
ATOM     88  O   UNL A   1      47.274  36.166  26.786  1.00  0.00    -0.744 OA
ENDBRANCH  82  85
ENDBRANCH  55  78
ENDBRANCH  29  30
ENDBRANCH  22  24
ENDBRANCH  21  22
ENDBRANCH  20  21
ENDBRANCH   1  20
TORSDOF 17
ENDMDL
MODEL 2
REMARK VINA RESULT:     -11.1      4.880      9.713
REMARK SMILES C[C@@H](C(=O)OCCOC(=O)c1ccc(-c2c3nc(c(-c4cccc(S(=O)(=O)[O-])c4F)c4ccc([nH]4)c(-c4cccc(S(=O)(=O)[O-])c4F)c4nc(c(-c5cccc(S(=O)(=O)[O-])c5F)c5ccc2[nH]5)C=C4)C=C3)cc1)N(C)c1ccc(C(N)=O)nn1
REMARK SMILES IDX 6 1 5 2 3 3 4 4 2 5 1 6 74 7 75 8 76 9 77 10 84 11 78 12
REMARK SMILES IDX 83 13 79 14 80 15 81 16 82 17 7 20 8 21 9 22 10 23 11 24
REMARK SMILES IDX 12 25 73 26 13 27 72 28 14 29 15 30 16 31 66 32 17 33 71 34
REMARK SMILES IDX 65 35 67 36 18 37 70 38 64 39 63 40 19 42 51 43 31 44 50 45
REMARK SMILES IDX 32 46 35 47 49 48 68 49 33 50 34 51 48 53 69 54 36 55 20 56
REMARK SMILES IDX 21 57 29 58 22 59 24 60 30 61 23 62 25 63 26 64 27 65 28 66
REMARK SMILES IDX 52 67 53 68 61 69 54 70 56 71 62 72 55 73 57 74 58 75 59 76
REMARK SMILES IDX 60 77 37 78 38 79 46 80 39 81 41 82 47 83 40 84 42 85 43 86
REMARK SMILES IDX 44 87 45 88
REMARK H PARENT 81 18 81 19 67 41 35 52
REMARK Flexibility Score: inf
ROOT
ATOM      1  C   UNL A   1      30.985  29.252  24.497  1.00  0.00     0.274 C 
ENDROOT
BRANCH   1   2
ATOM      2  O   UNL A   1      31.048  28.024  25.254  1.00  0.00    -0.461 OA
BRANCH   2   3
ATOM      3  C   UNL A   1      30.853  26.870  24.555  1.00  0.00     0.328 C 
ATOM      4  O   UNL A   1      29.780  26.533  24.062  1.00  0.00    -0.250 OA
BRANCH   3   5
ATOM      5  C   UNL A   1      32.111  25.986  24.501  1.00  0.00     0.190 C 
ATOM      6  C   UNL A   1      33.431  26.746  24.430  1.00  0.00     0.044 C 
BRANCH   5   7
ATOM      7  N   UNL A   1      31.997  24.852  23.543  1.00  0.00    -0.345 N 
ATOM      8  C   UNL A   1      32.482  25.145  22.184  1.00  0.00     0.146 C 
BRANCH   7   9
ATOM      9  C   UNL A   1      32.133  23.517  23.917  1.00  0.00     0.151 A 
ATOM     10  C   UNL A   1      31.503  22.959  25.023  1.00  0.00     0.051 A 
ATOM     11  N   UNL A   1      32.876  22.681  23.162  1.00  0.00    -0.132 NA
ATOM     12  C   UNL A   1      31.721  21.627  25.397  1.00  0.00     0.040 A 
ATOM     13  N   UNL A   1      33.128  21.362  23.530  1.00  0.00    -0.143 NA
ATOM     14  C   UNL A   1      32.576  20.861  24.643  1.00  0.00     0.150 A 
BRANCH  14  15
ATOM     15  C   UNL A   1      32.902  19.460  25.025  1.00  0.00     0.269 C 
ATOM     16  N   UNL A   1      34.225  19.149  25.186  1.00  0.00    -0.364 N 
ATOM     17  O   UNL A   1      32.022  18.626  25.206  1.00  0.00    -0.268 OA
ATOM     18  H   UNL A   1      34.914  19.836  25.035  1.00  0.00     0.160 HD
ATOM     19  H   UNL A   1      34.488  18.239  25.451  1.00  0.00     0.160 HD
ENDBRANCH  14  15
ENDBRANCH   7   9
ENDBRANCH   5   7
ENDBRANCH   3   5
ENDBRANCH   2   3
ENDBRANCH   1   2
BRANCH   1  20
ATOM     20  C   UNL A   1      31.262  30.455  25.390  1.00  0.00     0.275 C 
BRANCH  20  21
ATOM     21  O   UNL A   1      32.466  30.221  26.137  1.00  0.00    -0.458 OA
BRANCH  21  22
ATOM     22  C   UNL A   1      32.885  31.239  26.920  1.00  0.00     0.338 C 
ATOM     23  O   UNL A   1      32.238  32.230  27.239  1.00  0.00    -0.246 OA
BRANCH  22  24
ATOM     24  C   UNL A   1      34.265  30.997  27.383  1.00  0.00     0.060 A 
ATOM     25  C   UNL A   1      34.698  29.700  27.663  1.00  0.00     0.016 A 
ATOM     26  C   UNL A   1      35.083  32.087  27.696  1.00  0.00     0.016 A 
ATOM     27  C   UNL A   1      35.889  29.503  28.363  1.00  0.00     0.010 A 
ATOM     28  C   UNL A   1      36.314  31.879  28.328  1.00  0.00     0.010 A 
ATOM     29  C   UNL A   1      36.710  30.587  28.711  1.00  0.00    -0.014 A 
BRANCH  29  30
ATOM     30  C   UNL A   1      37.977  30.383  29.463  1.00  0.00     0.031 A 
ATOM     31  C   UNL A   1      39.091  29.552  28.894  1.00  0.00     0.074 A 
ATOM     32  C   UNL A   1      38.139  30.926  30.681  1.00  0.00     0.049 A 
ATOM     33  N   UNL A   1      39.999  28.834  29.498  1.00  0.00    -0.248 NA
ATOM     34  C   UNL A   1      39.172  29.498  27.435  1.00  0.00     0.031 C 
ATOM     35  C   UNL A   1      37.185  31.807  31.349  1.00  0.00     0.029 A 
ATOM     36  N   UNL A   1      39.168  30.793  31.575  1.00  0.00    -0.354 N 
ATOM     37  C   UNL A   1      40.653  28.125  28.491  1.00  0.00     0.074 A 
ATOM     38  C   UNL A   1      40.057  28.529  27.237  1.00  0.00     0.031 C 
ATOM     39  C   UNL A   1      37.675  32.146  32.549  1.00  0.00     0.029 A 
ATOM     40  C   UNL A   1      38.924  31.424  32.768  1.00  0.00     0.049 A 
ATOM     41  H   UNL A   1      39.996  30.296  31.382  1.00  0.00     0.167 HD
ATOM     42  C   UNL A   1      41.679  27.249  28.615  1.00  0.00     0.034 A 
ATOM     43  C   UNL A   1      39.600  31.376  33.931  1.00  0.00     0.034 A 
ATOM     44  C   UNL A   1      42.432  27.101  29.836  1.00  0.00     0.049 A 
ATOM     45  C   UNL A   1      40.837  30.533  34.013  1.00  0.00     0.074 A 
ATOM     46  C   UNL A   1      43.527  26.295  30.090  1.00  0.00     0.029 A 
ATOM     47  N   UNL A   1      42.226  27.865  30.975  1.00  0.00    -0.354 N 
ATOM     48  N   UNL A   1      41.348  29.732  33.107  1.00  0.00    -0.248 NA
ATOM     49  C   UNL A   1      41.603  30.598  35.263  1.00  0.00     0.031 C 
ATOM     50  C   UNL A   1      44.017  26.615  31.362  1.00  0.00     0.029 A 
ATOM     51  C   UNL A   1      43.217  27.608  31.905  1.00  0.00     0.049 A 
ATOM     52  H   UNL A   1      41.483  28.499  31.103  1.00  0.00     0.167 HD
ATOM     53  C   UNL A   1      42.497  29.200  33.674  1.00  0.00     0.074 A 
ATOM     54  C   UNL A   1      42.628  29.800  34.988  1.00  0.00     0.031 C 
ATOM     55  C   UNL A   1      43.351  28.272  33.174  1.00  0.00     0.034 A 
BRANCH  42  56
ATOM     56  C   UNL A   1      42.111  26.442  27.414  1.00  0.00     0.023 A 
ATOM     57  C   UNL A   1      42.932  27.015  26.423  1.00  0.00     0.012 A 
ATOM     58  C   UNL A   1      41.785  25.071  27.319  1.00  0.00     0.148 A 
ATOM     59  C   UNL A   1      43.389  26.253  25.346  1.00  0.00     0.002 A 
ATOM     60  C   UNL A   1      42.289  24.303  26.272  1.00  0.00     0.091 A 
ATOM     61  F   UNL A   1      40.987  24.536  28.256  1.00  0.00    -0.205 F 
ATOM     62  C   UNL A   1      43.080  24.896  25.278  1.00  0.00     0.022 A 
BRANCH  60  63
ATOM     63  S   UNL A   1      42.038  22.525  26.179  1.00  0.00     0.127 S 
ATOM     64  O   UNL A   1      42.679  22.197  24.907  1.00  0.00    -0.237 OA
ATOM     65  O   UNL A   1      42.754  22.042  27.362  1.00  0.00    -0.237 OA
ATOM     66  O   UNL A   1      40.596  22.327  26.231  1.00  0.00    -0.744 OA
ENDBRANCH  60  63
ENDBRANCH  42  56
BRANCH  43  67
ATOM     67  C   UNL A   1      39.095  32.179  35.075  1.00  0.00     0.023 A 
ATOM     68  C   UNL A   1      38.281  31.566  36.044  1.00  0.00     0.012 A 
ATOM     69  C   UNL A   1      39.549  33.497  35.288  1.00  0.00     0.148 A 
ATOM     70  C   UNL A   1      37.930  32.251  37.208  1.00  0.00     0.002 A 
ATOM     71  C   UNL A   1      39.258  34.143  36.482  1.00  0.00     0.091 A 
ATOM     72  F   UNL A   1      40.308  34.072  34.344  1.00  0.00    -0.205 F 
ATOM     73  C   UNL A   1      38.437  33.529  37.438  1.00  0.00     0.022 A 
BRANCH  71  74
ATOM     74  S   UNL A   1      40.055  35.695  36.920  1.00  0.00     0.127 S 
ATOM     75  O   UNL A   1      39.518  35.945  38.253  1.00  0.00    -0.237 OA
ATOM     76  O   UNL A   1      41.474  35.340  36.883  1.00  0.00    -0.237 OA
ATOM     77  O   UNL A   1      39.654  36.630  35.876  1.00  0.00    -0.744 OA
ENDBRANCH  71  74
ENDBRANCH  43  67
BRANCH  55  78
ATOM     78  C   UNL A   1      44.507  27.870  34.043  1.00  0.00     0.023 A 
ATOM     79  C   UNL A   1      45.705  28.608  33.973  1.00  0.00     0.012 A 
ATOM     80  C   UNL A   1      44.391  26.813  34.964  1.00  0.00     0.148 A 
ATOM     81  C   UNL A   1      46.783  28.282  34.793  1.00  0.00     0.002 A 
ATOM     82  C   UNL A   1      45.460  26.512  35.799  1.00  0.00     0.091 A 
ATOM     83  F   UNL A   1      43.249  26.111  34.996  1.00  0.00    -0.205 F 
ATOM     84  C   UNL A   1      46.658  27.241  35.710  1.00  0.00     0.022 A 
BRANCH  82  85
ATOM     85  S   UNL A   1      45.360  25.230  37.052  1.00  0.00     0.127 S 
ATOM     86  O   UNL A   1      46.684  25.312  37.668  1.00  0.00    -0.237 OA
ATOM     87  O   UNL A   1      44.264  25.701  37.900  1.00  0.00    -0.237 OA
ATOM     88  O   UNL A   1      45.075  23.995  36.333  1.00  0.00    -0.744 OA
ENDBRANCH  82  85
ENDBRANCH  55  78
ENDBRANCH  29  30
ENDBRANCH  22  24
ENDBRANCH  21  22
ENDBRANCH  20  21
ENDBRANCH   1  20
TORSDOF 17
ENDMDL
MODEL 3
REMARK VINA RESULT:     -11.0      2.100      3.804
REMARK SMILES C[C@@H](C(=O)OCCOC(=O)c1ccc(-c2c3nc(c(-c4cccc(S(=O)(=O)[O-])c4F)c4ccc([nH]4)c(-c4cccc(S(=O)(=O)[O-])c4F)c4nc(c(-c5cccc(S(=O)(=O)[O-])c5F)c5ccc2[nH]5)C=C4)C=C3)cc1)N(C)c1ccc(C(N)=O)nn1
REMARK SMILES IDX 6 1 5 2 3 3 4 4 2 5 1 6 74 7 75 8 76 9 77 10 84 11 78 12
REMARK SMILES IDX 83 13 79 14 80 15 81 16 82 17 7 20 8 21 9 22 10 23 11 24
REMARK SMILES IDX 12 25 73 26 13 27 72 28 14 29 15 30 16 31 66 32 17 33 71 34
REMARK SMILES IDX 65 35 67 36 18 37 70 38 64 39 63 40 19 42 51 43 31 44 50 45
REMARK SMILES IDX 32 46 35 47 49 48 68 49 33 50 34 51 48 53 69 54 36 55 20 56
REMARK SMILES IDX 21 57 29 58 22 59 24 60 30 61 23 62 25 63 26 64 27 65 28 66
REMARK SMILES IDX 52 67 53 68 61 69 54 70 56 71 62 72 55 73 57 74 58 75 59 76
REMARK SMILES IDX 60 77 37 78 38 79 46 80 39 81 41 82 47 83 40 84 42 85 43 86
REMARK SMILES IDX 44 87 45 88
REMARK H PARENT 81 18 81 19 67 41 35 52
REMARK Flexibility Score: inf
ROOT
ATOM      1  C   UNL A   1      34.107  21.410  25.016  1.00  0.00     0.274 C 
ENDROOT
BRANCH   1   2
ATOM      2  O   UNL A   1      34.268  22.380  23.958  1.00  0.00    -0.461 OA
BRANCH   2   3
ATOM      3  C   UNL A   1      33.154  23.079  23.602  1.00  0.00     0.328 C 
ATOM      4  O   UNL A   1      32.204  22.602  22.987  1.00  0.00    -0.250 OA
BRANCH   3   5
ATOM      5  C   UNL A   1      33.233  24.566  23.993  1.00  0.00     0.190 C 
ATOM      6  C   UNL A   1      34.428  24.941  24.861  1.00  0.00     0.044 C 
BRANCH   5   7
ATOM      7  N   UNL A   1      31.932  25.126  24.453  1.00  0.00    -0.345 N 
ATOM      8  C   UNL A   1      31.589  24.816  25.850  1.00  0.00     0.146 C 
BRANCH   7   9
ATOM      9  C   UNL A   1      31.419  26.340  24.000  1.00  0.00     0.151 A 
ATOM     10  C   UNL A   1      31.233  27.449  24.817  1.00  0.00     0.051 A 
ATOM     11  N   UNL A   1      31.116  26.495  22.695  1.00  0.00    -0.132 NA
ATOM     12  C   UNL A   1      30.654  28.629  24.331  1.00  0.00     0.040 A 
ATOM     13  N   UNL A   1      30.513  27.647  22.197  1.00  0.00    -0.143 NA
ATOM     14  C   UNL A   1      30.268  28.680  23.013  1.00  0.00     0.150 A 
BRANCH  14  15
ATOM     15  C   UNL A   1      29.586  29.879  22.452  1.00  0.00     0.269 C 
ATOM     16  N   UNL A   1      30.088  30.394  21.288  1.00  0.00    -0.364 N 
ATOM     17  O   UNL A   1      28.606  30.371  22.999  1.00  0.00    -0.268 OA
ATOM     18  H   UNL A   1      30.877  29.981  20.867  1.00  0.00     0.160 HD
ATOM     19  H   UNL A   1      29.662  31.177  20.872  1.00  0.00     0.160 HD
ENDBRANCH  14  15
ENDBRANCH   7   9
ENDBRANCH   5   7
ENDBRANCH   3   5
ENDBRANCH   2   3
ENDBRANCH   1   2
BRANCH   1  20
ATOM     20  C   UNL A   1      35.406  20.652  25.260  1.00  0.00     0.275 C 
BRANCH  20  21
ATOM     21  O   UNL A   1      36.423  21.578  25.671  1.00  0.00    -0.458 OA
BRANCH  21  22
ATOM     22  C   UNL A   1      37.698  21.143  25.568  1.00  0.00     0.338 C 
ATOM     23  O   UNL A   1      38.062  20.015  25.260  1.00  0.00    -0.246 OA
BRANCH  22  24
ATOM     24  C   UNL A   1      38.640  22.240  25.864  1.00  0.00     0.060 A 
ATOM     25  C   UNL A   1      39.922  21.959  26.339  1.00  0.00     0.016 A 
ATOM     26  C   UNL A   1      38.186  23.561  25.825  1.00  0.00     0.016 A 
ATOM     27  C   UNL A   1      40.699  22.983  26.884  1.00  0.00     0.010 A 
ATOM     28  C   UNL A   1      39.001  24.595  26.299  1.00  0.00     0.010 A 
ATOM     29  C   UNL A   1      40.249  24.312  26.878  1.00  0.00    -0.014 A 
BRANCH  29  30
ATOM     30  C   UNL A   1      41.070  25.405  27.463  1.00  0.00     0.031 A 
ATOM     31  C   UNL A   1      40.458  26.435  28.368  1.00  0.00     0.074 A 
ATOM     32  C   UNL A   1      42.378  25.502  27.172  1.00  0.00     0.049 A 
ATOM     33  N   UNL A   1      40.787  27.683  28.567  1.00  0.00    -0.248 NA
ATOM     34  C   UNL A   1      39.288  26.006  29.133  1.00  0.00     0.031 C 
ATOM     35  C   UNL A   1      43.139  24.552  26.365  1.00  0.00     0.029 A 
ATOM     36  N   UNL A   1      43.289  26.464  27.519  1.00  0.00    -0.354 N 
ATOM     37  C   UNL A   1      39.772  28.222  29.357  1.00  0.00     0.074 A 
ATOM     38  C   UNL A   1      38.837  27.152  29.625  1.00  0.00     0.031 C 
ATOM     39  C   UNL A   1      44.408  24.974  26.281  1.00  0.00     0.029 A 
ATOM     40  C   UNL A   1      44.519  26.269  26.943  1.00  0.00     0.049 A 
ATOM     41  H   UNL A   1      43.083  27.218  28.119  1.00  0.00     0.167 HD
ATOM     42  C   UNL A   1      39.664  29.485  29.835  1.00  0.00     0.034 A 
ATOM     43  C   UNL A   1      45.596  27.074  26.900  1.00  0.00     0.034 A 
ATOM     44  C   UNL A   1      40.754  30.428  29.793  1.00  0.00     0.049 A 
ATOM     45  C   UNL A   1      45.528  28.408  27.581  1.00  0.00     0.074 A 
ATOM     46  C   UNL A   1      40.806  31.719  30.286  1.00  0.00     0.029 A 
ATOM     47  N   UNL A   1      42.023  30.131  29.318  1.00  0.00    -0.354 N 
ATOM     48  N   UNL A   1      44.506  28.978  28.175  1.00  0.00    -0.248 NA
ATOM     49  C   UNL A   1      46.761  29.204  27.605  1.00  0.00     0.031 C 
ATOM     50  C   UNL A   1      42.122  32.180  30.161  1.00  0.00     0.029 A 
ATOM     51  C   UNL A   1      42.884  31.182  29.576  1.00  0.00     0.049 A 
ATOM     52  H   UNL A   1      42.274  29.294  28.864  1.00  0.00     0.167 HD
ATOM     53  C   UNL A   1      44.970  30.197  28.648  1.00  0.00     0.074 A 
ATOM     54  C   UNL A   1      46.377  30.266  28.304  1.00  0.00     0.031 C 
ATOM     55  C   UNL A   1      44.292  31.188  29.278  1.00  0.00     0.034 A 
BRANCH  42  56
ATOM     56  C   UNL A   1      38.382  29.912  30.510  1.00  0.00     0.023 A 
ATOM     57  C   UNL A   1      38.147  29.605  31.864  1.00  0.00     0.012 A 
ATOM     58  C   UNL A   1      37.447  30.717  29.821  1.00  0.00     0.148 A 
ATOM     59  C   UNL A   1      36.994  30.057  32.509  1.00  0.00     0.002 A 
ATOM     60  C   UNL A   1      36.326  31.210  30.485  1.00  0.00     0.091 A 
ATOM     61  F   UNL A   1      37.667  30.989  28.525  1.00  0.00    -0.205 F 
ATOM     62  C   UNL A   1      36.092  30.870  31.826  1.00  0.00     0.022 A 
BRANCH  60  63
ATOM     63  S   UNL A   1      35.181  32.361  29.711  1.00  0.00     0.127 S 
ATOM     64  O   UNL A   1      34.589  31.535  28.660  1.00  0.00    -0.237 OA
ATOM     65  O   UNL A   1      34.271  32.688  30.811  1.00  0.00    -0.237 OA
ATOM     66  O   UNL A   1      35.995  33.479  29.255  1.00  0.00    -0.744 OA
ENDBRANCH  60  63
ENDBRANCH  42  56
BRANCH  43  67
ATOM     67  C   UNL A   1      46.811  26.590  26.195  1.00  0.00     0.023 A 
ATOM     68  C   UNL A   1      46.977  26.876  24.828  1.00  0.00     0.012 A 
ATOM     69  C   UNL A   1      47.870  25.992  26.908  1.00  0.00     0.148 A 
ATOM     70  C   UNL A   1      48.178  26.577  24.184  1.00  0.00     0.002 A 
ATOM     71  C   UNL A   1      49.088  25.767  26.278  1.00  0.00     0.091 A 
ATOM     72  F   UNL A   1      47.688  25.709  28.205  1.00  0.00    -0.205 F 
ATOM     73  C   UNL A   1      49.240  26.045  24.912  1.00  0.00     0.022 A 
BRANCH  71  74
ATOM     74  S   UNL A   1      50.546  25.286  27.213  1.00  0.00     0.127 S 
ATOM     75  O   UNL A   1      50.821  26.493  27.987  1.00  0.00    -0.237 OA
ATOM     76  O   UNL A   1      50.056  24.150  27.996  1.00  0.00    -0.237 OA
ATOM     77  O   UNL A   1      51.536  24.924  26.206  1.00  0.00    -0.744 OA
ENDBRANCH  71  74
ENDBRANCH  43  67
BRANCH  55  78
ATOM     78  C   UNL A   1      45.069  32.416  29.651  1.00  0.00     0.023 A 
ATOM     79  C   UNL A   1      45.723  32.461  30.898  1.00  0.00     0.012 A 
ATOM     80  C   UNL A   1      45.205  33.491  28.753  1.00  0.00     0.148 A 
ATOM     81  C   UNL A   1      46.481  33.572  31.257  1.00  0.00     0.002 A 
ATOM     82  C   UNL A   1      45.988  34.583  29.106  1.00  0.00     0.091 A 
ATOM     83  F   UNL A   1      44.555  33.435  27.581  1.00  0.00    -0.205 F 
ATOM     84  C   UNL A   1      46.620  34.629  30.359  1.00  0.00     0.022 A 
BRANCH  82  85
ATOM     85  S   UNL A   1      46.272  35.956  27.984  1.00  0.00     0.127 S 
ATOM     86  O   UNL A   1      44.938  36.547  27.891  1.00  0.00    -0.237 OA
ATOM     87  O   UNL A   1      47.248  36.766  28.715  1.00  0.00    -0.237 OA
ATOM     88  O   UNL A   1      46.785  35.363  26.756  1.00  0.00    -0.744 OA
ENDBRANCH  82  85
ENDBRANCH  55  78
ENDBRANCH  29  30
ENDBRANCH  22  24
ENDBRANCH  21  22
ENDBRANCH  20  21
ENDBRANCH   1  20
TORSDOF 17
ENDMDL
