MODEL 1
REMARK VINA RESULT:     -11.3      0.000      0.000
REMARK SMILES C[C@@H]1[C@H](C(=O)OCCOC(=O)c2ccc(-c3c4nc(c(-c5cccc(S(=O)(=O)[O-])c5F)c5ccc([nH]5)c(-c5cccc(S(=O)(=O)[O-])c5F)c5nc(c(-c6cccc(S(=O)(=O)[O-])c6F)c6ccc3[nH]6)C=C5)C=C4)cc2)CCN1C(=O)COCc1ccccc1
REMARK SMILES IDX 7 1 6 2 4 3 5 4 3 5 1 6 2 7 77 8 75 9 76 10 78 11 79 12
REMARK SMILES IDX 80 13 81 14 82 15 83 16 84 17 88 18 85 19 87 20 86 21 8 22
REMARK SMILES IDX 9 23 10 24 11 25 12 26 13 27 74 28 14 29 73 30 15 31 16 32
REMARK SMILES IDX 17 33 67 34 18 35 72 36 66 37 68 38 19 39 71 40 65 41 64 42
REMARK SMILES IDX 20 44 52 45 32 46 51 47 33 48 36 49 50 50 69 51 34 52 35 53
REMARK SMILES IDX 49 55 70 56 37 57 21 58 22 59 30 60 23 61 25 62 31 63 24 64
REMARK SMILES IDX 26 65 27 66 28 67 29 68 53 69 54 70 62 71 55 72 57 73 63 74
REMARK SMILES IDX 56 75 58 76 59 77 60 78 61 79 38 80 39 81 47 82 40 83 42 84
REMARK SMILES IDX 48 85 41 86 43 87 44 88 45 89 46 90
REMARK H PARENT 68 43 36 54
REMARK Flexibility Score: inf
ROOT
ATOM      1  C   UNL A   1      34.973  20.601  25.138  1.00  0.00     0.274 C 
ENDROOT
BRANCH   1   2
ATOM      2  O   UNL A   1      34.626  21.825  24.461  1.00  0.00    -0.462 OA
BRANCH   2   3
ATOM      3  C   UNL A   1      34.051  22.794  25.206  1.00  0.00     0.311 C 
ATOM      4  O   UNL A   1      33.468  22.594  26.266  1.00  0.00    -0.252 OA
BRANCH   3   5
ATOM      5  C   UNL A   1      34.164  24.181  24.621  1.00  0.00     0.123 C 
ATOM      6  C   UNL A   1      31.955  24.189  23.244  1.00  0.00     0.032 C 
ATOM      7  C   UNL A   1      33.427  24.597  23.336  1.00  0.00     0.096 C 
ATOM      8  N   UNL A   1      33.531  26.070  23.404  1.00  0.00    -0.337 N 
ATOM      9  C   UNL A   1      33.777  25.271  25.616  1.00  0.00     0.039 C 
ATOM     10  C   UNL A   1      33.841  26.520  24.753  1.00  0.00     0.121 C 
BRANCH   8  11
ATOM     11  C   UNL A   1      33.512  26.976  22.363  1.00  0.00     0.248 C 
ATOM     12  O   UNL A   1      33.636  26.607  21.192  1.00  0.00    -0.272 OA
BRANCH  11  13
ATOM     13  C   UNL A   1      33.324  28.466  22.696  1.00  0.00     0.260 C 
BRANCH  13  14
ATOM     14  O   UNL A   1      32.056  29.044  22.433  1.00  0.00    -0.367 OA
BRANCH  14  15
ATOM     15  C   UNL A   1      30.974  28.430  23.140  1.00  0.00     0.196 C 
BRANCH  15  16
ATOM     16  C   UNL A   1      29.772  29.330  23.284  1.00  0.00    -0.022 A 
ATOM     17  C   UNL A   1      28.504  28.881  22.888  1.00  0.00     0.006 A 
ATOM     18  C   UNL A   1      29.903  30.628  23.797  1.00  0.00     0.006 A 
ATOM     19  C   UNL A   1      27.395  29.723  22.980  1.00  0.00     0.000 A 
ATOM     20  C   UNL A   1      28.794  31.472  23.882  1.00  0.00     0.000 A 
ATOM     21  C   UNL A   1      27.542  31.019  23.470  1.00  0.00     0.000 A 
ENDBRANCH  15  16
ENDBRANCH  14  15
ENDBRANCH  13  14
ENDBRANCH  11  13
ENDBRANCH   8  11
ENDBRANCH   3   5
ENDBRANCH   2   3
ENDBRANCH   1   2
BRANCH   1  22
ATOM     22  C   UNL A   1      36.468  20.301  24.982  1.00  0.00     0.275 C 
BRANCH  22  23
ATOM     23  O   UNL A   1      37.286  21.400  25.426  1.00  0.00    -0.458 OA
BRANCH  23  24
ATOM     24  C   UNL A   1      38.541  21.065  25.810  1.00  0.00     0.338 C 
ATOM     25  O   UNL A   1      39.097  19.993  25.638  1.00  0.00    -0.246 OA
BRANCH  24  26
ATOM     26  C   UNL A   1      39.234  22.246  26.349  1.00  0.00     0.060 A 
ATOM     27  C   UNL A   1      38.771  23.506  25.959  1.00  0.00     0.016 A 
ATOM     28  C   UNL A   1      40.359  22.126  27.164  1.00  0.00     0.016 A 
ATOM     29  C   UNL A   1      39.430  24.656  26.380  1.00  0.00     0.010 A 
ATOM     30  C   UNL A   1      41.022  23.284  27.587  1.00  0.00     0.010 A 
ATOM     31  C   UNL A   1      40.567  24.553  27.189  1.00  0.00    -0.014 A 
BRANCH  31  32
ATOM     32  C   UNL A   1      41.294  25.781  27.586  1.00  0.00     0.031 A 
ATOM     33  C   UNL A   1      40.589  26.844  28.380  1.00  0.00     0.074 A 
ATOM     34  C   UNL A   1      42.586  25.931  27.243  1.00  0.00     0.049 A 
ATOM     35  N   UNL A   1      41.032  28.009  28.773  1.00  0.00    -0.248 NA
ATOM     36  C   UNL A   1      39.203  26.558  28.786  1.00  0.00     0.031 C 
ATOM     37  C   UNL A   1      43.376  24.955  26.490  1.00  0.00     0.029 A 
ATOM     38  N   UNL A   1      43.458  26.966  27.468  1.00  0.00    -0.354 N 
ATOM     39  C   UNL A   1      39.975  28.612  29.442  1.00  0.00     0.074 A 
ATOM     40  C   UNL A   1      38.863  27.685  29.400  1.00  0.00     0.031 C 
ATOM     41  C   UNL A   1      44.614  25.443  26.306  1.00  0.00     0.029 A 
ATOM     42  C   UNL A   1      44.693  26.778  26.894  1.00  0.00     0.049 A 
ATOM     43  H   UNL A   1      43.222  27.766  27.991  1.00  0.00     0.167 HD
ATOM     44  C   UNL A   1      39.938  29.821  30.049  1.00  0.00     0.034 A 
ATOM     45  C   UNL A   1      45.760  27.598  26.831  1.00  0.00     0.034 A 
ATOM     46  C   UNL A   1      41.056  30.724  30.116  1.00  0.00     0.049 A 
ATOM     47  C   UNL A   1      45.683  28.945  27.497  1.00  0.00     0.074 A 
ATOM     48  C   UNL A   1      41.125  31.964  30.727  1.00  0.00     0.029 A 
ATOM     49  N   UNL A   1      42.301  30.485  29.557  1.00  0.00    -0.354 N 
ATOM     50  N   UNL A   1      44.702  29.466  28.195  1.00  0.00    -0.248 NA
ATOM     51  C   UNL A   1      46.867  29.810  27.388  1.00  0.00     0.031 C 
ATOM     52  C   UNL A   1      42.411  32.478  30.528  1.00  0.00     0.029 A 
ATOM     53  C   UNL A   1      43.146  31.553  29.804  1.00  0.00     0.049 A 
ATOM     54  H   UNL A   1      42.548  29.673  29.056  1.00  0.00     0.167 HD
ATOM     55  C   UNL A   1      45.160  30.704  28.631  1.00  0.00     0.074 A 
ATOM     56  C   UNL A   1      46.515  30.845  28.139  1.00  0.00     0.031 C 
ATOM     57  C   UNL A   1      44.511  31.648  29.355  1.00  0.00     0.034 A 
BRANCH  44  58
ATOM     58  C   UNL A   1      38.655  30.226  30.722  1.00  0.00     0.023 A 
ATOM     59  C   UNL A   1      38.449  29.894  32.076  1.00  0.00     0.012 A 
ATOM     60  C   UNL A   1      37.680  30.979  30.039  1.00  0.00     0.148 A 
ATOM     61  C   UNL A   1      37.284  30.284  32.735  1.00  0.00     0.002 A 
ATOM     62  C   UNL A   1      36.536  31.395  30.711  1.00  0.00     0.091 A 
ATOM     63  F   UNL A   1      37.882  31.262  28.744  1.00  0.00    -0.205 F 
ATOM     64  C   UNL A   1      36.333  31.043  32.056  1.00  0.00     0.022 A 
BRANCH  62  65
ATOM     65  S   UNL A   1      35.286  32.429  29.939  1.00  0.00     0.127 S 
ATOM     66  O   UNL A   1      34.339  32.617  31.038  1.00  0.00    -0.237 OA
ATOM     67  O   UNL A   1      36.050  33.626  29.584  1.00  0.00    -0.237 OA
ATOM     68  O   UNL A   1      34.786  31.671  28.802  1.00  0.00    -0.744 OA
ENDBRANCH  62  65
ENDBRANCH  44  58
BRANCH  45  69
ATOM     69  C   UNL A   1      47.004  27.151  26.143  1.00  0.00     0.023 A 
ATOM     70  C   UNL A   1      47.167  27.414  24.770  1.00  0.00     0.012 A 
ATOM     71  C   UNL A   1      48.036  26.497  26.844  1.00  0.00     0.148 A 
ATOM     72  C   UNL A   1      48.324  27.011  24.101  1.00  0.00     0.002 A 
ATOM     73  C   UNL A   1      49.209  26.147  26.184  1.00  0.00     0.091 A 
ATOM     74  F   UNL A   1      47.854  26.232  28.146  1.00  0.00    -0.205 F 
ATOM     75  C   UNL A   1      49.349  26.389  24.810  1.00  0.00     0.022 A 
BRANCH  73  76
ATOM     76  S   UNL A   1      50.624  25.465  27.057  1.00  0.00     0.127 S 
ATOM     77  O   UNL A   1      50.959  26.549  27.977  1.00  0.00    -0.237 OA
ATOM     78  O   UNL A   1      50.052  24.275  27.689  1.00  0.00    -0.237 OA
ATOM     79  O   UNL A   1      51.610  25.175  26.024  1.00  0.00    -0.744 OA
ENDBRANCH  73  76
ENDBRANCH  45  69
BRANCH  57  80
ATOM     80  C   UNL A   1      45.263  32.910  29.684  1.00  0.00     0.023 A 
ATOM     81  C   UNL A   1      46.049  32.965  30.853  1.00  0.00     0.012 A 
ATOM     82  C   UNL A   1      45.253  34.009  28.804  1.00  0.00     0.148 A 
ATOM     83  C   UNL A   1      46.792  34.105  31.153  1.00  0.00     0.002 A 
ATOM     84  C   UNL A   1      46.030  35.126  29.089  1.00  0.00     0.091 A 
ATOM     85  F   UNL A   1      44.481  33.946  27.708  1.00  0.00    -0.205 F 
ATOM     86  C   UNL A   1      46.793  35.180  30.266  1.00  0.00     0.022 A 
BRANCH  84  87
ATOM     87  S   UNL A   1      46.157  36.517  27.959  1.00  0.00     0.127 S 
ATOM     88  O   UNL A   1      46.661  35.875  26.748  1.00  0.00    -0.237 OA
ATOM     89  O   UNL A   1      44.769  36.978  27.873  1.00  0.00    -0.237 OA
ATOM     90  O   UNL A   1      47.064  37.464  28.594  1.00  0.00    -0.744 OA
ENDBRANCH  84  87
ENDBRANCH  57  80
ENDBRANCH  31  32
ENDBRANCH  24  26
ENDBRANCH  23  24
ENDBRANCH  22  23
ENDBRANCH   1  22
TORSDOF 19
ENDMDL
MODEL 2
REMARK VINA RESULT:     -11.1      5.170     10.279
REMARK SMILES C[C@@H]1[C@H](C(=O)OCCOC(=O)c2ccc(-c3c4nc(c(-c5cccc(S(=O)(=O)[O-])c5F)c5ccc([nH]5)c(-c5cccc(S(=O)(=O)[O-])c5F)c5nc(c(-c6cccc(S(=O)(=O)[O-])c6F)c6ccc3[nH]6)C=C5)C=C4)cc2)CCN1C(=O)COCc1ccccc1
REMARK SMILES IDX 7 1 6 2 4 3 5 4 3 5 1 6 2 7 77 8 75 9 76 10 78 11 79 12
REMARK SMILES IDX 80 13 81 14 82 15 83 16 84 17 88 18 85 19 87 20 86 21 8 22
REMARK SMILES IDX 9 23 10 24 11 25 12 26 13 27 74 28 14 29 73 30 15 31 16 32
REMARK SMILES IDX 17 33 67 34 18 35 72 36 66 37 68 38 19 39 71 40 65 41 64 42
REMARK SMILES IDX 20 44 52 45 32 46 51 47 33 48 36 49 50 50 69 51 34 52 35 53
REMARK SMILES IDX 49 55 70 56 37 57 21 58 22 59 30 60 23 61 25 62 31 63 24 64
REMARK SMILES IDX 26 65 27 66 28 67 29 68 53 69 54 70 62 71 55 72 57 73 63 74
REMARK SMILES IDX 56 75 58 76 59 77 60 78 61 79 38 80 39 81 47 82 40 83 42 84
REMARK SMILES IDX 48 85 41 86 43 87 44 88 45 89 46 90
REMARK H PARENT 68 43 36 54
REMARK Flexibility Score: inf
ROOT
ATOM      1  C   UNL A   1      31.547  28.902  25.697  1.00  0.00     0.274 C 
ENDROOT
BRANCH   1   2
ATOM      2  O   UNL A   1      31.328  28.762  24.279  1.00  0.00    -0.462 OA
BRANCH   2   3
ATOM      3  C   UNL A   1      32.411  28.502  23.516  1.00  0.00     0.311 C 
ATOM      4  O   UNL A   1      33.242  29.343  23.189  1.00  0.00    -0.252 OA
BRANCH   3   5
ATOM      5  C   UNL A   1      32.527  27.067  23.065  1.00  0.00     0.123 C 
ATOM      6  C   UNL A   1      33.754  26.113  25.153  1.00  0.00     0.032 C 
ATOM      7  C   UNL A   1      33.586  26.105  23.631  1.00  0.00     0.096 C 
ATOM      8  N   UNL A   1      33.055  24.797  23.197  1.00  0.00    -0.337 N 
ATOM      9  C   UNL A   1      31.224  26.292  23.235  1.00  0.00     0.039 C 
ATOM     10  C   UNL A   1      31.644  24.883  22.850  1.00  0.00     0.121 C 
BRANCH   8  11
ATOM     11  C   UNL A   1      33.750  23.627  22.965  1.00  0.00     0.248 C 
ATOM     12  O   UNL A   1      34.936  23.647  22.624  1.00  0.00    -0.272 OA
BRANCH  11  13
ATOM     13  C   UNL A   1      33.013  22.290  23.147  1.00  0.00     0.260 C 
BRANCH  13  14
ATOM     14  O   UNL A   1      33.089  21.664  24.418  1.00  0.00    -0.367 OA
BRANCH  14  15
ATOM     15  C   UNL A   1      32.258  20.508  24.552  1.00  0.00     0.196 C 
BRANCH  15  16
ATOM     16  C   UNL A   1      32.960  19.225  24.177  1.00  0.00    -0.022 A 
ATOM     17  C   UNL A   1      34.229  18.939  24.699  1.00  0.00     0.006 A 
ATOM     18  C   UNL A   1      32.366  18.313  23.294  1.00  0.00     0.006 A 
ATOM     19  C   UNL A   1      34.901  17.775  24.324  1.00  0.00     0.000 A 
ATOM     20  C   UNL A   1      33.044  17.153  22.914  1.00  0.00     0.000 A 
ATOM     21  C   UNL A   1      34.312  16.886  23.427  1.00  0.00     0.000 A 
ENDBRANCH  15  16
ENDBRANCH  14  15
ENDBRANCH  13  14
ENDBRANCH  11  13
ENDBRANCH   8  11
ENDBRANCH   3   5
ENDBRANCH   2   3
ENDBRANCH   1   2
BRANCH   1  22
ATOM     22  C   UNL A   1      31.872  30.357  26.054  1.00  0.00     0.275 C 
BRANCH  22  23
ATOM     23  O   UNL A   1      33.286  30.563  26.233  1.00  0.00    -0.458 OA
BRANCH  23  24
ATOM     24  C   UNL A   1      33.619  31.475  27.177  1.00  0.00     0.338 C 
ATOM     25  O   UNL A   1      32.923  32.386  27.593  1.00  0.00    -0.246 OA
BRANCH  24  26
ATOM     26  C   UNL A   1      34.921  31.130  27.772  1.00  0.00     0.060 A 
ATOM     27  C   UNL A   1      35.101  29.822  28.230  1.00  0.00     0.016 A 
ATOM     28  C   UNL A   1      35.923  32.084  27.944  1.00  0.00     0.016 A 
ATOM     29  C   UNL A   1      36.283  29.458  28.865  1.00  0.00     0.010 A 
ATOM     30  C   UNL A   1      37.113  31.718  28.583  1.00  0.00     0.010 A 
ATOM     31  C   UNL A   1      37.295  30.406  29.055  1.00  0.00    -0.014 A 
BRANCH  31  32
ATOM     32  C   UNL A   1      38.528  30.022  29.781  1.00  0.00     0.031 A 
ATOM     33  C   UNL A   1      39.483  29.039  29.166  1.00  0.00     0.074 A 
ATOM     34  C   UNL A   1      38.790  30.567  30.983  1.00  0.00     0.049 A 
ATOM     35  N   UNL A   1      40.581  28.535  29.664  1.00  0.00    -0.248 NA
ATOM     36  C   UNL A   1      39.160  28.559  27.812  1.00  0.00     0.031 C 
ATOM     37  C   UNL A   1      37.943  31.547  31.666  1.00  0.00     0.029 A 
ATOM     38  N   UNL A   1      39.834  30.364  31.849  1.00  0.00    -0.354 N 
ATOM     39  C   UNL A   1      41.064  27.655  28.705  1.00  0.00     0.074 A 
ATOM     40  C   UNL A   1      40.138  27.690  27.593  1.00  0.00     0.031 C 
ATOM     41  C   UNL A   1      38.497  31.852  32.851  1.00  0.00     0.029 A 
ATOM     42  C   UNL A   1      39.713  31.063  33.027  1.00  0.00     0.049 A 
ATOM     43  H   UNL A   1      40.596  29.775  31.647  1.00  0.00     0.167 HD
ATOM     44  C   UNL A   1      42.186  26.899  28.741  1.00  0.00     0.034 A 
ATOM     45  C   UNL A   1      40.485  31.052  34.131  1.00  0.00     0.034 A 
ATOM     46  C   UNL A   1      43.121  26.894  29.835  1.00  0.00     0.049 A 
ATOM     47  C   UNL A   1      41.715  30.186  34.151  1.00  0.00     0.074 A 
ATOM     48  C   UNL A   1      44.299  26.177  29.957  1.00  0.00     0.029 A 
ATOM     49  N   UNL A   1      42.986  27.641  30.994  1.00  0.00    -0.354 N 
ATOM     50  N   UNL A   1      42.202  29.421  33.201  1.00  0.00    -0.248 NA
ATOM     51  C   UNL A   1      42.518  30.196  35.382  1.00  0.00     0.031 C 
ATOM     52  C   UNL A   1      44.871  26.486  31.195  1.00  0.00     0.029 A 
ATOM     53  C   UNL A   1      44.057  27.403  31.839  1.00  0.00     0.049 A 
ATOM     54  H   UNL A   1      42.238  28.252  31.188  1.00  0.00     0.167 HD
ATOM     55  C   UNL A   1      43.378  28.884  33.711  1.00  0.00     0.074 A 
ATOM     56  C   UNL A   1      43.544  29.429  35.042  1.00  0.00     0.031 C 
ATOM     57  C   UNL A   1      44.233  28.002  33.137  1.00  0.00     0.034 A 
BRANCH  44  58
ATOM     58  C   UNL A   1      42.486  26.037  27.544  1.00  0.00     0.023 A 
ATOM     59  C   UNL A   1      43.234  26.572  26.477  1.00  0.00     0.012 A 
ATOM     60  C   UNL A   1      42.081  24.689  27.498  1.00  0.00     0.148 A 
ATOM     61  C   UNL A   1      43.555  25.787  25.370  1.00  0.00     0.002 A 
ATOM     62  C   UNL A   1      42.434  23.902  26.407  1.00  0.00     0.091 A 
ATOM     63  F   UNL A   1      41.348  24.206  28.511  1.00  0.00    -0.205 F 
ATOM     64  C   UNL A   1      43.164  24.451  25.340  1.00  0.00     0.022 A 
BRANCH  62  65
ATOM     65  S   UNL A   1      42.031  22.154  26.309  1.00  0.00     0.127 S 
ATOM     66  O   UNL A   1      40.574  22.193  26.189  1.00  0.00    -0.237 OA
ATOM     67  O   UNL A   1      42.731  21.742  25.091  1.00  0.00    -0.237 OA
ATOM     68  O   UNL A   1      42.544  21.556  27.532  1.00  0.00    -0.744 OA
ENDBRANCH  62  65
ENDBRANCH  44  58
BRANCH  45  69
ATOM     69  C   UNL A   1      40.138  31.918  35.292  1.00  0.00     0.023 A 
ATOM     70  C   UNL A   1      40.746  33.181  35.418  1.00  0.00     0.012 A 
ATOM     71  C   UNL A   1      39.193  31.513  36.254  1.00  0.00     0.148 A 
ATOM     72  C   UNL A   1      40.438  34.016  36.494  1.00  0.00     0.002 A 
ATOM     73  C   UNL A   1      38.849  32.371  37.293  1.00  0.00     0.091 A 
ATOM     74  F   UNL A   1      38.642  30.296  36.134  1.00  0.00    -0.205 F 
ATOM     75  C   UNL A   1      39.481  33.616  37.423  1.00  0.00     0.022 A 
BRANCH  73  76
ATOM     76  S   UNL A   1      37.531  31.981  38.451  1.00  0.00     0.127 S 
ATOM     77  O   UNL A   1      36.510  32.957  38.082  1.00  0.00    -0.237 OA
ATOM     78  O   UNL A   1      37.213  30.596  38.102  1.00  0.00    -0.237 OA
ATOM     79  O   UNL A   1      38.121  32.142  39.773  1.00  0.00    -0.744 OA
ENDBRANCH  73  76
ENDBRANCH  45  69
BRANCH  57  80
ATOM     80  C   UNL A   1      45.442  27.587  33.933  1.00  0.00     0.023 A 
ATOM     81  C   UNL A   1      46.645  28.307  33.792  1.00  0.00     0.012 A 
ATOM     82  C   UNL A   1      45.367  26.539  34.870  1.00  0.00     0.148 A 
ATOM     83  C   UNL A   1      47.763  27.972  34.554  1.00  0.00     0.002 A 
ATOM     84  C   UNL A   1      46.473  26.239  35.657  1.00  0.00     0.091 A 
ATOM     85  F   UNL A   1      44.219  25.853  34.973  1.00  0.00    -0.205 F 
ATOM     86  C   UNL A   1      47.674  26.947  35.494  1.00  0.00     0.022 A 
BRANCH  84  87
ATOM     87  S   UNL A   1      46.418  24.994  36.951  1.00  0.00     0.127 S 
ATOM     88  O   UNL A   1      45.342  25.494  37.803  1.00  0.00    -0.237 OA
ATOM     89  O   UNL A   1      46.088  23.779  36.202  1.00  0.00    -0.237 OA
ATOM     90  O   UNL A   1      47.745  24.985  37.551  1.00  0.00    -0.744 OA
ENDBRANCH  84  87
ENDBRANCH  57  80
ENDBRANCH  31  32
ENDBRANCH  24  26
ENDBRANCH  23  24
ENDBRANCH  22  23
ENDBRANCH   1  22
TORSDOF 19
ENDMDL
MODEL 3
REMARK VINA RESULT:     -11.0      1.061      7.973
REMARK SMILES C[C@@H]1[C@H](C(=O)OCCOC(=O)c2ccc(-c3c4nc(c(-c5cccc(S(=O)(=O)[O-])c5F)c5ccc([nH]5)c(-c5cccc(S(=O)(=O)[O-])c5F)c5nc(c(-c6cccc(S(=O)(=O)[O-])c6F)c6ccc3[nH]6)C=C5)C=C4)cc2)CCN1C(=O)COCc1ccccc1
REMARK SMILES IDX 7 1 6 2 4 3 5 4 3 5 1 6 2 7 77 8 75 9 76 10 78 11 79 12
REMARK SMILES IDX 80 13 81 14 82 15 83 16 84 17 88 18 85 19 87 20 86 21 8 22
REMARK SMILES IDX 9 23 10 24 11 25 12 26 13 27 74 28 14 29 73 30 15 31 16 32
REMARK SMILES IDX 17 33 67 34 18 35 72 36 66 37 68 38 19 39 71 40 65 41 64 42
REMARK SMILES IDX 20 44 52 45 32 46 51 47 33 48 36 49 50 50 69 51 34 52 35 53
REMARK SMILES IDX 49 55 70 56 37 57 21 58 22 59 30 60 23 61 25 62 31 63 24 64
REMARK SMILES IDX 26 65 27 66 28 67 29 68 53 69 54 70 62 71 55 72 57 73 63 74
REMARK SMILES IDX 56 75 58 76 59 77 60 78 61 79 38 80 39 81 47 82 40 83 42 84
REMARK SMILES IDX 48 85 41 86 43 87 44 88 45 89 46 90
REMARK H PARENT 68 43 36 54
REMARK Flexibility Score: inf
ROOT
ATOM      1  C   UNL A   1      35.468  20.220  25.021  1.00  0.00     0.274 C 
ENDROOT
BRANCH   1   2
ATOM      2  O   UNL A   1      34.714  21.449  24.978  1.00  0.00    -0.462 OA
BRANCH   2   3
ATOM      3  C   UNL A   1      33.991  21.761  26.075  1.00  0.00     0.311 C 
ATOM      4  O   UNL A   1      34.324  21.484  27.222  1.00  0.00    -0.252 OA
BRANCH   3   5
ATOM      5  C   UNL A   1      32.697  22.482  25.784  1.00  0.00     0.123 C 
ATOM      6  C   UNL A   1      33.591  24.923  25.901  1.00  0.00     0.032 C 
ATOM      7  C   UNL A   1      32.454  23.943  26.200  1.00  0.00     0.096 C 
ATOM      8  N   UNL A   1      31.274  24.287  25.380  1.00  0.00    -0.337 N 
ATOM      9  C   UNL A   1      32.343  22.476  24.300  1.00  0.00     0.039 C 
ATOM     10  C   UNL A   1      31.108  23.362  24.269  1.00  0.00     0.121 C 
BRANCH   8  11
ATOM     11  C   UNL A   1      30.305  25.237  25.634  1.00  0.00     0.248 C 
ATOM     12  O   UNL A   1      29.770  25.324  26.743  1.00  0.00    -0.272 OA
BRANCH  11  13
ATOM     13  C   UNL A   1      29.908  26.197  24.500  1.00  0.00     0.260 C 
BRANCH  13  14
ATOM     14  O   UNL A   1      30.768  27.294  24.234  1.00  0.00    -0.367 OA
BRANCH  14  15
ATOM     15  C   UNL A   1      30.490  27.972  23.006  1.00  0.00     0.196 C 
BRANCH  15  16
ATOM     16  C   UNL A   1      29.501  29.102  23.162  1.00  0.00    -0.022 A 
ATOM     17  C   UNL A   1      29.916  30.334  23.685  1.00  0.00     0.006 A 
ATOM     18  C   UNL A   1      28.156  28.933  22.804  1.00  0.00     0.006 A 
ATOM     19  C   UNL A   1      28.999  31.369  23.870  1.00  0.00     0.000 A 
ATOM     20  C   UNL A   1      27.238  29.968  22.997  1.00  0.00     0.000 A 
ATOM     21  C   UNL A   1      27.660  31.183  23.533  1.00  0.00     0.000 A 
ENDBRANCH  15  16
ENDBRANCH  14  15
ENDBRANCH  13  14
ENDBRANCH  11  13
ENDBRANCH   8  11
ENDBRANCH   3   5
ENDBRANCH   2   3
ENDBRANCH   1   2
BRANCH   1  22
ATOM     22  C   UNL A   1      36.958  20.492  24.792  1.00  0.00     0.275 C 
BRANCH  22  23
ATOM     23  O   UNL A   1      37.499  21.390  25.778  1.00  0.00    -0.458 OA
BRANCH  23  24
ATOM     24  C   UNL A   1      38.807  21.199  26.076  1.00  0.00     0.338 C 
ATOM     25  O   UNL A   1      39.468  20.197  25.861  1.00  0.00    -0.246 OA
BRANCH  24  26
ATOM     26  C   UNL A   1      39.397  22.452  26.575  1.00  0.00     0.060 A 
ATOM     27  C   UNL A   1      38.846  23.655  26.126  1.00  0.00     0.016 A 
ATOM     28  C   UNL A   1      40.513  22.453  27.411  1.00  0.00     0.016 A 
ATOM     29  C   UNL A   1      39.407  24.869  26.508  1.00  0.00     0.010 A 
ATOM     30  C   UNL A   1      41.078  23.675  27.795  1.00  0.00     0.010 A 
ATOM     31  C   UNL A   1      40.533  24.888  27.338  1.00  0.00    -0.014 A 
BRANCH  31  32
ATOM     32  C   UNL A   1      41.156  26.184  27.694  1.00  0.00     0.031 A 
ATOM     33  C   UNL A   1      42.578  26.465  27.299  1.00  0.00     0.074 A 
ATOM     34  C   UNL A   1      40.439  27.107  28.360  1.00  0.00     0.049 A 
ATOM     35  N   UNL A   1      43.316  27.510  27.566  1.00  0.00    -0.248 NA
ATOM     36  C   UNL A   1      43.259  25.434  26.498  1.00  0.00     0.031 C 
ATOM     37  C   UNL A   1      39.044  26.949  28.777  1.00  0.00     0.029 A 
ATOM     38  N   UNL A   1      40.786  28.353  28.816  1.00  0.00    -0.354 N 
ATOM     39  C   UNL A   1      44.557  27.253  26.998  1.00  0.00     0.074 A 
ATOM     40  C   UNL A   1      44.475  25.949  26.373  1.00  0.00     0.031 C 
ATOM     41  C   UNL A   1      38.658  28.053  29.438  1.00  0.00     0.029 A 
ATOM     42  C   UNL A   1      39.786  28.977  29.523  1.00  0.00     0.049 A 
ATOM     43  H   UNL A   1      41.667  28.761  28.653  1.00  0.00     0.167 HD
ATOM     44  C   UNL A   1      45.660  28.038  26.985  1.00  0.00     0.034 A 
ATOM     45  C   UNL A   1      39.786  30.151  30.183  1.00  0.00     0.034 A 
ATOM     46  C   UNL A   1      45.724  29.347  27.579  1.00  0.00     0.049 A 
ATOM     47  C   UNL A   1      41.032  30.994  30.170  1.00  0.00     0.074 A 
ATOM     48  C   UNL A   1      46.790  30.230  27.602  1.00  0.00     0.029 A 
ATOM     49  N   UNL A   1      44.681  29.962  28.254  1.00  0.00    -0.354 N 
ATOM     50  N   UNL A   1      42.172  30.773  29.558  1.00  0.00    -0.248 NA
ATOM     51  C   UNL A   1      40.988  32.260  30.916  1.00  0.00     0.031 C 
ATOM     52  C   UNL A   1      46.392  31.377  28.298  1.00  0.00     0.029 A 
ATOM     53  C   UNL A   1      45.077  31.212  28.699  1.00  0.00     0.049 A 
ATOM     54  H   UNL A   1      43.791  29.567  28.396  1.00  0.00     0.167 HD
ATOM     55  C   UNL A   1      42.968  31.881  29.822  1.00  0.00     0.074 A 
ATOM     56  C   UNL A   1      42.172  32.784  30.629  1.00  0.00     0.031 C 
ATOM     57  C   UNL A   1      44.249  32.121  29.450  1.00  0.00     0.034 A 
BRANCH  44  58
ATOM     58  C   UNL A   1      46.879  27.518  26.275  1.00  0.00     0.023 A 
ATOM     59  C   UNL A   1      47.056  27.802  24.906  1.00  0.00     0.012 A 
ATOM     60  C   UNL A   1      47.875  26.801  26.967  1.00  0.00     0.148 A 
ATOM     61  C   UNL A   1      48.193  27.360  24.230  1.00  0.00     0.002 A 
ATOM     62  C   UNL A   1      49.022  26.394  26.295  1.00  0.00     0.091 A 
ATOM     63  F   UNL A   1      47.676  26.519  28.263  1.00  0.00    -0.205 F 
ATOM     64  C   UNL A   1      49.179  26.666  24.926  1.00  0.00     0.022 A 
BRANCH  62  65
ATOM     65  S   UNL A   1      50.376  25.551  27.122  1.00  0.00     0.127 S 
ATOM     66  O   UNL A   1      51.315  25.348  26.019  1.00  0.00    -0.237 OA
ATOM     67  O   UNL A   1      50.803  26.543  28.109  1.00  0.00    -0.237 OA
ATOM     68  O   UNL A   1      49.805  24.339  27.691  1.00  0.00    -0.744 OA
ENDBRANCH  62  65
ENDBRANCH  44  58
BRANCH  45  69
ATOM     69  C   UNL A   1      38.553  30.616  30.879  1.00  0.00     0.023 A 
ATOM     70  C   UNL A   1      38.409  30.383  32.259  1.00  0.00     0.012 A 
ATOM     71  C   UNL A   1      37.539  31.311  30.191  1.00  0.00     0.148 A 
ATOM     72  C   UNL A   1      37.266  30.811  32.938  1.00  0.00     0.002 A 
ATOM     73  C   UNL A   1      36.429  31.783  30.883  1.00  0.00     0.091 A 
ATOM     74  F   UNL A   1      37.680  31.503  28.871  1.00  0.00    -0.205 F 
ATOM     75  C   UNL A   1      36.284  31.521  32.253  1.00  0.00     0.022 A 
BRANCH  73  76
ATOM     76  S   UNL A   1      35.188  32.818  30.097  1.00  0.00     0.127 S 
ATOM     77  O   UNL A   1      34.646  31.919  29.083  1.00  0.00    -0.237 OA
ATOM     78  O   UNL A   1      34.282  33.111  31.208  1.00  0.00    -0.237 OA
ATOM     79  O   UNL A   1      35.915  33.979  29.601  1.00  0.00    -0.744 OA
ENDBRANCH  73  76
ENDBRANCH  45  69
BRANCH  57  80
ATOM     80  C   UNL A   1      44.867  33.423  29.886  1.00  0.00     0.023 A 
ATOM     81  C   UNL A   1      45.612  33.470  31.082  1.00  0.00     0.012 A 
ATOM     82  C   UNL A   1      44.776  34.574  29.080  1.00  0.00     0.148 A 
ATOM     83  C   UNL A   1      46.234  34.652  31.481  1.00  0.00     0.002 A 
ATOM     84  C   UNL A   1      45.435  35.736  29.464  1.00  0.00     0.091 A 
ATOM     85  F   UNL A   1      44.045  34.513  27.957  1.00  0.00    -0.205 F 
ATOM     86  C   UNL A   1      46.157  35.780  30.667  1.00  0.00     0.022 A 
BRANCH  84  87
ATOM     87  S   UNL A   1      45.460  37.207  28.432  1.00  0.00     0.127 S 
ATOM     88  O   UNL A   1      46.813  37.708  28.657  1.00  0.00    -0.237 OA
ATOM     89  O   UNL A   1      45.226  36.656  27.095  1.00  0.00    -0.237 OA
ATOM     90  O   UNL A   1      44.383  38.056  28.926  1.00  0.00    -0.744 OA
ENDBRANCH  84  87
ENDBRANCH  57  80
ENDBRANCH  31  32
ENDBRANCH  24  26
ENDBRANCH  23  24
ENDBRANCH  22  23
ENDBRANCH   1  22
TORSDOF 19
ENDMDL
