MODEL 1
REMARK VINA RESULT:     -10.7      0.000      0.000
REMARK SMILES COCc1cc(SCC(=O)OCCOC(=O)c2ccc(-c3c4nc(c(-c5cccc(S(=O)(=O)[O-])c5F)c5ccc([nH]5)c(-c5cccc(S(=O)(=O)[O-])c5F)c5nc(c(-c6cccc(S(=O)(=O)[O-])c6F)c6ccc3[nH]6)C=C5)C=C4)cc2)nc(-c2cccnc2)n1
REMARK SMILES IDX 12 1 11 2 9 3 10 4 8 5 7 6 6 7 4 8 5 9 88 10 81 11 80 12
REMARK SMILES IDX 3 13 2 14 1 15 82 16 83 17 87 18 84 19 86 20 85 21 13 22
REMARK SMILES IDX 14 23 15 24 16 25 17 26 18 27 79 28 19 29 78 30 20 31 21 32
REMARK SMILES IDX 22 33 72 34 23 35 77 36 71 37 73 38 24 39 76 40 70 41 69 42
REMARK SMILES IDX 25 44 57 45 37 46 56 47 38 48 41 49 55 50 74 51 39 52 40 53
REMARK SMILES IDX 54 55 75 56 42 57 26 58 27 59 35 60 28 61 30 62 36 63 29 64
REMARK SMILES IDX 31 65 32 66 33 67 34 68 58 69 59 70 67 71 60 72 62 73 68 74
REMARK SMILES IDX 61 75 63 76 64 77 65 78 66 79 43 80 44 81 52 82 45 83 47 84
REMARK SMILES IDX 53 85 46 86 48 87 49 88 50 89 51 90
REMARK H PARENT 73 43 41 54
REMARK Flexibility Score: inf
ROOT
ATOM      1  C   UNL A   1      31.623  28.740  24.501  1.00  0.00     0.274 C 
ENDROOT
BRANCH   1   2
ATOM      2  O   UNL A   1      30.802  27.605  24.856  1.00  0.00    -0.461 OA
BRANCH   2   3
ATOM      3  C   UNL A   1      31.369  26.707  25.702  1.00  0.00     0.316 C 
ATOM      4  O   UNL A   1      31.010  26.549  26.867  1.00  0.00    -0.251 OA
BRANCH   3   5
ATOM      5  C   UNL A   1      32.447  25.827  25.100  1.00  0.00     0.199 C 
BRANCH   5   6
ATOM      6  S   UNL A   1      31.871  24.379  24.169  1.00  0.00    -0.094 SA
BRANCH   6   7
ATOM      7  C   UNL A   1      33.284  23.283  24.136  1.00  0.00     0.101 A 
ATOM      8  C   UNL A   1      35.588  22.779  24.259  1.00  0.00     0.071 A 
ATOM      9  C   UNL A   1      34.590  23.717  24.066  1.00  0.00     0.062 A 
ATOM     10  N   UNL A   1      35.303  21.479  24.439  1.00  0.00    -0.230 NA
ATOM     11  C   UNL A   1      34.009  21.134  24.439  1.00  0.00     0.162 A 
ATOM     12  N   UNL A   1      32.977  21.981  24.286  1.00  0.00    -0.222 NA
BRANCH   8  13
ATOM     13  C   UNL A   1      37.033  23.193  24.405  1.00  0.00     0.215 C 
BRANCH  13  14
ATOM     14  O   UNL A   1      37.443  22.912  25.746  1.00  0.00    -0.378 OA
ATOM     15  C   UNL A   1      37.759  24.084  26.479  1.00  0.00     0.195 C 
ENDBRANCH  13  14
ENDBRANCH   8  13
BRANCH  11  16
ATOM     16  C   UNL A   1      33.728  19.718  24.616  1.00  0.00     0.038 A 
ATOM     17  C   UNL A   1      34.678  18.728  24.345  1.00  0.00     0.015 A 
ATOM     18  C   UNL A   1      32.504  19.289  25.127  1.00  0.00     0.123 A 
ATOM     19  C   UNL A   1      34.388  17.393  24.613  1.00  0.00     0.021 A 
ATOM     20  N   UNL A   1      32.177  17.993  25.369  1.00  0.00    -0.264 NA
ATOM     21  C   UNL A   1      33.137  17.079  25.121  1.00  0.00     0.111 A 
ENDBRANCH  11  16
ENDBRANCH   6   7
ENDBRANCH   5   6
ENDBRANCH   3   5
ENDBRANCH   2   3
ENDBRANCH   1   2
BRANCH   1  22
ATOM     22  C   UNL A   1      31.729  29.780  25.619  1.00  0.00     0.275 C 
BRANCH  22  23
ATOM     23  O   UNL A   1      33.080  30.245  25.800  1.00  0.00    -0.458 OA
BRANCH  23  24
ATOM     24  C   UNL A   1      33.184  31.112  26.827  1.00  0.00     0.338 C 
ATOM     25  O   UNL A   1      32.387  31.997  27.094  1.00  0.00    -0.246 OA
BRANCH  24  26
ATOM     26  C   UNL A   1      34.358  30.908  27.680  1.00  0.00     0.060 A 
ATOM     27  C   UNL A   1      35.273  31.946  27.883  1.00  0.00     0.016 A 
ATOM     28  C   UNL A   1      34.686  29.594  28.022  1.00  0.00     0.016 A 
ATOM     29  C   UNL A   1      36.541  31.656  28.400  1.00  0.00     0.010 A 
ATOM     30  C   UNL A   1      35.941  29.311  28.558  1.00  0.00     0.010 A 
ATOM     31  C   UNL A   1      36.882  30.335  28.736  1.00  0.00    -0.014 A 
BRANCH  31  32
ATOM     32  C   UNL A   1      38.142  30.022  29.449  1.00  0.00     0.031 A 
ATOM     33  C   UNL A   1      39.143  29.041  28.914  1.00  0.00     0.074 A 
ATOM     34  C   UNL A   1      38.283  30.538  30.682  1.00  0.00     0.049 A 
ATOM     35  N   UNL A   1      40.232  28.592  29.483  1.00  0.00    -0.248 NA
ATOM     36  C   UNL A   1      38.892  28.488  27.574  1.00  0.00     0.031 C 
ATOM     37  C   UNL A   1      37.329  31.451  31.317  1.00  0.00     0.029 A 
ATOM     38  N   UNL A   1      39.238  30.328  31.641  1.00  0.00    -0.354 N 
ATOM     39  C   UNL A   1      40.791  27.689  28.587  1.00  0.00     0.074 A 
ATOM     40  C   UNL A   1      39.915  27.651  27.433  1.00  0.00     0.031 C 
ATOM     41  C   UNL A   1      37.720  31.683  32.577  1.00  0.00     0.029 A 
ATOM     42  C   UNL A   1      38.938  30.925  32.841  1.00  0.00     0.049 A 
ATOM     43  H   UNL A   1      40.056  29.801  31.486  1.00  0.00     0.167 HD
ATOM     44  C   UNL A   1      41.939  26.978  28.714  1.00  0.00     0.034 A 
ATOM     45  C   UNL A   1      39.560  30.858  34.032  1.00  0.00     0.034 A 
ATOM     46  C   UNL A   1      42.811  27.050  29.860  1.00  0.00     0.049 A 
ATOM     47  C   UNL A   1      40.830  30.074  34.144  1.00  0.00     0.074 A 
ATOM     48  C   UNL A   1      44.053  26.463  30.038  1.00  0.00     0.029 A 
ATOM     49  N   UNL A   1      42.525  27.735  31.033  1.00  0.00    -0.354 N 
ATOM     50  N   UNL A   1      41.440  29.370  33.222  1.00  0.00    -0.248 NA
ATOM     51  C   UNL A   1      41.520  30.107  35.439  1.00  0.00     0.031 C 
ATOM     52  C   UNL A   1      44.512  26.785  31.322  1.00  0.00     0.029 A 
ATOM     53  C   UNL A   1      43.556  27.573  31.943  1.00  0.00     0.049 A 
ATOM     54  H   UNL A   1      41.707  28.259  31.193  1.00  0.00     0.167 HD
ATOM     55  C   UNL A   1      42.606  28.902  33.812  1.00  0.00     0.074 A 
ATOM     56  C   UNL A   1      42.618  29.410  35.170  1.00  0.00     0.031 C 
ATOM     57  C   UNL A   1      43.573  28.117  33.278  1.00  0.00     0.034 A 
BRANCH  44  58
ATOM     58  C   UNL A   1      42.367  26.107  27.560  1.00  0.00     0.023 A 
ATOM     59  C   UNL A   1      43.257  26.628  26.600  1.00  0.00     0.012 A 
ATOM     60  C   UNL A   1      41.975  24.757  27.474  1.00  0.00     0.148 A 
ATOM     61  C   UNL A   1      43.736  25.825  25.564  1.00  0.00     0.002 A 
ATOM     62  C   UNL A   1      42.481  23.954  26.455  1.00  0.00     0.091 A 
ATOM     63  F   UNL A   1      41.107  24.279  28.378  1.00  0.00    -0.205 F 
ATOM     64  C   UNL A   1      43.357  24.487  25.497  1.00  0.00     0.022 A 
BRANCH  62  65
ATOM     65  S   UNL A   1      42.090  22.202  26.355  1.00  0.00     0.127 S 
ATOM     66  O   UNL A   1      40.648  22.230  26.126  1.00  0.00    -0.237 OA
ATOM     67  O   UNL A   1      42.880  21.759  25.204  1.00  0.00    -0.237 OA
ATOM     68  O   UNL A   1      42.527  21.642  27.628  1.00  0.00    -0.744 OA
ENDBRANCH  62  65
ENDBRANCH  44  58
BRANCH  45  69
ATOM     69  C   UNL A   1      39.007  31.648  35.163  1.00  0.00     0.023 A 
ATOM     70  C   UNL A   1      38.188  31.001  36.106  1.00  0.00     0.012 A 
ATOM     71  C   UNL A   1      39.412  32.977  35.392  1.00  0.00     0.148 A 
ATOM     72  C   UNL A   1      37.785  31.664  37.264  1.00  0.00     0.002 A 
ATOM     73  C   UNL A   1      39.050  33.614  36.572  1.00  0.00     0.091 A 
ATOM     74  F   UNL A   1      40.184  33.575  34.472  1.00  0.00    -0.205 F 
ATOM     75  C   UNL A   1      38.231  32.962  37.507  1.00  0.00     0.022 A 
BRANCH  73  76
ATOM     76  S   UNL A   1      39.716  35.219  37.030  1.00  0.00     0.127 S 
ATOM     77  O   UNL A   1      39.001  35.498  38.272  1.00  0.00    -0.237 OA
ATOM     78  O   UNL A   1      41.143  34.928  37.191  1.00  0.00    -0.237 OA
ATOM     79  O   UNL A   1      39.415  36.097  35.907  1.00  0.00    -0.744 OA
ENDBRANCH  73  76
ENDBRANCH  45  69
BRANCH  57  80
ATOM     80  C   UNL A   1      44.733  27.766  34.166  1.00  0.00     0.023 A 
ATOM     81  C   UNL A   1      45.857  28.617  34.201  1.00  0.00     0.012 A 
ATOM     82  C   UNL A   1      44.701  26.626  34.990  1.00  0.00     0.148 A 
ATOM     83  C   UNL A   1      46.941  28.323  35.026  1.00  0.00     0.002 A 
ATOM     84  C   UNL A   1      45.773  26.357  35.834  1.00  0.00     0.091 A 
ATOM     85  F   UNL A   1      43.637  25.812  34.921  1.00  0.00    -0.205 F 
ATOM     86  C   UNL A   1      46.896  27.199  35.849  1.00  0.00     0.022 A 
BRANCH  84  87
ATOM     87  S   UNL A   1      45.748  24.962  36.967  1.00  0.00     0.127 S 
ATOM     88  O   UNL A   1      44.761  25.394  37.954  1.00  0.00    -0.237 OA
ATOM     89  O   UNL A   1      45.311  23.859  36.110  1.00  0.00    -0.237 OA
ATOM     90  O   UNL A   1      47.116  24.834  37.449  1.00  0.00    -0.744 OA
ENDBRANCH  84  87
ENDBRANCH  57  80
ENDBRANCH  31  32
ENDBRANCH  24  26
ENDBRANCH  23  24
ENDBRANCH  22  23
ENDBRANCH   1  22
TORSDOF 19
ENDMDL
MODEL 2
REMARK VINA RESULT:     -10.5      4.770     10.257
REMARK SMILES COCc1cc(SCC(=O)OCCOC(=O)c2ccc(-c3c4nc(c(-c5cccc(S(=O)(=O)[O-])c5F)c5ccc([nH]5)c(-c5cccc(S(=O)(=O)[O-])c5F)c5nc(c(-c6cccc(S(=O)(=O)[O-])c6F)c6ccc3[nH]6)C=C5)C=C4)cc2)nc(-c2cccnc2)n1
REMARK SMILES IDX 12 1 11 2 9 3 10 4 8 5 7 6 6 7 4 8 5 9 88 10 81 11 80 12
REMARK SMILES IDX 3 13 2 14 1 15 82 16 83 17 87 18 84 19 86 20 85 21 13 22
REMARK SMILES IDX 14 23 15 24 16 25 17 26 18 27 79 28 19 29 78 30 20 31 21 32
REMARK SMILES IDX 22 33 72 34 23 35 77 36 71 37 73 38 24 39 76 40 70 41 69 42
REMARK SMILES IDX 25 44 57 45 37 46 56 47 38 48 41 49 55 50 74 51 39 52 40 53
REMARK SMILES IDX 54 55 75 56 42 57 26 58 27 59 35 60 28 61 30 62 36 63 29 64
REMARK SMILES IDX 31 65 32 66 33 67 34 68 58 69 59 70 67 71 60 72 62 73 68 74
REMARK SMILES IDX 61 75 63 76 64 77 65 78 66 79 43 80 44 81 52 82 45 83 47 84
REMARK SMILES IDX 53 85 46 86 48 87 49 88 50 89 51 90
REMARK H PARENT 73 43 41 54
REMARK Flexibility Score: inf
ROOT
ATOM      1  C   UNL A   1      34.333  21.552  25.099  1.00  0.00     0.274 C 
ENDROOT
BRANCH   1   2
ATOM      2  O   UNL A   1      34.226  22.990  25.002  1.00  0.00    -0.461 OA
BRANCH   2   3
ATOM      3  C   UNL A   1      32.964  23.485  24.936  1.00  0.00     0.316 C 
ATOM      4  O   UNL A   1      31.980  22.907  25.392  1.00  0.00    -0.251 OA
BRANCH   3   5
ATOM      5  C   UNL A   1      32.832  24.866  24.323  1.00  0.00     0.199 C 
BRANCH   5   6
ATOM      6  S   UNL A   1      31.148  25.402  23.911  1.00  0.00    -0.094 SA
BRANCH   6   7
ATOM      7  C   UNL A   1      31.091  27.116  24.421  1.00  0.00     0.101 A 
ATOM      8  C   UNL A   1      31.895  29.024  25.555  1.00  0.00     0.071 A 
ATOM      9  C   UNL A   1      31.893  27.650  25.406  1.00  0.00     0.062 A 
ATOM     10  N   UNL A   1      31.094  29.811  24.818  1.00  0.00    -0.230 NA
ATOM     11  C   UNL A   1      30.305  29.206  23.921  1.00  0.00     0.162 A 
ATOM     12  N   UNL A   1      30.259  27.882  23.691  1.00  0.00    -0.222 NA
BRANCH   8  13
ATOM     13  C   UNL A   1      32.889  29.712  26.460  1.00  0.00     0.215 C 
BRANCH  13  14
ATOM     14  O   UNL A   1      33.568  28.710  27.221  1.00  0.00    -0.378 OA
ATOM     15  C   UNL A   1      34.944  28.996  27.399  1.00  0.00     0.195 C 
ENDBRANCH  13  14
ENDBRANCH   8  13
BRANCH  11  16
ATOM     16  C   UNL A   1      29.433  30.077  23.148  1.00  0.00     0.038 A 
ATOM     17  C   UNL A   1      29.135  31.383  23.552  1.00  0.00     0.015 A 
ATOM     18  C   UNL A   1      28.902  29.661  21.928  1.00  0.00     0.123 A 
ATOM     19  C   UNL A   1      28.364  32.205  22.734  1.00  0.00     0.021 A 
ATOM     20  N   UNL A   1      28.122  30.426  21.123  1.00  0.00    -0.264 NA
ATOM     21  C   UNL A   1      27.888  31.687  21.540  1.00  0.00     0.111 A 
ENDBRANCH  11  16
ENDBRANCH   6   7
ENDBRANCH   5   6
ENDBRANCH   3   5
ENDBRANCH   2   3
ENDBRANCH   1   2
BRANCH   1  22
ATOM     22  C   UNL A   1      35.777  21.049  25.018  1.00  0.00     0.275 C 
BRANCH  22  23
ATOM     23  O   UNL A   1      36.628  21.691  25.987  1.00  0.00    -0.458 OA
BRANCH  23  24
ATOM     24  C   UNL A   1      37.935  21.478  25.733  1.00  0.00     0.338 C 
ATOM     25  O   UNL A   1      38.403  20.486  25.196  1.00  0.00    -0.246 OA
BRANCH  24  26
ATOM     26  C   UNL A   1      38.820  22.577  26.130  1.00  0.00     0.060 A 
ATOM     27  C   UNL A   1      39.893  22.343  26.995  1.00  0.00     0.016 A 
ATOM     28  C   UNL A   1      38.387  23.879  25.870  1.00  0.00     0.016 A 
ATOM     29  C   UNL A   1      40.512  23.424  27.633  1.00  0.00     0.010 A 
ATOM     30  C   UNL A   1      39.020  24.955  26.488  1.00  0.00     0.010 A 
ATOM     31  C   UNL A   1      40.075  24.736  27.385  1.00  0.00    -0.014 A 
BRANCH  31  32
ATOM     32  C   UNL A   1      40.820  25.907  27.900  1.00  0.00     0.031 A 
ATOM     33  C   UNL A   1      40.144  27.028  28.634  1.00  0.00     0.074 A 
ATOM     34  C   UNL A   1      42.114  26.005  27.547  1.00  0.00     0.049 A 
ATOM     35  N   UNL A   1      40.653  28.160  29.044  1.00  0.00    -0.248 NA
ATOM     36  C   UNL A   1      38.716  26.863  28.944  1.00  0.00     0.031 C 
ATOM     37  C   UNL A   1      42.844  24.996  26.776  1.00  0.00     0.029 A 
ATOM     38  N   UNL A   1      43.023  27.012  27.731  1.00  0.00    -0.354 N 
ATOM     39  C   UNL A   1      39.611  28.858  29.644  1.00  0.00     0.074 A 
ATOM     40  C   UNL A   1      38.435  28.018  29.539  1.00  0.00     0.031 C 
ATOM     41  C   UNL A   1      44.073  25.456  26.509  1.00  0.00     0.029 A 
ATOM     42  C   UNL A   1      44.210  26.794  27.075  1.00  0.00     0.049 A 
ATOM     43  H   UNL A   1      42.843  27.812  28.277  1.00  0.00     0.167 HD
ATOM     44  C   UNL A   1      39.646  30.075  30.241  1.00  0.00     0.034 A 
ATOM     45  C   UNL A   1      45.285  27.587  26.924  1.00  0.00     0.034 A 
ATOM     46  C   UNL A   1      40.834  30.884  30.356  1.00  0.00     0.049 A 
ATOM     47  C   UNL A   1      45.303  28.922  27.600  1.00  0.00     0.074 A 
ATOM     48  C   UNL A   1      41.002  32.075  31.043  1.00  0.00     0.029 A 
ATOM     49  N   UNL A   1      42.051  30.597  29.756  1.00  0.00    -0.354 N 
ATOM     50  N   UNL A   1      44.364  29.486  28.320  1.00  0.00    -0.248 NA
ATOM     51  C   UNL A   1      46.534  29.711  27.484  1.00  0.00     0.031 C 
ATOM     52  C   UNL A   1      42.320  32.513  30.847  1.00  0.00     0.029 A 
ATOM     53  C   UNL A   1      42.970  31.593  30.040  1.00  0.00     0.049 A 
ATOM     54  H   UNL A   1      42.234  29.801  29.206  1.00  0.00     0.167 HD
ATOM     55  C   UNL A   1      44.901  30.682  28.774  1.00  0.00     0.074 A 
ATOM     56  C   UNL A   1      46.251  30.757  28.250  1.00  0.00     0.031 C 
ATOM     57  C   UNL A   1      44.323  31.635  29.546  1.00  0.00     0.034 A 
BRANCH  44  58
ATOM     58  C   UNL A   1      38.381  30.588  30.880  1.00  0.00     0.023 A 
ATOM     59  C   UNL A   1      38.157  30.344  32.250  1.00  0.00     0.012 A 
ATOM     60  C   UNL A   1      37.469  31.389  30.166  1.00  0.00     0.148 A 
ATOM     61  C   UNL A   1      37.037  30.873  32.893  1.00  0.00     0.002 A 
ATOM     62  C   UNL A   1      36.369  31.937  30.822  1.00  0.00     0.091 A 
ATOM     63  F   UNL A   1      37.678  31.594  28.857  1.00  0.00    -0.205 F 
ATOM     64  C   UNL A   1      36.149  31.677  32.183  1.00  0.00     0.022 A 
BRANCH  62  65
ATOM     65  S   UNL A   1      35.228  33.044  29.982  1.00  0.00     0.127 S 
ATOM     66  O   UNL A   1      36.117  34.122  29.556  1.00  0.00    -0.237 OA
ATOM     67  O   UNL A   1      34.715  32.213  28.891  1.00  0.00    -0.237 OA
ATOM     68  O   UNL A   1      34.230  33.394  30.985  1.00  0.00    -0.744 OA
ENDBRANCH  62  65
ENDBRANCH  44  58
BRANCH  45  69
ATOM     69  C   UNL A   1      46.452  27.059  26.170  1.00  0.00     0.023 A 
ATOM     70  C   UNL A   1      46.559  27.344  24.797  1.00  0.00     0.012 A 
ATOM     71  C   UNL A   1      47.520  26.421  26.830  1.00  0.00     0.148 A 
ATOM     72  C   UNL A   1      47.714  27.008  24.093  1.00  0.00     0.002 A 
ATOM     73  C   UNL A   1      48.688  26.136  26.135  1.00  0.00     0.091 A 
ATOM     74  F   UNL A   1      47.390  26.150  28.138  1.00  0.00    -0.205 F 
ATOM     75  C   UNL A   1      48.785  26.421  24.764  1.00  0.00     0.022 A 
BRANCH  73  76
ATOM     76  S   UNL A   1      50.165  25.532  26.963  1.00  0.00     0.127 S 
ATOM     77  O   UNL A   1      51.078  25.333  25.841  1.00  0.00    -0.237 OA
ATOM     78  O   UNL A   1      50.505  26.651  27.844  1.00  0.00    -0.237 OA
ATOM     79  O   UNL A   1      49.747  24.329  27.669  1.00  0.00    -0.744 OA
ENDBRANCH  73  76
ENDBRANCH  45  69
BRANCH  57  80
ATOM     80  C   UNL A   1      45.158  32.839  29.880  1.00  0.00     0.023 A 
ATOM     81  C   UNL A   1      46.000  32.803  31.009  1.00  0.00     0.012 A 
ATOM     82  C   UNL A   1      45.141  33.986  29.064  1.00  0.00     0.148 A 
ATOM     83  C   UNL A   1      46.795  33.901  31.334  1.00  0.00     0.002 A 
ATOM     84  C   UNL A   1      45.960  35.065  29.377  1.00  0.00     0.091 A 
ATOM     85  F   UNL A   1      44.311  34.014  28.010  1.00  0.00    -0.205 F 
ATOM     86  C   UNL A   1      46.783  35.028  30.514  1.00  0.00     0.022 A 
BRANCH  84  87
ATOM     87  S   UNL A   1      46.040  36.519  28.324  1.00  0.00     0.127 S 
ATOM     88  O   UNL A   1      44.673  37.026  28.407  1.00  0.00    -0.237 OA
ATOM     89  O   UNL A   1      47.040  37.349  28.997  1.00  0.00    -0.237 OA
ATOM     90  O   UNL A   1      46.459  36.026  27.019  1.00  0.00    -0.744 OA
ENDBRANCH  84  87
ENDBRANCH  57  80
ENDBRANCH  31  32
ENDBRANCH  24  26
ENDBRANCH  23  24
ENDBRANCH  22  23
ENDBRANCH   1  22
TORSDOF 19
ENDMDL
MODEL 3
REMARK VINA RESULT:     -10.3      5.061     10.312
REMARK SMILES COCc1cc(SCC(=O)OCCOC(=O)c2ccc(-c3c4nc(c(-c5cccc(S(=O)(=O)[O-])c5F)c5ccc([nH]5)c(-c5cccc(S(=O)(=O)[O-])c5F)c5nc(c(-c6cccc(S(=O)(=O)[O-])c6F)c6ccc3[nH]6)C=C5)C=C4)cc2)nc(-c2cccnc2)n1
REMARK SMILES IDX 12 1 11 2 9 3 10 4 8 5 7 6 6 7 4 8 5 9 88 10 81 11 80 12
REMARK SMILES IDX 3 13 2 14 1 15 82 16 83 17 87 18 84 19 86 20 85 21 13 22
REMARK SMILES IDX 14 23 15 24 16 25 17 26 18 27 79 28 19 29 78 30 20 31 21 32
REMARK SMILES IDX 22 33 72 34 23 35 77 36 71 37 73 38 24 39 76 40 70 41 69 42
REMARK SMILES IDX 25 44 57 45 37 46 56 47 38 48 41 49 55 50 74 51 39 52 40 53
REMARK SMILES IDX 54 55 75 56 42 57 26 58 27 59 35 60 28 61 30 62 36 63 29 64
REMARK SMILES IDX 31 65 32 66 33 67 34 68 58 69 59 70 67 71 60 72 62 73 68 74
REMARK SMILES IDX 61 75 63 76 64 77 65 78 66 79 43 80 44 81 52 82 45 83 47 84
REMARK SMILES IDX 53 85 46 86 48 87 49 88 50 89 51 90
REMARK H PARENT 73 43 41 54
REMARK Flexibility Score: inf
ROOT
ATOM      1  C   UNL A   1      35.366  22.390  25.451  1.00  0.00     0.274 C 
ENDROOT
BRANCH   1   2
ATOM      2  O   UNL A   1      35.724  23.344  24.425  1.00  0.00    -0.461 OA
BRANCH   2   3
ATOM      3  C   UNL A   1      34.735  23.675  23.556  1.00  0.00     0.316 C 
ATOM      4  O   UNL A   1      34.719  23.327  22.378  1.00  0.00    -0.251 OA
BRANCH   3   5
ATOM      5  C   UNL A   1      33.576  24.455  24.146  1.00  0.00     0.199 C 
BRANCH   5   6
ATOM      6  S   UNL A   1      32.158  24.736  23.049  1.00  0.00    -0.094 SA
BRANCH   6   7
ATOM      7  C   UNL A   1      31.693  26.436  23.352  1.00  0.00     0.101 A 
ATOM      8  C   UNL A   1      30.250  28.301  23.228  1.00  0.00     0.071 A 
ATOM      9  C   UNL A   1      30.623  27.058  22.749  1.00  0.00     0.062 A 
ATOM     10  N   UNL A   1      30.946  28.916  24.198  1.00  0.00    -0.230 NA
ATOM     11  C   UNL A   1      32.007  28.264  24.692  1.00  0.00     0.162 A 
ATOM     12  N   UNL A   1      32.422  27.046  24.306  1.00  0.00    -0.222 NA
BRANCH   8  13
ATOM     13  C   UNL A   1      28.972  28.964  22.773  1.00  0.00     0.215 C 
BRANCH  13  14
ATOM     14  O   UNL A   1      29.246  29.682  21.568  1.00  0.00    -0.378 OA
ATOM     15  C   UNL A   1      28.837  31.037  21.631  1.00  0.00     0.195 C 
ENDBRANCH  13  14
ENDBRANCH   8  13
BRANCH  11  16
ATOM     16  C   UNL A   1      32.755  28.960  25.728  1.00  0.00     0.038 A 
ATOM     17  C   UNL A   1      34.019  28.534  26.149  1.00  0.00     0.015 A 
ATOM     18  C   UNL A   1      32.261  30.127  26.308  1.00  0.00     0.123 A 
ATOM     19  C   UNL A   1      34.730  29.284  27.083  1.00  0.00     0.021 A 
ATOM     20  N   UNL A   1      32.914  30.864  27.243  1.00  0.00    -0.264 NA
ATOM     21  C   UNL A   1      34.142  30.430  27.593  1.00  0.00     0.111 A 
ENDBRANCH  11  16
ENDBRANCH   6   7
ENDBRANCH   5   6
ENDBRANCH   3   5
ENDBRANCH   2   3
ENDBRANCH   1   2
BRANCH   1  22
ATOM     22  C   UNL A   1      36.403  21.278  25.627  1.00  0.00     0.275 C 
BRANCH  22  23
ATOM     23  O   UNL A   1      37.651  21.595  24.981  1.00  0.00    -0.458 OA
BRANCH  23  24
ATOM     24  C   UNL A   1      38.710  21.357  25.781  1.00  0.00     0.338 C 
ATOM     25  O   UNL A   1      39.243  20.272  25.951  1.00  0.00    -0.246 OA
BRANCH  24  26
ATOM     26  C   UNL A   1      39.243  22.544  26.457  1.00  0.00     0.060 A 
ATOM     27  C   UNL A   1      38.844  23.823  26.059  1.00  0.00     0.016 A 
ATOM     28  C   UNL A   1      40.360  22.370  27.277  1.00  0.00     0.016 A 
ATOM     29  C   UNL A   1      39.595  24.935  26.457  1.00  0.00     0.010 A 
ATOM     30  C   UNL A   1      41.093  23.480  27.692  1.00  0.00     0.010 A 
ATOM     31  C   UNL A   1      40.726  24.768  27.273  1.00  0.00    -0.014 A 
BRANCH  31  32
ATOM     32  C   UNL A   1      41.433  25.930  27.858  1.00  0.00     0.031 A 
ATOM     33  C   UNL A   1      40.718  26.990  28.644  1.00  0.00     0.074 A 
ATOM     34  C   UNL A   1      42.726  26.082  27.524  1.00  0.00     0.049 A 
ATOM     35  N   UNL A   1      41.191  28.113  29.119  1.00  0.00    -0.248 NA
ATOM     36  C   UNL A   1      39.293  26.768  28.930  1.00  0.00     0.031 C 
ATOM     37  C   UNL A   1      43.492  25.137  26.708  1.00  0.00     0.029 A 
ATOM     38  N   UNL A   1      43.604  27.104  27.771  1.00  0.00    -0.354 N 
ATOM     39  C   UNL A   1      40.124  28.747  29.744  1.00  0.00     0.074 A 
ATOM     40  C   UNL A   1      38.973  27.881  29.582  1.00  0.00     0.031 C 
ATOM     41  C   UNL A   1      44.710  25.646  26.479  1.00  0.00     0.029 A 
ATOM     42  C   UNL A   1      44.803  26.955  27.117  1.00  0.00     0.049 A 
ATOM     43  H   UNL A   1      43.397  27.868  28.357  1.00  0.00     0.167 HD
ATOM     44  C   UNL A   1      40.118  29.931  30.405  1.00  0.00     0.034 A 
ATOM     45  C   UNL A   1      45.857  27.785  27.020  1.00  0.00     0.034 A 
ATOM     46  C   UNL A   1      41.281  30.766  30.576  1.00  0.00     0.049 A 
ATOM     47  C   UNL A   1      45.830  29.081  27.767  1.00  0.00     0.074 A 
ATOM     48  C   UNL A   1      41.410  31.923  31.327  1.00  0.00     0.029 A 
ATOM     49  N   UNL A   1      42.512  30.547  29.974  1.00  0.00    -0.354 N 
ATOM     50  N   UNL A   1      44.869  29.579  28.506  1.00  0.00    -0.248 NA
ATOM     51  C   UNL A   1      47.039  29.910  27.705  1.00  0.00     0.031 C 
ATOM     52  C   UNL A   1      42.716  32.407  31.169  1.00  0.00     0.029 A 
ATOM     53  C   UNL A   1      43.400  31.551  30.321  1.00  0.00     0.049 A 
ATOM     54  H   UNL A   1      42.722  29.786  29.385  1.00  0.00     0.167 HD
ATOM     55  C   UNL A   1      45.366  30.764  29.028  1.00  0.00     0.074 A 
ATOM     56  C   UNL A   1      46.719  30.905  28.524  1.00  0.00     0.031 C 
ATOM     57  C   UNL A   1      44.755  31.658  29.844  1.00  0.00     0.034 A 
BRANCH  44  58
ATOM     58  C   UNL A   1      38.834  30.374  31.058  1.00  0.00     0.023 A 
ATOM     59  C   UNL A   1      38.548  29.946  32.370  1.00  0.00     0.012 A 
ATOM     60  C   UNL A   1      37.962  31.282  30.425  1.00  0.00     0.148 A 
ATOM     61  C   UNL A   1      37.408  30.401  33.035  1.00  0.00     0.002 A 
ATOM     62  C   UNL A   1      36.843  31.753  31.106  1.00  0.00     0.091 A 
ATOM     63  F   UNL A   1      38.230  31.662  29.167  1.00  0.00    -0.205 F 
ATOM     64  C   UNL A   1      36.561  31.311  32.408  1.00  0.00     0.022 A 
BRANCH  62  65
ATOM     65  S   UNL A   1      35.752  32.986  30.382  1.00  0.00     0.127 S 
ATOM     66  O   UNL A   1      36.184  34.204  31.063  1.00  0.00    -0.237 OA
ATOM     67  O   UNL A   1      36.098  32.929  28.961  1.00  0.00    -0.237 OA
ATOM     68  O   UNL A   1      34.403  32.526  30.686  1.00  0.00    -0.744 OA
ENDBRANCH  62  65
ENDBRANCH  44  58
BRANCH  45  69
ATOM     69  C   UNL A   1      47.044  27.331  26.251  1.00  0.00     0.023 A 
ATOM     70  C   UNL A   1      47.856  26.318  26.791  1.00  0.00     0.012 A 
ATOM     71  C   UNL A   1      47.278  27.780  24.937  1.00  0.00     0.148 A 
ATOM     72  C   UNL A   1      48.880  25.753  26.032  1.00  0.00     0.002 A 
ATOM     73  C   UNL A   1      48.266  27.177  24.168  1.00  0.00     0.091 A 
ATOM     74  F   UNL A   1      46.497  28.755  24.448  1.00  0.00    -0.205 F 
ATOM     75  C   UNL A   1      49.073  26.168  24.716  1.00  0.00     0.022 A 
BRANCH  73  76
ATOM     76  S   UNL A   1      48.466  27.542  22.419  1.00  0.00     0.127 S 
ATOM     77  O   UNL A   1      48.653  26.209  21.854  1.00  0.00    -0.237 OA
ATOM     78  O   UNL A   1      47.190  28.180  22.088  1.00  0.00    -0.237 OA
ATOM     79  O   UNL A   1      49.613  28.437  22.341  1.00  0.00    -0.744 OA
ENDBRANCH  73  76
ENDBRANCH  45  69
BRANCH  57  80
ATOM     80  C   UNL A   1      45.552  32.865  30.250  1.00  0.00     0.023 A 
ATOM     81  C   UNL A   1      46.350  32.806  31.410  1.00  0.00     0.012 A 
ATOM     82  C   UNL A   1      45.543  34.038  29.473  1.00  0.00     0.148 A 
ATOM     83  C   UNL A   1      47.110  33.907  31.802  1.00  0.00     0.002 A 
ATOM     84  C   UNL A   1      46.328  35.121  29.853  1.00  0.00     0.091 A 
ATOM     85  F   UNL A   1      44.754  34.087  28.389  1.00  0.00    -0.205 F 
ATOM     86  C   UNL A   1      47.107  35.061  31.021  1.00  0.00     0.022 A 
BRANCH  84  87
ATOM     87  S   UNL A   1      46.420  36.611  28.854  1.00  0.00     0.127 S 
ATOM     88  O   UNL A   1      46.957  36.097  27.596  1.00  0.00    -0.237 OA
ATOM     89  O   UNL A   1      45.023  37.043  28.789  1.00  0.00    -0.237 OA
ATOM     90  O   UNL A   1      47.288  37.518  29.594  1.00  0.00    -0.744 OA
ENDBRANCH  84  87
ENDBRANCH  57  80
ENDBRANCH  31  32
ENDBRANCH  24  26
ENDBRANCH  23  24
ENDBRANCH  22  23
ENDBRANCH   1  22
TORSDOF 19
ENDMDL
