MODEL 1
REMARK VINA RESULT:     -12.2      0.000      0.000
REMARK SMILES CC(C)C[NH2+][C@@H](CC(=O)Nc1cccc(Cl)c1)C(=O)OCCOC(=O)c1ccc(-c2c3nc(c(-c4cccc(S(=O)(=O)[O-])c4F)c4ccc([nH]4)c(-c4cccc(S(=O)(=O)[O-])c4F)c4nc(c(-c5cccc(S(=O)(=O)[O-])c5F)c5ccc2[nH]5)C=C4)C=C3)cc1
REMARK SMILES IDX 21 1 20 2 18 3 19 4 6 5 5 6 4 9 2 10 1 11 3 12 7 13 8 14
REMARK SMILES IDX 9 15 10 16 11 18 12 19 17 20 13 21 15 22 14 23 16 24 22 25
REMARK SMILES IDX 23 26 24 27 25 28 26 29 27 30 88 31 28 32 87 33 29 34 30 35
REMARK SMILES IDX 31 36 81 37 32 38 86 39 80 40 82 41 33 42 85 43 79 44 78 45
REMARK SMILES IDX 34 47 66 48 46 49 65 50 47 51 50 52 64 53 83 54 48 55 49 56
REMARK SMILES IDX 63 58 84 59 51 60 35 61 36 62 44 63 37 64 39 65 45 66 38 67
REMARK SMILES IDX 40 68 41 69 42 70 43 71 67 72 68 73 76 74 69 75 71 76 77 77
REMARK SMILES IDX 70 78 72 79 73 80 74 81 75 82 52 83 53 84 61 85 54 86 56 87
REMARK SMILES IDX 62 88 55 89 57 90 58 91 59 92 60 93
REMARK H PARENT 5 7 5 8 10 17 82 46 50 57
REMARK Flexibility Score: inf
ROOT
ATOM      1  C   UNL A   1      35.753  20.914  24.819  1.00  0.00     0.274 C 
ENDROOT
BRANCH   1   2
ATOM      2  O   UNL A   1      35.254  21.658  25.947  1.00  0.00    -0.458 OA
BRANCH   2   3
ATOM      3  C   UNL A   1      34.071  21.232  26.475  1.00  0.00     0.365 C 
ATOM      4  O   UNL A   1      33.684  21.482  27.611  1.00  0.00    -0.245 OA
BRANCH   3   5
ATOM      5  C   UNL A   1      33.273  20.362  25.486  1.00  0.00     0.302 C 
BRANCH   5   6
ATOM      6  N   UNL A   1      32.885  19.089  26.075  1.00  0.00    -0.334 N 
ATOM      7  H   UNL A   1      33.500  18.941  26.876  1.00  0.00     0.347 HD
ATOM      8  H   UNL A   1      31.889  19.216  26.252  1.00  0.00     0.347 HD
BRANCH   6   9
ATOM      9  C   UNL A   1      32.920  17.872  25.298  1.00  0.00     0.264 C 
BRANCH   9  10
ATOM     10  C   UNL A   1      34.419  17.163  24.649  1.00  0.00     0.038 C 
ATOM     11  C   UNL A   1      35.885  15.810  25.560  1.00  0.00     0.013 C 
ATOM     12  C   UNL A   1      33.679  17.059  23.051  1.00  0.00     0.013 C 
ENDBRANCH   9  10
ENDBRANCH   6   9
ENDBRANCH   5   6
BRANCH   5  13
ATOM     13  C   UNL A   1      32.172  21.198  24.851  1.00  0.00     0.177 C 
BRANCH  13  14
ATOM     14  C   UNL A   1      32.144  21.209  23.340  1.00  0.00     0.231 C 
ATOM     15  O   UNL A   1      32.151  20.140  22.720  1.00  0.00    -0.274 OA
ATOM     16  N   UNL A   1      32.025  22.360  22.621  1.00  0.00    -0.326 N 
ATOM     17  H   UNL A   1      31.885  22.235  21.654  1.00  0.00     0.169 HD
BRANCH  16  18
ATOM     18  C   UNL A   1      32.072  23.693  23.044  1.00  0.00     0.042 A 
ATOM     19  C   UNL A   1      33.527  24.697  22.647  1.00  0.00     0.026 A 
ATOM     20  C   UNL A   1      30.530  24.491  23.520  1.00  0.00     0.046 A 
ATOM     21  C   UNL A   1      33.435  26.499  22.683  1.00  0.00     0.004 A 
ATOM     22  C   UNL A   1      30.428  26.288  23.503  1.00  0.00     0.043 A 
ATOM     23  C   UNL A   1      31.894  27.297  23.163  1.00  0.00     0.020 A 
ATOM     24  Cl  UNL A   1      28.885  27.048  23.653  1.00  0.00    -0.084 Cl
ENDBRANCH  16  18
ENDBRANCH  13  14
ENDBRANCH   5  13
ENDBRANCH   3   5
ENDBRANCH   2   3
ENDBRANCH   1   2
BRANCH   1  25
ATOM     25  C   UNL A   1      37.158  20.366  25.078  1.00  0.00     0.275 C 
BRANCH  25  26
ATOM     26  O   UNL A   1      38.135  21.419  25.137  1.00  0.00    -0.458 OA
BRANCH  26  27
ATOM     27  C   UNL A   1      39.155  21.174  25.989  1.00  0.00     0.338 C 
ATOM     28  O   UNL A   1      39.760  20.122  26.131  1.00  0.00    -0.246 OA
BRANCH  27  29
ATOM     29  C   UNL A   1      39.583  22.397  26.670  1.00  0.00     0.060 A 
ATOM     30  C   UNL A   1      39.033  23.597  26.220  1.00  0.00     0.016 A 
ATOM     31  C   UNL A   1      40.628  22.394  27.590  1.00  0.00     0.016 A 
ATOM     32  C   UNL A   1      39.578  24.805  26.609  1.00  0.00     0.010 A 
ATOM     33  C   UNL A   1      41.142  23.618  28.029  1.00  0.00     0.010 A 
ATOM     34  C   UNL A   1      40.647  24.828  27.507  1.00  0.00    -0.014 A 
BRANCH  34  35
ATOM     35  C   UNL A   1      41.268  26.134  27.820  1.00  0.00     0.031 A 
ATOM     36  C   UNL A   1      42.649  26.444  27.321  1.00  0.00     0.074 A 
ATOM     37  C   UNL A   1      40.556  27.056  28.494  1.00  0.00     0.049 A 
ATOM     38  N   UNL A   1      43.361  27.526  27.493  1.00  0.00    -0.248 NA
ATOM     39  C   UNL A   1      43.322  25.403  26.528  1.00  0.00     0.031 C 
ATOM     40  C   UNL A   1      39.193  26.867  28.998  1.00  0.00     0.029 A 
ATOM     41  N   UNL A   1      40.879  28.332  28.872  1.00  0.00    -0.354 N 
ATOM     42  C   UNL A   1      44.581  27.279  26.878  1.00  0.00     0.074 A 
ATOM     43  C   UNL A   1      44.517  25.940  26.333  1.00  0.00     0.031 C 
ATOM     44  C   UNL A   1      38.796  27.988  29.619  1.00  0.00     0.029 A 
ATOM     45  C   UNL A   1      39.894  28.948  29.606  1.00  0.00     0.049 A 
ATOM     46  H   UNL A   1      41.732  28.765  28.641  1.00  0.00     0.167 HD
ATOM     47  C   UNL A   1      45.654  28.098  26.770  1.00  0.00     0.034 A 
ATOM     48  C   UNL A   1      39.892  30.141  30.230  1.00  0.00     0.034 A 
ATOM     49  C   UNL A   1      45.696  29.435  27.301  1.00  0.00     0.049 A 
ATOM     50  C   UNL A   1      41.108  31.016  30.118  1.00  0.00     0.074 A 
ATOM     51  C   UNL A   1      46.720  30.362  27.216  1.00  0.00     0.029 A 
ATOM     52  N   UNL A   1      44.679  30.031  28.031  1.00  0.00    -0.354 N 
ATOM     53  N   UNL A   1      42.226  30.799  29.469  1.00  0.00    -0.248 NA
ATOM     54  C   UNL A   1      41.048  32.316  30.797  1.00  0.00     0.031 C 
ATOM     55  C   UNL A   1      46.342  31.498  27.939  1.00  0.00     0.029 A 
ATOM     56  C   UNL A   1      45.057  31.306  28.419  1.00  0.00     0.049 A 
ATOM     57  H   UNL A   1      43.815  29.610  28.242  1.00  0.00     0.167 HD
ATOM     58  C   UNL A   1      42.988  31.950  29.628  1.00  0.00     0.074 A 
ATOM     59  C   UNL A   1      42.189  32.869  30.413  1.00  0.00     0.031 C 
ATOM     60  C   UNL A   1      44.237  32.221  29.173  1.00  0.00     0.034 A 
BRANCH  47  61
ATOM     61  C   UNL A   1      46.874  27.565  26.065  1.00  0.00     0.023 A 
ATOM     62  C   UNL A   1      47.051  27.782  24.684  1.00  0.00     0.012 A 
ATOM     63  C   UNL A   1      47.871  26.879  26.789  1.00  0.00     0.148 A 
ATOM     64  C   UNL A   1      48.179  27.290  24.027  1.00  0.00     0.002 A 
ATOM     65  C   UNL A   1      49.016  26.439  26.137  1.00  0.00     0.091 A 
ATOM     66  F   UNL A   1      47.675  26.663  28.097  1.00  0.00    -0.205 F 
ATOM     67  C   UNL A   1      49.165  26.629  24.754  1.00  0.00     0.022 A 
BRANCH  65  68
ATOM     68  S   UNL A   1      50.379  25.650  27.001  1.00  0.00     0.127 S 
ATOM     69  O   UNL A   1      49.767  24.393  27.432  1.00  0.00    -0.237 OA
ATOM     70  O   UNL A   1      51.372  25.510  25.937  1.00  0.00    -0.237 OA
ATOM     71  O   UNL A   1      50.757  26.557  28.075  1.00  0.00    -0.744 OA
ENDBRANCH  65  68
ENDBRANCH  47  61
BRANCH  48  72
ATOM     72  C   UNL A   1      38.699  30.573  31.010  1.00  0.00     0.023 A 
ATOM     73  C   UNL A   1      38.618  30.285  32.385  1.00  0.00     0.012 A 
ATOM     74  C   UNL A   1      37.646  31.274  30.390  1.00  0.00     0.148 A 
ATOM     75  C   UNL A   1      37.491  30.650  33.122  1.00  0.00     0.002 A 
ATOM     76  C   UNL A   1      36.554  31.689  31.142  1.00  0.00     0.091 A 
ATOM     77  F   UNL A   1      37.740  31.532  29.079  1.00  0.00    -0.205 F 
ATOM     78  C   UNL A   1      36.464  31.359  32.502  1.00  0.00     0.022 A 
BRANCH  76  79
ATOM     79  S   UNL A   1      35.245  32.709  30.458  1.00  0.00     0.127 S 
ATOM     80  O   UNL A   1      35.962  33.941  30.140  1.00  0.00    -0.237 OA
ATOM     81  O   UNL A   1      34.828  31.921  29.298  1.00  0.00    -0.237 OA
ATOM     82  O   UNL A   1      34.239  32.819  31.505  1.00  0.00    -0.744 OA
ENDBRANCH  76  79
ENDBRANCH  48  72
BRANCH  60  83
ATOM     83  C   UNL A   1      44.794  33.592  29.462  1.00  0.00     0.023 A 
ATOM     84  C   UNL A   1      45.482  33.844  30.665  1.00  0.00     0.012 A 
ATOM     85  C   UNL A   1      44.656  34.627  28.515  1.00  0.00     0.148 A 
ATOM     86  C   UNL A   1      45.971  35.119  30.947  1.00  0.00     0.002 A 
ATOM     87  C   UNL A   1      45.201  35.876  28.776  1.00  0.00     0.091 A 
ATOM     88  F   UNL A   1      43.985  34.373  27.383  1.00  0.00    -0.205 F 
ATOM     89  C   UNL A   1      45.840  36.131  30.000  1.00  0.00     0.022 A 
BRANCH  87  90
ATOM     90  S   UNL A   1      45.170  37.208  27.572  1.00  0.00     0.127 S 
ATOM     91  O   UNL A   1      43.735  37.391  27.366  1.00  0.00    -0.237 OA
ATOM     92  O   UNL A   1      45.825  38.296  28.300  1.00  0.00    -0.237 OA
ATOM     93  O   UNL A   1      45.910  36.723  26.415  1.00  0.00    -0.744 OA
ENDBRANCH  87  90
ENDBRANCH  60  83
ENDBRANCH  34  35
ENDBRANCH  27  29
ENDBRANCH  26  27
ENDBRANCH  25  26
ENDBRANCH   1  25
TORSDOF 20
ENDMDL
MODEL 2
REMARK VINA RESULT:     -12.0      0.460      7.826
REMARK SMILES CC(C)C[NH2+][C@@H](CC(=O)Nc1cccc(Cl)c1)C(=O)OCCOC(=O)c1ccc(-c2c3nc(c(-c4cccc(S(=O)(=O)[O-])c4F)c4ccc([nH]4)c(-c4cccc(S(=O)(=O)[O-])c4F)c4nc(c(-c5cccc(S(=O)(=O)[O-])c5F)c5ccc2[nH]5)C=C4)C=C3)cc1
REMARK SMILES IDX 21 1 20 2 18 3 19 4 6 5 5 6 4 9 2 10 1 11 3 12 7 13 8 14
REMARK SMILES IDX 9 15 10 16 11 18 12 19 17 20 13 21 15 22 14 23 16 24 22 25
REMARK SMILES IDX 23 26 24 27 25 28 26 29 27 30 88 31 28 32 87 33 29 34 30 35
REMARK SMILES IDX 31 36 81 37 32 38 86 39 80 40 82 41 33 42 85 43 79 44 78 45
REMARK SMILES IDX 34 47 66 48 46 49 65 50 47 51 50 52 64 53 83 54 48 55 49 56
REMARK SMILES IDX 63 58 84 59 51 60 35 61 36 62 44 63 37 64 39 65 45 66 38 67
REMARK SMILES IDX 40 68 41 69 42 70 43 71 67 72 68 73 76 74 69 75 71 76 77 77
REMARK SMILES IDX 70 78 72 79 73 80 74 81 75 82 52 83 53 84 61 85 54 86 56 87
REMARK SMILES IDX 62 88 55 89 57 90 58 91 59 92 60 93
REMARK H PARENT 5 7 5 8 10 17 82 46 50 57
REMARK Flexibility Score: inf
ROOT
ATOM      1  C   UNL A   1      35.728  20.695  24.916  1.00  0.00     0.274 C 
ENDROOT
BRANCH   1   2
ATOM      2  O   UNL A   1      35.324  21.334  26.143  1.00  0.00    -0.458 OA
BRANCH   2   3
ATOM      3  C   UNL A   1      34.002  21.245  26.462  1.00  0.00     0.365 C 
ATOM      4  O   UNL A   1      33.480  21.791  27.428  1.00  0.00    -0.245 OA
BRANCH   3   5
ATOM      5  C   UNL A   1      33.225  20.346  25.482  1.00  0.00     0.302 C 
BRANCH   5   6
ATOM      6  N   UNL A   1      32.839  19.084  26.096  1.00  0.00    -0.334 N 
ATOM      7  H   UNL A   1      33.460  18.947  26.894  1.00  0.00     0.347 HD
ATOM      8  H   UNL A   1      31.844  19.218  26.280  1.00  0.00     0.347 HD
BRANCH   6   9
ATOM      9  C   UNL A   1      32.861  17.855  25.339  1.00  0.00     0.264 C 
BRANCH   9  10
ATOM     10  C   UNL A   1      34.348  17.147  24.659  1.00  0.00     0.038 C 
ATOM     11  C   UNL A   1      35.801  15.747  25.516  1.00  0.00     0.013 C 
ATOM     12  C   UNL A   1      33.597  17.104  23.062  1.00  0.00     0.013 C 
ENDBRANCH   9  10
ENDBRANCH   6   9
ENDBRANCH   5   6
BRANCH   5  13
ATOM     13  C   UNL A   1      32.128  21.157  24.811  1.00  0.00     0.177 C 
BRANCH  13  14
ATOM     14  C   UNL A   1      32.178  21.207  23.301  1.00  0.00     0.231 C 
ATOM     15  O   UNL A   1      32.234  20.155  22.656  1.00  0.00    -0.274 OA
ATOM     16  N   UNL A   1      32.080  22.375  22.606  1.00  0.00    -0.326 N 
ATOM     17  H   UNL A   1      31.991  22.273  21.630  1.00  0.00     0.169 HD
BRANCH  16  18
ATOM     18  C   UNL A   1      32.084  23.697  23.065  1.00  0.00     0.042 A 
ATOM     19  C   UNL A   1      33.518  24.748  22.718  1.00  0.00     0.026 A 
ATOM     20  C   UNL A   1      30.514  24.441  23.535  1.00  0.00     0.046 A 
ATOM     21  C   UNL A   1      33.378  26.546  22.799  1.00  0.00     0.004 A 
ATOM     22  C   UNL A   1      30.365  26.235  23.563  1.00  0.00     0.043 A 
ATOM     23  C   UNL A   1      31.809  27.290  23.274  1.00  0.00     0.020 A 
ATOM     24  Cl  UNL A   1      28.801  26.951  23.707  1.00  0.00    -0.084 Cl
ENDBRANCH  16  18
ENDBRANCH  13  14
ENDBRANCH   5  13
ENDBRANCH   3   5
ENDBRANCH   2   3
ENDBRANCH   1   2
BRANCH   1  25
ATOM     25  C   UNL A   1      37.165  20.175  24.993  1.00  0.00     0.275 C 
BRANCH  25  26
ATOM     26  O   UNL A   1      38.111  21.251  25.119  1.00  0.00    -0.458 OA
BRANCH  26  27
ATOM     27  C   UNL A   1      39.141  20.980  25.951  1.00  0.00     0.338 C 
ATOM     28  O   UNL A   1      39.725  19.915  26.079  1.00  0.00    -0.246 OA
BRANCH  27  29
ATOM     29  C   UNL A   1      39.609  22.192  26.626  1.00  0.00     0.060 A 
ATOM     30  C   UNL A   1      39.111  23.408  26.161  1.00  0.00     0.016 A 
ATOM     31  C   UNL A   1      40.643  22.156  27.557  1.00  0.00     0.016 A 
ATOM     32  C   UNL A   1      39.698  24.598  26.545  1.00  0.00     0.010 A 
ATOM     33  C   UNL A   1      41.200  23.363  27.992  1.00  0.00     0.010 A 
ATOM     34  C   UNL A   1      40.758  24.587  27.454  1.00  0.00    -0.014 A 
BRANCH  34  35
ATOM     35  C   UNL A   1      41.426  25.870  27.764  1.00  0.00     0.031 A 
ATOM     36  C   UNL A   1      40.705  26.915  28.563  1.00  0.00     0.074 A 
ATOM     37  C   UNL A   1      42.703  26.057  27.379  1.00  0.00     0.049 A 
ATOM     38  N   UNL A   1      41.119  28.099  28.932  1.00  0.00    -0.248 NA
ATOM     39  C   UNL A   1      39.338  26.593  29.004  1.00  0.00     0.031 C 
ATOM     40  C   UNL A   1      43.506  25.091  26.624  1.00  0.00     0.029 A 
ATOM     41  N   UNL A   1      43.546  27.119  27.569  1.00  0.00    -0.354 N 
ATOM     42  C   UNL A   1      40.051  28.683  29.601  1.00  0.00     0.074 A 
ATOM     43  C   UNL A   1      38.965  27.726  29.582  1.00  0.00     0.031 C 
ATOM     44  C   UNL A   1      44.727  25.606  26.415  1.00  0.00     0.029 A 
ATOM     45  C   UNL A   1      44.771  26.955  26.970  1.00  0.00     0.049 A 
ATOM     46  H   UNL A   1      43.299  27.920  28.084  1.00  0.00     0.167 HD
ATOM     47  C   UNL A   1      39.985  29.903  30.185  1.00  0.00     0.034 A 
ATOM     48  C   UNL A   1      45.803  27.811  26.851  1.00  0.00     0.034 A 
ATOM     49  C   UNL A   1      41.079  30.837  30.212  1.00  0.00     0.049 A 
ATOM     50  C   UNL A   1      45.690  29.168  27.483  1.00  0.00     0.074 A 
ATOM     51  C   UNL A   1      41.130  32.084  30.808  1.00  0.00     0.029 A 
ATOM     52  N   UNL A   1      42.309  30.635  29.604  1.00  0.00    -0.354 N 
ATOM     53  N   UNL A   1      44.702  29.678  28.178  1.00  0.00    -0.248 NA
ATOM     54  C   UNL A   1      46.850  30.058  27.345  1.00  0.00     0.031 C 
ATOM     55  C   UNL A   1      42.371  32.658  30.515  1.00  0.00     0.029 A 
ATOM     56  C   UNL A   1      43.120  31.742  29.793  1.00  0.00     0.049 A 
ATOM     57  H   UNL A   1      42.568  29.824  29.110  1.00  0.00     0.167 HD
ATOM     58  C   UNL A   1      45.134  30.932  28.592  1.00  0.00     0.074 A 
ATOM     59  C   UNL A   1      46.485  31.090  28.091  1.00  0.00     0.031 C 
ATOM     60  C   UNL A   1      44.474  31.870  29.316  1.00  0.00     0.034 A 
BRANCH  47  61
ATOM     61  C   UNL A   1      38.682  30.302  30.828  1.00  0.00     0.023 A 
ATOM     62  C   UNL A   1      38.427  29.987  32.178  1.00  0.00     0.012 A 
ATOM     63  C   UNL A   1      37.722  31.030  30.097  1.00  0.00     0.148 A 
ATOM     64  C   UNL A   1      37.222  30.354  32.778  1.00  0.00     0.002 A 
ATOM     65  C   UNL A   1      36.548  31.439  30.717  1.00  0.00     0.091 A 
ATOM     66  F   UNL A   1      37.973  31.302  28.808  1.00  0.00    -0.205 F 
ATOM     67  C   UNL A   1      36.289  31.088  32.051  1.00  0.00     0.022 A 
BRANCH  65  68
ATOM     68  S   UNL A   1      35.320  32.457  29.891  1.00  0.00     0.127 S 
ATOM     69  O   UNL A   1      36.125  33.602  29.465  1.00  0.00    -0.237 OA
ATOM     70  O   UNL A   1      34.882  31.583  28.804  1.00  0.00    -0.237 OA
ATOM     71  O   UNL A   1      34.301  32.751  30.888  1.00  0.00    -0.744 OA
ENDBRANCH  65  68
ENDBRANCH  47  61
BRANCH  48  72
ATOM     72  C   UNL A   1      47.027  27.406  26.106  1.00  0.00     0.023 A 
ATOM     73  C   UNL A   1      47.148  27.709  24.737  1.00  0.00     0.012 A 
ATOM     74  C   UNL A   1      48.075  26.724  26.755  1.00  0.00     0.148 A 
ATOM     75  C   UNL A   1      48.272  27.304  24.016  1.00  0.00     0.002 A 
ATOM     76  C   UNL A   1      49.218  26.377  26.047  1.00  0.00     0.091 A 
ATOM     77  F   UNL A   1      47.937  26.439  28.057  1.00  0.00    -0.205 F 
ATOM     78  C   UNL A   1      49.310  26.646  24.673  1.00  0.00     0.022 A 
BRANCH  76  79
ATOM     79  S   UNL A   1      50.653  25.638  26.833  1.00  0.00     0.127 S 
ATOM     80  O   UNL A   1      51.540  25.422  25.693  1.00  0.00    -0.237 OA
ATOM     81  O   UNL A   1      51.071  26.700  27.747  1.00  0.00    -0.237 OA
ATOM     82  O   UNL A   1      50.169  24.432  27.490  1.00  0.00    -0.744 OA
ENDBRANCH  76  79
ENDBRANCH  48  72
BRANCH  60  83
ATOM     83  C   UNL A   1      45.226  33.130  29.661  1.00  0.00     0.023 A 
ATOM     84  C   UNL A   1      46.015  33.194  30.827  1.00  0.00     0.012 A 
ATOM     85  C   UNL A   1      45.170  34.247  28.804  1.00  0.00     0.148 A 
ATOM     86  C   UNL A   1      46.687  34.369  31.164  1.00  0.00     0.002 A 
ATOM     87  C   UNL A   1      45.892  35.391  29.113  1.00  0.00     0.091 A 
ATOM     88  F   UNL A   1      44.402  34.174  27.707  1.00  0.00    -0.205 F 
ATOM     89  C   UNL A   1      46.634  35.462  30.303  1.00  0.00     0.022 A 
BRANCH  87  90
ATOM     90  S   UNL A   1      45.965  36.808  28.013  1.00  0.00     0.127 S 
ATOM     91  O   UNL A   1      47.194  37.465  28.454  1.00  0.00    -0.237 OA
ATOM     92  O   UNL A   1      46.051  36.172  26.698  1.00  0.00    -0.237 OA
ATOM     93  O   UNL A   1      44.739  37.560  28.242  1.00  0.00    -0.744 OA
ENDBRANCH  87  90
ENDBRANCH  60  83
ENDBRANCH  34  35
ENDBRANCH  27  29
ENDBRANCH  26  27
ENDBRANCH  25  26
ENDBRANCH   1  25
TORSDOF 20
ENDMDL
MODEL 3
REMARK VINA RESULT:     -11.9      1.685      2.682
REMARK SMILES CC(C)C[NH2+][C@@H](CC(=O)Nc1cccc(Cl)c1)C(=O)OCCOC(=O)c1ccc(-c2c3nc(c(-c4cccc(S(=O)(=O)[O-])c4F)c4ccc([nH]4)c(-c4cccc(S(=O)(=O)[O-])c4F)c4nc(c(-c5cccc(S(=O)(=O)[O-])c5F)c5ccc2[nH]5)C=C4)C=C3)cc1
REMARK SMILES IDX 21 1 20 2 18 3 19 4 6 5 5 6 4 9 2 10 1 11 3 12 7 13 8 14
REMARK SMILES IDX 9 15 10 16 11 18 12 19 17 20 13 21 15 22 14 23 16 24 22 25
REMARK SMILES IDX 23 26 24 27 25 28 26 29 27 30 88 31 28 32 87 33 29 34 30 35
REMARK SMILES IDX 31 36 81 37 32 38 86 39 80 40 82 41 33 42 85 43 79 44 78 45
REMARK SMILES IDX 34 47 66 48 46 49 65 50 47 51 50 52 64 53 83 54 48 55 49 56
REMARK SMILES IDX 63 58 84 59 51 60 35 61 36 62 44 63 37 64 39 65 45 66 38 67
REMARK SMILES IDX 40 68 41 69 42 70 43 71 67 72 68 73 76 74 69 75 71 76 77 77
REMARK SMILES IDX 70 78 72 79 73 80 74 81 75 82 52 83 53 84 61 85 54 86 56 87
REMARK SMILES IDX 62 88 55 89 57 90 58 91 59 92 60 93
REMARK H PARENT 5 7 5 8 10 17 82 46 50 57
REMARK Flexibility Score: inf
ROOT
ATOM      1  C   UNL A   1      35.741  20.965  24.865  1.00  0.00     0.274 C 
ENDROOT
BRANCH   1   2
ATOM      2  O   UNL A   1      35.701  22.404  24.798  1.00  0.00    -0.458 OA
BRANCH   2   3
ATOM      3  C   UNL A   1      35.514  22.945  23.560  1.00  0.00     0.365 C 
ATOM      4  O   UNL A   1      36.335  22.905  22.651  1.00  0.00    -0.245 OA
BRANCH   3   5
ATOM      5  C   UNL A   1      34.152  23.652  23.435  1.00  0.00     0.302 C 
BRANCH   5   6
ATOM      6  N   UNL A   1      33.213  23.203  24.453  1.00  0.00    -0.334 N 
ATOM      7  H   UNL A   1      32.279  23.329  24.063  1.00  0.00     0.347 HD
ATOM      8  H   UNL A   1      33.528  22.252  24.646  1.00  0.00     0.347 HD
BRANCH   6   9
ATOM      9  C   UNL A   1      33.198  23.808  25.764  1.00  0.00     0.264 C 
BRANCH   9  10
ATOM     10  C   UNL A   1      32.047  23.350  27.044  1.00  0.00     0.038 C 
ATOM     11  C   UNL A   1      29.887  22.982  26.974  1.00  0.00     0.013 C 
ATOM     12  C   UNL A   1      33.298  22.378  27.822  1.00  0.00     0.013 C 
ENDBRANCH   9  10
ENDBRANCH   6   9
ENDBRANCH   5   6
BRANCH   5  13
ATOM     13  C   UNL A   1      34.369  25.151  23.302  1.00  0.00     0.177 C 
BRANCH  13  14
ATOM     14  C   UNL A   1      33.457  25.864  22.330  1.00  0.00     0.231 C 
ATOM     15  O   UNL A   1      33.452  25.531  21.139  1.00  0.00    -0.274 OA
ATOM     16  N   UNL A   1      32.564  26.813  22.729  1.00  0.00    -0.326 N 
ATOM     17  H   UNL A   1      31.934  27.111  22.033  1.00  0.00     0.169 HD
BRANCH  16  18
ATOM     18  C   UNL A   1      32.405  27.431  23.974  1.00  0.00     0.042 A 
ATOM     19  C   UNL A   1      31.078  26.874  25.074  1.00  0.00     0.026 A 
ATOM     20  C   UNL A   1      33.782  28.385  24.634  1.00  0.00     0.046 A 
ATOM     21  C   UNL A   1      31.142  27.233  26.843  1.00  0.00     0.004 A 
ATOM     22  C   UNL A   1      33.868  28.694  26.405  1.00  0.00     0.043 A 
ATOM     23  C   UNL A   1      32.516  28.191  27.501  1.00  0.00     0.020 A 
ATOM     24  Cl  UNL A   1      35.323  29.330  27.082  1.00  0.00    -0.084 Cl
ENDBRANCH  16  18
ENDBRANCH  13  14
ENDBRANCH   5  13
ENDBRANCH   3   5
ENDBRANCH   2   3
ENDBRANCH   1   2
BRANCH   1  25
ATOM     25  C   UNL A   1      37.177  20.437  24.862  1.00  0.00     0.275 C 
BRANCH  25  26
ATOM     26  O   UNL A   1      38.132  21.499  25.029  1.00  0.00    -0.458 OA
BRANCH  26  27
ATOM     27  C   UNL A   1      39.105  21.227  25.928  1.00  0.00     0.338 C 
ATOM     28  O   UNL A   1      39.666  20.156  26.103  1.00  0.00    -0.246 OA
BRANCH  27  29
ATOM     29  C   UNL A   1      39.542  22.441  26.619  1.00  0.00     0.060 A 
ATOM     30  C   UNL A   1      38.984  23.646  26.197  1.00  0.00     0.016 A 
ATOM     31  C   UNL A   1      40.604  22.425  27.520  1.00  0.00     0.016 A 
ATOM     32  C   UNL A   1      39.533  24.849  26.594  1.00  0.00     0.010 A 
ATOM     33  C   UNL A   1      41.124  23.643  27.969  1.00  0.00     0.010 A 
ATOM     34  C   UNL A   1      40.618  24.860  27.473  1.00  0.00    -0.014 A 
BRANCH  34  35
ATOM     35  C   UNL A   1      41.243  26.162  27.795  1.00  0.00     0.031 A 
ATOM     36  C   UNL A   1      42.629  26.467  27.308  1.00  0.00     0.074 A 
ATOM     37  C   UNL A   1      40.530  27.085  28.467  1.00  0.00     0.049 A 
ATOM     38  N   UNL A   1      43.345  27.545  27.489  1.00  0.00    -0.248 NA
ATOM     39  C   UNL A   1      43.304  25.425  26.517  1.00  0.00     0.031 C 
ATOM     40  C   UNL A   1      39.163  26.902  28.959  1.00  0.00     0.029 A 
ATOM     41  N   UNL A   1      40.857  28.359  28.851  1.00  0.00    -0.354 N 
ATOM     42  C   UNL A   1      44.569  27.294  26.882  1.00  0.00     0.074 A 
ATOM     43  C   UNL A   1      44.503  25.957  26.333  1.00  0.00     0.031 C 
ATOM     44  C   UNL A   1      38.767  28.023  29.581  1.00  0.00     0.029 A 
ATOM     45  C   UNL A   1      39.870  28.977  29.580  1.00  0.00     0.049 A 
ATOM     46  H   UNL A   1      41.714  28.789  28.627  1.00  0.00     0.167 HD
ATOM     47  C   UNL A   1      45.647  28.108  26.785  1.00  0.00     0.034 A 
ATOM     48  C   UNL A   1      39.868  30.168  30.207  1.00  0.00     0.034 A 
ATOM     49  C   UNL A   1      45.691  29.444  27.320  1.00  0.00     0.049 A 
ATOM     50  C   UNL A   1      41.089  31.038  30.106  1.00  0.00     0.074 A 
ATOM     51  C   UNL A   1      46.720  30.365  27.245  1.00  0.00     0.029 A 
ATOM     52  N   UNL A   1      44.671  30.042  28.044  1.00  0.00    -0.354 N 
ATOM     53  N   UNL A   1      42.211  30.817  29.465  1.00  0.00    -0.248 NA
ATOM     54  C   UNL A   1      41.030  32.337  30.789  1.00  0.00     0.031 C 
ATOM     55  C   UNL A   1      46.342  31.501  27.969  1.00  0.00     0.029 A 
ATOM     56  C   UNL A   1      45.052  31.314  28.439  1.00  0.00     0.049 A 
ATOM     57  H   UNL A   1      43.803  29.624  28.247  1.00  0.00     0.167 HD
ATOM     58  C   UNL A   1      42.977  31.964  29.634  1.00  0.00     0.074 A 
ATOM     59  C   UNL A   1      42.177  32.885  30.416  1.00  0.00     0.031 C 
ATOM     60  C   UNL A   1      44.230  32.231  29.189  1.00  0.00     0.034 A 
BRANCH  47  61
ATOM     61  C   UNL A   1      46.870  27.571  26.088  1.00  0.00     0.023 A 
ATOM     62  C   UNL A   1      47.065  27.803  24.711  1.00  0.00     0.012 A 
ATOM     63  C   UNL A   1      47.851  26.866  26.814  1.00  0.00     0.148 A 
ATOM     64  C   UNL A   1      48.195  27.307  24.061  1.00  0.00     0.002 A 
ATOM     65  C   UNL A   1      48.999  26.423  26.171  1.00  0.00     0.091 A 
ATOM     66  F   UNL A   1      47.637  26.637  28.118  1.00  0.00    -0.205 F 
ATOM     67  C   UNL A   1      49.166  26.628  24.792  1.00  0.00     0.022 A 
BRANCH  65  68
ATOM     68  S   UNL A   1      50.344  25.610  27.040  1.00  0.00     0.127 S 
ATOM     69  O   UNL A   1      51.308  25.399  25.961  1.00  0.00    -0.237 OA
ATOM     70  O   UNL A   1      50.734  26.627  28.016  1.00  0.00    -0.237 OA
ATOM     71  O   UNL A   1      49.780  24.397  27.615  1.00  0.00    -0.744 OA
ENDBRANCH  65  68
ENDBRANCH  47  61
BRANCH  48  72
ATOM     72  C   UNL A   1      38.672  30.604  30.978  1.00  0.00     0.023 A 
ATOM     73  C   UNL A   1      38.580  30.315  32.353  1.00  0.00     0.012 A 
ATOM     74  C   UNL A   1      37.625  31.309  30.352  1.00  0.00     0.148 A 
ATOM     75  C   UNL A   1      37.449  30.684  33.083  1.00  0.00     0.002 A 
ATOM     76  C   UNL A   1      36.529  31.726  31.096  1.00  0.00     0.091 A 
ATOM     77  F   UNL A   1      37.728  31.566  29.041  1.00  0.00    -0.205 F 
ATOM     78  C   UNL A   1      36.428  31.396  32.456  1.00  0.00     0.022 A 
BRANCH  76  79
ATOM     79  S   UNL A   1      35.227  32.750  30.405  1.00  0.00     0.127 S 
ATOM     80  O   UNL A   1      35.963  33.958  30.035  1.00  0.00    -0.237 OA
ATOM     81  O   UNL A   1      34.774  31.935  29.278  1.00  0.00    -0.237 OA
ATOM     82  O   UNL A   1      34.244  32.914  31.465  1.00  0.00    -0.744 OA
ENDBRANCH  76  79
ENDBRANCH  48  72
BRANCH  60  83
ATOM     83  C   UNL A   1      44.792  33.598  29.486  1.00  0.00     0.023 A 
ATOM     84  C   UNL A   1      45.575  33.814  30.637  1.00  0.00     0.012 A 
ATOM     85  C   UNL A   1      44.562  34.667  28.598  1.00  0.00     0.148 A 
ATOM     86  C   UNL A   1      46.070  35.084  30.930  1.00  0.00     0.002 A 
ATOM     87  C   UNL A   1      45.110  35.914  28.862  1.00  0.00     0.091 A 
ATOM     88  F   UNL A   1      43.801  34.448  27.515  1.00  0.00    -0.205 F 
ATOM     89  C   UNL A   1      45.846  36.131  30.039  1.00  0.00     0.022 A 
BRANCH  87  90
ATOM     90  S   UNL A   1      44.961  37.292  27.721  1.00  0.00     0.127 S 
ATOM     91  O   UNL A   1      45.566  38.381  28.486  1.00  0.00    -0.237 OA
ATOM     92  O   UNL A   1      45.756  36.833  26.580  1.00  0.00    -0.237 OA
ATOM     93  O   UNL A   1      43.538  37.437  27.446  1.00  0.00    -0.744 OA
ENDBRANCH  87  90
ENDBRANCH  60  83
ENDBRANCH  34  35
ENDBRANCH  27  29
ENDBRANCH  26  27
ENDBRANCH  25  26
ENDBRANCH   1  25
TORSDOF 20
ENDMDL
