MODEL 1
REMARK VINA RESULT:     -10.2      0.000      0.000
REMARK SMILES N#C[C@@H]1CN(C(=O)NCCCC(=O)OCCOC(=O)c2ccc(-c3c4nc(c(-c5cccc(S(=O)(=O)[O-])c5F)c5ccc([nH]5)c(-c5cccc(S(=O)(=O)[O-])c5F)c5nc(c(-c6cccc(S(=O)(=O)[O-])c6F)c6ccc3[nH]6)C=C5)C=C4)cc2)CCO1
REMARK SMILES IDX 15 1 14 2 12 3 13 4 11 5 10 6 9 7 8 8 6 9 7 10 5 12 3 13
REMARK SMILES IDX 4 14 85 15 84 16 83 17 2 18 1 19 16 20 17 21 18 22 19 23
REMARK SMILES IDX 20 24 21 25 82 26 22 27 81 28 23 29 24 30 25 31 75 32 26 33
REMARK SMILES IDX 80 34 74 35 76 36 27 37 79 38 73 39 72 40 28 42 60 43 40 44
REMARK SMILES IDX 59 45 41 46 44 47 58 48 77 49 42 50 43 51 57 53 78 54 45 55
REMARK SMILES IDX 29 56 30 57 38 58 31 59 33 60 39 61 32 62 34 63 35 64 36 65
REMARK SMILES IDX 37 66 61 67 62 68 70 69 63 70 65 71 71 72 64 73 66 74 67 75
REMARK SMILES IDX 68 76 69 77 46 78 47 79 55 80 48 81 50 82 56 83 49 84 51 85
REMARK SMILES IDX 52 86 53 87 54 88
REMARK H PARENT 8 11 76 41 44 52
REMARK Flexibility Score: inf
ROOT
ATOM      1  C   UNL A   1      31.806  28.440  26.920  1.00  0.00     0.274 C 
ENDROOT
BRANCH   1   2
ATOM      2  O   UNL A   1      31.183  27.522  26.003  1.00  0.00    -0.462 OA
BRANCH   2   3
ATOM      3  C   UNL A   1      31.972  26.642  25.341  1.00  0.00     0.305 C 
ATOM      4  O   UNL A   1      32.825  25.937  25.859  1.00  0.00    -0.252 OA
BRANCH   3   5
ATOM      5  C   UNL A   1      31.701  26.668  23.850  1.00  0.00     0.124 C 
BRANCH   5   6
ATOM      6  C   UNL A   1      32.783  27.373  23.027  1.00  0.00     0.033 C 
BRANCH   6   7
ATOM      7  C   UNL A   1      32.685  28.897  23.077  1.00  0.00     0.118 C 
BRANCH   7   8
ATOM      8  N   UNL A   1      31.739  29.380  22.088  1.00  0.00    -0.338 N 
ATOM      9  C   UNL A   1      30.457  29.761  22.021  1.00  0.00     0.317 C 
ATOM     10  O   UNL A   1      30.073  30.105  20.900  1.00  0.00    -0.249 OA
ATOM     11  H   UNL A   1      32.166  29.448  21.204  1.00  0.00     0.165 HD
BRANCH   9  12
ATOM     12  N   UNL A   1      29.632  29.817  23.100  1.00  0.00    -0.319 N 
ATOM     13  C   UNL A   1      28.061  31.598  23.663  1.00  0.00     0.240 C 
ATOM     14  C   UNL A   1      29.387  30.923  24.016  1.00  0.00     0.169 C 
ATOM     15  O   UNL A   1      27.006  30.594  23.849  1.00  0.00    -0.360 OA
ATOM     16  C   UNL A   1      27.211  29.426  23.015  1.00  0.00     0.183 C 
ATOM     17  C   UNL A   1      28.595  28.787  23.231  1.00  0.00     0.150 C 
BRANCH  13  18
ATOM     18  C   UNL A   1      27.928  32.201  22.274  1.00  0.00     0.096 C 
ATOM     19  N   UNL A   1      27.817  32.701  21.122  1.00  0.00    -0.195 NA
ENDBRANCH  13  18
ENDBRANCH   9  12
ENDBRANCH   7   8
ENDBRANCH   6   7
ENDBRANCH   5   6
ENDBRANCH   3   5
ENDBRANCH   2   3
ENDBRANCH   1   2
BRANCH   1  20
ATOM     20  C   UNL A   1      31.680  29.874  26.405  1.00  0.00     0.275 C 
BRANCH  20  21
ATOM     21  O   UNL A   1      32.982  30.448  26.203  1.00  0.00    -0.458 OA
BRANCH  21  22
ATOM     22  C   UNL A   1      33.300  31.495  26.995  1.00  0.00     0.338 C 
ATOM     23  O   UNL A   1      32.612  32.481  27.229  1.00  0.00    -0.246 OA
BRANCH  22  24
ATOM     24  C   UNL A   1      34.574  31.211  27.671  1.00  0.00     0.060 A 
ATOM     25  C   UNL A   1      34.846  29.898  28.069  1.00  0.00     0.016 A 
ATOM     26  C   UNL A   1      35.485  32.236  27.933  1.00  0.00     0.016 A 
ATOM     27  C   UNL A   1      36.034  29.603  28.733  1.00  0.00     0.010 A 
ATOM     28  C   UNL A   1      36.678  31.936  28.596  1.00  0.00     0.010 A 
ATOM     29  C   UNL A   1      36.955  30.621  29.008  1.00  0.00    -0.014 A 
BRANCH  29  30
ATOM     30  C   UNL A   1      38.197  30.317  29.756  1.00  0.00     0.031 A 
ATOM     31  C   UNL A   1      39.217  29.390  29.161  1.00  0.00     0.074 A 
ATOM     32  C   UNL A   1      38.396  30.855  30.973  1.00  0.00     0.049 A 
ATOM     33  N   UNL A   1      40.335  28.951  29.677  1.00  0.00    -0.248 NA
ATOM     34  C   UNL A   1      38.941  28.887  27.806  1.00  0.00     0.031 C 
ATOM     35  C   UNL A   1      37.476  31.769  31.652  1.00  0.00     0.029 A 
ATOM     36  N   UNL A   1      39.427  30.693  31.864  1.00  0.00    -0.354 N 
ATOM     37  C   UNL A   1      40.880  28.095  28.729  1.00  0.00     0.074 A 
ATOM     38  C   UNL A   1      39.966  28.070  27.607  1.00  0.00     0.031 C 
ATOM     39  C   UNL A   1      37.976  32.074  32.860  1.00  0.00     0.029 A 
ATOM     40  C   UNL A   1      39.232  31.354  33.054  1.00  0.00     0.049 A 
ATOM     41  H   UNL A   1      40.229  30.155  31.670  1.00  0.00     0.167 HD
ATOM     42  C   UNL A   1      42.044  27.404  28.783  1.00  0.00     0.034 A 
ATOM     43  C   UNL A   1      39.973  31.361  34.179  1.00  0.00     0.034 A 
ATOM     44  C   UNL A   1      42.962  27.453  29.889  1.00  0.00     0.049 A 
ATOM     45  C   UNL A   1      41.255  30.572  34.217  1.00  0.00     0.074 A 
ATOM     46  C   UNL A   1      44.187  26.823  30.019  1.00  0.00     0.029 A 
ATOM     47  N   UNL A   1      42.754  28.168  31.059  1.00  0.00    -0.354 N 
ATOM     48  N   UNL A   1      41.810  29.854  33.272  1.00  0.00    -0.248 NA
ATOM     49  C   UNL A   1      42.026  30.617  35.469  1.00  0.00     0.031 C 
ATOM     50  C   UNL A   1      44.714  27.146  31.274  1.00  0.00     0.029 A 
ATOM     51  C   UNL A   1      43.823  27.989  31.920  1.00  0.00     0.049 A 
ATOM     52  H   UNL A   1      41.963  28.722  31.249  1.00  0.00     0.167 HD
ATOM     53  C   UNL A   1      43.008  29.384  33.801  1.00  0.00     0.074 A 
ATOM     54  C   UNL A   1      43.107  29.918  35.145  1.00  0.00     0.031 C 
ATOM     55  C   UNL A   1      43.932  28.571  33.235  1.00  0.00     0.034 A 
BRANCH  42  56
ATOM     56  C   UNL A   1      42.403  26.558  27.591  1.00  0.00     0.023 A 
ATOM     57  C   UNL A   1      43.148  27.127  26.538  1.00  0.00     0.012 A 
ATOM     58  C   UNL A   1      42.042  25.199  27.528  1.00  0.00     0.148 A 
ATOM     59  C   UNL A   1      43.501  26.363  25.425  1.00  0.00     0.002 A 
ATOM     60  C   UNL A   1      42.429  24.435  26.432  1.00  0.00     0.091 A 
ATOM     61  F   UNL A   1      41.309  24.684  28.526  1.00  0.00    -0.205 F 
ATOM     62  C   UNL A   1      43.150  25.017  25.377  1.00  0.00     0.022 A 
BRANCH  60  63
ATOM     63  S   UNL A   1      42.078  22.676  26.316  1.00  0.00     0.127 S 
ATOM     64  O   UNL A   1      42.746  22.326  25.063  1.00  0.00    -0.237 OA
ATOM     65  O   UNL A   1      42.724  22.150  27.519  1.00  0.00    -0.237 OA
ATOM     66  O   UNL A   1      40.627  22.561  26.311  1.00  0.00    -0.744 OA
ENDBRANCH  60  63
ENDBRANCH  42  56
BRANCH  43  67
ATOM     67  C   UNL A   1      39.541  32.181  35.345  1.00  0.00     0.023 A 
ATOM     68  C   UNL A   1      38.774  31.582  36.364  1.00  0.00     0.012 A 
ATOM     69  C   UNL A   1      39.913  33.533  35.472  1.00  0.00     0.148 A 
ATOM     70  C   UNL A   1      38.369  32.319  37.476  1.00  0.00     0.002 A 
ATOM     71  C   UNL A   1      39.551  34.248  36.607  1.00  0.00     0.091 A 
ATOM     72  F   UNL A   1      40.625  34.091  34.481  1.00  0.00    -0.205 F 
ATOM     73  C   UNL A   1      38.767  33.647  37.604  1.00  0.00     0.022 A 
BRANCH  71  74
ATOM     74  S   UNL A   1      40.125  35.923  36.914  1.00  0.00     0.127 S 
ATOM     75  O   UNL A   1      41.559  35.720  37.097  1.00  0.00    -0.237 OA
ATOM     76  O   UNL A   1      39.753  36.603  35.672  1.00  0.00    -0.237 OA
ATOM     77  O   UNL A   1      39.393  36.379  38.088  1.00  0.00    -0.744 OA
ENDBRANCH  71  74
ENDBRANCH  43  67
BRANCH  55  78
ATOM     78  C   UNL A   1      45.150  28.222  34.051  1.00  0.00     0.023 A 
ATOM     79  C   UNL A   1      46.273  29.071  34.021  1.00  0.00     0.012 A 
ATOM     80  C   UNL A   1      45.151  27.101  34.904  1.00  0.00     0.148 A 
ATOM     81  C   UNL A   1      47.391  28.795  34.807  1.00  0.00     0.002 A 
ATOM     82  C   UNL A   1      46.252  26.857  35.718  1.00  0.00     0.091 A 
ATOM     83  F   UNL A   1      44.080  26.294  34.903  1.00  0.00    -0.205 F 
ATOM     84  C   UNL A   1      47.376  27.696  35.663  1.00  0.00     0.022 A 
BRANCH  82  85
ATOM     85  S   UNL A   1      46.278  25.518  36.915  1.00  0.00     0.127 S 
ATOM     86  O   UNL A   1      47.626  25.636  37.468  1.00  0.00    -0.237 OA
ATOM     87  O   UNL A   1      45.206  25.900  37.836  1.00  0.00    -0.237 OA
ATOM     88  O   UNL A   1      46.013  24.301  36.159  1.00  0.00    -0.744 OA
ENDBRANCH  82  85
ENDBRANCH  55  78
ENDBRANCH  29  30
ENDBRANCH  22  24
ENDBRANCH  21  22
ENDBRANCH  20  21
ENDBRANCH   1  20
TORSDOF 19
ENDMDL
MODEL 2
REMARK VINA RESULT:      -9.9      5.237      7.661
REMARK SMILES N#C[C@@H]1CN(C(=O)NCCCC(=O)OCCOC(=O)c2ccc(-c3c4nc(c(-c5cccc(S(=O)(=O)[O-])c5F)c5ccc([nH]5)c(-c5cccc(S(=O)(=O)[O-])c5F)c5nc(c(-c6cccc(S(=O)(=O)[O-])c6F)c6ccc3[nH]6)C=C5)C=C4)cc2)CCO1
REMARK SMILES IDX 15 1 14 2 12 3 13 4 11 5 10 6 9 7 8 8 6 9 7 10 5 12 3 13
REMARK SMILES IDX 4 14 85 15 84 16 83 17 2 18 1 19 16 20 17 21 18 22 19 23
REMARK SMILES IDX 20 24 21 25 82 26 22 27 81 28 23 29 24 30 25 31 75 32 26 33
REMARK SMILES IDX 80 34 74 35 76 36 27 37 79 38 73 39 72 40 28 42 60 43 40 44
REMARK SMILES IDX 59 45 41 46 44 47 58 48 77 49 42 50 43 51 57 53 78 54 45 55
REMARK SMILES IDX 29 56 30 57 38 58 31 59 33 60 39 61 32 62 34 63 35 64 36 65
REMARK SMILES IDX 37 66 61 67 62 68 70 69 63 70 65 71 71 72 64 73 66 74 67 75
REMARK SMILES IDX 68 76 69 77 46 78 47 79 55 80 48 81 50 82 56 83 49 84 51 85
REMARK SMILES IDX 52 86 53 87 54 88
REMARK H PARENT 8 11 76 41 44 52
REMARK Flexibility Score: inf
ROOT
ATOM      1  C   UNL A   1      36.118  21.211  24.522  1.00  0.00     0.274 C 
ENDROOT
BRANCH   1   2
ATOM      2  O   UNL A   1      35.037  20.300  24.790  1.00  0.00    -0.462 OA
BRANCH   2   3
ATOM      3  C   UNL A   1      34.053  20.701  25.631  1.00  0.00     0.305 C 
ATOM      4  O   UNL A   1      32.982  20.133  25.779  1.00  0.00    -0.252 OA
BRANCH   3   5
ATOM      5  C   UNL A   1      34.423  21.986  26.344  1.00  0.00     0.124 C 
BRANCH   5   6
ATOM      6  C   UNL A   1      33.235  22.907  26.636  1.00  0.00     0.033 C 
BRANCH   6   7
ATOM      7  C   UNL A   1      33.375  24.293  26.009  1.00  0.00     0.118 C 
BRANCH   7   8
ATOM      8  N   UNL A   1      32.189  25.090  26.263  1.00  0.00    -0.338 N 
ATOM      9  C   UNL A   1      31.859  26.374  26.455  1.00  0.00     0.317 C 
ATOM     10  O   UNL A   1      30.658  26.580  26.650  1.00  0.00    -0.249 OA
ATOM     11  H   UNL A   1      31.390  24.518  26.309  1.00  0.00     0.165 HD
BRANCH   9  12
ATOM     12  N   UNL A   1      32.752  27.396  26.398  1.00  0.00    -0.319 N 
ATOM     13  C   UNL A   1      32.886  29.145  24.701  1.00  0.00     0.240 C 
ATOM     14  C   UNL A   1      33.531  27.878  25.264  1.00  0.00     0.169 C 
ATOM     15  O   UNL A   1      32.930  30.158  25.762  1.00  0.00    -0.360 OA
ATOM     16  C   UNL A   1      32.229  29.728  26.956  1.00  0.00     0.183 C 
ATOM     17  C   UNL A   1      32.749  28.379  27.488  1.00  0.00     0.150 C 
BRANCH  13  18
ATOM     18  C   UNL A   1      31.461  29.037  24.182  1.00  0.00     0.096 C 
ATOM     19  N   UNL A   1      30.279  28.947  23.752  1.00  0.00    -0.195 NA
ENDBRANCH  13  18
ENDBRANCH   9  12
ENDBRANCH   7   8
ENDBRANCH   6   7
ENDBRANCH   5   6
ENDBRANCH   3   5
ENDBRANCH   2   3
ENDBRANCH   1   2
BRANCH   1  20
ATOM     20  C   UNL A   1      37.444  20.618  24.998  1.00  0.00     0.275 C 
BRANCH  20  21
ATOM     21  O   UNL A   1      37.955  21.367  26.113  1.00  0.00    -0.458 OA
BRANCH  21  22
ATOM     22  C   UNL A   1      39.281  21.258  26.346  1.00  0.00     0.338 C 
ATOM     23  O   UNL A   1      39.990  20.280  26.145  1.00  0.00    -0.246 OA
BRANCH  22  24
ATOM     24  C   UNL A   1      39.800  22.570  26.757  1.00  0.00     0.060 A 
ATOM     25  C   UNL A   1      39.265  23.720  26.169  1.00  0.00     0.016 A 
ATOM     26  C   UNL A   1      40.825  22.666  27.701  1.00  0.00     0.016 A 
ATOM     27  C   UNL A   1      39.753  24.976  26.522  1.00  0.00     0.010 A 
ATOM     28  C   UNL A   1      41.311  23.928  28.055  1.00  0.00     0.010 A 
ATOM     29  C   UNL A   1      40.785  25.089  27.461  1.00  0.00    -0.014 A 
BRANCH  29  30
ATOM     30  C   UNL A   1      41.339  26.420  27.802  1.00  0.00     0.031 A 
ATOM     31  C   UNL A   1      42.756  26.753  27.437  1.00  0.00     0.074 A 
ATOM     32  C   UNL A   1      40.577  27.316  28.456  1.00  0.00     0.049 A 
ATOM     33  N   UNL A   1      43.444  27.834  27.699  1.00  0.00    -0.248 NA
ATOM     34  C   UNL A   1      43.501  25.733  26.681  1.00  0.00     0.031 C 
ATOM     35  C   UNL A   1      39.187  27.104  28.861  1.00  0.00     0.029 A 
ATOM     36  N   UNL A   1      40.872  28.575  28.913  1.00  0.00    -0.354 N 
ATOM     37  C   UNL A   1      44.710  27.614  27.171  1.00  0.00     0.074 A 
ATOM     38  C   UNL A   1      44.698  26.293  26.580  1.00  0.00     0.031 C 
ATOM     39  C   UNL A   1      38.755  28.190  29.522  1.00  0.00     0.029 A 
ATOM     40  C   UNL A   1      39.844  29.159  29.615  1.00  0.00     0.049 A 
ATOM     41  H   UNL A   1      41.737  29.019  28.753  1.00  0.00     0.167 HD
ATOM     42  C   UNL A   1      45.780  28.443  27.167  1.00  0.00     0.034 A 
ATOM     43  C   UNL A   1      39.794  30.333  30.274  1.00  0.00     0.034 A 
ATOM     44  C   UNL A   1      45.779  29.766  27.732  1.00  0.00     0.049 A 
ATOM     45  C   UNL A   1      41.003  31.230  30.266  1.00  0.00     0.074 A 
ATOM     46  C   UNL A   1      46.801  30.700  27.739  1.00  0.00     0.029 A 
ATOM     47  N   UNL A   1      44.707  30.342  28.395  1.00  0.00    -0.354 N 
ATOM     48  N   UNL A   1      42.157  31.054  29.670  1.00  0.00    -0.248 NA
ATOM     49  C   UNL A   1      40.893  32.500  30.999  1.00  0.00     0.031 C 
ATOM     50  C   UNL A   1      46.350  31.836  28.420  1.00  0.00     0.029 A 
ATOM     51  C   UNL A   1      45.043  31.615  28.825  1.00  0.00     0.049 A 
ATOM     52  H   UNL A   1      43.834  29.910  28.540  1.00  0.00     0.167 HD
ATOM     53  C   UNL A   1      42.901  32.199  29.930  1.00  0.00     0.074 A 
ATOM     54  C   UNL A   1      42.057  33.073  30.721  1.00  0.00     0.031 C 
ATOM     55  C   UNL A   1      44.172  32.495  29.565  1.00  0.00     0.034 A 
BRANCH  42  56
ATOM     56  C   UNL A   1      47.036  27.951  26.500  1.00  0.00     0.023 A 
ATOM     57  C   UNL A   1      48.052  27.364  27.282  1.00  0.00     0.012 A 
ATOM     58  C   UNL A   1      47.199  28.033  25.104  1.00  0.00     0.148 A 
ATOM     59  C   UNL A   1      49.222  26.893  26.688  1.00  0.00     0.002 A 
ATOM     60  C   UNL A   1      48.353  27.528  24.515  1.00  0.00     0.091 A 
ATOM     61  F   UNL A   1      46.235  28.621  24.380  1.00  0.00    -0.205 F 
ATOM     62  C   UNL A   1      49.369  26.966  25.305  1.00  0.00     0.022 A 
BRANCH  60  63
ATOM     63  S   UNL A   1      48.598  27.520  22.735  1.00  0.00     0.127 S 
ATOM     64  O   UNL A   1      49.915  28.145  22.616  1.00  0.00    -0.237 OA
ATOM     65  O   UNL A   1      48.572  26.090  22.423  1.00  0.00    -0.237 OA
ATOM     66  O   UNL A   1      47.487  28.278  22.178  1.00  0.00    -0.744 OA
ENDBRANCH  60  63
ENDBRANCH  42  56
BRANCH  43  67
ATOM     67  C   UNL A   1      38.536  30.745  30.957  1.00  0.00     0.023 A 
ATOM     68  C   UNL A   1      38.389  30.502  32.337  1.00  0.00     0.012 A 
ATOM     69  C   UNL A   1      37.504  31.407  30.263  1.00  0.00     0.148 A 
ATOM     70  C   UNL A   1      37.230  30.892  33.008  1.00  0.00     0.002 A 
ATOM     71  C   UNL A   1      36.375  31.839  30.948  1.00  0.00     0.091 A 
ATOM     72  F   UNL A   1      37.654  31.609  28.945  1.00  0.00    -0.205 F 
ATOM     73  C   UNL A   1      36.229  31.571  32.317  1.00  0.00     0.022 A 
BRANCH  71  74
ATOM     74  S   UNL A   1      35.096  32.829  30.165  1.00  0.00     0.127 S 
ATOM     75  O   UNL A   1      34.197  33.096  31.285  1.00  0.00    -0.237 OA
ATOM     76  O   UNL A   1      35.854  33.989  29.693  1.00  0.00    -0.237 OA
ATOM     77  O   UNL A   1      34.552  31.996  29.101  1.00  0.00    -0.744 OA
ENDBRANCH  71  74
ENDBRANCH  43  67
BRANCH  55  78
ATOM     78  C   UNL A   1      44.730  33.828  29.991  1.00  0.00     0.023 A 
ATOM     79  C   UNL A   1      45.463  33.923  31.190  1.00  0.00     0.012 A 
ATOM     80  C   UNL A   1      44.596  34.963  29.169  1.00  0.00     0.148 A 
ATOM     81  C   UNL A   1      46.032  35.135  31.579  1.00  0.00     0.002 A 
ATOM     82  C   UNL A   1      45.203  36.158  29.541  1.00  0.00     0.091 A 
ATOM     83  F   UNL A   1      43.877  34.857  28.042  1.00  0.00    -0.205 F 
ATOM     84  C   UNL A   1      45.912  36.248  30.750  1.00  0.00     0.022 A 
BRANCH  82  85
ATOM     85  S   UNL A   1      45.176  37.614  28.489  1.00  0.00     0.127 S 
ATOM     86  O   UNL A   1      45.944  38.572  29.283  1.00  0.00    -0.237 OA
ATOM     87  O   UNL A   1      45.856  37.140  27.281  1.00  0.00    -0.237 OA
ATOM     88  O   UNL A   1      43.769  37.940  28.297  1.00  0.00    -0.744 OA
ENDBRANCH  82  85
ENDBRANCH  55  78
ENDBRANCH  29  30
ENDBRANCH  22  24
ENDBRANCH  21  22
ENDBRANCH  20  21
ENDBRANCH   1  20
TORSDOF 19
ENDMDL
MODEL 3
REMARK VINA RESULT:      -9.9      1.795      3.683
REMARK SMILES N#C[C@@H]1CN(C(=O)NCCCC(=O)OCCOC(=O)c2ccc(-c3c4nc(c(-c5cccc(S(=O)(=O)[O-])c5F)c5ccc([nH]5)c(-c5cccc(S(=O)(=O)[O-])c5F)c5nc(c(-c6cccc(S(=O)(=O)[O-])c6F)c6ccc3[nH]6)C=C5)C=C4)cc2)CCO1
REMARK SMILES IDX 15 1 14 2 12 3 13 4 11 5 10 6 9 7 8 8 6 9 7 10 5 12 3 13
REMARK SMILES IDX 4 14 85 15 84 16 83 17 2 18 1 19 16 20 17 21 18 22 19 23
REMARK SMILES IDX 20 24 21 25 82 26 22 27 81 28 23 29 24 30 25 31 75 32 26 33
REMARK SMILES IDX 80 34 74 35 76 36 27 37 79 38 73 39 72 40 28 42 60 43 40 44
REMARK SMILES IDX 59 45 41 46 44 47 58 48 77 49 42 50 43 51 57 53 78 54 45 55
REMARK SMILES IDX 29 56 30 57 38 58 31 59 33 60 39 61 32 62 34 63 35 64 36 65
REMARK SMILES IDX 37 66 61 67 62 68 70 69 63 70 65 71 71 72 64 73 66 74 67 75
REMARK SMILES IDX 68 76 69 77 46 78 47 79 55 80 48 81 50 82 56 83 49 84 51 85
REMARK SMILES IDX 52 86 53 87 54 88
REMARK H PARENT 8 11 76 41 44 52
REMARK Flexibility Score: inf
ROOT
ATOM      1  C   UNL A   1      30.984  29.941  24.673  1.00  0.00     0.274 C 
ENDROOT
BRANCH   1   2
ATOM      2  O   UNL A   1      31.130  28.891  23.701  1.00  0.00    -0.462 OA
BRANCH   2   3
ATOM      3  C   UNL A   1      30.142  28.716  22.791  1.00  0.00     0.305 C 
ATOM      4  O   UNL A   1      29.959  29.420  21.809  1.00  0.00    -0.252 OA
BRANCH   3   5
ATOM      5  C   UNL A   1      29.244  27.554  23.165  1.00  0.00     0.124 C 
BRANCH   5   6
ATOM      6  C   UNL A   1      29.905  26.517  24.078  1.00  0.00     0.033 C 
BRANCH   6   7
ATOM      7  C   UNL A   1      30.822  25.550  23.332  1.00  0.00     0.118 C 
BRANCH   7   8
ATOM      8  N   UNL A   1      32.215  25.873  23.582  1.00  0.00    -0.338 N 
ATOM      9  C   UNL A   1      33.255  25.384  24.271  1.00  0.00     0.317 C 
ATOM     10  O   UNL A   1      34.296  26.041  24.180  1.00  0.00    -0.249 OA
ATOM     11  H   UNL A   1      32.473  26.693  23.104  1.00  0.00     0.165 HD
BRANCH   9  12
ATOM     12  N   UNL A   1      33.207  24.231  24.988  1.00  0.00    -0.319 N 
ATOM     13  C   UNL A   1      34.309  22.118  24.457  1.00  0.00     0.240 C 
ATOM     14  C   UNL A   1      32.978  22.868  24.525  1.00  0.00     0.169 C 
ATOM     15  O   UNL A   1      34.842  22.066  25.824  1.00  0.00    -0.360 OA
ATOM     16  C   UNL A   1      35.040  23.388  26.384  1.00  0.00     0.183 C 
ATOM     17  C   UNL A   1      33.757  24.238  26.348  1.00  0.00     0.150 C 
BRANCH  13  18
ATOM     18  C   UNL A   1      35.380  22.673  23.531  1.00  0.00     0.096 C 
ATOM     19  N   UNL A   1      36.268  23.133  22.764  1.00  0.00    -0.195 NA
ENDBRANCH  13  18
ENDBRANCH   9  12
ENDBRANCH   7   8
ENDBRANCH   6   7
ENDBRANCH   5   6
ENDBRANCH   3   5
ENDBRANCH   2   3
ENDBRANCH   1   2
BRANCH   1  20
ATOM     20  C   UNL A   1      31.779  29.612  25.936  1.00  0.00     0.275 C 
BRANCH  20  21
ATOM     21  O   UNL A   1      33.079  30.224  25.882  1.00  0.00    -0.458 OA
BRANCH  21  22
ATOM     22  C   UNL A   1      33.298  31.234  26.751  1.00  0.00     0.338 C 
ATOM     23  O   UNL A   1      32.586  32.213  26.943  1.00  0.00    -0.246 OA
BRANCH  22  24
ATOM     24  C   UNL A   1      34.480  30.915  27.563  1.00  0.00     0.060 A 
ATOM     25  C   UNL A   1      35.388  31.936  27.861  1.00  0.00     0.016 A 
ATOM     26  C   UNL A   1      34.706  29.611  28.010  1.00  0.00     0.016 A 
ATOM     27  C   UNL A   1      36.530  31.658  28.609  1.00  0.00     0.010 A 
ATOM     28  C   UNL A   1      35.851  29.336  28.763  1.00  0.00     0.010 A 
ATOM     29  C   UNL A   1      36.773  30.354  29.058  1.00  0.00    -0.014 A 
BRANCH  29  30
ATOM     30  C   UNL A   1      38.011  30.047  29.813  1.00  0.00     0.031 A 
ATOM     31  C   UNL A   1      39.016  29.092  29.238  1.00  0.00     0.074 A 
ATOM     32  C   UNL A   1      38.218  30.608  31.018  1.00  0.00     0.049 A 
ATOM     33  N   UNL A   1      40.127  28.647  29.763  1.00  0.00    -0.248 NA
ATOM     34  C   UNL A   1      38.732  28.564  27.893  1.00  0.00     0.031 C 
ATOM     35  C   UNL A   1      37.313  31.550  31.677  1.00  0.00     0.029 A 
ATOM     36  N   UNL A   1      39.246  30.449  31.912  1.00  0.00    -0.354 N 
ATOM     37  C   UNL A   1      40.659  27.763  28.834  1.00  0.00     0.074 A 
ATOM     38  C   UNL A   1      39.744  27.728  27.712  1.00  0.00     0.031 C 
ATOM     39  C   UNL A   1      37.818  31.873  32.879  1.00  0.00     0.029 A 
ATOM     40  C   UNL A   1      39.063  31.138  33.088  1.00  0.00     0.049 A 
ATOM     41  H   UNL A   1      40.040  29.895  31.730  1.00  0.00     0.167 HD
ATOM     42  C   UNL A   1      41.811  27.055  28.902  1.00  0.00     0.034 A 
ATOM     43  C   UNL A   1      39.804  31.157  34.213  1.00  0.00     0.034 A 
ATOM     44  C   UNL A   1      42.730  27.113  30.007  1.00  0.00     0.049 A 
ATOM     45  C   UNL A   1      41.073  30.350  34.268  1.00  0.00     0.074 A 
ATOM     46  C   UNL A   1      43.946  26.467  30.150  1.00  0.00     0.029 A 
ATOM     47  N   UNL A   1      42.534  27.855  31.161  1.00  0.00    -0.354 N 
ATOM     48  N   UNL A   1      41.617  29.603  33.339  1.00  0.00    -0.248 NA
ATOM     49  C   UNL A   1      41.845  30.409  35.518  1.00  0.00     0.031 C 
ATOM     50  C   UNL A   1      44.477  26.808  31.399  1.00  0.00     0.029 A 
ATOM     51  C   UNL A   1      43.600  27.678  32.027  1.00  0.00     0.049 A 
ATOM     52  H   UNL A   1      41.751  28.425  31.340  1.00  0.00     0.167 HD
ATOM     53  C   UNL A   1      42.807  29.126  33.877  1.00  0.00     0.074 A 
ATOM     54  C   UNL A   1      42.914  29.687  35.209  1.00  0.00     0.031 C 
ATOM     55  C   UNL A   1      43.718  28.287  33.328  1.00  0.00     0.034 A 
BRANCH  42  56
ATOM     56  C   UNL A   1      42.158  26.179  27.729  1.00  0.00     0.023 A 
ATOM     57  C   UNL A   1      42.910  26.713  26.663  1.00  0.00     0.012 A 
ATOM     58  C   UNL A   1      41.775  24.824  27.694  1.00  0.00     0.148 A 
ATOM     59  C   UNL A   1      43.251  25.921  25.567  1.00  0.00     0.002 A 
ATOM     60  C   UNL A   1      42.150  24.031  26.615  1.00  0.00     0.091 A 
ATOM     61  F   UNL A   1      41.035  24.342  28.703  1.00  0.00    -0.205 F 
ATOM     62  C   UNL A   1      42.880  24.579  25.548  1.00  0.00     0.022 A 
BRANCH  60  63
ATOM     63  S   UNL A   1      41.773  22.276  26.536  1.00  0.00     0.127 S 
ATOM     64  O   UNL A   1      42.336  21.797  27.798  1.00  0.00    -0.237 OA
ATOM     65  O   UNL A   1      40.310  22.274  26.483  1.00  0.00    -0.237 OA
ATOM     66  O   UNL A   1      42.421  21.785  25.329  1.00  0.00    -0.744 OA
ENDBRANCH  60  63
ENDBRANCH  42  56
BRANCH  43  67
ATOM     67  C   UNL A   1      39.384  32.008  35.361  1.00  0.00     0.023 A 
ATOM     68  C   UNL A   1      38.555  31.460  36.359  1.00  0.00     0.012 A 
ATOM     69  C   UNL A   1      39.828  33.338  35.491  1.00  0.00     0.148 A 
ATOM     70  C   UNL A   1      38.160  32.227  37.455  1.00  0.00     0.002 A 
ATOM     71  C   UNL A   1      39.474  34.080  36.612  1.00  0.00     0.091 A 
ATOM     72  F   UNL A   1      40.599  33.848  34.520  1.00  0.00    -0.205 F 
ATOM     73  C   UNL A   1      38.628  33.532  37.588  1.00  0.00     0.022 A 
BRANCH  71  74
ATOM     74  S   UNL A   1      40.132  35.722  36.926  1.00  0.00     0.127 S 
ATOM     75  O   UNL A   1      39.652  36.465  35.765  1.00  0.00    -0.237 OA
ATOM     76  O   UNL A   1      39.486  36.072  38.192  1.00  0.00    -0.237 OA
ATOM     77  O   UNL A   1      41.576  35.554  37.019  1.00  0.00    -0.744 OA
ENDBRANCH  71  74
ENDBRANCH  43  67
BRANCH  55  78
ATOM     78  C   UNL A   1      44.930  27.936  34.152  1.00  0.00     0.023 A 
ATOM     79  C   UNL A   1      46.070  28.763  34.099  1.00  0.00     0.012 A 
ATOM     80  C   UNL A   1      44.912  26.838  35.034  1.00  0.00     0.148 A 
ATOM     81  C   UNL A   1      47.184  28.486  34.890  1.00  0.00     0.002 A 
ATOM     82  C   UNL A   1      46.009  26.594  35.853  1.00  0.00     0.091 A 
ATOM     83  F   UNL A   1      43.826  26.052  35.055  1.00  0.00    -0.205 F 
ATOM     84  C   UNL A   1      47.149  27.410  35.775  1.00  0.00     0.022 A 
BRANCH  82  85
ATOM     85  S   UNL A   1      46.013  25.287  37.084  1.00  0.00     0.127 S 
ATOM     86  O   UNL A   1      44.844  25.632  37.892  1.00  0.00    -0.237 OA
ATOM     87  O   UNL A   1      45.852  24.084  36.264  1.00  0.00    -0.237 OA
ATOM     88  O   UNL A   1      47.298  25.382  37.763  1.00  0.00    -0.744 OA
ENDBRANCH  82  85
ENDBRANCH  55  78
ENDBRANCH  29  30
ENDBRANCH  22  24
ENDBRANCH  21  22
ENDBRANCH  20  21
ENDBRANCH   1  20
TORSDOF 19
ENDMDL
