MODEL 1
REMARK VINA RESULT:     -12.6      0.000      0.000
REMARK SMILES Cc1cccc(S(=O)(=O)Nc2cc(C(=O)OCCOC(=O)c3ccc(-c4c5nc(c(-c6cccc(S(=O)(=O)[O-])c6F)c6ccc([nH]6)c(-c6cccc(S(=O)(=O)[O-])c6F)c6nc(c(-c7cccc(S(=O)(=O)[O-])c7F)c7ccc4[nH]7)C=C6)C=C5)cc3)ccc2N2CCC[C@H](C[NH+]3CCCC3)C2)c1
REMARK SMILES IDX 17 1 16 2 14 3 15 4 13 5 11 6 12 7 87 8 86 9 85 10 10 11
REMARK SMILES IDX 7 13 8 14 9 15 6 16 1 17 2 18 3 19 100 20 4 21 5 22 88 23
REMARK SMILES IDX 89 24 99 25 90 26 92 27 91 28 93 29 94 30 95 31 98 32 96 34
REMARK SMILES IDX 97 35 18 36 19 37 20 38 21 39 22 40 23 41 84 42 24 43 83 44
REMARK SMILES IDX 25 45 26 46 27 47 77 48 28 49 82 50 76 51 78 52 29 53 81 54
REMARK SMILES IDX 75 55 74 56 30 58 62 59 42 60 61 61 43 62 46 63 60 64 79 65
REMARK SMILES IDX 44 66 45 67 59 69 80 70 47 71 31 72 32 73 40 74 33 75 35 76
REMARK SMILES IDX 41 77 34 78 36 79 37 80 38 81 39 82 63 83 64 84 72 85 65 86
REMARK SMILES IDX 67 87 73 88 66 89 68 90 69 91 70 92 71 93 48 94 49 95 57 96
REMARK SMILES IDX 50 97 52 98 58 99 51 100 53 101 54 102 55 103 56 104
REMARK H PARENT 10 12 94 33 78 57 46 68
REMARK Flexibility Score: inf
ROOT
ATOM      1  C   UNL A   1      33.964  32.439  27.657  1.00  0.00     0.275 C 
ENDROOT
BRANCH   1   2
ATOM      2  O   UNL A   1      33.132  31.289  27.772  1.00  0.00    -0.458 OA
BRANCH   2   3
ATOM      3  C   UNL A   1      32.153  31.076  26.873  1.00  0.00     0.338 C 
ATOM      4  O   UNL A   1      31.348  31.888  26.448  1.00  0.00    -0.246 OA
BRANCH   3   5
ATOM      5  C   UNL A   1      32.162  29.629  26.588  1.00  0.00     0.062 A 
ATOM      6  C   UNL A   1      32.091  27.829  24.928  1.00  0.00     0.073 A 
ATOM      7  C   UNL A   1      32.003  29.185  25.277  1.00  0.00     0.044 A 
ATOM      8  C   UNL A   1      32.334  26.857  25.953  1.00  0.00     0.061 A 
ATOM      9  C   UNL A   1      32.585  27.378  27.255  1.00  0.00     0.029 A 
ATOM     10  C   UNL A   1      32.466  28.727  27.588  1.00  0.00     0.018 A 
BRANCH   6  11
ATOM     11  N   UNL A   1      32.121  27.524  23.519  1.00  0.00    -0.277 N 
ATOM     12  H   UNL A   1      32.992  27.526  23.061  1.00  0.00     0.180 HD
BRANCH  11  13
ATOM     13  S   UNL A   1      30.742  27.163  22.609  1.00  0.00     0.261 S 
ATOM     14  O   UNL A   1      30.077  26.015  23.193  1.00  0.00    -0.201 OA
ATOM     15  O   UNL A   1      31.280  27.076  21.264  1.00  0.00    -0.201 OA
BRANCH  13  16
ATOM     16  C   UNL A   1      29.555  28.511  22.597  1.00  0.00     0.088 A 
ATOM     17  C   UNL A   1      28.720  32.146  21.624  1.00  0.00     0.044 C 
ATOM     18  C   UNL A   1      28.689  30.761  22.196  1.00  0.00    -0.050 A 
ATOM     19  C   UNL A   1      27.463  30.389  22.745  1.00  0.00     0.003 A 
ATOM     20  C   UNL A   1      29.767  29.830  22.161  1.00  0.00     0.025 A 
ATOM     21  C   UNL A   1      27.275  29.105  23.214  1.00  0.00     0.002 A 
ATOM     22  C   UNL A   1      28.298  28.166  23.112  1.00  0.00     0.022 A 
ENDBRANCH  13  16
ENDBRANCH  11  13
ENDBRANCH   6  11
BRANCH   8  23
ATOM     23  N   UNL A   1      32.334  25.452  25.849  1.00  0.00    -0.369 N 
ATOM     24  C   UNL A   1      31.065  24.773  26.203  1.00  0.00     0.116 C 
ATOM     25  C   UNL A   1      33.250  24.659  25.022  1.00  0.00     0.126 C 
ATOM     26  C   UNL A   1      31.341  23.435  26.875  1.00  0.00     0.022 C 
ATOM     27  C   UNL A   1      33.480  23.217  25.559  1.00  0.00     0.064 C 
ATOM     28  C   UNL A   1      32.144  22.558  25.928  1.00  0.00     0.013 C 
BRANCH  27  29
ATOM     29  C   UNL A   1      34.539  23.232  26.696  1.00  0.00     0.267 C 
BRANCH  29  30
ATOM     30  N   UNL A   1      35.899  22.765  26.413  1.00  0.00    -0.335 N 
ATOM     31  C   UNL A   1      36.817  23.717  25.808  1.00  0.00     0.262 C 
ATOM     32  C   UNL A   1      36.048  21.480  25.750  1.00  0.00     0.262 C 
ATOM     33  H   UNL A   1      36.178  22.639  27.386  1.00  0.00     0.348 HD
ATOM     34  C   UNL A   1      36.927  23.269  24.365  1.00  0.00     0.067 C 
ATOM     35  C   UNL A   1      36.780  21.757  24.438  1.00  0.00     0.067 C 
ENDBRANCH  29  30
ENDBRANCH  27  29
ENDBRANCH   8  23
ENDBRANCH   3   5
ENDBRANCH   2   3
ENDBRANCH   1   2
BRANCH   1  36
ATOM     36  C   UNL A   1      33.460  33.776  28.231  1.00  0.00     0.275 C 
BRANCH  36  37
ATOM     37  O   UNL A   1      34.089  34.535  29.313  1.00  0.00    -0.458 OA
BRANCH  37  38
ATOM     38  C   UNL A   1      34.354  34.219  30.605  1.00  0.00     0.338 C 
ATOM     39  O   UNL A   1      33.659  34.621  31.527  1.00  0.00    -0.246 OA
BRANCH  38  40
ATOM     40  C   UNL A   1      35.620  33.510  30.855  1.00  0.00     0.060 A 
ATOM     41  C   UNL A   1      36.745  33.639  30.023  1.00  0.00     0.016 A 
ATOM     42  C   UNL A   1      35.680  32.710  31.972  1.00  0.00     0.016 A 
ATOM     43  C   UNL A   1      37.966  33.023  30.354  1.00  0.00     0.010 A 
ATOM     44  C   UNL A   1      36.904  32.256  32.384  1.00  0.00     0.010 A 
ATOM     45  C   UNL A   1      38.043  32.309  31.540  1.00  0.00    -0.014 A 
BRANCH  45  46
ATOM     46  C   UNL A   1      39.016  31.238  31.844  1.00  0.00     0.031 A 
ATOM     47  C   UNL A   1      39.009  29.847  31.300  1.00  0.00     0.074 A 
ATOM     48  C   UNL A   1      40.185  31.835  32.209  1.00  0.00     0.049 A 
ATOM     49  N   UNL A   1      40.115  29.224  31.076  1.00  0.00    -0.248 NA
ATOM     50  C   UNL A   1      37.861  29.039  30.888  1.00  0.00     0.031 C 
ATOM     51  C   UNL A   1      41.559  31.487  31.877  1.00  0.00     0.029 A 
ATOM     52  N   UNL A   1      40.371  33.051  32.868  1.00  0.00    -0.354 N 
ATOM     53  C   UNL A   1      39.886  28.098  30.317  1.00  0.00     0.074 A 
ATOM     54  C   UNL A   1      38.451  28.024  30.218  1.00  0.00     0.031 C 
ATOM     55  C   UNL A   1      42.388  32.256  32.609  1.00  0.00     0.029 A 
ATOM     56  C   UNL A   1      41.561  32.957  33.573  1.00  0.00     0.049 A 
ATOM     57  H   UNL A   1      39.771  33.830  32.837  1.00  0.00     0.167 HD
ATOM     58  C   UNL A   1      40.990  27.454  29.838  1.00  0.00     0.034 A 
ATOM     59  C   UNL A   1      41.524  32.725  34.924  1.00  0.00     0.034 A 
ATOM     60  C   UNL A   1      42.144  27.818  30.683  1.00  0.00     0.049 A 
ATOM     61  C   UNL A   1      42.063  31.332  35.267  1.00  0.00     0.074 A 
ATOM     62  C   UNL A   1      43.258  28.625  30.559  1.00  0.00     0.029 A 
ATOM     63  N   UNL A   1      42.055  27.478  32.027  1.00  0.00    -0.354 N 
ATOM     64  N   UNL A   1      42.463  30.453  34.381  1.00  0.00    -0.248 NA
ATOM     65  C   UNL A   1      42.214  30.819  36.624  1.00  0.00     0.031 C 
ATOM     66  C   UNL A   1      43.736  28.893  31.884  1.00  0.00     0.029 A 
ATOM     67  C   UNL A   1      42.941  28.212  32.796  1.00  0.00     0.049 A 
ATOM     68  H   UNL A   1      41.440  26.800  32.387  1.00  0.00     0.167 HD
ATOM     69  C   UNL A   1      42.723  29.250  34.974  1.00  0.00     0.074 A 
ATOM     70  C   UNL A   1      42.668  29.573  36.392  1.00  0.00     0.031 C 
ATOM     71  C   UNL A   1      42.877  28.088  34.256  1.00  0.00     0.034 A 
BRANCH  58  72
ATOM     72  C   UNL A   1      41.161  26.548  28.623  1.00  0.00     0.023 A 
ATOM     73  C   UNL A   1      40.214  26.729  27.578  1.00  0.00     0.012 A 
ATOM     74  C   UNL A   1      42.036  25.444  28.479  1.00  0.00     0.148 A 
ATOM     75  C   UNL A   1      40.083  25.848  26.501  1.00  0.00     0.002 A 
ATOM     76  C   UNL A   1      41.907  24.558  27.391  1.00  0.00     0.091 A 
ATOM     77  F   UNL A   1      42.983  25.237  29.401  1.00  0.00    -0.205 F 
ATOM     78  C   UNL A   1      40.920  24.753  26.414  1.00  0.00     0.022 A 
BRANCH  76  79
ATOM     79  S   UNL A   1      42.914  23.077  27.145  1.00  0.00     0.127 S 
ATOM     80  O   UNL A   1      42.567  22.276  28.321  1.00  0.00    -0.237 OA
ATOM     81  O   UNL A   1      42.402  22.548  25.881  1.00  0.00    -0.237 OA
ATOM     82  O   UNL A   1      44.300  23.518  27.099  1.00  0.00    -0.744 OA
ENDBRANCH  76  79
ENDBRANCH  58  72
BRANCH  59  83
ATOM     83  C   UNL A   1      40.359  33.448  35.573  1.00  0.00     0.023 A 
ATOM     84  C   UNL A   1      39.124  32.738  35.584  1.00  0.00     0.012 A 
ATOM     85  C   UNL A   1      40.533  34.483  36.513  1.00  0.00     0.148 A 
ATOM     86  C   UNL A   1      38.203  32.899  36.623  1.00  0.00     0.002 A 
ATOM     87  C   UNL A   1      39.579  34.672  37.523  1.00  0.00     0.091 A 
ATOM     88  F   UNL A   1      41.655  35.211  36.460  1.00  0.00    -0.205 F 
ATOM     89  C   UNL A   1      38.449  33.841  37.612  1.00  0.00     0.022 A 
BRANCH  87  90
ATOM     90  S   UNL A   1      39.732  35.926  38.809  1.00  0.00     0.127 S 
ATOM     91  O   UNL A   1      38.640  35.555  39.708  1.00  0.00    -0.237 OA
ATOM     92  O   UNL A   1      41.069  35.673  39.345  1.00  0.00    -0.237 OA
ATOM     93  O   UNL A   1      39.572  37.200  38.129  1.00  0.00    -0.744 OA
ENDBRANCH  87  90
ENDBRANCH  59  83
BRANCH  71  94
ATOM     94  C   UNL A   1      42.897  26.691  34.871  1.00  0.00     0.023 A 
ATOM     95  C   UNL A   1      41.720  26.035  35.277  1.00  0.00     0.012 A 
ATOM     96  C   UNL A   1      44.091  25.921  34.925  1.00  0.00     0.148 A 
ATOM     97  C   UNL A   1      41.730  24.739  35.806  1.00  0.00     0.002 A 
ATOM     98  C   UNL A   1      44.072  24.583  35.315  1.00  0.00     0.091 A 
ATOM     99  F   UNL A   1      45.268  26.483  34.609  1.00  0.00    -0.205 F 
ATOM    100  C   UNL A   1      42.903  24.003  35.805  1.00  0.00     0.022 A 
BRANCH  98 101
ATOM    101  S   UNL A   1      45.488  23.511  35.022  1.00  0.00     0.127 S 
ATOM    102  O   UNL A   1      46.592  24.315  35.537  1.00  0.00    -0.237 OA
ATOM    103  O   UNL A   1      45.163  22.333  35.830  1.00  0.00    -0.237 OA
ATOM    104  O   UNL A   1      45.478  23.266  33.586  1.00  0.00    -0.744 OA
ENDBRANCH  98 101
ENDBRANCH  71  94
ENDBRANCH  45  46
ENDBRANCH  38  40
ENDBRANCH  37  38
ENDBRANCH  36  37
ENDBRANCH   1  36
TORSDOF 20
ENDMDL
MODEL 2
REMARK VINA RESULT:     -11.7      1.588      2.157
REMARK SMILES Cc1cccc(S(=O)(=O)Nc2cc(C(=O)OCCOC(=O)c3ccc(-c4c5nc(c(-c6cccc(S(=O)(=O)[O-])c6F)c6ccc([nH]6)c(-c6cccc(S(=O)(=O)[O-])c6F)c6nc(c(-c7cccc(S(=O)(=O)[O-])c7F)c7ccc4[nH]7)C=C6)C=C5)cc3)ccc2N2CCC[C@H](C[NH+]3CCCC3)C2)c1
REMARK SMILES IDX 17 1 16 2 14 3 15 4 13 5 11 6 12 7 87 8 86 9 85 10 10 11
REMARK SMILES IDX 7 13 8 14 9 15 6 16 1 17 2 18 3 19 100 20 4 21 5 22 88 23
REMARK SMILES IDX 89 24 99 25 90 26 92 27 91 28 93 29 94 30 95 31 98 32 96 34
REMARK SMILES IDX 97 35 18 36 19 37 20 38 21 39 22 40 23 41 84 42 24 43 83 44
REMARK SMILES IDX 25 45 26 46 27 47 77 48 28 49 82 50 76 51 78 52 29 53 81 54
REMARK SMILES IDX 75 55 74 56 30 58 62 59 42 60 61 61 43 62 46 63 60 64 79 65
REMARK SMILES IDX 44 66 45 67 59 69 80 70 47 71 31 72 32 73 40 74 33 75 35 76
REMARK SMILES IDX 41 77 34 78 36 79 37 80 38 81 39 82 63 83 64 84 72 85 65 86
REMARK SMILES IDX 67 87 73 88 66 89 68 90 69 91 70 92 71 93 48 94 49 95 57 96
REMARK SMILES IDX 50 97 52 98 58 99 51 100 53 101 54 102 55 103 56 104
REMARK H PARENT 10 12 94 33 78 57 46 68
REMARK Flexibility Score: inf
ROOT
ATOM      1  C   UNL A   1      34.023  32.520  27.650  1.00  0.00     0.275 C 
ENDROOT
BRANCH   1   2
ATOM      2  O   UNL A   1      33.519  31.189  27.726  1.00  0.00    -0.458 OA
BRANCH   2   3
ATOM      3  C   UNL A   1      32.477  30.821  26.958  1.00  0.00     0.338 C 
ATOM      4  O   UNL A   1      31.523  31.505  26.626  1.00  0.00    -0.246 OA
BRANCH   3   5
ATOM      5  C   UNL A   1      32.650  29.382  26.691  1.00  0.00     0.062 A 
ATOM      6  C   UNL A   1      31.647  27.247  26.025  1.00  0.00     0.073 A 
ATOM      7  C   UNL A   1      31.538  28.602  26.376  1.00  0.00     0.044 A 
ATOM      8  C   UNL A   1      32.941  26.631  26.005  1.00  0.00     0.061 A 
ATOM      9  C   UNL A   1      34.045  27.500  26.238  1.00  0.00     0.029 A 
ATOM     10  C   UNL A   1      33.917  28.837  26.613  1.00  0.00     0.018 A 
BRANCH   6  11
ATOM     11  N   UNL A   1      30.455  26.613  25.520  1.00  0.00    -0.277 N 
ATOM     12  H   UNL A   1      29.867  26.151  26.160  1.00  0.00     0.180 HD
BRANCH  11  13
ATOM     13  S   UNL A   1      30.010  26.618  23.888  1.00  0.00     0.261 S 
ATOM     14  O   UNL A   1      28.813  25.819  23.722  1.00  0.00    -0.201 OA
ATOM     15  O   UNL A   1      31.242  26.214  23.236  1.00  0.00    -0.201 OA
BRANCH  13  16
ATOM     16  C   UNL A   1      29.632  28.267  23.286  1.00  0.00     0.088 A 
ATOM     17  C   UNL A   1      27.451  31.436  23.532  1.00  0.00     0.044 C 
ATOM     18  C   UNL A   1      28.440  30.394  23.107  1.00  0.00    -0.050 A 
ATOM     19  C   UNL A   1      29.322  30.806  22.108  1.00  0.00     0.003 A 
ATOM     20  C   UNL A   1      28.562  29.093  23.673  1.00  0.00     0.025 A 
ATOM     21  C   UNL A   1      30.343  29.972  21.699  1.00  0.00     0.002 A 
ATOM     22  C   UNL A   1      30.517  28.731  22.303  1.00  0.00     0.022 A 
ENDBRANCH  13  16
ENDBRANCH  11  13
ENDBRANCH   6  11
BRANCH   8  23
ATOM     23  N   UNL A   1      33.264  25.274  25.808  1.00  0.00    -0.369 N 
ATOM     24  C   UNL A   1      32.412  24.292  26.519  1.00  0.00     0.116 C 
ATOM     25  C   UNL A   1      34.012  24.733  24.668  1.00  0.00     0.126 C 
ATOM     26  C   UNL A   1      33.234  23.089  26.962  1.00  0.00     0.022 C 
ATOM     27  C   UNL A   1      34.772  23.415  24.993  1.00  0.00     0.064 C 
ATOM     28  C   UNL A   1      33.859  22.435  25.741  1.00  0.00     0.013 C 
BRANCH  27  29
ATOM     29  C   UNL A   1      36.115  23.735  25.705  1.00  0.00     0.267 C 
BRANCH  29  30
ATOM     30  N   UNL A   1      37.368  23.244  25.125  1.00  0.00    -0.335 N 
ATOM     31  C   UNL A   1      37.288  22.084  24.252  1.00  0.00     0.262 C 
ATOM     32  C   UNL A   1      38.509  23.088  26.013  1.00  0.00     0.262 C 
ATOM     33  H   UNL A   1      37.548  24.061  24.541  1.00  0.00     0.348 HD
ATOM     34  C   UNL A   1      37.840  20.946  25.086  1.00  0.00     0.067 C 
ATOM     35  C   UNL A   1      38.893  21.610  25.960  1.00  0.00     0.067 C 
ENDBRANCH  29  30
ENDBRANCH  27  29
ENDBRANCH   8  23
ENDBRANCH   3   5
ENDBRANCH   2   3
ENDBRANCH   1   2
BRANCH   1  36
ATOM     36  C   UNL A   1      33.561  33.545  28.701  1.00  0.00     0.275 C 
BRANCH  36  37
ATOM     37  O   UNL A   1      34.373  34.072  29.799  1.00  0.00    -0.458 OA
BRANCH  37  38
ATOM     38  C   UNL A   1      34.582  33.630  31.064  1.00  0.00     0.338 C 
ATOM     39  O   UNL A   1      33.998  34.112  32.024  1.00  0.00    -0.246 OA
BRANCH  38  40
ATOM     40  C   UNL A   1      35.671  32.656  31.242  1.00  0.00     0.060 A 
ATOM     41  C   UNL A   1      35.749  31.788  32.345  1.00  0.00     0.016 A 
ATOM     42  C   UNL A   1      36.631  32.602  30.257  1.00  0.00     0.016 A 
ATOM     43  C   UNL A   1      36.752  30.805  32.424  1.00  0.00     0.010 A 
ATOM     44  C   UNL A   1      37.495  31.541  30.247  1.00  0.00     0.010 A 
ATOM     45  C   UNL A   1      37.646  30.689  31.372  1.00  0.00    -0.014 A 
BRANCH  45  46
ATOM     46  C   UNL A   1      38.996  30.090  31.445  1.00  0.00     0.031 A 
ATOM     47  C   UNL A   1      39.463  28.859  30.740  1.00  0.00     0.074 A 
ATOM     48  C   UNL A   1      39.872  31.084  31.761  1.00  0.00     0.049 A 
ATOM     49  N   UNL A   1      40.682  28.759  30.332  1.00  0.00    -0.248 NA
ATOM     50  C   UNL A   1      38.682  27.684  30.350  1.00  0.00     0.031 C 
ATOM     51  C   UNL A   1      41.210  31.351  31.252  1.00  0.00     0.029 A 
ATOM     52  N   UNL A   1      39.653  32.221  32.540  1.00  0.00    -0.354 N 
ATOM     53  C   UNL A   1      40.812  27.694  29.468  1.00  0.00     0.074 A 
ATOM     54  C   UNL A   1      39.525  27.047  29.506  1.00  0.00     0.031 C 
ATOM     55  C   UNL A   1      41.760  32.338  31.985  1.00  0.00     0.029 A 
ATOM     56  C   UNL A   1      40.869  32.571  33.105  1.00  0.00     0.049 A 
ATOM     57  H   UNL A   1      38.795  32.687  32.664  1.00  0.00     0.167 HD
ATOM     58  C   UNL A   1      42.002  27.592  28.806  1.00  0.00     0.034 A 
ATOM     59  C   UNL A   1      41.118  32.250  34.415  1.00  0.00     0.034 A 
ATOM     60  C   UNL A   1      43.023  28.334  29.569  1.00  0.00     0.049 A 
ATOM     61  C   UNL A   1      42.206  31.177  34.530  1.00  0.00     0.074 A 
ATOM     62  C   UNL A   1      43.698  29.531  29.432  1.00  0.00     0.029 A 
ATOM     63  N   UNL A   1      43.267  27.893  30.864  1.00  0.00    -0.354 N 
ATOM     64  N   UNL A   1      42.792  30.602  33.509  1.00  0.00    -0.248 NA
ATOM     65  C   UNL A   1      42.737  30.676  35.793  1.00  0.00     0.031 C 
ATOM     66  C   UNL A   1      44.212  29.877  30.725  1.00  0.00     0.029 A 
ATOM     67  C   UNL A   1      43.889  28.869  31.623  1.00  0.00     0.049 A 
ATOM     68  H   UNL A   1      43.028  26.999  31.199  1.00  0.00     0.167 HD
ATOM     69  C   UNL A   1      43.588  29.572  33.923  1.00  0.00     0.074 A 
ATOM     70  C   UNL A   1      43.610  29.744  35.367  1.00  0.00     0.031 C 
ATOM     71  C   UNL A   1      44.086  28.627  33.057  1.00  0.00     0.034 A 
BRANCH  58  72
ATOM     72  C   UNL A   1      42.343  26.922  27.479  1.00  0.00     0.023 A 
ATOM     73  C   UNL A   1      41.237  26.578  26.657  1.00  0.00     0.012 A 
ATOM     74  C   UNL A   1      43.607  26.453  27.044  1.00  0.00     0.148 A 
ATOM     75  C   UNL A   1      41.347  25.768  25.523  1.00  0.00     0.002 A 
ATOM     76  C   UNL A   1      43.719  25.640  25.897  1.00  0.00     0.091 A 
ATOM     77  F   UNL A   1      44.700  26.776  27.743  1.00  0.00    -0.205 F 
ATOM     78  C   UNL A   1      42.586  25.286  25.150  1.00  0.00     0.022 A 
BRANCH  76  79
ATOM     79  S   UNL A   1      45.263  24.923  25.292  1.00  0.00     0.127 S 
ATOM     80  O   UNL A   1      44.782  23.973  24.286  1.00  0.00    -0.237 OA
ATOM     81  O   UNL A   1      45.961  26.084  24.740  1.00  0.00    -0.237 OA
ATOM     82  O   UNL A   1      45.918  24.312  26.439  1.00  0.00    -0.744 OA
ENDBRANCH  76  79
ENDBRANCH  58  72
BRANCH  59  83
ATOM     83  C   UNL A   1      39.866  32.387  35.260  1.00  0.00     0.023 A 
ATOM     84  C   UNL A   1      38.949  31.300  35.183  1.00  0.00     0.012 A 
ATOM     85  C   UNL A   1      39.798  33.228  36.389  1.00  0.00     0.148 A 
ATOM     86  C   UNL A   1      38.159  30.935  36.278  1.00  0.00     0.002 A 
ATOM     87  C   UNL A   1      38.964  32.883  37.463  1.00  0.00     0.091 A 
ATOM     88  F   UNL A   1      40.598  34.300  36.435  1.00  0.00    -0.205 F 
ATOM     89  C   UNL A   1      38.195  31.707  37.430  1.00  0.00     0.022 A 
BRANCH  87  90
ATOM     90  S   UNL A   1      38.845  33.855  38.977  1.00  0.00     0.127 S 
ATOM     91  O   UNL A   1      38.725  35.210  38.443  1.00  0.00    -0.237 OA
ATOM     92  O   UNL A   1      37.624  33.337  39.593  1.00  0.00    -0.237 OA
ATOM     93  O   UNL A   1      40.070  33.581  39.710  1.00  0.00    -0.744 OA
ENDBRANCH  87  90
ENDBRANCH  59  83
BRANCH  71  94
ATOM     94  C   UNL A   1      44.743  27.320  33.493  1.00  0.00     0.023 A 
ATOM     95  C   UNL A   1      46.138  27.139  33.468  1.00  0.00     0.012 A 
ATOM     96  C   UNL A   1      43.989  26.272  34.090  1.00  0.00     0.148 A 
ATOM     97  C   UNL A   1      46.748  25.957  33.902  1.00  0.00     0.002 A 
ATOM     98  C   UNL A   1      44.614  25.162  34.653  1.00  0.00     0.091 A 
ATOM     99  F   UNL A   1      42.649  26.335  34.108  1.00  0.00    -0.205 F 
ATOM    100  C   UNL A   1      45.989  24.976  34.516  1.00  0.00     0.022 A 
BRANCH  98 101
ATOM    101  S   UNL A   1      43.713  24.038  35.733  1.00  0.00     0.127 S 
ATOM    102  O   UNL A   1      42.661  23.544  34.850  1.00  0.00    -0.237 OA
ATOM    103  O   UNL A   1      44.735  23.047  36.078  1.00  0.00    -0.237 OA
ATOM    104  O   UNL A   1      43.284  24.864  36.854  1.00  0.00    -0.744 OA
ENDBRANCH  98 101
ENDBRANCH  71  94
ENDBRANCH  45  46
ENDBRANCH  38  40
ENDBRANCH  37  38
ENDBRANCH  36  37
ENDBRANCH   1  36
TORSDOF 20
ENDMDL
MODEL 3
REMARK VINA RESULT:     -11.5      1.924      2.716
REMARK SMILES Cc1cccc(S(=O)(=O)Nc2cc(C(=O)OCCOC(=O)c3ccc(-c4c5nc(c(-c6cccc(S(=O)(=O)[O-])c6F)c6ccc([nH]6)c(-c6cccc(S(=O)(=O)[O-])c6F)c6nc(c(-c7cccc(S(=O)(=O)[O-])c7F)c7ccc4[nH]7)C=C6)C=C5)cc3)ccc2N2CCC[C@H](C[NH+]3CCCC3)C2)c1
REMARK SMILES IDX 17 1 16 2 14 3 15 4 13 5 11 6 12 7 87 8 86 9 85 10 10 11
REMARK SMILES IDX 7 13 8 14 9 15 6 16 1 17 2 18 3 19 100 20 4 21 5 22 88 23
REMARK SMILES IDX 89 24 99 25 90 26 92 27 91 28 93 29 94 30 95 31 98 32 96 34
REMARK SMILES IDX 97 35 18 36 19 37 20 38 21 39 22 40 23 41 84 42 24 43 83 44
REMARK SMILES IDX 25 45 26 46 27 47 77 48 28 49 82 50 76 51 78 52 29 53 81 54
REMARK SMILES IDX 75 55 74 56 30 58 62 59 42 60 61 61 43 62 46 63 60 64 79 65
REMARK SMILES IDX 44 66 45 67 59 69 80 70 47 71 31 72 32 73 40 74 33 75 35 76
REMARK SMILES IDX 41 77 34 78 36 79 37 80 38 81 39 82 63 83 64 84 72 85 65 86
REMARK SMILES IDX 67 87 73 88 66 89 68 90 69 91 70 92 71 93 48 94 49 95 57 96
REMARK SMILES IDX 50 97 52 98 58 99 51 100 53 101 54 102 55 103 56 104
REMARK H PARENT 10 12 94 33 78 57 46 68
REMARK Flexibility Score: inf
ROOT
ATOM      1  C   UNL A   1      34.166  32.533  27.788  1.00  0.00     0.275 C 
ENDROOT
BRANCH   1   2
ATOM      2  O   UNL A   1      33.859  31.152  27.625  1.00  0.00    -0.458 OA
BRANCH   2   3
ATOM      3  C   UNL A   1      32.723  30.784  27.004  1.00  0.00     0.338 C 
ATOM      4  O   UNL A   1      31.752  31.482  26.763  1.00  0.00    -0.246 OA
BRANCH   3   5
ATOM      5  C   UNL A   1      32.828  29.332  26.776  1.00  0.00     0.062 A 
ATOM      6  C   UNL A   1      31.746  27.242  26.094  1.00  0.00     0.073 A 
ATOM      7  C   UNL A   1      31.694  28.608  26.411  1.00  0.00     0.044 A 
ATOM      8  C   UNL A   1      33.001  26.554  26.162  1.00  0.00     0.061 A 
ATOM      9  C   UNL A   1      34.138  27.366  26.444  1.00  0.00     0.029 A 
ATOM     10  C   UNL A   1      34.064  28.716  26.784  1.00  0.00     0.018 A 
BRANCH   6  11
ATOM     11  N   UNL A   1      30.551  26.664  25.530  1.00  0.00    -0.277 N 
ATOM     12  H   UNL A   1      29.869  26.313  26.147  1.00  0.00     0.180 HD
BRANCH  11  13
ATOM     13  S   UNL A   1      30.255  26.555  23.869  1.00  0.00     0.261 S 
ATOM     14  O   UNL A   1      30.613  27.812  23.242  1.00  0.00    -0.201 OA
ATOM     15  O   UNL A   1      28.878  26.099  23.834  1.00  0.00    -0.201 OA
BRANCH  13  16
ATOM     16  C   UNL A   1      31.236  25.274  23.080  1.00  0.00     0.088 A 
ATOM     17  C   UNL A   1      31.928  21.518  22.558  1.00  0.00     0.044 C 
ATOM     18  C   UNL A   1      32.003  23.014  22.549  1.00  0.00    -0.050 A 
ATOM     19  C   UNL A   1      32.956  23.541  21.677  1.00  0.00     0.003 A 
ATOM     20  C   UNL A   1      31.161  23.887  23.297  1.00  0.00     0.025 A 
ATOM     21  C   UNL A   1      33.055  24.907  21.503  1.00  0.00     0.002 A 
ATOM     22  C   UNL A   1      32.185  25.762  22.171  1.00  0.00     0.022 A 
ENDBRANCH  13  16
ENDBRANCH  11  13
ENDBRANCH   6  11
BRANCH   8  23
ATOM     23  N   UNL A   1      33.257  25.177  26.012  1.00  0.00    -0.369 N 
ATOM     24  C   UNL A   1      32.239  24.260  26.575  1.00  0.00     0.116 C 
ATOM     25  C   UNL A   1      34.135  24.580  25.000  1.00  0.00     0.126 C 
ATOM     26  C   UNL A   1      32.896  23.006  27.136  1.00  0.00     0.022 C 
ATOM     27  C   UNL A   1      34.743  23.215  25.434  1.00  0.00     0.064 C 
ATOM     28  C   UNL A   1      33.659  22.304  26.025  1.00  0.00     0.013 C 
BRANCH  27  29
ATOM     29  C   UNL A   1      35.977  23.446  26.350  1.00  0.00     0.267 C 
BRANCH  29  30
ATOM     30  N   UNL A   1      37.309  23.537  25.746  1.00  0.00    -0.335 N 
ATOM     31  C   UNL A   1      37.823  22.350  25.083  1.00  0.00     0.262 C 
ATOM     32  C   UNL A   1      38.372  24.130  26.542  1.00  0.00     0.262 C 
ATOM     33  H   UNL A   1      37.058  24.213  25.025  1.00  0.00     0.348 HD
ATOM     34  C   UNL A   1      38.868  21.808  26.038  1.00  0.00     0.067 C 
ATOM     35  C   UNL A   1      39.444  23.053  26.695  1.00  0.00     0.067 C 
ENDBRANCH  29  30
ENDBRANCH  27  29
ENDBRANCH   8  23
ENDBRANCH   3   5
ENDBRANCH   2   3
ENDBRANCH   1   2
BRANCH   1  36
ATOM     36  C   UNL A   1      33.753  33.232  29.095  1.00  0.00     0.275 C 
BRANCH  36  37
ATOM     37  O   UNL A   1      34.545  34.227  29.822  1.00  0.00    -0.458 OA
BRANCH  37  38
ATOM     38  C   UNL A   1      35.144  34.194  31.038  1.00  0.00     0.338 C 
ATOM     39  O   UNL A   1      34.953  35.060  31.879  1.00  0.00    -0.246 OA
BRANCH  38  40
ATOM     40  C   UNL A   1      36.167  33.153  31.231  1.00  0.00     0.060 A 
ATOM     41  C   UNL A   1      36.205  32.319  32.362  1.00  0.00     0.016 A 
ATOM     42  C   UNL A   1      37.102  33.000  30.234  1.00  0.00     0.016 A 
ATOM     43  C   UNL A   1      37.139  31.271  32.458  1.00  0.00     0.010 A 
ATOM     44  C   UNL A   1      37.891  31.882  30.246  1.00  0.00     0.010 A 
ATOM     45  C   UNL A   1      38.004  31.059  31.397  1.00  0.00    -0.014 A 
BRANCH  45  46
ATOM     46  C   UNL A   1      39.310  30.371  31.468  1.00  0.00     0.031 A 
ATOM     47  C   UNL A   1      39.652  29.045  30.870  1.00  0.00     0.074 A 
ATOM     48  C   UNL A   1      40.269  31.321  31.642  1.00  0.00     0.049 A 
ATOM     49  N   UNL A   1      40.838  28.814  30.419  1.00  0.00    -0.248 NA
ATOM     50  C   UNL A   1      38.771  27.900  30.637  1.00  0.00     0.031 C 
ATOM     51  C   UNL A   1      41.594  31.437  31.049  1.00  0.00     0.029 A 
ATOM     52  N   UNL A   1      40.172  32.542  32.312  1.00  0.00    -0.354 N 
ATOM     53  C   UNL A   1      40.847  27.664  29.663  1.00  0.00     0.074 A 
ATOM     54  C   UNL A   1      39.522  27.122  29.824  1.00  0.00     0.031 C 
ATOM     55  C   UNL A   1      42.250  32.446  31.653  1.00  0.00     0.029 A 
ATOM     56  C   UNL A   1      41.437  32.853  32.783  1.00  0.00     0.049 A 
ATOM     57  H   UNL A   1      39.357  33.081  32.427  1.00  0.00     0.167 HD
ATOM     58  C   UNL A   1      41.990  27.409  28.961  1.00  0.00     0.034 A 
ATOM     59  C   UNL A   1      41.732  32.644  34.106  1.00  0.00     0.034 A 
ATOM     60  C   UNL A   1      43.100  28.143  29.598  1.00  0.00     0.049 A 
ATOM     61  C   UNL A   1      42.747  31.508  34.279  1.00  0.00     0.074 A 
ATOM     62  C   UNL A   1      43.849  29.267  29.311  1.00  0.00     0.029 A 
ATOM     63  N   UNL A   1      43.380  27.813  30.918  1.00  0.00    -0.354 N 
ATOM     64  N   UNL A   1      43.236  30.795  33.296  1.00  0.00    -0.248 NA
ATOM     65  C   UNL A   1      43.307  31.094  35.561  1.00  0.00     0.031 C 
ATOM     66  C   UNL A   1      44.454  29.697  30.538  1.00  0.00     0.029 A 
ATOM     67  C   UNL A   1      44.108  28.809  31.546  1.00  0.00     0.049 A 
ATOM     68  H   UNL A   1      43.097  26.977  31.353  1.00  0.00     0.167 HD
ATOM     69  C   UNL A   1      43.978  29.752  33.775  1.00  0.00     0.074 A 
ATOM     70  C   UNL A   1      44.088  30.062  35.192  1.00  0.00     0.031 C 
ATOM     71  C   UNL A   1      44.362  28.693  32.987  1.00  0.00     0.034 A 
BRANCH  58  72
ATOM     72  C   UNL A   1      42.214  26.589  27.695  1.00  0.00     0.023 A 
ATOM     73  C   UNL A   1      41.425  26.958  26.571  1.00  0.00     0.012 A 
ATOM     74  C   UNL A   1      42.983  25.409  27.549  1.00  0.00     0.148 A 
ATOM     75  C   UNL A   1      41.337  26.186  25.410  1.00  0.00     0.002 A 
ATOM     76  C   UNL A   1      42.898  24.632  26.376  1.00  0.00     0.091 A 
ATOM     77  F   UNL A   1      43.783  25.023  28.549  1.00  0.00    -0.205 F 
ATOM     78  C   UNL A   1      42.062  25.015  25.316  1.00  0.00     0.022 A 
BRANCH  76  79
ATOM     79  S   UNL A   1      43.770  23.072  26.109  1.00  0.00     0.127 S 
ATOM     80  O   UNL A   1      42.936  22.429  25.091  1.00  0.00    -0.237 OA
ATOM     81  O   UNL A   1      45.078  23.515  25.626  1.00  0.00    -0.237 OA
ATOM     82  O   UNL A   1      43.799  22.386  27.392  1.00  0.00    -0.744 OA
ENDBRANCH  76  79
ENDBRANCH  58  72
BRANCH  59  83
ATOM     83  C   UNL A   1      40.539  32.956  34.989  1.00  0.00     0.023 A 
ATOM     84  C   UNL A   1      39.654  31.867  35.237  1.00  0.00     0.012 A 
ATOM     85  C   UNL A   1      40.523  34.037  35.893  1.00  0.00     0.148 A 
ATOM     86  C   UNL A   1      38.956  31.757  36.443  1.00  0.00     0.002 A 
ATOM     87  C   UNL A   1      39.779  33.940  37.078  1.00  0.00     0.091 A 
ATOM     88  F   UNL A   1      41.288  35.102  35.627  1.00  0.00    -0.205 F 
ATOM     89  C   UNL A   1      39.048  32.778  37.378  1.00  0.00     0.022 A 
BRANCH  87  90
ATOM     90  S   UNL A   1      39.735  35.238  38.329  1.00  0.00     0.127 S 
ATOM     91  O   UNL A   1      38.655  34.769  39.196  1.00  0.00    -0.237 OA
ATOM     92  O   UNL A   1      41.068  35.153  38.924  1.00  0.00    -0.237 OA
ATOM     93  O   UNL A   1      39.460  36.467  37.603  1.00  0.00    -0.744 OA
ENDBRANCH  87  90
ENDBRANCH  59  83
BRANCH  71  94
ATOM     94  C   UNL A   1      44.949  27.389  33.522  1.00  0.00     0.023 A 
ATOM     95  C   UNL A   1      46.336  27.165  33.593  1.00  0.00     0.012 A 
ATOM     96  C   UNL A   1      44.125  26.394  34.117  1.00  0.00     0.148 A 
ATOM     97  C   UNL A   1      46.879  25.987  34.119  1.00  0.00     0.002 A 
ATOM     98  C   UNL A   1      44.677  25.293  34.769  1.00  0.00     0.091 A 
ATOM     99  F   UNL A   1      42.789  26.498  34.048  1.00  0.00    -0.205 F 
ATOM    100  C   UNL A   1      46.051  25.059  34.727  1.00  0.00     0.022 A 
BRANCH  98 101
ATOM    101  S   UNL A   1      43.675  24.249  35.839  1.00  0.00     0.127 S 
ATOM    102  O   UNL A   1      44.671  23.343  36.402  1.00  0.00    -0.237 OA
ATOM    103  O   UNL A   1      43.122  25.216  36.792  1.00  0.00    -0.237 OA
ATOM    104  O   UNL A   1      42.682  23.654  34.955  1.00  0.00    -0.744 OA
ENDBRANCH  98 101
ENDBRANCH  71  94
ENDBRANCH  45  46
ENDBRANCH  38  40
ENDBRANCH  37  38
ENDBRANCH  36  37
ENDBRANCH   1  36
TORSDOF 20
ENDMDL
