MODEL 1
REMARK VINA RESULT:     -11.6      0.000      0.000
REMARK SMILES CC1(C)CCC[C@@](C)(CCC(=O)OCCOC(=O)c2ccc(-c3c4nc(c(-c5cccc(S(=O)(=O)[O-])c5F)c5ccc([nH]5)c(-c5cccc(S(=O)(=O)[O-])c5F)c5nc(c(-c6cccc(S(=O)(=O)[O-])c6F)c6ccc3[nH]6)C=C5)C=C4)cc2)C1=O
REMARK SMILES IDX 15 1 14 2 13 3 11 4 12 5 10 6 9 7 7 8 1 9 2 10 3 11 4 12
REMARK SMILES IDX 82 13 5 14 83 15 6 16 8 17 16 18 17 19 18 20 19 21 20 22
REMARK SMILES IDX 81 23 21 24 80 25 22 26 23 27 24 28 74 29 25 30 79 31 73 32
REMARK SMILES IDX 75 33 26 34 78 35 72 36 71 37 27 39 59 40 39 41 58 42 40 43
REMARK SMILES IDX 43 44 57 45 76 46 41 47 42 48 56 50 77 51 44 52 28 53 29 54
REMARK SMILES IDX 37 55 30 56 32 57 38 58 31 59 33 60 34 61 35 62 36 63 60 64
REMARK SMILES IDX 61 65 69 66 62 67 64 68 70 69 63 70 65 71 66 72 67 73 68 74
REMARK SMILES IDX 45 75 46 76 54 77 47 78 49 79 55 80 48 81 50 82 51 83 52 84
REMARK SMILES IDX 53 85
REMARK H PARENT 75 38 43 49
REMARK Flexibility Score: inf
ROOT
ATOM      1  C   UNL A   1      35.952  21.079  25.039  1.00  0.00     0.275 C 
ENDROOT
BRANCH   1   2
ATOM      2  C   UNL A   1      34.593  21.102  25.733  1.00  0.00     0.274 C 
BRANCH   2   3
ATOM      3  O   UNL A   1      33.618  20.481  24.880  1.00  0.00    -0.462 OA
BRANCH   3   4
ATOM      4  C   UNL A   1      32.482  21.161  24.616  1.00  0.00     0.305 C 
ATOM      5  O   UNL A   1      31.454  21.100  25.277  1.00  0.00    -0.252 OA
BRANCH   4   6
ATOM      6  C   UNL A   1      32.599  21.998  23.361  1.00  0.00     0.124 C 
BRANCH   6   7
ATOM      7  C   UNL A   1      31.863  23.353  23.368  1.00  0.00     0.026 C 
BRANCH   7   8
ATOM      8  C   UNL A   1      32.731  24.648  23.338  1.00  0.00     0.027 C 
ATOM      9  C   UNL A   1      32.080  24.391  26.491  1.00  0.00     0.019 C 
ATOM     10  C   UNL A   1      32.508  25.673  25.759  1.00  0.00     0.024 C 
ATOM     11  C   UNL A   1      31.822  26.850  26.476  1.00  0.00     0.019 C 
ATOM     12  C   UNL A   1      34.025  25.868  25.752  1.00  0.00     0.014 C 
ATOM     13  C   UNL A   1      32.106  25.687  24.282  1.00  0.00     0.144 C 
ATOM     14  C   UNL A   1      34.748  24.703  25.082  1.00  0.00     0.002 C 
ATOM     15  O   UNL A   1      31.281  26.505  23.861  1.00  0.00    -0.298 OA
ATOM     16  C   UNL A   1      34.219  24.334  23.692  1.00  0.00     0.014 C 
ATOM     17  C   UNL A   1      32.756  25.234  21.906  1.00  0.00     0.020 C 
ENDBRANCH   7   8
ENDBRANCH   6   7
ENDBRANCH   4   6
ENDBRANCH   3   4
ENDBRANCH   2   3
ENDBRANCH   1   2
BRANCH   1  18
ATOM     18  O   UNL A   1      36.895  21.836  25.813  1.00  0.00    -0.458 OA
BRANCH  18  19
ATOM     19  C   UNL A   1      38.169  21.383  25.816  1.00  0.00     0.338 C 
ATOM     20  O   UNL A   1      38.587  20.305  25.439  1.00  0.00    -0.246 OA
BRANCH  19  21
ATOM     21  C   UNL A   1      39.019  22.473  26.305  1.00  0.00     0.060 A 
ATOM     22  C   UNL A   1      40.114  22.188  27.128  1.00  0.00     0.016 A 
ATOM     23  C   UNL A   1      38.713  23.780  25.938  1.00  0.00     0.016 A 
ATOM     24  C   UNL A   1      40.925  23.224  27.585  1.00  0.00     0.010 A 
ATOM     25  C   UNL A   1      39.526  24.812  26.392  1.00  0.00     0.010 A 
ATOM     26  C   UNL A   1      40.630  24.542  27.221  1.00  0.00    -0.014 A 
BRANCH  26  27
ATOM     27  C   UNL A   1      41.412  25.685  27.733  1.00  0.00     0.031 A 
ATOM     28  C   UNL A   1      40.699  26.739  28.525  1.00  0.00     0.074 A 
ATOM     29  C   UNL A   1      42.700  25.832  27.375  1.00  0.00     0.049 A 
ATOM     30  N   UNL A   1      41.091  27.942  28.840  1.00  0.00    -0.248 NA
ATOM     31  C   UNL A   1      39.350  26.394  29.005  1.00  0.00     0.031 C 
ATOM     32  C   UNL A   1      43.483  24.858  26.616  1.00  0.00     0.029 A 
ATOM     33  N   UNL A   1      43.555  26.890  27.551  1.00  0.00    -0.354 N 
ATOM     34  C   UNL A   1      40.017  28.523  29.503  1.00  0.00     0.074 A 
ATOM     35  C   UNL A   1      38.961  27.535  29.556  1.00  0.00     0.031 C 
ATOM     36  C   UNL A   1      44.689  25.383  26.347  1.00  0.00     0.029 A 
ATOM     37  C   UNL A   1      44.743  26.743  26.871  1.00  0.00     0.049 A 
ATOM     38  H   UNL A   1      43.341  27.675  28.106  1.00  0.00     0.167 HD
ATOM     39  C   UNL A   1      39.926  29.771  30.018  1.00  0.00     0.034 A 
ATOM     40  C   UNL A   1      45.736  27.630  26.658  1.00  0.00     0.034 A 
ATOM     41  C   UNL A   1      40.998  30.726  29.976  1.00  0.00     0.049 A 
ATOM     42  C   UNL A   1      45.608  29.014  27.238  1.00  0.00     0.074 A 
ATOM     43  C   UNL A   1      41.032  32.004  30.503  1.00  0.00     0.029 A 
ATOM     44  N   UNL A   1      42.225  30.507  29.368  1.00  0.00    -0.354 N 
ATOM     45  N   UNL A   1      44.626  29.527  27.940  1.00  0.00    -0.248 NA
ATOM     46  C   UNL A   1      46.732  29.936  27.021  1.00  0.00     0.031 C 
ATOM     47  C   UNL A   1      42.276  32.564  30.200  1.00  0.00     0.029 A 
ATOM     48  C   UNL A   1      43.026  31.625  29.507  1.00  0.00     0.049 A 
ATOM     49  H   UNL A   1      42.487  29.678  28.907  1.00  0.00     0.167 HD
ATOM     50  C   UNL A   1      45.030  30.811  28.286  1.00  0.00     0.074 A 
ATOM     51  C   UNL A   1      46.350  30.998  27.719  1.00  0.00     0.031 C 
ATOM     52  C   UNL A   1      44.367  31.754  28.998  1.00  0.00     0.034 A 
BRANCH  39  53
ATOM     53  C   UNL A   1      38.636  30.161  30.685  1.00  0.00     0.023 A 
ATOM     54  C   UNL A   1      38.406  29.796  32.026  1.00  0.00     0.012 A 
ATOM     55  C   UNL A   1      37.673  30.929  30.000  1.00  0.00     0.148 A 
ATOM     56  C   UNL A   1      37.223  30.164  32.668  1.00  0.00     0.002 A 
ATOM     57  C   UNL A   1      36.516  31.326  30.660  1.00  0.00     0.091 A 
ATOM     58  F   UNL A   1      37.898  31.243  28.717  1.00  0.00    -0.205 F 
ATOM     59  C   UNL A   1      36.285  30.936  31.990  1.00  0.00     0.022 A 
BRANCH  57  60
ATOM     60  S   UNL A   1      35.281  32.383  29.894  1.00  0.00     0.127 S 
ATOM     61  O   UNL A   1      34.822  31.545  28.787  1.00  0.00    -0.237 OA
ATOM     62  O   UNL A   1      34.308  32.552  30.974  1.00  0.00    -0.237 OA
ATOM     63  O   UNL A   1      35.979  33.602  29.511  1.00  0.00    -0.744 OA
ENDBRANCH  57  60
ENDBRANCH  39  53
BRANCH  40  64
ATOM     64  C   UNL A   1      46.945  27.224  25.888  1.00  0.00     0.023 A 
ATOM     65  C   UNL A   1      47.908  26.402  26.506  1.00  0.00     0.012 A 
ATOM     66  C   UNL A   1      47.133  27.610  24.547  1.00  0.00     0.148 A 
ATOM     67  C   UNL A   1      49.047  25.995  25.812  1.00  0.00     0.002 A 
ATOM     68  C   UNL A   1      48.245  27.158  23.844  1.00  0.00     0.091 A 
ATOM     69  F   UNL A   1      46.215  28.404  23.979  1.00  0.00    -0.205 F 
ATOM     70  C   UNL A   1      49.211  26.363  24.480  1.00  0.00     0.022 A 
BRANCH  68  71
ATOM     71  S   UNL A   1      48.477  27.481  22.092  1.00  0.00     0.127 S 
ATOM     72  O   UNL A   1      48.641  26.132  21.557  1.00  0.00    -0.237 OA
ATOM     73  O   UNL A   1      47.217  28.135  21.734  1.00  0.00    -0.237 OA
ATOM     74  O   UNL A   1      49.646  28.345  22.004  1.00  0.00    -0.744 OA
ENDBRANCH  68  71
ENDBRANCH  40  64
BRANCH  52  75
ATOM     75  C   UNL A   1      45.071  33.054  29.274  1.00  0.00     0.023 A 
ATOM     76  C   UNL A   1      45.857  33.195  30.434  1.00  0.00     0.012 A 
ATOM     77  C   UNL A   1      45.057  34.085  28.313  1.00  0.00     0.148 A 
ATOM     78  C   UNL A   1      46.610  34.351  30.638  1.00  0.00     0.002 A 
ATOM     79  C   UNL A   1      45.844  35.212  28.501  1.00  0.00     0.091 A 
ATOM     80  F   UNL A   1      44.287  33.931  27.225  1.00  0.00    -0.205 F 
ATOM     81  C   UNL A   1      46.615  35.351  29.667  1.00  0.00     0.022 A 
BRANCH  79  82
ATOM     82  S   UNL A   1      45.996  36.501  27.259  1.00  0.00     0.127 S 
ATOM     83  O   UNL A   1      46.310  35.724  26.061  1.00  0.00    -0.237 OA
ATOM     84  O   UNL A   1      44.660  37.097  27.268  1.00  0.00    -0.237 OA
ATOM     85  O   UNL A   1      47.057  37.385  27.722  1.00  0.00    -0.744 OA
ENDBRANCH  79  82
ENDBRANCH  52  75
ENDBRANCH  26  27
ENDBRANCH  19  21
ENDBRANCH  18  19
ENDBRANCH   1  18
TORSDOF 16
ENDMDL
MODEL 2
REMARK VINA RESULT:     -11.6      1.620      2.206
REMARK SMILES CC1(C)CCC[C@@](C)(CCC(=O)OCCOC(=O)c2ccc(-c3c4nc(c(-c5cccc(S(=O)(=O)[O-])c5F)c5ccc([nH]5)c(-c5cccc(S(=O)(=O)[O-])c5F)c5nc(c(-c6cccc(S(=O)(=O)[O-])c6F)c6ccc3[nH]6)C=C5)C=C4)cc2)C1=O
REMARK SMILES IDX 15 1 14 2 13 3 11 4 12 5 10 6 9 7 7 8 1 9 2 10 3 11 4 12
REMARK SMILES IDX 82 13 5 14 83 15 6 16 8 17 16 18 17 19 18 20 19 21 20 22
REMARK SMILES IDX 81 23 21 24 80 25 22 26 23 27 24 28 74 29 25 30 79 31 73 32
REMARK SMILES IDX 75 33 26 34 78 35 72 36 71 37 27 39 59 40 39 41 58 42 40 43
REMARK SMILES IDX 43 44 57 45 76 46 41 47 42 48 56 50 77 51 44 52 28 53 29 54
REMARK SMILES IDX 37 55 30 56 32 57 38 58 31 59 33 60 34 61 35 62 36 63 60 64
REMARK SMILES IDX 61 65 69 66 62 67 64 68 70 69 63 70 65 71 66 72 67 73 68 74
REMARK SMILES IDX 45 75 46 76 54 77 47 78 49 79 55 80 48 81 50 82 51 83 52 84
REMARK SMILES IDX 53 85
REMARK H PARENT 75 38 43 49
REMARK Flexibility Score: inf
ROOT
ATOM      1  C   UNL A   1      36.321  21.473  24.611  1.00  0.00     0.275 C 
ENDROOT
BRANCH   1   2
ATOM      2  C   UNL A   1      35.884  22.712  23.836  1.00  0.00     0.274 C 
BRANCH   2   3
ATOM      3  O   UNL A   1      34.533  22.530  23.380  1.00  0.00    -0.462 OA
BRANCH   3   4
ATOM      4  C   UNL A   1      33.956  23.537  22.691  1.00  0.00     0.305 C 
ATOM      5  O   UNL A   1      33.474  23.438  21.570  1.00  0.00    -0.252 OA
BRANCH   4   6
ATOM      6  C   UNL A   1      34.003  24.846  23.448  1.00  0.00     0.124 C 
BRANCH   6   7
ATOM      7  C   UNL A   1      32.712  25.264  24.179  1.00  0.00     0.026 C 
BRANCH   7   8
ATOM      8  C   UNL A   1      32.733  25.272  25.738  1.00  0.00     0.027 C 
ATOM      9  C   UNL A   1      31.314  22.434  25.137  1.00  0.00     0.019 C 
ATOM     10  C   UNL A   1      31.226  23.227  26.450  1.00  0.00     0.024 C 
ATOM     11  C   UNL A   1      29.837  22.946  27.053  1.00  0.00     0.019 C 
ATOM     12  C   UNL A   1      32.324  22.841  27.444  1.00  0.00     0.014 C 
ATOM     13  C   UNL A   1      31.389  24.736  26.257  1.00  0.00     0.144 C 
ATOM     14  C   UNL A   1      33.719  23.069  26.872  1.00  0.00     0.002 C 
ATOM     15  O   UNL A   1      30.453  25.507  26.494  1.00  0.00    -0.298 OA
ATOM     16  C   UNL A   1      33.952  24.465  26.287  1.00  0.00     0.014 C 
ATOM     17  C   UNL A   1      32.920  26.718  26.256  1.00  0.00     0.020 C 
ENDBRANCH   7   8
ENDBRANCH   6   7
ENDBRANCH   4   6
ENDBRANCH   3   4
ENDBRANCH   2   3
ENDBRANCH   1   2
BRANCH   1  18
ATOM     18  O   UNL A   1      37.005  21.876  25.807  1.00  0.00    -0.458 OA
BRANCH  18  19
ATOM     19  C   UNL A   1      38.305  21.521  25.903  1.00  0.00     0.338 C 
ATOM     20  O   UNL A   1      38.826  20.471  25.579  1.00  0.00    -0.246 OA
BRANCH  19  21
ATOM     21  C   UNL A   1      39.038  22.681  26.420  1.00  0.00     0.060 A 
ATOM     22  C   UNL A   1      38.597  23.975  26.121  1.00  0.00     0.016 A 
ATOM     23  C   UNL A   1      40.169  22.468  27.203  1.00  0.00     0.016 A 
ATOM     24  C   UNL A   1      39.289  25.075  26.620  1.00  0.00     0.010 A 
ATOM     25  C   UNL A   1      40.857  23.567  27.702  1.00  0.00     0.010 A 
ATOM     26  C   UNL A   1      40.426  24.874  27.410  1.00  0.00    -0.014 A 
BRANCH  26  27
ATOM     27  C   UNL A   1      41.240  26.003  27.905  1.00  0.00     0.031 A 
ATOM     28  C   UNL A   1      40.559  27.080  28.694  1.00  0.00     0.074 A 
ATOM     29  C   UNL A   1      42.527  26.117  27.533  1.00  0.00     0.049 A 
ATOM     30  N   UNL A   1      40.981  28.276  28.995  1.00  0.00    -0.248 NA
ATOM     31  C   UNL A   1      39.206  26.770  29.190  1.00  0.00     0.031 C 
ATOM     32  C   UNL A   1      43.280  25.118  26.775  1.00  0.00     0.029 A 
ATOM     33  N   UNL A   1      43.408  27.156  27.692  1.00  0.00    -0.354 N 
ATOM     34  C   UNL A   1      39.928  28.887  29.663  1.00  0.00     0.074 A 
ATOM     35  C   UNL A   1      38.850  27.925  29.734  1.00  0.00     0.031 C 
ATOM     36  C   UNL A   1      44.496  25.613  26.491  1.00  0.00     0.029 A 
ATOM     37  C   UNL A   1      44.586  26.976  27.003  1.00  0.00     0.049 A 
ATOM     38  H   UNL A   1      43.218  27.950  28.242  1.00  0.00     0.167 HD
ATOM     39  C   UNL A   1      39.871  30.141  30.168  1.00  0.00     0.034 A 
ATOM     40  C   UNL A   1      45.597  27.838  26.772  1.00  0.00     0.034 A 
ATOM     41  C   UNL A   1      40.964  31.071  30.108  1.00  0.00     0.049 A 
ATOM     42  C   UNL A   1      45.507  29.229  27.342  1.00  0.00     0.074 A 
ATOM     43  C   UNL A   1      41.033  32.352  30.624  1.00  0.00     0.029 A 
ATOM     44  N   UNL A   1      42.179  30.818  29.491  1.00  0.00    -0.354 N 
ATOM     45  N   UNL A   1      44.543  29.771  28.048  1.00  0.00    -0.248 NA
ATOM     46  C   UNL A   1      46.650  30.123  27.106  1.00  0.00     0.031 C 
ATOM     47  C   UNL A   1      42.287  32.880  30.304  1.00  0.00     0.029 A 
ATOM     48  C   UNL A   1      43.007  31.918  29.612  1.00  0.00     0.049 A 
ATOM     49  H   UNL A   1      42.418  29.979  29.034  1.00  0.00     0.167 HD
ATOM     50  C   UNL A   1      44.980  31.048  28.379  1.00  0.00     0.074 A 
ATOM     51  C   UNL A   1      46.299  31.200  27.798  1.00  0.00     0.031 C 
ATOM     52  C   UNL A   1      44.346  32.012  29.089  1.00  0.00     0.034 A 
BRANCH  39  53
ATOM     53  C   UNL A   1      38.596  30.567  30.843  1.00  0.00     0.023 A 
ATOM     54  C   UNL A   1      38.406  30.291  32.212  1.00  0.00     0.012 A 
ATOM     55  C   UNL A   1      37.608  31.281  30.137  1.00  0.00     0.148 A 
ATOM     56  C   UNL A   1      37.239  30.693  32.861  1.00  0.00     0.002 A 
ATOM     57  C   UNL A   1      36.467  31.714  30.801  1.00  0.00     0.091 A 
ATOM     58  F   UNL A   1      37.796  31.511  28.830  1.00  0.00    -0.205 F 
ATOM     59  C   UNL A   1      36.277  31.412  32.160  1.00  0.00     0.022 A 
BRANCH  57  60
ATOM     60  S   UNL A   1      35.203  32.710  30.002  1.00  0.00     0.127 S 
ATOM     61  O   UNL A   1      34.755  31.816  28.935  1.00  0.00    -0.237 OA
ATOM     62  O   UNL A   1      34.234  32.903  31.082  1.00  0.00    -0.237 OA
ATOM     63  O   UNL A   1      35.870  33.927  29.562  1.00  0.00    -0.744 OA
ENDBRANCH  57  60
ENDBRANCH  39  53
BRANCH  40  64
ATOM     64  C   UNL A   1      46.789  27.397  25.994  1.00  0.00     0.023 A 
ATOM     65  C   UNL A   1      46.839  27.657  24.611  1.00  0.00     0.012 A 
ATOM     66  C   UNL A   1      47.882  26.759  26.612  1.00  0.00     0.148 A 
ATOM     67  C   UNL A   1      47.942  27.267  23.853  1.00  0.00     0.002 A 
ATOM     68  C   UNL A   1      49.001  26.419  25.860  1.00  0.00     0.091 A 
ATOM     69  F   UNL A   1      47.811  26.505  27.926  1.00  0.00    -0.205 F 
ATOM     70  C   UNL A   1      49.027  26.658  24.478  1.00  0.00     0.022 A 
BRANCH  68  71
ATOM     71  S   UNL A   1      50.492  25.742  26.601  1.00  0.00     0.127 S 
ATOM     72  O   UNL A   1      51.356  25.573  25.435  1.00  0.00    -0.237 OA
ATOM     73  O   UNL A   1      50.893  26.815  27.512  1.00  0.00    -0.237 OA
ATOM     74  O   UNL A   1      50.077  24.515  27.266  1.00  0.00    -0.744 OA
ENDBRANCH  68  71
ENDBRANCH  40  64
BRANCH  52  75
ATOM     75  C   UNL A   1      45.083  33.298  29.348  1.00  0.00     0.023 A 
ATOM     76  C   UNL A   1      45.924  33.413  30.471  1.00  0.00     0.012 A 
ATOM     77  C   UNL A   1      45.041  34.340  28.400  1.00  0.00     0.148 A 
ATOM     78  C   UNL A   1      46.703  34.554  30.654  1.00  0.00     0.002 A 
ATOM     79  C   UNL A   1      45.854  35.453  28.565  1.00  0.00     0.091 A 
ATOM     80  F   UNL A   1      44.219  34.212  27.347  1.00  0.00    -0.205 F 
ATOM     81  C   UNL A   1      46.680  35.565  29.695  1.00  0.00     0.022 A 
BRANCH  79  82
ATOM     82  S   UNL A   1      45.968  36.755  27.332  1.00  0.00     0.127 S 
ATOM     83  O   UNL A   1      44.614  37.306  27.355  1.00  0.00    -0.237 OA
ATOM     84  O   UNL A   1      46.993  37.629  27.901  1.00  0.00    -0.237 OA
ATOM     85  O   UNL A   1      46.352  36.101  26.088  1.00  0.00    -0.744 OA
ENDBRANCH  79  82
ENDBRANCH  52  75
ENDBRANCH  26  27
ENDBRANCH  19  21
ENDBRANCH  18  19
ENDBRANCH   1  18
TORSDOF 16
ENDMDL
MODEL 3
REMARK VINA RESULT:     -11.5      0.821      1.580
REMARK SMILES CC1(C)CCC[C@@](C)(CCC(=O)OCCOC(=O)c2ccc(-c3c4nc(c(-c5cccc(S(=O)(=O)[O-])c5F)c5ccc([nH]5)c(-c5cccc(S(=O)(=O)[O-])c5F)c5nc(c(-c6cccc(S(=O)(=O)[O-])c6F)c6ccc3[nH]6)C=C5)C=C4)cc2)C1=O
REMARK SMILES IDX 15 1 14 2 13 3 11 4 12 5 10 6 9 7 7 8 1 9 2 10 3 11 4 12
REMARK SMILES IDX 82 13 5 14 83 15 6 16 8 17 16 18 17 19 18 20 19 21 20 22
REMARK SMILES IDX 81 23 21 24 80 25 22 26 23 27 24 28 74 29 25 30 79 31 73 32
REMARK SMILES IDX 75 33 26 34 78 35 72 36 71 37 27 39 59 40 39 41 58 42 40 43
REMARK SMILES IDX 43 44 57 45 76 46 41 47 42 48 56 50 77 51 44 52 28 53 29 54
REMARK SMILES IDX 37 55 30 56 32 57 38 58 31 59 33 60 34 61 35 62 36 63 60 64
REMARK SMILES IDX 61 65 69 66 62 67 64 68 70 69 63 70 65 71 66 72 67 73 68 74
REMARK SMILES IDX 45 75 46 76 54 77 47 78 49 79 55 80 48 81 50 82 51 83 52 84
REMARK SMILES IDX 53 85
REMARK H PARENT 75 38 43 49
REMARK Flexibility Score: inf
ROOT
ATOM      1  C   UNL A   1      35.761  21.074  25.159  1.00  0.00     0.275 C 
ENDROOT
BRANCH   1   2
ATOM      2  C   UNL A   1      34.483  21.874  24.929  1.00  0.00     0.274 C 
BRANCH   2   3
ATOM      3  O   UNL A   1      34.243  21.982  23.516  1.00  0.00    -0.462 OA
BRANCH   3   4
ATOM      4  C   UNL A   1      34.066  23.215  22.995  1.00  0.00     0.305 C 
ATOM      5  O   UNL A   1      33.657  23.450  21.866  1.00  0.00    -0.252 OA
BRANCH   4   6
ATOM      6  C   UNL A   1      34.476  24.305  23.962  1.00  0.00     0.124 C 
BRANCH   6   7
ATOM      7  C   UNL A   1      33.725  25.646  23.841  1.00  0.00     0.026 C 
BRANCH   7   8
ATOM      8  C   UNL A   1      32.924  26.142  25.084  1.00  0.00     0.027 C 
ATOM      9  C   UNL A   1      30.650  24.515  23.471  1.00  0.00     0.019 C 
ATOM     10  C   UNL A   1      30.403  25.599  24.531  1.00  0.00     0.024 C 
ATOM     11  C   UNL A   1      29.105  26.328  24.135  1.00  0.00     0.019 C 
ATOM     12  C   UNL A   1      30.279  25.023  25.943  1.00  0.00     0.014 C 
ATOM     13  C   UNL A   1      31.539  26.621  24.625  1.00  0.00     0.144 C 
ATOM     14  C   UNL A   1      31.531  24.260  26.361  1.00  0.00     0.002 C 
ATOM     15  O   UNL A   1      31.350  27.803  24.319  1.00  0.00    -0.298 OA
ATOM     16  C   UNL A   1      32.843  25.030  26.179  1.00  0.00     0.014 C 
ATOM     17  C   UNL A   1      33.662  27.329  25.748  1.00  0.00     0.020 C 
ENDBRANCH   7   8
ENDBRANCH   6   7
ENDBRANCH   4   6
ENDBRANCH   3   4
ENDBRANCH   2   3
ENDBRANCH   1   2
BRANCH   1  18
ATOM     18  O   UNL A   1      36.754  21.921  25.757  1.00  0.00    -0.458 OA
BRANCH  18  19
ATOM     19  C   UNL A   1      38.023  21.455  25.751  1.00  0.00     0.338 C 
ATOM     20  O   UNL A   1      38.427  20.372  25.374  1.00  0.00    -0.246 OA
BRANCH  19  21
ATOM     21  C   UNL A   1      38.888  22.538  26.230  1.00  0.00     0.060 A 
ATOM     22  C   UNL A   1      40.046  22.237  26.955  1.00  0.00     0.016 A 
ATOM     23  C   UNL A   1      38.533  23.855  25.951  1.00  0.00     0.016 A 
ATOM     24  C   UNL A   1      40.871  23.266  27.401  1.00  0.00     0.010 A 
ATOM     25  C   UNL A   1      39.359  24.881  26.394  1.00  0.00     0.010 A 
ATOM     26  C   UNL A   1      40.527  24.594  27.125  1.00  0.00    -0.014 A 
BRANCH  26  27
ATOM     27  C   UNL A   1      41.325  25.727  27.635  1.00  0.00     0.031 A 
ATOM     28  C   UNL A   1      40.630  26.787  28.435  1.00  0.00     0.074 A 
ATOM     29  C   UNL A   1      42.612  25.861  27.268  1.00  0.00     0.049 A 
ATOM     30  N   UNL A   1      41.037  27.985  28.750  1.00  0.00    -0.248 NA
ATOM     31  C   UNL A   1      39.280  26.455  28.925  1.00  0.00     0.031 C 
ATOM     32  C   UNL A   1      43.378  24.880  26.500  1.00  0.00     0.029 A 
ATOM     33  N   UNL A   1      43.479  26.910  27.439  1.00  0.00    -0.354 N 
ATOM     34  C   UNL A   1      39.975  28.575  29.423  1.00  0.00     0.074 A 
ATOM     35  C   UNL A   1      38.908  27.599  29.481  1.00  0.00     0.031 C 
ATOM     36  C   UNL A   1      44.589  25.393  26.223  1.00  0.00     0.029 A 
ATOM     37  C   UNL A   1      44.661  26.752  26.751  1.00  0.00     0.049 A 
ATOM     38  H   UNL A   1      43.279  27.695  27.998  1.00  0.00     0.167 HD
ATOM     39  C   UNL A   1      39.901  29.822  29.941  1.00  0.00     0.034 A 
ATOM     40  C   UNL A   1      45.662  27.628  26.532  1.00  0.00     0.034 A 
ATOM     41  C   UNL A   1      40.983  30.766  29.894  1.00  0.00     0.049 A 
ATOM     42  C   UNL A   1      45.553  29.012  27.117  1.00  0.00     0.074 A 
ATOM     43  C   UNL A   1      41.035  32.042  30.424  1.00  0.00     0.029 A 
ATOM     44  N   UNL A   1      42.202  30.536  29.277  1.00  0.00    -0.354 N 
ATOM     45  N   UNL A   1      44.582  29.534  27.827  1.00  0.00    -0.248 NA
ATOM     46  C   UNL A   1      46.685  29.922  26.893  1.00  0.00     0.031 C 
ATOM     47  C   UNL A   1      42.282  32.589  30.113  1.00  0.00     0.029 A 
ATOM     48  C   UNL A   1      43.016  31.644  29.412  1.00  0.00     0.049 A 
ATOM     49  H   UNL A   1      42.452  29.705  28.811  1.00  0.00     0.167 HD
ATOM     50  C   UNL A   1      45.002  30.812  28.173  1.00  0.00     0.074 A 
ATOM     51  C   UNL A   1      46.321  30.987  27.597  1.00  0.00     0.031 C 
ATOM     52  C   UNL A   1      44.355  31.760  28.893  1.00  0.00     0.034 A 
BRANCH  39  53
ATOM     53  C   UNL A   1      38.620  30.225  30.619  1.00  0.00     0.023 A 
ATOM     54  C   UNL A   1      38.410  29.888  31.971  1.00  0.00     0.012 A 
ATOM     55  C   UNL A   1      37.646  30.977  29.933  1.00  0.00     0.148 A 
ATOM     56  C   UNL A   1      37.237  30.267  32.623  1.00  0.00     0.002 A 
ATOM     57  C   UNL A   1      36.498  31.386  30.602  1.00  0.00     0.091 A 
ATOM     58  F   UNL A   1      37.852  31.265  28.641  1.00  0.00    -0.205 F 
ATOM     59  C   UNL A   1      36.288  31.024  31.942  1.00  0.00     0.022 A 
BRANCH  57  60
ATOM     60  S   UNL A   1      35.250  32.426  29.832  1.00  0.00     0.127 S 
ATOM     61  O   UNL A   1      36.049  33.571  29.397  1.00  0.00    -0.237 OA
ATOM     62  O   UNL A   1      34.766  31.573  28.747  1.00  0.00    -0.237 OA
ATOM     63  O   UNL A   1      34.266  32.705  30.869  1.00  0.00    -0.744 OA
ENDBRANCH  57  60
ENDBRANCH  39  53
BRANCH  40  64
ATOM     64  C   UNL A   1      46.860  27.211  25.752  1.00  0.00     0.023 A 
ATOM     65  C   UNL A   1      47.796  26.341  26.345  1.00  0.00     0.012 A 
ATOM     66  C   UNL A   1      47.064  27.634  24.424  1.00  0.00     0.148 A 
ATOM     67  C   UNL A   1      48.925  25.923  25.641  1.00  0.00     0.002 A 
ATOM     68  C   UNL A   1      48.164  27.172  23.710  1.00  0.00     0.091 A 
ATOM     69  F   UNL A   1      46.171  28.474  23.881  1.00  0.00    -0.205 F 
ATOM     70  C   UNL A   1      49.104  26.329  24.322  1.00  0.00     0.022 A 
BRANCH  68  71
ATOM     71  S   UNL A   1      48.411  27.545  21.969  1.00  0.00     0.127 S 
ATOM     72  O   UNL A   1      47.154  28.203  21.623  1.00  0.00    -0.237 OA
ATOM     73  O   UNL A   1      49.577  28.428  22.010  1.00  0.00    -0.237 OA
ATOM     74  O   UNL A   1      48.653  26.262  21.324  1.00  0.00    -0.744 OA
ENDBRANCH  68  71
ENDBRANCH  40  64
BRANCH  52  75
ATOM     75  C   UNL A   1      45.075  33.052  29.168  1.00  0.00     0.023 A 
ATOM     76  C   UNL A   1      45.946  33.151  30.269  1.00  0.00     0.012 A 
ATOM     77  C   UNL A   1      44.987  34.120  28.252  1.00  0.00     0.148 A 
ATOM     78  C   UNL A   1      46.710  34.301  30.463  1.00  0.00     0.002 A 
ATOM     79  C   UNL A   1      45.784  35.243  28.425  1.00  0.00     0.091 A 
ATOM     80  F   UNL A   1      44.137  34.006  27.219  1.00  0.00    -0.205 F 
ATOM     81  C   UNL A   1      46.640  35.339  29.534  1.00  0.00     0.022 A 
BRANCH  79  82
ATOM     82  S   UNL A   1      45.839  36.581  27.228  1.00  0.00     0.127 S 
ATOM     83  O   UNL A   1      46.645  37.577  27.932  1.00  0.00    -0.237 OA
ATOM     84  O   UNL A   1      46.506  35.950  26.090  1.00  0.00    -0.237 OA
ATOM     85  O   UNL A   1      44.454  36.963  26.984  1.00  0.00    -0.744 OA
ENDBRANCH  79  82
ENDBRANCH  52  75
ENDBRANCH  26  27
ENDBRANCH  19  21
ENDBRANCH  18  19
ENDBRANCH   1  18
TORSDOF 16
ENDMDL
