MODEL 1
REMARK VINA RESULT:     -12.2      0.000      0.000
REMARK SMILES COc1cc(S(=O)(=O)Nc2cccc(C(=O)OCCOC(=O)c3ccc(-c4c5nc(c(-c6cccc(S(=O)(=O)[O-])c6F)c6ccc([nH]6)c(-c6cccc(S(=O)(=O)[O-])c6F)c6nc(c(-c7cccc(S(=O)(=O)[O-])c7F)c7ccc4[nH]7)C=C6)C=C5)cc3)c2)c(OC)cc1C
REMARK SMILES IDX 18 1 17 2 15 3 16 4 14 5 10 6 11 7 86 8 12 9 13 10 9 11 6 13
REMARK SMILES IDX 7 14 8 15 5 16 3 17 4 18 91 19 90 20 92 21 87 22 2 23 1 24
REMARK SMILES IDX 88 25 89 26 19 27 20 28 21 29 22 30 23 31 24 32 85 33 25 34
REMARK SMILES IDX 84 35 26 36 27 37 28 38 78 39 29 40 83 41 77 42 79 43 30 44
REMARK SMILES IDX 82 45 76 46 75 47 31 49 63 50 43 51 62 52 44 53 47 54 61 55
REMARK SMILES IDX 80 56 45 57 46 58 60 60 81 61 48 62 32 63 33 64 41 65 34 66
REMARK SMILES IDX 36 67 42 68 35 69 37 70 38 71 39 72 40 73 64 74 65 75 73 76
REMARK SMILES IDX 66 77 68 78 74 79 67 80 69 81 70 82 71 83 72 84 49 85 50 86
REMARK SMILES IDX 58 87 51 88 53 89 59 90 52 91 54 92 55 93 56 94 57 95
REMARK H PARENT 9 12 79 48 47 59
REMARK Flexibility Score: inf
ROOT
ATOM      1  C   UNL A   1      31.889  30.330  26.441  1.00  0.00     0.275 C 
ENDROOT
BRANCH   1   2
ATOM      2  O   UNL A   1      31.538  30.036  25.086  1.00  0.00    -0.458 OA
BRANCH   2   3
ATOM      3  C   UNL A   1      32.322  29.184  24.397  1.00  0.00     0.338 C 
ATOM      4  O   UNL A   1      33.435  29.402  23.951  1.00  0.00    -0.246 OA
BRANCH   3   5
ATOM      5  C   UNL A   1      31.690  27.856  24.454  1.00  0.00     0.062 A 
ATOM      6  C   UNL A   1      31.769  25.453  24.748  1.00  0.00     0.050 A 
ATOM      7  C   UNL A   1      30.374  25.424  24.619  1.00  0.00     0.027 A 
ATOM      8  C   UNL A   1      32.415  26.695  24.750  1.00  0.00     0.042 A 
ATOM      9  C   UNL A   1      29.658  26.583  24.304  1.00  0.00     0.003 A 
ATOM     10  C   UNL A   1      30.321  27.797  24.189  1.00  0.00     0.016 A 
BRANCH   6  11
ATOM     11  N   UNL A   1      32.593  24.280  24.828  1.00  0.00    -0.279 N 
ATOM     12  H   UNL A   1      33.074  24.113  25.670  1.00  0.00     0.180 HD
BRANCH  11  13
ATOM     13  S   UNL A   1      32.791  23.170  23.578  1.00  0.00     0.265 S 
ATOM     14  O   UNL A   1      33.834  23.687  22.702  1.00  0.00    -0.201 OA
ATOM     15  O   UNL A   1      31.490  22.889  23.011  1.00  0.00    -0.201 OA
BRANCH  13  16
ATOM     16  C   UNL A   1      33.426  21.615  24.191  1.00  0.00     0.133 A 
ATOM     17  C   UNL A   1      33.147  19.191  24.042  1.00  0.00     0.123 A 
ATOM     18  C   UNL A   1      32.670  20.484  23.819  1.00  0.00     0.073 A 
ATOM     19  C   UNL A   1      34.434  19.014  24.556  1.00  0.00    -0.005 A 
ATOM     20  C   UNL A   1      35.122  20.139  25.035  1.00  0.00     0.055 A 
ATOM     21  C   UNL A   1      35.131  17.687  24.624  1.00  0.00     0.048 C 
ATOM     22  C   UNL A   1      34.627  21.443  24.879  1.00  0.00     0.139 A 
BRANCH  17  23
ATOM     23  O   UNL A   1      32.325  18.169  23.646  1.00  0.00    -0.496 OA
ATOM     24  C   UNL A   1      32.156  18.097  22.228  1.00  0.00     0.278 C 
ENDBRANCH  17  23
BRANCH  22  25
ATOM     25  O   UNL A   1      35.279  22.527  25.382  1.00  0.00    -0.495 OA
ATOM     26  C   UNL A   1      36.693  22.447  25.516  1.00  0.00     0.278 C 
ENDBRANCH  22  25
ENDBRANCH  13  16
ENDBRANCH  11  13
ENDBRANCH   6  11
ENDBRANCH   3   5
ENDBRANCH   2   3
ENDBRANCH   1   2
BRANCH   1  27
ATOM     27  C   UNL A   1      33.319  30.030  26.938  1.00  0.00     0.275 C 
BRANCH  27  28
ATOM     28  O   UNL A   1      34.244  31.083  27.334  1.00  0.00    -0.458 OA
BRANCH  28  29
ATOM     29  C   UNL A   1      34.909  31.286  28.495  1.00  0.00     0.338 C 
ATOM     30  O   UNL A   1      34.509  32.040  29.371  1.00  0.00    -0.246 OA
BRANCH  29  31
ATOM     31  C   UNL A   1      36.141  30.527  28.667  1.00  0.00     0.060 A 
ATOM     32  C   UNL A   1      36.402  29.897  29.891  1.00  0.00     0.016 A 
ATOM     33  C   UNL A   1      36.972  30.375  27.564  1.00  0.00     0.016 A 
ATOM     34  C   UNL A   1      37.462  29.006  29.986  1.00  0.00     0.010 A 
ATOM     35  C   UNL A   1      37.957  29.424  27.623  1.00  0.00     0.010 A 
ATOM     36  C   UNL A   1      38.226  28.776  28.843  1.00  0.00    -0.014 A 
BRANCH  36  37
ATOM     37  C   UNL A   1      39.584  28.271  28.908  1.00  0.00     0.031 A 
ATOM     38  C   UNL A   1      39.963  26.887  28.608  1.00  0.00     0.074 A 
ATOM     39  C   UNL A   1      40.460  29.281  29.110  1.00  0.00     0.049 A 
ATOM     40  N   UNL A   1      41.021  26.336  29.093  1.00  0.00    -0.248 NA
ATOM     41  C   UNL A   1      39.170  25.985  27.775  1.00  0.00     0.031 C 
ATOM     42  C   UNL A   1      41.878  29.368  28.847  1.00  0.00     0.029 A 
ATOM     43  N   UNL A   1      40.154  30.496  29.747  1.00  0.00    -0.354 N 
ATOM     44  C   UNL A   1      41.215  25.160  28.398  1.00  0.00     0.074 A 
ATOM     45  C   UNL A   1      39.973  24.913  27.702  1.00  0.00     0.031 C 
ATOM     46  C   UNL A   1      42.369  30.412  29.544  1.00  0.00     0.029 A 
ATOM     47  C   UNL A   1      41.302  30.892  30.419  1.00  0.00     0.049 A 
ATOM     48  H   UNL A   1      39.295  30.974  29.721  1.00  0.00     0.167 HD
ATOM     49  C   UNL A   1      42.475  24.654  28.287  1.00  0.00     0.034 A 
ATOM     50  C   UNL A   1      41.329  30.972  31.782  1.00  0.00     0.034 A 
ATOM     51  C   UNL A   1      43.435  25.563  28.915  1.00  0.00     0.049 A 
ATOM     52  C   UNL A   1      42.382  30.045  32.337  1.00  0.00     0.074 A 
ATOM     53  C   UNL A   1      44.150  26.627  28.385  1.00  0.00     0.029 A 
ATOM     54  N   UNL A   1      43.500  25.686  30.295  1.00  0.00    -0.354 N 
ATOM     55  N   UNL A   1      42.813  28.990  31.706  1.00  0.00    -0.248 NA
ATOM     56  C   UNL A   1      43.046  30.247  33.617  1.00  0.00     0.031 C 
ATOM     57  C   UNL A   1      44.593  27.434  29.458  1.00  0.00     0.029 A 
ATOM     58  C   UNL A   1      44.162  26.855  30.639  1.00  0.00     0.049 A 
ATOM     59  H   UNL A   1      43.129  25.038  30.936  1.00  0.00     0.167 HD
ATOM     60  C   UNL A   1      43.777  28.371  32.450  1.00  0.00     0.074 A 
ATOM     61  C   UNL A   1      43.903  29.210  33.630  1.00  0.00     0.031 C 
ATOM     62  C   UNL A   1      44.369  27.210  32.035  1.00  0.00     0.034 A 
BRANCH  49  63
ATOM     63  C   UNL A   1      42.891  23.608  27.271  1.00  0.00     0.023 A 
ATOM     64  C   UNL A   1      43.728  24.036  26.212  1.00  0.00     0.012 A 
ATOM     65  C   UNL A   1      42.511  22.248  27.262  1.00  0.00     0.148 A 
ATOM     66  C   UNL A   1      44.099  23.204  25.155  1.00  0.00     0.002 A 
ATOM     67  C   UNL A   1      42.859  21.418  26.186  1.00  0.00     0.091 A 
ATOM     68  F   UNL A   1      41.841  21.751  28.312  1.00  0.00    -0.205 F 
ATOM     69  C   UNL A   1      43.645  21.898  25.130  1.00  0.00     0.022 A 
BRANCH  67  70
ATOM     70  S   UNL A   1      42.283  19.719  26.023  1.00  0.00     0.127 S 
ATOM     71  O   UNL A   1      40.828  19.887  26.015  1.00  0.00    -0.237 OA
ATOM     72  O   UNL A   1      42.853  19.314  24.740  1.00  0.00    -0.237 OA
ATOM     73  O   UNL A   1      42.793  19.010  27.190  1.00  0.00    -0.744 OA
ENDBRANCH  67  70
ENDBRANCH  49  63
BRANCH  50  74
ATOM     74  C   UNL A   1      40.004  31.259  32.440  1.00  0.00     0.023 A 
ATOM     75  C   UNL A   1      39.430  30.224  33.223  1.00  0.00     0.012 A 
ATOM     76  C   UNL A   1      39.476  32.559  32.575  1.00  0.00     0.148 A 
ATOM     77  C   UNL A   1      38.449  30.491  34.183  1.00  0.00     0.002 A 
ATOM     78  C   UNL A   1      38.484  32.816  33.531  1.00  0.00     0.091 A 
ATOM     79  F   UNL A   1      40.005  33.551  31.846  1.00  0.00    -0.205 F 
ATOM     80  C   UNL A   1      37.985  31.789  34.346  1.00  0.00     0.022 A 
BRANCH  78  81
ATOM     81  S   UNL A   1      37.808  34.471  33.764  1.00  0.00     0.127 S 
ATOM     82  O   UNL A   1      36.763  34.249  34.763  1.00  0.00    -0.237 OA
ATOM     83  O   UNL A   1      38.955  35.222  34.278  1.00  0.00    -0.237 OA
ATOM     84  O   UNL A   1      37.315  34.816  32.437  1.00  0.00    -0.744 OA
ENDBRANCH  78  81
ENDBRANCH  50  74
BRANCH  62  85
ATOM     85  C   UNL A   1      45.229  26.308  32.889  1.00  0.00     0.023 A 
ATOM     86  C   UNL A   1      46.625  26.456  32.957  1.00  0.00     0.012 A 
ATOM     87  C   UNL A   1      44.635  25.392  33.797  1.00  0.00     0.148 A 
ATOM     88  C   UNL A   1      47.402  25.699  33.838  1.00  0.00     0.002 A 
ATOM     89  C   UNL A   1      45.397  24.742  34.757  1.00  0.00     0.091 A 
ATOM     90  F   UNL A   1      43.321  25.131  33.731  1.00  0.00    -0.205 F 
ATOM     91  C   UNL A   1      46.787  24.863  34.760  1.00  0.00     0.022 A 
BRANCH  89  92
ATOM     92  S   UNL A   1      44.607  23.886  36.127  1.00  0.00     0.127 S 
ATOM     93  O   UNL A   1      43.765  24.935  36.697  1.00  0.00    -0.237 OA
ATOM     94  O   UNL A   1      43.873  22.815  35.447  1.00  0.00    -0.237 OA
ATOM     95  O   UNL A   1      45.707  23.415  36.958  1.00  0.00    -0.744 OA
ENDBRANCH  89  92
ENDBRANCH  62  85
ENDBRANCH  36  37
ENDBRANCH  29  31
ENDBRANCH  28  29
ENDBRANCH  27  28
ENDBRANCH   1  27
TORSDOF 19
ENDMDL
MODEL 2
REMARK VINA RESULT:     -12.1      3.580      9.990
REMARK SMILES COc1cc(S(=O)(=O)Nc2cccc(C(=O)OCCOC(=O)c3ccc(-c4c5nc(c(-c6cccc(S(=O)(=O)[O-])c6F)c6ccc([nH]6)c(-c6cccc(S(=O)(=O)[O-])c6F)c6nc(c(-c7cccc(S(=O)(=O)[O-])c7F)c7ccc4[nH]7)C=C6)C=C5)cc3)c2)c(OC)cc1C
REMARK SMILES IDX 18 1 17 2 15 3 16 4 14 5 10 6 11 7 86 8 12 9 13 10 9 11 6 13
REMARK SMILES IDX 7 14 8 15 5 16 3 17 4 18 91 19 90 20 92 21 87 22 2 23 1 24
REMARK SMILES IDX 88 25 89 26 19 27 20 28 21 29 22 30 23 31 24 32 85 33 25 34
REMARK SMILES IDX 84 35 26 36 27 37 28 38 78 39 29 40 83 41 77 42 79 43 30 44
REMARK SMILES IDX 82 45 76 46 75 47 31 49 63 50 43 51 62 52 44 53 47 54 61 55
REMARK SMILES IDX 80 56 45 57 46 58 60 60 81 61 48 62 32 63 33 64 41 65 34 66
REMARK SMILES IDX 36 67 42 68 35 69 37 70 38 71 39 72 40 73 64 74 65 75 73 76
REMARK SMILES IDX 66 77 68 78 74 79 67 80 69 81 70 82 71 83 72 84 49 85 50 86
REMARK SMILES IDX 58 87 51 88 53 89 59 90 52 91 54 92 55 93 56 94 57 95
REMARK H PARENT 9 12 79 48 47 59
REMARK Flexibility Score: inf
ROOT
ATOM      1  C   UNL A   1      37.364  22.865  24.861  1.00  0.00     0.275 C 
ENDROOT
BRANCH   1   2
ATOM      2  O   UNL A   1      36.424  22.200  24.013  1.00  0.00    -0.458 OA
BRANCH   2   3
ATOM      3  C   UNL A   1      35.342  22.888  23.600  1.00  0.00     0.338 C 
ATOM      4  O   UNL A   1      35.299  23.741  22.731  1.00  0.00    -0.246 OA
BRANCH   3   5
ATOM      5  C   UNL A   1      34.162  22.279  24.234  1.00  0.00     0.062 A 
ATOM      6  C   UNL A   1      31.866  22.345  25.005  1.00  0.00     0.050 A 
ATOM      7  C   UNL A   1      31.984  20.997  25.369  1.00  0.00     0.027 A 
ATOM      8  C   UNL A   1      32.943  22.958  24.352  1.00  0.00     0.042 A 
ATOM      9  C   UNL A   1      33.208  20.330  25.265  1.00  0.00     0.003 A 
ATOM     10  C   UNL A   1      34.309  20.981  24.727  1.00  0.00     0.016 A 
BRANCH   6  11
ATOM     11  N   UNL A   1      30.723  23.161  25.303  1.00  0.00    -0.279 N 
ATOM     12  H   UNL A   1      29.867  22.926  24.879  1.00  0.00     0.180 HD
BRANCH  11  13
ATOM     13  S   UNL A   1      30.749  24.494  26.330  1.00  0.00     0.265 S 
ATOM     14  O   UNL A   1      31.769  24.242  27.340  1.00  0.00    -0.201 OA
ATOM     15  O   UNL A   1      29.395  24.755  26.768  1.00  0.00    -0.201 OA
BRANCH  13  16
ATOM     16  C   UNL A   1      31.299  25.961  25.470  1.00  0.00     0.133 A 
ATOM     17  C   UNL A   1      33.059  27.658  25.418  1.00  0.00     0.123 A 
ATOM     18  C   UNL A   1      32.387  26.624  26.075  1.00  0.00     0.073 A 
ATOM     19  C   UNL A   1      32.708  27.978  24.105  1.00  0.00    -0.005 A 
ATOM     20  C   UNL A   1      31.549  27.400  23.563  1.00  0.00     0.055 A 
ATOM     21  C   UNL A   1      33.501  28.904  23.230  1.00  0.00     0.048 C 
ATOM     22  C   UNL A   1      30.822  26.406  24.237  1.00  0.00     0.139 A 
BRANCH  17  23
ATOM     23  O   UNL A   1      34.096  28.233  26.104  1.00  0.00    -0.496 OA
ATOM     24  C   UNL A   1      33.725  28.698  27.404  1.00  0.00     0.278 C 
ENDBRANCH  17  23
BRANCH  22  25
ATOM     25  O   UNL A   1      29.677  25.879  23.725  1.00  0.00    -0.495 OA
ATOM     26  C   UNL A   1      28.508  26.690  23.744  1.00  0.00     0.278 C 
ENDBRANCH  22  25
ENDBRANCH  13  16
ENDBRANCH  11  13
ENDBRANCH   6  11
ENDBRANCH   3   5
ENDBRANCH   2   3
ENDBRANCH   1   2
BRANCH   1  27
ATOM     27  C   UNL A   1      38.228  22.036  25.836  1.00  0.00     0.275 C 
BRANCH  27  28
ATOM     28  O   UNL A   1      39.093  22.655  26.831  1.00  0.00    -0.458 OA
BRANCH  28  29
ATOM     29  C   UNL A   1      40.201  23.418  26.689  1.00  0.00     0.338 C 
ATOM     30  O   UNL A   1      41.222  23.019  26.146  1.00  0.00    -0.246 OA
BRANCH  29  31
ATOM     31  C   UNL A   1      40.110  24.779  27.202  1.00  0.00     0.060 A 
ATOM     32  C   UNL A   1      40.698  25.831  26.486  1.00  0.00     0.016 A 
ATOM     33  C   UNL A   1      39.349  24.995  28.344  1.00  0.00     0.016 A 
ATOM     34  C   UNL A   1      40.432  27.141  26.859  1.00  0.00     0.010 A 
ATOM     35  C   UNL A   1      39.003  26.283  28.656  1.00  0.00     0.010 A 
ATOM     36  C   UNL A   1      39.579  27.351  27.941  1.00  0.00    -0.014 A 
BRANCH  36  37
ATOM     37  C   UNL A   1      39.590  28.582  28.709  1.00  0.00     0.031 A 
ATOM     38  C   UNL A   1      38.648  29.686  28.507  1.00  0.00     0.074 A 
ATOM     39  C   UNL A   1      40.465  28.496  29.735  1.00  0.00     0.049 A 
ATOM     40  N   UNL A   1      38.923  30.902  28.829  1.00  0.00    -0.248 NA
ATOM     41  C   UNL A   1      37.332  29.535  27.888  1.00  0.00     0.031 C 
ATOM     42  C   UNL A   1      40.547  29.240  30.972  1.00  0.00     0.029 A 
ATOM     43  N   UNL A   1      41.602  27.669  29.758  1.00  0.00    -0.354 N 
ATOM     44  C   UNL A   1      37.742  31.611  28.767  1.00  0.00     0.074 A 
ATOM     45  C   UNL A   1      36.821  30.766  28.042  1.00  0.00     0.031 C 
ATOM     46  C   UNL A   1      41.777  29.055  31.491  1.00  0.00     0.029 A 
ATOM     47  C   UNL A   1      42.569  28.343  30.491  1.00  0.00     0.049 A 
ATOM     48  H   UNL A   1      41.695  26.785  29.337  1.00  0.00     0.167 HD
ATOM     49  C   UNL A   1      37.592  32.721  29.542  1.00  0.00     0.034 A 
ATOM     50  C   UNL A   1      43.729  28.765  29.906  1.00  0.00     0.034 A 
ATOM     51  C   UNL A   1      38.773  32.903  30.388  1.00  0.00     0.049 A 
ATOM     52  C   UNL A   1      43.854  30.265  30.021  1.00  0.00     0.074 A 
ATOM     53  C   UNL A   1      39.053  32.432  31.661  1.00  0.00     0.029 A 
ATOM     54  N   UNL A   1      39.978  33.325  29.844  1.00  0.00    -0.354 N 
ATOM     55  N   UNL A   1      42.832  31.060  30.164  1.00  0.00    -0.248 NA
ATOM     56  C   UNL A   1      45.125  30.974  30.014  1.00  0.00     0.031 C 
ATOM     57  C   UNL A   1      40.451  32.509  31.859  1.00  0.00     0.029 A 
ATOM     58  C   UNL A   1      41.020  33.042  30.714  1.00  0.00     0.049 A 
ATOM     59  H   UNL A   1      40.079  33.761  28.967  1.00  0.00     0.167 HD
ATOM     60  C   UNL A   1      43.265  32.352  30.262  1.00  0.00     0.074 A 
ATOM     61  C   UNL A   1      44.713  32.244  30.185  1.00  0.00     0.031 C 
ATOM     62  C   UNL A   1      42.390  33.396  30.377  1.00  0.00     0.034 A 
BRANCH  49  63
ATOM     63  C   UNL A   1      36.259  33.371  29.859  1.00  0.00     0.023 A 
ATOM     64  C   UNL A   1      35.604  34.046  28.800  1.00  0.00     0.012 A 
ATOM     65  C   UNL A   1      35.610  33.389  31.113  1.00  0.00     0.148 A 
ATOM     66  C   UNL A   1      34.428  34.775  28.978  1.00  0.00     0.002 A 
ATOM     67  C   UNL A   1      34.443  34.144  31.300  1.00  0.00     0.091 A 
ATOM     68  F   UNL A   1      36.106  32.649  32.114  1.00  0.00    -0.205 F 
ATOM     69  C   UNL A   1      33.857  34.843  30.236  1.00  0.00     0.022 A 
BRANCH  67  70
ATOM     70  S   UNL A   1      33.643  34.345  32.901  1.00  0.00     0.127 S 
ATOM     71  O   UNL A   1      32.528  35.238  32.578  1.00  0.00    -0.237 OA
ATOM     72  O   UNL A   1      33.247  32.978  33.232  1.00  0.00    -0.237 OA
ATOM     73  O   UNL A   1      34.645  34.939  33.777  1.00  0.00    -0.744 OA
ENDBRANCH  67  70
ENDBRANCH  49  63
BRANCH  50  74
ATOM     74  C   UNL A   1      44.193  27.952  28.726  1.00  0.00     0.023 A 
ATOM     75  C   UNL A   1      43.993  28.509  27.435  1.00  0.00     0.012 A 
ATOM     76  C   UNL A   1      45.067  26.854  28.843  1.00  0.00     0.148 A 
ATOM     77  C   UNL A   1      44.720  28.063  26.327  1.00  0.00     0.002 A 
ATOM     78  C   UNL A   1      45.783  26.406  27.724  1.00  0.00     0.091 A 
ATOM     79  F   UNL A   1      45.272  26.314  30.052  1.00  0.00    -0.205 F 
ATOM     80  C   UNL A   1      45.624  27.021  26.473  1.00  0.00     0.022 A 
BRANCH  78  81
ATOM     81  S   UNL A   1      46.940  25.028  27.836  1.00  0.00     0.127 S 
ATOM     82  O   UNL A   1      47.760  25.204  26.638  1.00  0.00    -0.237 OA
ATOM     83  O   UNL A   1      47.660  25.308  29.080  1.00  0.00    -0.237 OA
ATOM     84  O   UNL A   1      46.069  23.861  27.809  1.00  0.00    -0.744 OA
ENDBRANCH  78  81
ENDBRANCH  50  74
BRANCH  62  85
ATOM     85  C   UNL A   1      42.738  34.857  30.216  1.00  0.00     0.023 A 
ATOM     86  C   UNL A   1      43.434  35.571  31.207  1.00  0.00     0.012 A 
ATOM     87  C   UNL A   1      42.533  35.515  28.975  1.00  0.00     0.148 A 
ATOM     88  C   UNL A   1      43.859  36.887  31.003  1.00  0.00     0.002 A 
ATOM     89  C   UNL A   1      43.072  36.773  28.735  1.00  0.00     0.091 A 
ATOM     90  F   UNL A   1      41.800  34.934  28.014  1.00  0.00    -0.205 F 
ATOM     91  C   UNL A   1      43.705  37.478  29.758  1.00  0.00     0.022 A 
BRANCH  89  92
ATOM     92  S   UNL A   1      43.134  37.437  27.065  1.00  0.00     0.127 S 
ATOM     93  O   UNL A   1      42.108  38.476  27.112  1.00  0.00    -0.237 OA
ATOM     94  O   UNL A   1      44.508  37.938  26.977  1.00  0.00    -0.237 OA
ATOM     95  O   UNL A   1      42.862  36.297  26.199  1.00  0.00    -0.744 OA
ENDBRANCH  89  92
ENDBRANCH  62  85
ENDBRANCH  36  37
ENDBRANCH  29  31
ENDBRANCH  28  29
ENDBRANCH  27  28
ENDBRANCH   1  27
TORSDOF 19
ENDMDL
MODEL 3
REMARK VINA RESULT:     -12.0      3.711     10.153
REMARK SMILES COc1cc(S(=O)(=O)Nc2cccc(C(=O)OCCOC(=O)c3ccc(-c4c5nc(c(-c6cccc(S(=O)(=O)[O-])c6F)c6ccc([nH]6)c(-c6cccc(S(=O)(=O)[O-])c6F)c6nc(c(-c7cccc(S(=O)(=O)[O-])c7F)c7ccc4[nH]7)C=C6)C=C5)cc3)c2)c(OC)cc1C
REMARK SMILES IDX 18 1 17 2 15 3 16 4 14 5 10 6 11 7 86 8 12 9 13 10 9 11 6 13
REMARK SMILES IDX 7 14 8 15 5 16 3 17 4 18 91 19 90 20 92 21 87 22 2 23 1 24
REMARK SMILES IDX 88 25 89 26 19 27 20 28 21 29 22 30 23 31 24 32 85 33 25 34
REMARK SMILES IDX 84 35 26 36 27 37 28 38 78 39 29 40 83 41 77 42 79 43 30 44
REMARK SMILES IDX 82 45 76 46 75 47 31 49 63 50 43 51 62 52 44 53 47 54 61 55
REMARK SMILES IDX 80 56 45 57 46 58 60 60 81 61 48 62 32 63 33 64 41 65 34 66
REMARK SMILES IDX 36 67 42 68 35 69 37 70 38 71 39 72 40 73 64 74 65 75 73 76
REMARK SMILES IDX 66 77 68 78 74 79 67 80 69 81 70 82 71 83 72 84 49 85 50 86
REMARK SMILES IDX 58 87 51 88 53 89 59 90 52 91 54 92 55 93 56 94 57 95
REMARK H PARENT 9 12 79 48 47 59
REMARK Flexibility Score: inf
ROOT
ATOM      1  C   UNL A   1      37.541  21.398  24.857  1.00  0.00     0.275 C 
ENDROOT
BRANCH   1   2
ATOM      2  O   UNL A   1      36.222  21.425  24.305  1.00  0.00    -0.458 OA
BRANCH   2   3
ATOM      3  C   UNL A   1      35.844  22.519  23.616  1.00  0.00     0.338 C 
ATOM      4  O   UNL A   1      36.469  23.094  22.742  1.00  0.00    -0.246 OA
BRANCH   3   5
ATOM      5  C   UNL A   1      34.435  22.784  23.947  1.00  0.00     0.062 A 
ATOM      6  C   UNL A   1      32.541  24.268  24.239  1.00  0.00     0.050 A 
ATOM      7  C   UNL A   1      31.747  23.147  24.513  1.00  0.00     0.027 A 
ATOM      8  C   UNL A   1      33.877  24.067  23.869  1.00  0.00     0.042 A 
ATOM      9  C   UNL A   1      32.312  21.872  24.607  1.00  0.00     0.003 A 
ATOM     10  C   UNL A   1      33.666  21.694  24.357  1.00  0.00     0.016 A 
BRANCH   6  11
ATOM     11  N   UNL A   1      32.088  25.624  24.363  1.00  0.00    -0.279 N 
ATOM     12  H   UNL A   1      32.769  26.333  24.429  1.00  0.00     0.180 HD
BRANCH  11  13
ATOM     13  S   UNL A   1      30.470  26.086  24.402  1.00  0.00     0.265 S 
ATOM     14  O   UNL A   1      30.013  25.948  25.779  1.00  0.00    -0.201 OA
ATOM     15  O   UNL A   1      29.766  25.361  23.366  1.00  0.00    -0.201 OA
BRANCH  13  16
ATOM     16  C   UNL A   1      30.285  27.823  24.023  1.00  0.00     0.133 A 
ATOM     17  C   UNL A   1      28.824  29.442  22.916  1.00  0.00     0.123 A 
ATOM     18  C   UNL A   1      29.224  28.123  23.142  1.00  0.00     0.073 A 
ATOM     19  C   UNL A   1      29.421  30.474  23.644  1.00  0.00    -0.005 A 
ATOM     20  C   UNL A   1      30.553  30.177  24.419  1.00  0.00     0.055 A 
ATOM     21  C   UNL A   1      28.921  31.889  23.652  1.00  0.00     0.048 C 
ATOM     22  C   UNL A   1      31.010  28.863  24.605  1.00  0.00     0.139 A 
BRANCH  17  23
ATOM     23  O   UNL A   1      27.788  29.615  22.037  1.00  0.00    -0.496 OA
ATOM     24  C   UNL A   1      28.079  30.553  20.998  1.00  0.00     0.278 C 
ENDBRANCH  17  23
BRANCH  22  25
ATOM     25  O   UNL A   1      32.131  28.585  25.324  1.00  0.00    -0.495 OA
ATOM     26  C   UNL A   1      33.333  29.256  24.964  1.00  0.00     0.278 C 
ENDBRANCH  22  25
ENDBRANCH  13  16
ENDBRANCH  11  13
ENDBRANCH   6  11
ENDBRANCH   3   5
ENDBRANCH   2   3
ENDBRANCH   1   2
BRANCH   1  27
ATOM     27  C   UNL A   1      38.005  22.549  25.775  1.00  0.00     0.275 C 
BRANCH  27  28
ATOM     28  O   UNL A   1      39.205  22.457  26.595  1.00  0.00    -0.458 OA
BRANCH  28  29
ATOM     29  C   UNL A   1      40.357  23.166  26.561  1.00  0.00     0.338 C 
ATOM     30  O   UNL A   1      41.390  22.738  26.064  1.00  0.00    -0.246 OA
BRANCH  29  31
ATOM     31  C   UNL A   1      40.303  24.504  27.135  1.00  0.00     0.060 A 
ATOM     32  C   UNL A   1      40.803  25.592  26.407  1.00  0.00     0.016 A 
ATOM     33  C   UNL A   1      39.659  24.663  28.356  1.00  0.00     0.016 A 
ATOM     34  C   UNL A   1      40.560  26.882  26.858  1.00  0.00     0.010 A 
ATOM     35  C   UNL A   1      39.331  25.932  28.754  1.00  0.00     0.010 A 
ATOM     36  C   UNL A   1      39.818  27.036  28.028  1.00  0.00    -0.014 A 
BRANCH  36  37
ATOM     37  C   UNL A   1      39.893  28.236  28.840  1.00  0.00     0.031 A 
ATOM     38  C   UNL A   1      38.921  29.331  28.781  1.00  0.00     0.074 A 
ATOM     39  C   UNL A   1      40.870  28.125  29.767  1.00  0.00     0.049 A 
ATOM     40  N   UNL A   1      39.212  30.538  29.121  1.00  0.00    -0.248 NA
ATOM     41  C   UNL A   1      37.550  29.182  28.294  1.00  0.00     0.031 C 
ATOM     42  C   UNL A   1      41.068  28.822  31.018  1.00  0.00     0.029 A 
ATOM     43  N   UNL A   1      42.013  27.318  29.640  1.00  0.00    -0.354 N 
ATOM     44  C   UNL A   1      38.022  31.229  29.210  1.00  0.00     0.074 A 
ATOM     45  C   UNL A   1      37.042  30.397  28.549  1.00  0.00     0.031 C 
ATOM     46  C   UNL A   1      42.348  28.637  31.401  1.00  0.00     0.029 A 
ATOM     47  C   UNL A   1      43.042  27.979  30.297  1.00  0.00     0.049 A 
ATOM     48  H   UNL A   1      42.074  26.452  29.176  1.00  0.00     0.167 HD
ATOM     49  C   UNL A   1      37.938  32.305  30.040  1.00  0.00     0.034 A 
ATOM     50  C   UNL A   1      44.130  28.443  29.614  1.00  0.00     0.034 A 
ATOM     51  C   UNL A   1      39.198  32.474  30.767  1.00  0.00     0.049 A 
ATOM     52  C   UNL A   1      44.247  29.938  29.777  1.00  0.00     0.074 A 
ATOM     53  C   UNL A   1      39.613  31.958  31.985  1.00  0.00     0.029 A 
ATOM     54  N   UNL A   1      40.334  32.937  30.121  1.00  0.00    -0.354 N 
ATOM     55  N   UNL A   1      43.235  30.710  30.055  1.00  0.00    -0.248 NA
ATOM     56  C   UNL A   1      45.501  30.669  29.668  1.00  0.00     0.031 C 
ATOM     57  C   UNL A   1      41.023  32.051  32.043  1.00  0.00     0.029 A 
ATOM     58  C   UNL A   1      41.463  32.638  30.868  1.00  0.00     0.049 A 
ATOM     59  H   UNL A   1      40.339  33.409  29.257  1.00  0.00     0.167 HD
ATOM     60  C   UNL A   1      43.659  32.005  30.161  1.00  0.00     0.074 A 
ATOM     61  C   UNL A   1      45.093  31.924  29.932  1.00  0.00     0.031 C 
ATOM     62  C   UNL A   1      42.787  33.028  30.407  1.00  0.00     0.034 A 
BRANCH  49  63
ATOM     63  C   UNL A   1      36.636  32.920  30.518  1.00  0.00     0.023 A 
ATOM     64  C   UNL A   1      36.237  32.633  31.846  1.00  0.00     0.012 A 
ATOM     65  C   UNL A   1      35.766  33.737  29.762  1.00  0.00     0.148 A 
ATOM     66  C   UNL A   1      35.015  33.046  32.376  1.00  0.00     0.002 A 
ATOM     67  C   UNL A   1      34.525  34.129  30.284  1.00  0.00     0.091 A 
ATOM     68  F   UNL A   1      36.157  34.161  28.553  1.00  0.00    -0.205 F 
ATOM     69  C   UNL A   1      34.146  33.777  31.587  1.00  0.00     0.022 A 
BRANCH  67  70
ATOM     70  S   UNL A   1      33.296  35.037  29.331  1.00  0.00     0.127 S 
ATOM     71  O   UNL A   1      32.846  34.028  28.369  1.00  0.00    -0.237 OA
ATOM     72  O   UNL A   1      32.305  35.389  30.346  1.00  0.00    -0.237 OA
ATOM     73  O   UNL A   1      34.005  36.158  28.728  1.00  0.00    -0.744 OA
ENDBRANCH  67  70
ENDBRANCH  49  63
BRANCH  50  74
ATOM     74  C   UNL A   1      44.480  27.685  28.361  1.00  0.00     0.023 A 
ATOM     75  C   UNL A   1      44.240  28.333  27.121  1.00  0.00     0.012 A 
ATOM     76  C   UNL A   1      45.297  26.536  28.358  1.00  0.00     0.148 A 
ATOM     77  C   UNL A   1      44.877  27.922  25.946  1.00  0.00     0.002 A 
ATOM     78  C   UNL A   1      45.922  26.124  27.172  1.00  0.00     0.091 A 
ATOM     79  F   UNL A   1      45.538  25.909  29.517  1.00  0.00    -0.205 F 
ATOM     80  C   UNL A   1      45.728  26.826  25.974  1.00  0.00     0.022 A 
BRANCH  78  81
ATOM     81  S   UNL A   1      47.004  24.683  27.131  1.00  0.00     0.127 S 
ATOM     82  O   UNL A   1      47.357  24.592  25.715  1.00  0.00    -0.237 OA
ATOM     83  O   UNL A   1      48.122  25.090  27.984  1.00  0.00    -0.237 OA
ATOM     84  O   UNL A   1      46.145  23.610  27.612  1.00  0.00    -0.744 OA
ENDBRANCH  78  81
ENDBRANCH  50  74
BRANCH  62  85
ATOM     85  C   UNL A   1      43.098  34.500  30.271  1.00  0.00     0.023 A 
ATOM     86  C   UNL A   1      43.506  35.280  31.366  1.00  0.00     0.012 A 
ATOM     87  C   UNL A   1      43.165  35.108  28.989  1.00  0.00     0.148 A 
ATOM     88  C   UNL A   1      43.908  36.610  31.213  1.00  0.00     0.002 A 
ATOM     89  C   UNL A   1      43.688  36.384  28.830  1.00  0.00     0.091 A 
ATOM     90  F   UNL A   1      42.708  34.459  27.908  1.00  0.00    -0.205 F 
ATOM     91  C   UNL A   1      44.028  37.154  29.942  1.00  0.00     0.022 A 
BRANCH  89  92
ATOM     92  S   UNL A   1      44.116  37.000  27.195  1.00  0.00     0.127 S 
ATOM     93  O   UNL A   1      44.979  35.937  26.686  1.00  0.00    -0.237 OA
ATOM     94  O   UNL A   1      42.808  37.091  26.542  1.00  0.00    -0.237 OA
ATOM     95  O   UNL A   1      44.750  38.289  27.436  1.00  0.00    -0.744 OA
ENDBRANCH  89  92
ENDBRANCH  62  85
ENDBRANCH  36  37
ENDBRANCH  29  31
ENDBRANCH  28  29
ENDBRANCH  27  28
ENDBRANCH   1  27
TORSDOF 19
ENDMDL
