MODEL 1
REMARK VINA RESULT:     -11.1      0.000      0.000
REMARK SMILES COc1ccc([C@@H]2C(C#N)=C(N)N3C(=O)[C@H](CC(=O)OCCOC(=O)c4ccc(-c5c6nc(c(-c7cccc(S(=O)(=O)[O-])c7F)c7ccc([nH]7)c(-c7cccc(S(=O)(=O)[O-])c7F)c7nc(c(-c8cccc(S(=O)(=O)[O-])c8F)c8ccc5[nH]8)C=C7)C=C6)cc4)SC3=C2C#N)cc1
REMARK SMILES IDX 21 1 20 2 18 3 19 4 17 5 16 6 7 7 8 8 91 9 11 10 90 11 13 12
REMARK SMILES IDX 89 13 14 14 15 15 6 16 3 17 4 18 95 19 5 20 94 21 2 22 1 23
REMARK SMILES IDX 9 24 10 25 92 26 93 27 12 28 22 31 23 32 24 33 25 34 26 35
REMARK SMILES IDX 27 36 88 37 28 38 87 39 29 40 30 41 31 42 81 43 32 44 86 45
REMARK SMILES IDX 80 46 82 47 33 48 85 49 79 50 78 51 34 53 66 54 46 55 65 56
REMARK SMILES IDX 47 57 50 58 64 59 83 60 48 61 49 62 63 64 84 65 51 66 35 67
REMARK SMILES IDX 36 68 44 69 37 70 39 71 45 72 38 73 40 74 41 75 42 76 43 77
REMARK SMILES IDX 67 78 68 79 76 80 69 81 71 82 77 83 70 84 72 85 73 86 74 87
REMARK SMILES IDX 75 88 52 89 53 90 61 91 54 92 56 93 62 94 55 95 57 96 58 97
REMARK SMILES IDX 59 98 60 99
REMARK H PARENT 12 29 12 30 82 52 50 63
REMARK Flexibility Score: inf
ROOT
ATOM      1  C   UNL A   1      43.833  21.172  25.695  1.00  0.00     0.274 C 
ENDROOT
BRANCH   1   2
ATOM      2  O   UNL A   1      42.468  21.296  26.143  1.00  0.00    -0.462 OA
BRANCH   2   3
ATOM      3  C   UNL A   1      41.641  20.241  25.959  1.00  0.00     0.307 C 
ATOM      4  O   UNL A   1      41.949  19.205  25.384  1.00  0.00    -0.252 OA
BRANCH   3   5
ATOM      5  C   UNL A   1      40.239  20.492  26.477  1.00  0.00     0.147 C 
BRANCH   5   6
ATOM      6  C   UNL A   1      39.243  20.829  25.376  1.00  0.00     0.154 C 
ATOM      7  C   UNL A   1      34.419  21.694  24.531  1.00  0.00     0.107 C 
ATOM      8  C   UNL A   1      34.586  20.194  24.664  1.00  0.00     0.083 C 
ATOM      9  C   UNL A   1      35.670  22.417  24.952  1.00  0.00     0.073 C 
ATOM     10  C   UNL A   1      35.763  19.572  24.870  1.00  0.00     0.126 C 
ATOM     11  C   UNL A   1      36.808  21.719  25.156  1.00  0.00     0.099 C 
ATOM     12  N   UNL A   1      36.909  20.341  25.045  1.00  0.00    -0.258 N 
ATOM     13  S   UNL A   1      38.319  22.389  25.685  1.00  0.00    -0.093 SA
ATOM     14  C   UNL A   1      38.167  19.769  25.272  1.00  0.00     0.247 C 
ATOM     15  O   UNL A   1      38.387  18.561  25.358  1.00  0.00    -0.273 OA
BRANCH   7  16
ATOM     16  C   UNL A   1      33.170  22.233  25.231  1.00  0.00    -0.034 A 
ATOM     17  C   UNL A   1      30.854  23.114  26.573  1.00  0.00     0.118 A 
ATOM     18  C   UNL A   1      31.961  22.670  27.295  1.00  0.00     0.047 A 
ATOM     19  C   UNL A   1      30.913  23.148  25.180  1.00  0.00     0.047 A 
ATOM     20  C   UNL A   1      33.106  22.225  26.633  1.00  0.00     0.008 A 
ATOM     21  C   UNL A   1      32.063  22.711  24.511  1.00  0.00     0.008 A 
BRANCH  17  22
ATOM     22  O   UNL A   1      29.790  23.515  27.332  1.00  0.00    -0.497 OA
ATOM     23  C   UNL A   1      29.059  24.627  26.827  1.00  0.00     0.278 C 
ENDBRANCH  17  22
ENDBRANCH   7  16
BRANCH   8  24
ATOM     24  C   UNL A   1      33.321  19.352  24.658  1.00  0.00     0.100 C 
ATOM     25  N   UNL A   1      32.272  18.652  24.653  1.00  0.00    -0.193 NA
ENDBRANCH   8  24
BRANCH   9  26
ATOM     26  C   UNL A   1      35.586  23.897  25.291  1.00  0.00     0.098 C 
ATOM     27  N   UNL A   1      35.517  25.125  25.571  1.00  0.00    -0.193 NA
ENDBRANCH   9  26
BRANCH  10  28
ATOM     28  N   UNL A   1      35.844  18.204  24.932  1.00  0.00    -0.384 N 
ATOM     29  H   UNL A   1      36.178  17.695  24.157  1.00  0.00     0.158 HD
ATOM     30  H   UNL A   1      35.569  17.731  25.750  1.00  0.00     0.158 HD
ENDBRANCH  10  28
ENDBRANCH   5   6
ENDBRANCH   3   5
ENDBRANCH   2   3
ENDBRANCH   1   2
BRANCH   1  31
ATOM     31  C   UNL A   1      44.094  22.100  24.509  1.00  0.00     0.275 C 
BRANCH  31  32
ATOM     32  O   UNL A   1      43.402  23.348  24.685  1.00  0.00    -0.458 OA
BRANCH  32  33
ATOM     33  C   UNL A   1      44.194  24.403  24.990  1.00  0.00     0.338 C 
ATOM     34  O   UNL A   1      45.238  24.725  24.448  1.00  0.00    -0.246 OA
BRANCH  33  35
ATOM     35  C   UNL A   1      43.526  25.234  26.001  1.00  0.00     0.060 A 
ATOM     36  C   UNL A   1      43.908  26.575  26.112  1.00  0.00     0.016 A 
ATOM     37  C   UNL A   1      42.587  24.685  26.873  1.00  0.00     0.016 A 
ATOM     38  C   UNL A   1      43.365  27.371  27.116  1.00  0.00     0.010 A 
ATOM     39  C   UNL A   1      42.040  25.487  27.878  1.00  0.00     0.010 A 
ATOM     40  C   UNL A   1      42.441  26.826  28.017  1.00  0.00    -0.014 A 
BRANCH  40  41
ATOM     41  C   UNL A   1      41.942  27.646  29.144  1.00  0.00     0.031 A 
ATOM     42  C   UNL A   1      42.644  27.594  30.471  1.00  0.00     0.074 A 
ATOM     43  C   UNL A   1      40.859  28.427  28.977  1.00  0.00     0.049 A 
ATOM     44  N   UNL A   1      42.345  28.202  31.587  1.00  0.00    -0.248 NA
ATOM     45  C   UNL A   1      43.840  26.738  30.552  1.00  0.00     0.031 C 
ATOM     46  C   UNL A   1      40.093  28.552  27.737  1.00  0.00     0.029 A 
ATOM     47  N   UNL A   1      40.204  29.245  29.861  1.00  0.00    -0.354 N 
ATOM     48  C   UNL A   1      43.291  27.783  32.513  1.00  0.00     0.074 A 
ATOM     49  C   UNL A   1      44.171  26.859  31.831  1.00  0.00     0.031 C 
ATOM     50  C   UNL A   1      39.059  29.385  27.945  1.00  0.00     0.029 A 
ATOM     51  C   UNL A   1      39.078  29.832  29.335  1.00  0.00     0.049 A 
ATOM     52  H   UNL A   1      40.510  29.396  30.785  1.00  0.00     0.167 HD
ATOM     53  C   UNL A   1      43.425  28.147  33.811  1.00  0.00     0.034 A 
ATOM     54  C   UNL A   1      38.161  30.632  29.914  1.00  0.00     0.034 A 
ATOM     55  C   UNL A   1      42.570  29.092  34.477  1.00  0.00     0.049 A 
ATOM     56  C   UNL A   1      38.342  31.031  31.355  1.00  0.00     0.074 A 
ATOM     57  C   UNL A   1      42.646  29.555  35.778  1.00  0.00     0.029 A 
ATOM     58  N   UNL A   1      41.480  29.720  33.893  1.00  0.00    -0.354 N 
ATOM     59  N   UNL A   1      39.306  30.710  32.185  1.00  0.00    -0.248 NA
ATOM     60  C   UNL A   1      37.329  31.927  31.928  1.00  0.00     0.031 C 
ATOM     61  C   UNL A   1      41.598  30.458  35.984  1.00  0.00     0.029 A 
ATOM     62  C   UNL A   1      40.875  30.567  34.806  1.00  0.00     0.049 A 
ATOM     63  H   UNL A   1      41.180  29.584  32.965  1.00  0.00     0.167 HD
ATOM     64  C   UNL A   1      39.034  31.392  33.366  1.00  0.00     0.074 A 
ATOM     65  C   UNL A   1      37.828  32.160  33.135  1.00  0.00     0.031 C 
ATOM     66  C   UNL A   1      39.711  31.371  34.541  1.00  0.00     0.034 A 
BRANCH  53  67
ATOM     67  C   UNL A   1      44.569  27.553  34.586  1.00  0.00     0.023 A 
ATOM     68  C   UNL A   1      45.826  28.190  34.561  1.00  0.00     0.012 A 
ATOM     69  C   UNL A   1      44.392  26.400  35.375  1.00  0.00     0.148 A 
ATOM     70  C   UNL A   1      46.897  27.674  35.291  1.00  0.00     0.002 A 
ATOM     71  C   UNL A   1      45.455  25.913  36.128  1.00  0.00     0.091 A 
ATOM     72  F   UNL A   1      43.198  25.792  35.363  1.00  0.00    -0.205 F 
ATOM     73  C   UNL A   1      46.709  26.544  36.081  1.00  0.00     0.022 A 
BRANCH  71  74
ATOM     74  S   UNL A   1      45.290  24.502  37.228  1.00  0.00     0.127 S 
ATOM     75  O   UNL A   1      46.601  24.475  37.872  1.00  0.00    -0.237 OA
ATOM     76  O   UNL A   1      44.191  24.913  38.101  1.00  0.00    -0.237 OA
ATOM     77  O   UNL A   1      44.987  23.364  36.371  1.00  0.00    -0.744 OA
ENDBRANCH  71  74
ENDBRANCH  53  67
BRANCH  54  78
ATOM     78  C   UNL A   1      37.022  31.154  29.111  1.00  0.00     0.023 A 
ATOM     79  C   UNL A   1      36.978  32.524  28.783  1.00  0.00     0.012 A 
ATOM     80  C   UNL A   1      36.000  30.305  28.645  1.00  0.00     0.148 A 
ATOM     81  C   UNL A   1      35.926  33.042  28.029  1.00  0.00     0.002 A 
ATOM     82  C   UNL A   1      34.982  30.817  27.850  1.00  0.00     0.091 A 
ATOM     83  F   UNL A   1      36.046  29.008  28.986  1.00  0.00    -0.205 F 
ATOM     84  C   UNL A   1      34.935  32.187  27.552  1.00  0.00     0.022 A 
BRANCH  82  85
ATOM     85  S   UNL A   1      33.741  29.763  27.090  1.00  0.00     0.127 S 
ATOM     86  O   UNL A   1      32.724  30.733  26.696  1.00  0.00    -0.237 OA
ATOM     87  O   UNL A   1      34.483  29.163  25.981  1.00  0.00    -0.237 OA
ATOM     88  O   UNL A   1      33.351  28.816  28.127  1.00  0.00    -0.744 OA
ENDBRANCH  82  85
ENDBRANCH  54  78
BRANCH  66  89
ATOM     89  C   UNL A   1      39.182  32.223  35.664  1.00  0.00     0.023 A 
ATOM     90  C   UNL A   1      38.225  31.691  36.550  1.00  0.00     0.012 A 
ATOM     91  C   UNL A   1      39.678  33.523  35.882  1.00  0.00     0.148 A 
ATOM     92  C   UNL A   1      37.748  32.450  37.619  1.00  0.00     0.002 A 
ATOM     93  C   UNL A   1      39.230  34.258  36.973  1.00  0.00     0.091 A 
ATOM     94  F   UNL A   1      40.571  34.023  35.014  1.00  0.00    -0.205 F 
ATOM     95  C   UNL A   1      38.259  33.727  37.837  1.00  0.00     0.022 A 
BRANCH  93  96
ATOM     96  S   UNL A   1      39.906  35.875  37.371  1.00  0.00     0.127 S 
ATOM     97  O   UNL A   1      41.305  35.556  37.649  1.00  0.00    -0.237 OA
ATOM     98  O   UNL A   1      39.686  36.624  36.133  1.00  0.00    -0.237 OA
ATOM     99  O   UNL A   1      39.128  36.356  38.506  1.00  0.00    -0.744 OA
ENDBRANCH  93  96
ENDBRANCH  66  89
ENDBRANCH  40  41
ENDBRANCH  33  35
ENDBRANCH  32  33
ENDBRANCH  31  32
ENDBRANCH   1  31
TORSDOF 20
ENDMDL
MODEL 2
REMARK VINA RESULT:     -11.0      5.513      9.434
REMARK SMILES COc1ccc([C@@H]2C(C#N)=C(N)N3C(=O)[C@H](CC(=O)OCCOC(=O)c4ccc(-c5c6nc(c(-c7cccc(S(=O)(=O)[O-])c7F)c7ccc([nH]7)c(-c7cccc(S(=O)(=O)[O-])c7F)c7nc(c(-c8cccc(S(=O)(=O)[O-])c8F)c8ccc5[nH]8)C=C7)C=C6)cc4)SC3=C2C#N)cc1
REMARK SMILES IDX 21 1 20 2 18 3 19 4 17 5 16 6 7 7 8 8 91 9 11 10 90 11 13 12
REMARK SMILES IDX 89 13 14 14 15 15 6 16 3 17 4 18 95 19 5 20 94 21 2 22 1 23
REMARK SMILES IDX 9 24 10 25 92 26 93 27 12 28 22 31 23 32 24 33 25 34 26 35
REMARK SMILES IDX 27 36 88 37 28 38 87 39 29 40 30 41 31 42 81 43 32 44 86 45
REMARK SMILES IDX 80 46 82 47 33 48 85 49 79 50 78 51 34 53 66 54 46 55 65 56
REMARK SMILES IDX 47 57 50 58 64 59 83 60 48 61 49 62 63 64 84 65 51 66 35 67
REMARK SMILES IDX 36 68 44 69 37 70 39 71 45 72 38 73 40 74 41 75 42 76 43 77
REMARK SMILES IDX 67 78 68 79 76 80 69 81 71 82 77 83 70 84 72 85 73 86 74 87
REMARK SMILES IDX 75 88 52 89 53 90 61 91 54 92 56 93 62 94 55 95 57 96 58 97
REMARK SMILES IDX 59 98 60 99
REMARK H PARENT 12 29 12 30 82 52 50 63
REMARK Flexibility Score: inf
ROOT
ATOM      1  C   UNL A   1      39.000  21.509  26.072  1.00  0.00     0.274 C 
ENDROOT
BRANCH   1   2
ATOM      2  O   UNL A   1      38.045  22.019  25.119  1.00  0.00    -0.462 OA
BRANCH   2   3
ATOM      3  C   UNL A   1      36.764  22.175  25.527  1.00  0.00     0.307 C 
ATOM      4  O   UNL A   1      36.328  23.170  26.091  1.00  0.00    -0.252 OA
BRANCH   3   5
ATOM      5  C   UNL A   1      35.913  20.945  25.281  1.00  0.00     0.147 C 
BRANCH   5   6
ATOM      6  C   UNL A   1      34.610  21.251  24.554  1.00  0.00     0.154 C 
ATOM      7  C   UNL A   1      31.094  24.726  24.021  1.00  0.00     0.107 C 
ATOM      8  C   UNL A   1      30.823  24.015  25.332  1.00  0.00     0.083 C 
ATOM      9  C   UNL A   1      32.440  24.344  23.467  1.00  0.00     0.073 C 
ATOM     10  C   UNL A   1      31.552  22.987  25.808  1.00  0.00     0.126 C 
ATOM     11  C   UNL A   1      33.117  23.310  24.011  1.00  0.00     0.099 C 
ATOM     12  N   UNL A   1      32.676  22.576  25.101  1.00  0.00    -0.258 N 
ATOM     13  S   UNL A   1      34.693  22.772  23.523  1.00  0.00    -0.093 SA
ATOM     14  C   UNL A   1      33.488  21.520  25.534  1.00  0.00     0.247 C 
ATOM     15  O   UNL A   1      33.314  20.875  26.567  1.00  0.00    -0.273 OA
BRANCH   7  16
ATOM     16  C   UNL A   1      30.902  26.242  24.098  1.00  0.00    -0.034 A 
ATOM     17  C   UNL A   1      30.580  29.041  24.119  1.00  0.00     0.118 A 
ATOM     18  C   UNL A   1      29.807  28.249  23.271  1.00  0.00     0.047 A 
ATOM     19  C   UNL A   1      31.493  28.434  24.980  1.00  0.00     0.047 A 
ATOM     20  C   UNL A   1      29.970  26.863  23.251  1.00  0.00     0.008 A 
ATOM     21  C   UNL A   1      31.654  27.043  24.972  1.00  0.00     0.008 A 
BRANCH  17  22
ATOM     22  O   UNL A   1      30.336  30.385  24.040  1.00  0.00    -0.497 OA
ATOM     23  C   UNL A   1      29.071  30.748  23.498  1.00  0.00     0.278 C 
ENDBRANCH  17  22
ENDBRANCH   7  16
BRANCH   8  24
ATOM     24  C   UNL A   1      29.711  24.571  26.206  1.00  0.00     0.100 C 
ATOM     25  N   UNL A   1      28.787  25.033  26.929  1.00  0.00    -0.193 NA
ENDBRANCH   8  24
BRANCH   9  26
ATOM     26  C   UNL A   1      33.078  25.230  22.408  1.00  0.00     0.098 C 
ATOM     27  N   UNL A   1      33.608  25.965  21.531  1.00  0.00    -0.193 NA
ENDBRANCH   9  26
BRANCH  10  28
ATOM     28  N   UNL A   1      31.218  22.361  26.982  1.00  0.00    -0.384 N 
ATOM     29  H   UNL A   1      30.953  21.412  26.975  1.00  0.00     0.158 HD
ATOM     30  H   UNL A   1      31.242  22.859  27.830  1.00  0.00     0.158 HD
ENDBRANCH  10  28
ENDBRANCH   5   6
ENDBRANCH   3   5
ENDBRANCH   2   3
ENDBRANCH   1   2
BRANCH   1  31
ATOM     31  C   UNL A   1      39.557  20.165  25.604  1.00  0.00     0.275 C 
BRANCH  31  32
ATOM     32  O   UNL A   1      40.473  19.634  26.578  1.00  0.00    -0.458 OA
BRANCH  32  33
ATOM     33  C   UNL A   1      41.758  19.540  26.163  1.00  0.00     0.338 C 
ATOM     34  O   UNL A   1      42.281  18.605  25.582  1.00  0.00    -0.246 OA
BRANCH  33  35
ATOM     35  C   UNL A   1      42.430  20.829  26.375  1.00  0.00     0.060 A 
ATOM     36  C   UNL A   1      42.643  21.256  27.691  1.00  0.00     0.016 A 
ATOM     37  C   UNL A   1      42.785  21.639  25.297  1.00  0.00     0.016 A 
ATOM     38  C   UNL A   1      43.195  22.510  27.934  1.00  0.00     0.010 A 
ATOM     39  C   UNL A   1      43.342  22.896  25.543  1.00  0.00     0.010 A 
ATOM     40  C   UNL A   1      43.530  23.346  26.861  1.00  0.00    -0.014 A 
BRANCH  40  41
ATOM     41  C   UNL A   1      44.023  24.717  27.123  1.00  0.00     0.031 A 
ATOM     42  C   UNL A   1      43.077  25.760  27.646  1.00  0.00     0.074 A 
ATOM     43  C   UNL A   1      45.311  25.024  26.886  1.00  0.00     0.049 A 
ATOM     44  N   UNL A   1      43.299  27.021  27.903  1.00  0.00    -0.248 NA
ATOM     45  C   UNL A   1      41.694  25.326  27.907  1.00  0.00     0.031 C 
ATOM     46  C   UNL A   1      46.319  24.095  26.372  1.00  0.00     0.029 A 
ATOM     47  N   UNL A   1      45.986  26.209  27.025  1.00  0.00    -0.354 N 
ATOM     48  C   UNL A   1      42.083  27.542  28.327  1.00  0.00     0.074 A 
ATOM     49  C   UNL A   1      41.122  26.462  28.283  1.00  0.00     0.031 C 
ATOM     50  C   UNL A   1      47.481  24.752  26.222  1.00  0.00     0.029 A 
ATOM     51  C   UNL A   1      47.294  26.149  26.607  1.00  0.00     0.049 A 
ATOM     52  H   UNL A   1      45.573  27.026  27.389  1.00  0.00     0.167 HD
ATOM     53  C   UNL A   1      41.798  28.803  28.732  1.00  0.00     0.034 A 
ATOM     54  C   UNL A   1      48.231  27.114  26.533  1.00  0.00     0.034 A 
ATOM     55  C   UNL A   1      42.764  29.865  28.806  1.00  0.00     0.049 A 
ATOM     56  C   UNL A   1      47.889  28.503  27.002  1.00  0.00     0.074 A 
ATOM     57  C   UNL A   1      42.581  31.166  29.239  1.00  0.00     0.029 A 
ATOM     58  N   UNL A   1      44.096  29.749  28.440  1.00  0.00    -0.354 N 
ATOM     59  N   UNL A   1      46.763  28.951  27.503  1.00  0.00    -0.248 NA
ATOM     60  C   UNL A   1      48.955  29.511  26.926  1.00  0.00     0.031 C 
ATOM     61  C   UNL A   1      43.802  31.840  29.128  1.00  0.00     0.029 A 
ATOM     62  C   UNL A   1      44.749  30.955  28.637  1.00  0.00     0.049 A 
ATOM     63  H   UNL A   1      44.517  28.930  28.092  1.00  0.00     0.167 HD
ATOM     64  C   UNL A   1      46.995  30.282  27.834  1.00  0.00     0.074 A 
ATOM     65  C   UNL A   1      48.376  30.560  27.497  1.00  0.00     0.031 C 
ATOM     66  C   UNL A   1      46.140  31.196  28.353  1.00  0.00     0.034 A 
BRANCH  53  67
ATOM     67  C   UNL A   1      40.387  29.090  29.169  1.00  0.00     0.023 A 
ATOM     68  C   UNL A   1      39.435  29.492  28.210  1.00  0.00     0.012 A 
ATOM     69  C   UNL A   1      39.991  28.917  30.508  1.00  0.00     0.148 A 
ATOM     70  C   UNL A   1      38.114  29.740  28.583  1.00  0.00     0.002 A 
ATOM     71  C   UNL A   1      38.664  29.132  30.865  1.00  0.00     0.091 A 
ATOM     72  F   UNL A   1      40.917  28.563  31.411  1.00  0.00    -0.205 F 
ATOM     73  C   UNL A   1      37.727  29.551  29.907  1.00  0.00     0.022 A 
BRANCH  71  74
ATOM     74  S   UNL A   1      38.057  28.849  32.533  1.00  0.00     0.127 S 
ATOM     75  O   UNL A   1      38.266  27.410  32.682  1.00  0.00    -0.237 OA
ATOM     76  O   UNL A   1      38.952  29.681  33.336  1.00  0.00    -0.237 OA
ATOM     77  O   UNL A   1      36.668  29.285  32.530  1.00  0.00    -0.744 OA
ENDBRANCH  71  74
ENDBRANCH  53  67
BRANCH  54  78
ATOM     78  C   UNL A   1      49.599  26.784  26.048  1.00  0.00     0.023 A 
ATOM     79  C   UNL A   1      50.466  26.045  26.877  1.00  0.00     0.012 A 
ATOM     80  C   UNL A   1      50.036  27.166  24.765  1.00  0.00     0.148 A 
ATOM     81  C   UNL A   1      51.752  25.717  26.448  1.00  0.00     0.002 A 
ATOM     82  C   UNL A   1      51.299  26.790  24.323  1.00  0.00     0.091 A 
ATOM     83  F   UNL A   1      49.205  27.887  23.998  1.00  0.00    -0.205 F 
ATOM     84  C   UNL A   1      52.164  26.078  25.167  1.00  0.00     0.022 A 
BRANCH  82  85
ATOM     85  S   UNL A   1      51.856  27.103  22.644  1.00  0.00     0.127 S 
ATOM     86  O   UNL A   1      52.956  26.153  22.510  1.00  0.00    -0.237 OA
ATOM     87  O   UNL A   1      50.664  26.782  21.858  1.00  0.00    -0.237 OA
ATOM     88  O   UNL A   1      52.225  28.513  22.616  1.00  0.00    -0.744 OA
ENDBRANCH  82  85
ENDBRANCH  54  78
BRANCH  66  89
ATOM     89  C   UNL A   1      46.674  32.579  28.617  1.00  0.00     0.023 A 
ATOM     90  C   UNL A   1      47.228  32.883  29.876  1.00  0.00     0.012 A 
ATOM     91  C   UNL A   1      46.688  33.555  27.601  1.00  0.00     0.148 A 
ATOM     92  C   UNL A   1      47.761  34.147  30.130  1.00  0.00     0.002 A 
ATOM     93  C   UNL A   1      47.260  34.798  27.848  1.00  0.00     0.091 A 
ATOM     94  F   UNL A   1      46.135  33.257  26.416  1.00  0.00    -0.205 F 
ATOM     95  C   UNL A   1      47.788  35.099  29.113  1.00  0.00     0.022 A 
BRANCH  93  96
ATOM     96  S   UNL A   1      47.412  36.045  26.563  1.00  0.00     0.127 S 
ATOM     97  O   UNL A   1      46.033  36.510  26.430  1.00  0.00    -0.237 OA
ATOM     98  O   UNL A   1      48.326  37.015  27.169  1.00  0.00    -0.237 OA
ATOM     99  O   UNL A   1      47.961  35.350  25.406  1.00  0.00    -0.744 OA
ENDBRANCH  93  96
ENDBRANCH  66  89
ENDBRANCH  40  41
ENDBRANCH  33  35
ENDBRANCH  32  33
ENDBRANCH  31  32
ENDBRANCH   1  31
TORSDOF 20
ENDMDL
MODEL 3
REMARK VINA RESULT:     -11.0      5.234      7.048
REMARK SMILES COc1ccc([C@@H]2C(C#N)=C(N)N3C(=O)[C@H](CC(=O)OCCOC(=O)c4ccc(-c5c6nc(c(-c7cccc(S(=O)(=O)[O-])c7F)c7ccc([nH]7)c(-c7cccc(S(=O)(=O)[O-])c7F)c7nc(c(-c8cccc(S(=O)(=O)[O-])c8F)c8ccc5[nH]8)C=C7)C=C6)cc4)SC3=C2C#N)cc1
REMARK SMILES IDX 21 1 20 2 18 3 19 4 17 5 16 6 7 7 8 8 91 9 11 10 90 11 13 12
REMARK SMILES IDX 89 13 14 14 15 15 6 16 3 17 4 18 95 19 5 20 94 21 2 22 1 23
REMARK SMILES IDX 9 24 10 25 92 26 93 27 12 28 22 31 23 32 24 33 25 34 26 35
REMARK SMILES IDX 27 36 88 37 28 38 87 39 29 40 30 41 31 42 81 43 32 44 86 45
REMARK SMILES IDX 80 46 82 47 33 48 85 49 79 50 78 51 34 53 66 54 46 55 65 56
REMARK SMILES IDX 47 57 50 58 64 59 83 60 48 61 49 62 63 64 84 65 51 66 35 67
REMARK SMILES IDX 36 68 44 69 37 70 39 71 45 72 38 73 40 74 41 75 42 76 43 77
REMARK SMILES IDX 67 78 68 79 76 80 69 81 71 82 77 83 70 84 72 85 73 86 74 87
REMARK SMILES IDX 75 88 52 89 53 90 61 91 54 92 56 93 62 94 55 95 57 96 58 97
REMARK SMILES IDX 59 98 60 99
REMARK H PARENT 12 29 12 30 82 52 50 63
REMARK Flexibility Score: inf
ROOT
ATOM      1  C   UNL A   1      38.977  21.483  25.866  1.00  0.00     0.274 C 
ENDROOT
BRANCH   1   2
ATOM      2  O   UNL A   1      37.900  21.755  24.947  1.00  0.00    -0.462 OA
BRANCH   2   3
ATOM      3  C   UNL A   1      36.650  21.872  25.451  1.00  0.00     0.307 C 
ATOM      4  O   UNL A   1      36.294  22.739  26.239  1.00  0.00    -0.252 OA
BRANCH   3   5
ATOM      5  C   UNL A   1      35.725  20.760  24.999  1.00  0.00     0.147 C 
BRANCH   5   6
ATOM      6  C   UNL A   1      34.490  21.266  24.266  1.00  0.00     0.154 C 
ATOM      7  C   UNL A   1      31.297  25.073  24.047  1.00  0.00     0.107 C 
ATOM      8  C   UNL A   1      30.904  24.229  25.242  1.00  0.00     0.083 C 
ATOM      9  C   UNL A   1      32.635  24.648  23.502  1.00  0.00     0.073 C 
ATOM     10  C   UNL A   1      31.522  23.090  25.610  1.00  0.00     0.126 C 
ATOM     11  C   UNL A   1      33.198  23.499  23.935  1.00  0.00     0.099 C 
ATOM     12  N   UNL A   1      32.644  22.674  24.901  1.00  0.00    -0.258 N 
ATOM     13  S   UNL A   1      34.748  22.892  23.445  1.00  0.00    -0.093 SA
ATOM     14  C   UNL A   1      33.345  21.507  25.227  1.00  0.00     0.247 C 
ATOM     15  O   UNL A   1      33.067  20.754  26.159  1.00  0.00    -0.273 OA
BRANCH   7  16
ATOM     16  C   UNL A   1      31.225  26.577  24.312  1.00  0.00    -0.034 A 
ATOM     17  C   UNL A   1      31.054  29.324  24.915  1.00  0.00     0.118 A 
ATOM     18  C   UNL A   1      31.908  28.495  25.641  1.00  0.00     0.047 A 
ATOM     19  C   UNL A   1      30.307  28.789  23.867  1.00  0.00     0.047 A 
ATOM     20  C   UNL A   1      31.989  27.133  25.351  1.00  0.00     0.008 A 
ATOM     21  C   UNL A   1      30.391  27.425  23.565  1.00  0.00     0.008 A 
BRANCH  17  22
ATOM     22  O   UNL A   1      31.055  30.637  25.300  1.00  0.00    -0.497 OA
ATOM     23  C   UNL A   1      31.764  30.925  26.500  1.00  0.00     0.278 C 
ENDBRANCH  17  22
ENDBRANCH   7  16
BRANCH   8  24
ATOM     24  C   UNL A   1      29.797  24.765  26.135  1.00  0.00     0.100 C 
ATOM     25  N   UNL A   1      28.878  25.208  26.876  1.00  0.00    -0.193 NA
ENDBRANCH   8  24
BRANCH   9  26
ATOM     26  C   UNL A   1      33.395  25.602  22.594  1.00  0.00     0.098 C 
ATOM     27  N   UNL A   1      34.025  26.393  21.841  1.00  0.00    -0.193 NA
ENDBRANCH   9  26
BRANCH  10  28
ATOM     28  N   UNL A   1      31.079  22.352  26.679  1.00  0.00    -0.384 N 
ATOM     29  H   UNL A   1      31.493  22.472  27.564  1.00  0.00     0.158 HD
ATOM     30  H   UNL A   1      30.348  21.704  26.561  1.00  0.00     0.158 HD
ENDBRANCH  10  28
ENDBRANCH   5   6
ENDBRANCH   3   5
ENDBRANCH   2   3
ENDBRANCH   1   2
BRANCH   1  31
ATOM     31  C   UNL A   1      39.437  20.031  25.738  1.00  0.00     0.275 C 
BRANCH  31  32
ATOM     32  O   UNL A   1      40.529  19.769  26.635  1.00  0.00    -0.458 OA
BRANCH  32  33
ATOM     33  C   UNL A   1      41.761  19.974  26.113  1.00  0.00     0.338 C 
ATOM     34  O   UNL A   1      42.391  19.223  25.387  1.00  0.00    -0.246 OA
BRANCH  33  35
ATOM     35  C   UNL A   1      42.197  21.343  26.421  1.00  0.00     0.060 A 
ATOM     36  C   UNL A   1      42.288  21.721  27.765  1.00  0.00     0.016 A 
ATOM     37  C   UNL A   1      42.445  22.262  25.403  1.00  0.00     0.016 A 
ATOM     38  C   UNL A   1      42.610  23.034  28.097  1.00  0.00     0.010 A 
ATOM     39  C   UNL A   1      42.770  23.579  25.738  1.00  0.00     0.010 A 
ATOM     40  C   UNL A   1      42.834  23.975  27.085  1.00  0.00    -0.014 A 
BRANCH  40  41
ATOM     41  C   UNL A   1      43.076  25.392  27.440  1.00  0.00     0.031 A 
ATOM     42  C   UNL A   1      44.461  25.963  27.319  1.00  0.00     0.074 A 
ATOM     43  C   UNL A   1      42.059  26.158  27.874  1.00  0.00     0.049 A 
ATOM     44  N   UNL A   1      44.887  27.162  27.614  1.00  0.00    -0.248 NA
ATOM     45  C   UNL A   1      45.505  25.061  26.804  1.00  0.00     0.031 C 
ATOM     46  C   UNL A   1      40.676  25.711  28.037  1.00  0.00     0.029 A 
ATOM     47  N   UNL A   1      42.039  27.468  28.278  1.00  0.00    -0.354 N 
ATOM     48  C   UNL A   1      46.251  27.154  27.351  1.00  0.00     0.074 A 
ATOM     49  C   UNL A   1      46.584  25.827  26.882  1.00  0.00     0.031 C 
ATOM     50  C   UNL A   1      39.943  26.725  28.525  1.00  0.00     0.029 A 
ATOM     51  C   UNL A   1      40.809  27.884  28.729  1.00  0.00     0.049 A 
ATOM     52  H   UNL A   1      42.829  28.055  28.249  1.00  0.00     0.167 HD
ATOM     53  C   UNL A   1      47.142  28.167  27.474  1.00  0.00     0.034 A 
ATOM     54  C   UNL A   1      40.427  29.063  29.257  1.00  0.00     0.034 A 
ATOM     55  C   UNL A   1      46.801  29.495  27.908  1.00  0.00     0.049 A 
ATOM     56  C   UNL A   1      41.437  30.176  29.370  1.00  0.00     0.074 A 
ATOM     57  C   UNL A   1      47.625  30.599  28.030  1.00  0.00     0.029 A 
ATOM     58  N   UNL A   1      45.531  29.899  28.292  1.00  0.00    -0.354 N 
ATOM     59  N   UNL A   1      42.698  30.184  29.014  1.00  0.00    -0.248 NA
ATOM     60  C   UNL A   1      40.961  31.450  29.926  1.00  0.00     0.031 C 
ATOM     61  C   UNL A   1      46.854  31.671  28.494  1.00  0.00     0.029 A 
ATOM     62  C   UNL A   1      45.547  31.237  28.650  1.00  0.00     0.049 A 
ATOM     63  H   UNL A   1      44.735  29.320  28.306  1.00  0.00     0.167 HD
ATOM     64  C   UNL A   1      43.159  31.471  29.270  1.00  0.00     0.074 A 
ATOM     65  C   UNL A   1      42.033  32.220  29.791  1.00  0.00     0.031 C 
ATOM     66  C   UNL A   1      44.403  31.982  29.107  1.00  0.00     0.034 A 
BRANCH  53  67
ATOM     67  C   UNL A   1      48.570  27.888  27.091  1.00  0.00     0.023 A 
ATOM     68  C   UNL A   1      49.507  27.577  28.096  1.00  0.00     0.012 A 
ATOM     69  C   UNL A   1      48.973  27.882  25.742  1.00  0.00     0.148 A 
ATOM     70  C   UNL A   1      50.831  27.289  27.767  1.00  0.00     0.002 A 
ATOM     71  C   UNL A   1      50.287  27.559  25.419  1.00  0.00     0.091 A 
ATOM     72  F   UNL A   1      48.074  28.209  24.802  1.00  0.00    -0.205 F 
ATOM     73  C   UNL A   1      51.218  27.270  26.430  1.00  0.00     0.022 A 
BRANCH  71  74
ATOM     74  S   UNL A   1      50.861  27.443  23.721  1.00  0.00     0.127 S 
ATOM     75  O   UNL A   1      49.781  26.681  23.096  1.00  0.00    -0.237 OA
ATOM     76  O   UNL A   1      50.927  28.848  23.317  1.00  0.00    -0.237 OA
ATOM     77  O   UNL A   1      52.151  26.771  23.782  1.00  0.00    -0.744 OA
ENDBRANCH  71  74
ENDBRANCH  53  67
BRANCH  54  78
ATOM     78  C   UNL A   1      39.010  29.270  29.664  1.00  0.00     0.023 A 
ATOM     79  C   UNL A   1      38.622  28.983  30.987  1.00  0.00     0.012 A 
ATOM     80  C   UNL A   1      38.053  29.777  28.763  1.00  0.00     0.148 A 
ATOM     81  C   UNL A   1      37.303  29.171  31.399  1.00  0.00     0.002 A 
ATOM     82  C   UNL A   1      36.753  30.012  29.194  1.00  0.00     0.091 A 
ATOM     83  F   UNL A   1      38.435  30.024  27.501  1.00  0.00    -0.205 F 
ATOM     84  C   UNL A   1      36.372  29.696  30.507  1.00  0.00     0.022 A 
BRANCH  82  85
ATOM     85  S   UNL A   1      35.528  30.806  28.146  1.00  0.00     0.127 S 
ATOM     86  O   UNL A   1      36.269  31.958  27.640  1.00  0.00    -0.237 OA
ATOM     87  O   UNL A   1      35.251  29.767  27.154  1.00  0.00    -0.237 OA
ATOM     88  O   UNL A   1      34.405  31.106  29.024  1.00  0.00    -0.744 OA
ENDBRANCH  82  85
ENDBRANCH  54  78
BRANCH  66  89
ATOM     89  C   UNL A   1      44.615  33.429  29.469  1.00  0.00     0.023 A 
ATOM     90  C   UNL A   1      45.022  33.768  30.774  1.00  0.00     0.012 A 
ATOM     91  C   UNL A   1      44.474  34.444  28.502  1.00  0.00     0.148 A 
ATOM     92  C   UNL A   1      45.258  35.099  31.120  1.00  0.00     0.002 A 
ATOM     93  C   UNL A   1      44.753  35.763  28.842  1.00  0.00     0.091 A 
ATOM     94  F   UNL A   1      44.062  34.106  27.271  1.00  0.00    -0.205 F 
ATOM     95  C   UNL A   1      45.136  36.093  30.152  1.00  0.00     0.022 A 
BRANCH  93  96
ATOM     96  S   UNL A   1      44.703  37.087  27.629  1.00  0.00     0.127 S 
ATOM     97  O   UNL A   1      45.722  36.658  26.674  1.00  0.00    -0.237 OA
ATOM     98  O   UNL A   1      43.329  37.010  27.131  1.00  0.00    -0.237 OA
ATOM     99  O   UNL A   1      45.002  38.307  28.369  1.00  0.00    -0.744 OA
ENDBRANCH  93  96
ENDBRANCH  66  89
ENDBRANCH  40  41
ENDBRANCH  33  35
ENDBRANCH  32  33
ENDBRANCH  31  32
ENDBRANCH   1  31
TORSDOF 20
ENDMDL
