MODEL 1
REMARK VINA RESULT:     -11.5      0.000      0.000
REMARK SMILES COc1cc(CC(=O)N2CCC[C@H]2C(=O)OCCOC(=O)c2ccc(-c3c4nc(c(-c5cccc(S(=O)(=O)[O-])c5F)c5ccc([nH]5)c(-c5cccc(S(=O)(=O)[O-])c5F)c5nc(c(-c6cccc(S(=O)(=O)[O-])c6F)c6ccc3[nH]6)C=C5)C=C4)cc2)ccc1C
REMARK SMILES IDX 17 1 16 2 14 3 15 4 13 5 9 6 10 7 11 8 12 9 7 10 8 11 6 12
REMARK SMILES IDX 5 13 3 14 4 15 87 16 86 17 88 18 85 19 2 20 1 21 18 22 19 23
REMARK SMILES IDX 20 24 21 25 22 26 23 27 84 28 24 29 83 30 25 31 26 32 27 33
REMARK SMILES IDX 77 34 28 35 82 36 76 37 78 38 29 39 81 40 75 41 74 42 30 44
REMARK SMILES IDX 62 45 42 46 61 47 43 48 46 49 60 50 79 51 44 52 45 53 59 55
REMARK SMILES IDX 80 56 47 57 31 58 32 59 40 60 33 61 35 62 41 63 34 64 36 65
REMARK SMILES IDX 37 66 38 67 39 68 63 69 64 70 72 71 65 72 67 73 73 74 66 75
REMARK SMILES IDX 68 76 69 77 70 78 71 79 48 80 49 81 57 82 50 83 52 84 58 85
REMARK SMILES IDX 51 86 53 87 54 88 55 89 56 90
REMARK H PARENT 78 43 46 54
REMARK Flexibility Score: inf
ROOT
ATOM      1  C   UNL A   1      32.964  29.694  25.839  1.00  0.00     0.274 C 
ENDROOT
BRANCH   1   2
ATOM      2  O   UNL A   1      31.878  29.545  24.920  1.00  0.00    -0.461 OA
BRANCH   2   3
ATOM      3  C   UNL A   1      32.285  28.989  23.741  1.00  0.00     0.328 C 
ATOM      4  O   UNL A   1      33.447  29.030  23.340  1.00  0.00    -0.250 OA
BRANCH   3   5
ATOM      5  C   UNL A   1      31.151  28.506  22.836  1.00  0.00     0.195 C 
ATOM      6  N   UNL A   1      30.547  27.193  23.040  1.00  0.00    -0.329 N 
ATOM      7  C   UNL A   1      29.192  27.284  23.515  1.00  0.00     0.120 C 
ATOM      8  C   UNL A   1      28.728  28.632  23.010  1.00  0.00     0.024 C 
ATOM      9  C   UNL A   1      29.986  29.480  23.107  1.00  0.00     0.039 C 
BRANCH   6  10
ATOM     10  C   UNL A   1      31.131  26.014  22.650  1.00  0.00     0.227 C 
ATOM     11  O   UNL A   1      31.678  25.942  21.549  1.00  0.00    -0.275 OA
BRANCH  10  12
ATOM     12  C   UNL A   1      31.268  24.905  23.702  1.00  0.00     0.135 C 
BRANCH  12  13
ATOM     13  C   UNL A   1      32.734  24.651  23.986  1.00  0.00    -0.035 A 
ATOM     14  C   UNL A   1      34.525  23.057  24.332  1.00  0.00     0.122 A 
ATOM     15  C   UNL A   1      33.309  23.400  23.733  1.00  0.00     0.051 A 
ATOM     16  C   UNL A   1      35.164  23.964  25.190  1.00  0.00    -0.009 A 
ATOM     17  C   UNL A   1      34.660  25.267  25.306  1.00  0.00     0.007 A 
ATOM     18  C   UNL A   1      36.325  23.579  26.058  1.00  0.00     0.048 C 
ATOM     19  C   UNL A   1      33.464  25.613  24.691  1.00  0.00     0.005 A 
BRANCH  14  20
ATOM     20  O   UNL A   1      35.057  21.798  24.213  1.00  0.00    -0.496 OA
ATOM     21  C   UNL A   1      34.195  20.782  24.721  1.00  0.00     0.278 C 
ENDBRANCH  14  20
ENDBRANCH  12  13
ENDBRANCH  10  12
ENDBRANCH   6  10
ENDBRANCH   3   5
ENDBRANCH   2   3
ENDBRANCH   1   2
BRANCH   1  22
ATOM     22  C   UNL A   1      32.748  30.788  26.888  1.00  0.00     0.275 C 
BRANCH  22  23
ATOM     23  O   UNL A   1      33.714  30.954  27.961  1.00  0.00    -0.458 OA
BRANCH  23  24
ATOM     24  C   UNL A   1      34.898  31.612  27.942  1.00  0.00     0.338 C 
ATOM     25  O   UNL A   1      34.983  32.809  27.688  1.00  0.00    -0.246 OA
BRANCH  24  26
ATOM     26  C   UNL A   1      36.097  30.824  28.230  1.00  0.00     0.060 A 
ATOM     27  C   UNL A   1      36.268  30.280  29.509  1.00  0.00     0.016 A 
ATOM     28  C   UNL A   1      37.012  30.581  27.213  1.00  0.00     0.016 A 
ATOM     29  C   UNL A   1      37.277  29.360  29.754  1.00  0.00     0.010 A 
ATOM     30  C   UNL A   1      38.015  29.664  27.446  1.00  0.00     0.010 A 
ATOM     31  C   UNL A   1      38.155  29.069  28.716  1.00  0.00    -0.014 A 
BRANCH  31  32
ATOM     32  C   UNL A   1      39.477  28.515  28.959  1.00  0.00     0.031 A 
ATOM     33  C   UNL A   1      39.865  27.112  28.759  1.00  0.00     0.074 A 
ATOM     34  C   UNL A   1      40.375  29.494  29.199  1.00  0.00     0.049 A 
ATOM     35  N   UNL A   1      41.034  26.665  29.067  1.00  0.00    -0.248 NA
ATOM     36  C   UNL A   1      38.966  26.071  28.279  1.00  0.00     0.031 C 
ATOM     37  C   UNL A   1      41.806  29.511  28.977  1.00  0.00     0.029 A 
ATOM     38  N   UNL A   1      40.113  30.687  29.888  1.00  0.00    -0.354 N 
ATOM     39  C   UNL A   1      41.137  25.377  28.583  1.00  0.00     0.074 A 
ATOM     40  C   UNL A   1      39.789  25.016  28.225  1.00  0.00     0.031 C 
ATOM     41  C   UNL A   1      42.331  30.513  29.706  1.00  0.00     0.029 A 
ATOM     42  C   UNL A   1      41.275  30.981  30.598  1.00  0.00     0.049 A 
ATOM     43  H   UNL A   1      39.279  31.209  29.873  1.00  0.00     0.167 HD
ATOM     44  C   UNL A   1      42.384  24.852  28.411  1.00  0.00     0.034 A 
ATOM     45  C   UNL A   1      41.332  30.985  31.964  1.00  0.00     0.034 A 
ATOM     46  C   UNL A   1      43.394  25.739  29.006  1.00  0.00     0.049 A 
ATOM     47  C   UNL A   1      42.450  30.105  32.467  1.00  0.00     0.074 A 
ATOM     48  C   UNL A   1      44.203  26.722  28.459  1.00  0.00     0.029 A 
ATOM     49  N   UNL A   1      43.477  25.873  30.386  1.00  0.00    -0.354 N 
ATOM     50  N   UNL A   1      42.909  29.077  31.815  1.00  0.00    -0.248 NA
ATOM     51  C   UNL A   1      43.125  30.316  33.741  1.00  0.00     0.031 C 
ATOM     52  C   UNL A   1      44.708  27.509  29.526  1.00  0.00     0.029 A 
ATOM     53  C   UNL A   1      44.249  26.975  30.719  1.00  0.00     0.049 A 
ATOM     54  H   UNL A   1      43.048  25.271  31.037  1.00  0.00     0.167 HD
ATOM     55  C   UNL A   1      43.893  28.471  32.545  1.00  0.00     0.074 A 
ATOM     56  C   UNL A   1      44.013  29.306  33.730  1.00  0.00     0.031 C 
ATOM     57  C   UNL A   1      44.492  27.321  32.113  1.00  0.00     0.034 A 
BRANCH  44  58
ATOM     58  C   UNL A   1      42.788  23.714  27.473  1.00  0.00     0.023 A 
ATOM     59  C   UNL A   1      43.677  24.050  26.420  1.00  0.00     0.012 A 
ATOM     60  C   UNL A   1      42.289  22.390  27.447  1.00  0.00     0.148 A 
ATOM     61  C   UNL A   1      43.975  23.178  25.366  1.00  0.00     0.002 A 
ATOM     62  C   UNL A   1      42.593  21.511  26.399  1.00  0.00     0.091 A 
ATOM     63  F   UNL A   1      41.494  21.953  28.422  1.00  0.00    -0.205 F 
ATOM     64  C   UNL A   1      43.420  21.910  25.346  1.00  0.00     0.022 A 
BRANCH  62  65
ATOM     65  S   UNL A   1      41.928  19.835  26.307  1.00  0.00     0.127 S 
ATOM     66  O   UNL A   1      42.320  19.279  27.603  1.00  0.00    -0.237 OA
ATOM     67  O   UNL A   1      40.492  20.073  26.159  1.00  0.00    -0.237 OA
ATOM     68  O   UNL A   1      42.555  19.202  25.153  1.00  0.00    -0.744 OA
ENDBRANCH  62  65
ENDBRANCH  44  58
BRANCH  45  69
ATOM     69  C   UNL A   1      40.017  31.122  32.678  1.00  0.00     0.023 A 
ATOM     70  C   UNL A   1      39.432  29.964  33.247  1.00  0.00     0.012 A 
ATOM     71  C   UNL A   1      39.531  32.383  33.074  1.00  0.00     0.148 A 
ATOM     72  C   UNL A   1      38.480  30.063  34.267  1.00  0.00     0.002 A 
ATOM     73  C   UNL A   1      38.589  32.474  34.097  1.00  0.00     0.091 A 
ATOM     74  F   UNL A   1      40.054  33.478  32.510  1.00  0.00    -0.205 F 
ATOM     75  C   UNL A   1      38.075  31.318  34.707  1.00  0.00     0.022 A 
BRANCH  73  76
ATOM     76  S   UNL A   1      38.064  34.048  34.791  1.00  0.00     0.127 S 
ATOM     77  O   UNL A   1      36.942  33.647  35.639  1.00  0.00    -0.237 OA
ATOM     78  O   UNL A   1      39.262  34.465  35.520  1.00  0.00    -0.237 OA
ATOM     79  O   UNL A   1      37.695  34.878  33.654  1.00  0.00    -0.744 OA
ENDBRANCH  73  76
ENDBRANCH  45  69
BRANCH  57  80
ATOM     80  C   UNL A   1      45.383  26.426  32.948  1.00  0.00     0.023 A 
ATOM     81  C   UNL A   1      46.765  26.658  33.089  1.00  0.00     0.012 A 
ATOM     82  C   UNL A   1      44.828  25.401  33.757  1.00  0.00     0.148 A 
ATOM     83  C   UNL A   1      47.566  25.883  33.934  1.00  0.00     0.002 A 
ATOM     84  C   UNL A   1      45.608  24.709  34.679  1.00  0.00     0.091 A 
ATOM     85  F   UNL A   1      43.535  25.069  33.634  1.00  0.00    -0.205 F 
ATOM     86  C   UNL A   1      46.985  24.924  34.749  1.00  0.00     0.022 A 
BRANCH  84  87
ATOM     87  S   UNL A   1      44.836  23.646  35.907  1.00  0.00     0.127 S 
ATOM     88  O   UNL A   1      45.995  23.101  36.612  1.00  0.00    -0.237 OA
ATOM     89  O   UNL A   1      44.038  24.591  36.691  1.00  0.00    -0.237 OA
ATOM     90  O   UNL A   1      44.044  22.699  35.133  1.00  0.00    -0.744 OA
ENDBRANCH  84  87
ENDBRANCH  57  80
ENDBRANCH  31  32
ENDBRANCH  24  26
ENDBRANCH  23  24
ENDBRANCH  22  23
ENDBRANCH   1  22
TORSDOF 18
ENDMDL
MODEL 2
REMARK VINA RESULT:     -11.2      3.812      9.746
REMARK SMILES COc1cc(CC(=O)N2CCC[C@H]2C(=O)OCCOC(=O)c2ccc(-c3c4nc(c(-c5cccc(S(=O)(=O)[O-])c5F)c5ccc([nH]5)c(-c5cccc(S(=O)(=O)[O-])c5F)c5nc(c(-c6cccc(S(=O)(=O)[O-])c6F)c6ccc3[nH]6)C=C5)C=C4)cc2)ccc1C
REMARK SMILES IDX 17 1 16 2 14 3 15 4 13 5 9 6 10 7 11 8 12 9 7 10 8 11 6 12
REMARK SMILES IDX 5 13 3 14 4 15 87 16 86 17 88 18 85 19 2 20 1 21 18 22 19 23
REMARK SMILES IDX 20 24 21 25 22 26 23 27 84 28 24 29 83 30 25 31 26 32 27 33
REMARK SMILES IDX 77 34 28 35 82 36 76 37 78 38 29 39 81 40 75 41 74 42 30 44
REMARK SMILES IDX 62 45 42 46 61 47 43 48 46 49 60 50 79 51 44 52 45 53 59 55
REMARK SMILES IDX 80 56 47 57 31 58 32 59 40 60 33 61 35 62 41 63 34 64 36 65
REMARK SMILES IDX 37 66 38 67 39 68 63 69 64 70 72 71 65 72 67 73 73 74 66 75
REMARK SMILES IDX 68 76 69 77 70 78 71 79 48 80 49 81 57 82 50 83 52 84 58 85
REMARK SMILES IDX 51 86 53 87 54 88 55 89 56 90
REMARK H PARENT 78 43 46 54
REMARK Flexibility Score: inf
ROOT
ATOM      1  C   UNL A   1      36.254  22.242  25.898  1.00  0.00     0.274 C 
ENDROOT
BRANCH   1   2
ATOM      2  O   UNL A   1      35.985  21.096  25.088  1.00  0.00    -0.461 OA
BRANCH   2   3
ATOM      3  C   UNL A   1      34.647  20.837  25.002  1.00  0.00     0.328 C 
ATOM      4  O   UNL A   1      34.190  19.746  24.662  1.00  0.00    -0.250 OA
BRANCH   3   5
ATOM      5  C   UNL A   1      33.747  22.065  25.137  1.00  0.00     0.195 C 
ATOM      6  N   UNL A   1      33.148  22.681  23.957  1.00  0.00    -0.329 N 
ATOM      7  C   UNL A   1      31.721  22.505  23.915  1.00  0.00     0.120 C 
ATOM      8  C   UNL A   1      31.340  22.336  25.369  1.00  0.00     0.024 C 
ATOM      9  C   UNL A   1      32.526  21.574  25.942  1.00  0.00     0.039 C 
BRANCH   6  10
ATOM     10  C   UNL A   1      33.833  23.491  23.087  1.00  0.00     0.227 C 
ATOM     11  O   UNL A   1      33.655  23.369  21.875  1.00  0.00    -0.275 OA
BRANCH  10  12
ATOM     12  C   UNL A   1      34.623  24.666  23.680  1.00  0.00     0.135 C 
BRANCH  12  13
ATOM     13  C   UNL A   1      33.666  25.662  24.300  1.00  0.00    -0.035 A 
ATOM     14  C   UNL A   1      32.594  27.832  24.205  1.00  0.00     0.122 A 
ATOM     15  C   UNL A   1      33.156  26.730  23.553  1.00  0.00     0.051 A 
ATOM     16  C   UNL A   1      32.550  27.870  25.607  1.00  0.00    -0.009 A 
ATOM     17  C   UNL A   1      32.916  26.728  26.333  1.00  0.00     0.007 A 
ATOM     18  C   UNL A   1      32.201  29.110  26.374  1.00  0.00     0.048 C 
ATOM     19  C   UNL A   1      33.451  25.624  25.682  1.00  0.00     0.005 A 
BRANCH  14  20
ATOM     20  O   UNL A   1      32.201  28.952  23.518  1.00  0.00    -0.496 OA
ATOM     21  C   UNL A   1      31.068  28.721  22.683  1.00  0.00     0.278 C 
ENDBRANCH  14  20
ENDBRANCH  12  13
ENDBRANCH  10  12
ENDBRANCH   6  10
ENDBRANCH   3   5
ENDBRANCH   2   3
ENDBRANCH   1   2
BRANCH   1  22
ATOM     22  C   UNL A   1      37.593  22.921  25.596  1.00  0.00     0.275 C 
BRANCH  22  23
ATOM     23  O   UNL A   1      38.832  22.196  25.821  1.00  0.00    -0.458 OA
BRANCH  23  24
ATOM     24  C   UNL A   1      39.837  22.481  26.683  1.00  0.00     0.338 C 
ATOM     25  O   UNL A   1      40.652  21.640  27.047  1.00  0.00    -0.246 OA
BRANCH  24  26
ATOM     26  C   UNL A   1      39.910  23.854  27.183  1.00  0.00     0.060 A 
ATOM     27  C   UNL A   1      40.541  24.834  26.406  1.00  0.00     0.016 A 
ATOM     28  C   UNL A   1      39.300  24.172  28.390  1.00  0.00     0.016 A 
ATOM     29  C   UNL A   1      40.444  26.175  26.748  1.00  0.00     0.010 A 
ATOM     30  C   UNL A   1      39.194  25.503  28.736  1.00  0.00     0.010 A 
ATOM     31  C   UNL A   1      39.777  26.498  27.924  1.00  0.00    -0.014 A 
BRANCH  31  32
ATOM     32  C   UNL A   1      40.001  27.757  28.615  1.00  0.00     0.031 A 
ATOM     33  C   UNL A   1      39.132  28.939  28.537  1.00  0.00     0.074 A 
ATOM     34  C   UNL A   1      41.007  27.647  29.509  1.00  0.00     0.049 A 
ATOM     35  N   UNL A   1      39.427  30.055  29.112  1.00  0.00    -0.248 NA
ATOM     36  C   UNL A   1      37.908  29.009  27.751  1.00  0.00     0.031 C 
ATOM     37  C   UNL A   1      41.242  28.386  30.732  1.00  0.00     0.029 A 
ATOM     38  N   UNL A   1      42.159  26.864  29.345  1.00  0.00    -0.354 N 
ATOM     39  C   UNL A   1      38.330  30.887  29.011  1.00  0.00     0.074 A 
ATOM     40  C   UNL A   1      37.474  30.241  28.049  1.00  0.00     0.031 C 
ATOM     41  C   UNL A   1      42.529  28.215  31.083  1.00  0.00     0.029 A 
ATOM     42  C   UNL A   1      43.192  27.575  29.950  1.00  0.00     0.049 A 
ATOM     43  H   UNL A   1      42.224  25.992  28.894  1.00  0.00     0.167 HD
ATOM     44  C   UNL A   1      38.235  31.934  29.879  1.00  0.00     0.034 A 
ATOM     45  C   UNL A   1      44.250  28.090  29.254  1.00  0.00     0.034 A 
ATOM     46  C   UNL A   1      39.486  32.082  30.635  1.00  0.00     0.049 A 
ATOM     47  C   UNL A   1      44.424  29.564  29.534  1.00  0.00     0.074 A 
ATOM     48  C   UNL A   1      39.871  31.637  31.890  1.00  0.00     0.029 A 
ATOM     49  N   UNL A   1      40.639  32.522  29.996  1.00  0.00    -0.354 N 
ATOM     50  N   UNL A   1      43.451  30.352  29.887  1.00  0.00    -0.248 NA
ATOM     51  C   UNL A   1      45.703  30.253  29.433  1.00  0.00     0.031 C 
ATOM     52  C   UNL A   1      41.284  31.732  31.969  1.00  0.00     0.029 A 
ATOM     53  C   UNL A   1      41.751  32.281  30.785  1.00  0.00     0.049 A 
ATOM     54  H   UNL A   1      40.662  32.944  29.107  1.00  0.00     0.167 HD
ATOM     55  C   UNL A   1      43.922  31.626  30.036  1.00  0.00     0.074 A 
ATOM     56  C   UNL A   1      45.347  31.505  29.772  1.00  0.00     0.031 C 
ATOM     57  C   UNL A   1      43.083  32.663  30.334  1.00  0.00     0.034 A 
BRANCH  44  58
ATOM     58  C   UNL A   1      36.964  32.669  30.307  1.00  0.00     0.023 A 
ATOM     59  C   UNL A   1      36.594  32.548  31.670  1.00  0.00     0.012 A 
ATOM     60  C   UNL A   1      36.039  33.355  29.485  1.00  0.00     0.148 A 
ATOM     61  C   UNL A   1      35.360  32.985  32.167  1.00  0.00     0.002 A 
ATOM     62  C   UNL A   1      34.806  33.803  29.981  1.00  0.00     0.091 A 
ATOM     63  F   UNL A   1      36.315  33.576  28.201  1.00  0.00    -0.205 F 
ATOM     64  C   UNL A   1      34.457  33.601  31.318  1.00  0.00     0.022 A 
BRANCH  62  65
ATOM     65  S   UNL A   1      33.581  34.631  28.946  1.00  0.00     0.127 S 
ATOM     66  O   UNL A   1      33.201  33.569  28.014  1.00  0.00    -0.237 OA
ATOM     67  O   UNL A   1      32.543  34.992  29.911  1.00  0.00    -0.237 OA
ATOM     68  O   UNL A   1      34.257  35.770  28.335  1.00  0.00    -0.744 OA
ENDBRANCH  62  65
ENDBRANCH  44  58
BRANCH  45  69
ATOM     69  C   UNL A   1      44.511  27.481  27.906  1.00  0.00     0.023 A 
ATOM     70  C   UNL A   1      43.919  28.079  26.766  1.00  0.00     0.012 A 
ATOM     71  C   UNL A   1      45.562  26.563  27.713  1.00  0.00     0.148 A 
ATOM     72  C   UNL A   1      44.440  27.863  25.486  1.00  0.00     0.002 A 
ATOM     73  C   UNL A   1      46.081  26.359  26.435  1.00  0.00     0.091 A 
ATOM     74  F   UNL A   1      46.098  25.967  28.785  1.00  0.00    -0.205 F 
ATOM     75  C   UNL A   1      45.534  27.020  25.324  1.00  0.00     0.022 A 
BRANCH  73  76
ATOM     76  S   UNL A   1      47.542  25.356  26.134  1.00  0.00     0.127 S 
ATOM     77  O   UNL A   1      47.122  24.049  26.638  1.00  0.00    -0.237 OA
ATOM     78  O   UNL A   1      47.664  25.439  24.678  1.00  0.00    -0.237 OA
ATOM     79  O   UNL A   1      48.614  25.980  26.895  1.00  0.00    -0.744 OA
ENDBRANCH  73  76
ENDBRANCH  45  69
BRANCH  57  80
ATOM     80  C   UNL A   1      43.438  34.133  30.256  1.00  0.00     0.023 A 
ATOM     81  C   UNL A   1      44.036  34.822  31.329  1.00  0.00     0.012 A 
ATOM     82  C   UNL A   1      43.329  34.841  29.031  1.00  0.00     0.148 A 
ATOM     83  C   UNL A   1      44.445  36.155  31.219  1.00  0.00     0.002 A 
ATOM     84  C   UNL A   1      43.841  36.128  28.895  1.00  0.00     0.091 A 
ATOM     85  F   UNL A   1      42.711  34.283  27.980  1.00  0.00    -0.205 F 
ATOM     86  C   UNL A   1      44.372  36.802  29.995  1.00  0.00     0.022 A 
BRANCH  84  87
ATOM     87  S   UNL A   1      43.978  36.886  27.270  1.00  0.00     0.127 S 
ATOM     88  O   UNL A   1      42.694  37.570  27.141  1.00  0.00    -0.237 OA
ATOM     89  O   UNL A   1      45.128  37.778  27.430  1.00  0.00    -0.237 OA
ATOM     90  O   UNL A   1      44.215  35.772  26.361  1.00  0.00    -0.744 OA
ENDBRANCH  84  87
ENDBRANCH  57  80
ENDBRANCH  31  32
ENDBRANCH  24  26
ENDBRANCH  23  24
ENDBRANCH  22  23
ENDBRANCH   1  22
TORSDOF 18
ENDMDL
MODEL 3
REMARK VINA RESULT:     -11.1      3.558      9.551
REMARK SMILES COc1cc(CC(=O)N2CCC[C@H]2C(=O)OCCOC(=O)c2ccc(-c3c4nc(c(-c5cccc(S(=O)(=O)[O-])c5F)c5ccc([nH]5)c(-c5cccc(S(=O)(=O)[O-])c5F)c5nc(c(-c6cccc(S(=O)(=O)[O-])c6F)c6ccc3[nH]6)C=C5)C=C4)cc2)ccc1C
REMARK SMILES IDX 17 1 16 2 14 3 15 4 13 5 9 6 10 7 11 8 12 9 7 10 8 11 6 12
REMARK SMILES IDX 5 13 3 14 4 15 87 16 86 17 88 18 85 19 2 20 1 21 18 22 19 23
REMARK SMILES IDX 20 24 21 25 22 26 23 27 84 28 24 29 83 30 25 31 26 32 27 33
REMARK SMILES IDX 77 34 28 35 82 36 76 37 78 38 29 39 81 40 75 41 74 42 30 44
REMARK SMILES IDX 62 45 42 46 61 47 43 48 46 49 60 50 79 51 44 52 45 53 59 55
REMARK SMILES IDX 80 56 47 57 31 58 32 59 40 60 33 61 35 62 41 63 34 64 36 65
REMARK SMILES IDX 37 66 38 67 39 68 63 69 64 70 72 71 65 72 67 73 73 74 66 75
REMARK SMILES IDX 68 76 69 77 70 78 71 79 48 80 49 81 57 82 50 83 52 84 58 85
REMARK SMILES IDX 51 86 53 87 54 88 55 89 56 90
REMARK H PARENT 78 43 46 54
REMARK Flexibility Score: inf
ROOT
ATOM      1  C   UNL A   1      36.732  21.134  25.336  1.00  0.00     0.274 C 
ENDROOT
BRANCH   1   2
ATOM      2  O   UNL A   1      35.483  21.429  25.965  1.00  0.00    -0.461 OA
BRANCH   2   3
ATOM      3  C   UNL A   1      34.432  20.876  25.290  1.00  0.00     0.328 C 
ATOM      4  O   UNL A   1      34.397  19.696  24.945  1.00  0.00    -0.250 OA
BRANCH   3   5
ATOM      5  C   UNL A   1      33.394  21.880  24.788  1.00  0.00     0.195 C 
ATOM      6  N   UNL A   1      33.718  23.301  24.698  1.00  0.00    -0.329 N 
ATOM      7  C   UNL A   1      33.795  23.757  23.335  1.00  0.00     0.120 C 
ATOM      8  C   UNL A   1      32.903  22.792  22.586  1.00  0.00     0.024 C 
ATOM      9  C   UNL A   1      33.134  21.480  23.321  1.00  0.00     0.039 C 
BRANCH   6  10
ATOM     10  C   UNL A   1      33.761  24.145  25.779  1.00  0.00     0.227 C 
ATOM     11  O   UNL A   1      33.447  23.724  26.892  1.00  0.00    -0.275 OA
BRANCH  10  12
ATOM     12  C   UNL A   1      34.415  25.519  25.582  1.00  0.00     0.135 C 
BRANCH  12  13
ATOM     13  C   UNL A   1      33.351  26.596  25.587  1.00  0.00    -0.035 A 
ATOM     14  C   UNL A   1      31.088  27.267  25.040  1.00  0.00     0.122 A 
ATOM     15  C   UNL A   1      32.000  26.274  25.408  1.00  0.00     0.051 A 
ATOM     16  C   UNL A   1      31.529  28.585  24.844  1.00  0.00    -0.009 A 
ATOM     17  C   UNL A   1      32.846  28.923  25.182  1.00  0.00     0.007 A 
ATOM     18  C   UNL A   1      30.672  29.640  24.210  1.00  0.00     0.048 C 
ATOM     19  C   UNL A   1      33.745  27.938  25.571  1.00  0.00     0.005 A 
BRANCH  14  20
ATOM     20  O   UNL A   1      29.785  26.971  24.730  1.00  0.00    -0.496 OA
ATOM     21  C   UNL A   1      29.665  25.842  23.866  1.00  0.00     0.278 C 
ENDBRANCH  14  20
ENDBRANCH  12  13
ENDBRANCH  10  12
ENDBRANCH   6  10
ENDBRANCH   3   5
ENDBRANCH   2   3
ENDBRANCH   1   2
BRANCH   1  22
ATOM     22  C   UNL A   1      37.790  22.228  25.503  1.00  0.00     0.275 C 
BRANCH  22  23
ATOM     23  O   UNL A   1      38.956  21.978  26.333  1.00  0.00    -0.458 OA
BRANCH  23  24
ATOM     24  C   UNL A   1      40.150  22.618  26.334  1.00  0.00     0.338 C 
ATOM     25  O   UNL A   1      41.170  22.113  25.877  1.00  0.00    -0.246 OA
BRANCH  24  26
ATOM     26  C   UNL A   1      40.181  23.958  26.922  1.00  0.00     0.060 A 
ATOM     27  C   UNL A   1      40.811  24.997  26.226  1.00  0.00     0.016 A 
ATOM     28  C   UNL A   1      39.535  24.186  28.130  1.00  0.00     0.016 A 
ATOM     29  C   UNL A   1      40.677  26.312  26.648  1.00  0.00     0.010 A 
ATOM     30  C   UNL A   1      39.392  25.490  28.556  1.00  0.00     0.010 A 
ATOM     31  C   UNL A   1      39.975  26.546  27.825  1.00  0.00    -0.014 A 
BRANCH  31  32
ATOM     32  C   UNL A   1      40.155  27.762  28.600  1.00  0.00     0.031 A 
ATOM     33  C   UNL A   1      39.296  28.953  28.531  1.00  0.00     0.074 A 
ATOM     34  C   UNL A   1      41.097  27.595  29.552  1.00  0.00     0.049 A 
ATOM     35  N   UNL A   1      39.554  30.033  29.188  1.00  0.00    -0.248 NA
ATOM     36  C   UNL A   1      38.127  29.075  27.670  1.00  0.00     0.031 C 
ATOM     37  C   UNL A   1      41.251  28.263  30.828  1.00  0.00     0.029 A 
ATOM     38  N   UNL A   1      42.256  26.816  29.421  1.00  0.00    -0.354 N 
ATOM     39  C   UNL A   1      38.468  30.876  29.060  1.00  0.00     0.074 A 
ATOM     40  C   UNL A   1      37.678  30.291  28.007  1.00  0.00     0.031 C 
ATOM     41  C   UNL A   1      42.511  28.064  31.255  1.00  0.00     0.029 A 
ATOM     42  C   UNL A   1      43.247  27.485  30.134  1.00  0.00     0.049 A 
ATOM     43  H   UNL A   1      42.349  25.971  28.927  1.00  0.00     0.167 HD
ATOM     44  C   UNL A   1      38.317  31.873  29.978  1.00  0.00     0.034 A 
ATOM     45  C   UNL A   1      44.351  28.032  29.541  1.00  0.00     0.034 A 
ATOM     46  C   UNL A   1      39.515  31.969  30.824  1.00  0.00     0.049 A 
ATOM     47  C   UNL A   1      44.510  29.486  29.916  1.00  0.00     0.074 A 
ATOM     48  C   UNL A   1      39.813  31.452  32.074  1.00  0.00     0.029 A 
ATOM     49  N   UNL A   1      40.709  32.437  30.289  1.00  0.00    -0.354 N 
ATOM     50  N   UNL A   1      43.517  30.259  30.247  1.00  0.00    -0.248 NA
ATOM     51  C   UNL A   1      45.795  30.172  29.940  1.00  0.00     0.031 C 
ATOM     52  C   UNL A   1      41.218  31.533  32.253  1.00  0.00     0.029 A 
ATOM     53  C   UNL A   1      41.766  32.145  31.137  1.00  0.00     0.049 A 
ATOM     54  H   UNL A   1      40.794  32.909  29.429  1.00  0.00     0.167 HD
ATOM     55  C   UNL A   1      43.980  31.519  30.499  1.00  0.00     0.074 A 
ATOM     56  C   UNL A   1      45.420  31.405  30.325  1.00  0.00     0.031 C 
ATOM     57  C   UNL A   1      43.126  32.544  30.799  1.00  0.00     0.034 A 
BRANCH  44  58
ATOM     58  C   UNL A   1      37.023  32.590  30.360  1.00  0.00     0.023 A 
ATOM     59  C   UNL A   1      36.591  32.441  31.703  1.00  0.00     0.012 A 
ATOM     60  C   UNL A   1      36.130  33.286  29.509  1.00  0.00     0.148 A 
ATOM     61  C   UNL A   1      35.333  32.860  32.150  1.00  0.00     0.002 A 
ATOM     62  C   UNL A   1      34.873  33.715  29.957  1.00  0.00     0.091 A 
ATOM     63  F   UNL A   1      36.464  33.533  28.244  1.00  0.00    -0.205 F 
ATOM     64  C   UNL A   1      34.464  33.485  31.272  1.00  0.00     0.022 A 
BRANCH  62  65
ATOM     65  S   UNL A   1      33.691  34.554  28.882  1.00  0.00     0.127 S 
ATOM     66  O   UNL A   1      33.330  33.495  27.938  1.00  0.00    -0.237 OA
ATOM     67  O   UNL A   1      32.624  34.925  29.812  1.00  0.00    -0.237 OA
ATOM     68  O   UNL A   1      34.396  35.686  28.293  1.00  0.00    -0.744 OA
ENDBRANCH  62  65
ENDBRANCH  44  58
BRANCH  45  69
ATOM     69  C   UNL A   1      44.701  27.498  28.181  1.00  0.00     0.023 A 
ATOM     70  C   UNL A   1      44.412  28.295  27.046  1.00  0.00     0.012 A 
ATOM     71  C   UNL A   1      45.583  26.410  28.031  1.00  0.00     0.148 A 
ATOM     72  C   UNL A   1      45.076  28.088  25.832  1.00  0.00     0.002 A 
ATOM     73  C   UNL A   1      46.247  26.216  26.821  1.00  0.00     0.091 A 
ATOM     74  F   UNL A   1      45.829  25.633  29.092  1.00  0.00    -0.205 F 
ATOM     75  C   UNL A   1      46.009  27.063  25.727  1.00  0.00     0.022 A 
BRANCH  73  76
ATOM     76  S   UNL A   1      47.528  24.973  26.610  1.00  0.00     0.127 S 
ATOM     77  O   UNL A   1      46.794  23.734  26.866  1.00  0.00    -0.237 OA
ATOM     78  O   UNL A   1      47.912  25.176  25.213  1.00  0.00    -0.237 OA
ATOM     79  O   UNL A   1      48.549  25.285  27.599  1.00  0.00    -0.744 OA
ENDBRANCH  73  76
ENDBRANCH  45  69
BRANCH  57  80
ATOM     80  C   UNL A   1      43.489  34.013  30.828  1.00  0.00     0.023 A 
ATOM     81  C   UNL A   1      43.610  34.783  29.655  1.00  0.00     0.012 A 
ATOM     82  C   UNL A   1      43.566  34.717  32.058  1.00  0.00     0.148 A 
ATOM     83  C   UNL A   1      43.856  36.160  29.693  1.00  0.00     0.002 A 
ATOM     84  C   UNL A   1      43.696  36.102  32.089  1.00  0.00     0.091 A 
ATOM     85  F   UNL A   1      43.529  34.051  33.222  1.00  0.00    -0.205 F 
ATOM     86  C   UNL A   1      43.874  36.826  30.909  1.00  0.00     0.022 A 
BRANCH  84  87
ATOM     87  S   UNL A   1      43.476  37.004  33.629  1.00  0.00     0.127 S 
ATOM     88  O   UNL A   1      44.696  36.668  34.358  1.00  0.00    -0.237 OA
ATOM     89  O   UNL A   1      43.402  38.394  33.177  1.00  0.00    -0.237 OA
ATOM     90  O   UNL A   1      42.228  36.493  34.182  1.00  0.00    -0.744 OA
ENDBRANCH  84  87
ENDBRANCH  57  80
ENDBRANCH  31  32
ENDBRANCH  24  26
ENDBRANCH  23  24
ENDBRANCH  22  23
ENDBRANCH   1  22
TORSDOF 18
ENDMDL
