MODEL 1
REMARK VINA RESULT:     -11.1      0.000      0.000
REMARK SMILES O=C(CSc1ccnc(C(=O)OCCOC(=O)c2ccc(-c3c4nc(c(-c5cccc(S(=O)(=O)[O-])c5F)c5ccc([nH]5)c(-c5cccc(S(=O)(=O)[O-])c5F)c5nc(c(-c6cccc(S(=O)(=O)[O-])c6F)c6ccc3[nH]6)C=C5)C=C4)cc2)c1)NCC(F)(F)F
REMARK SMILES IDX 13 1 12 2 10 3 11 4 9 5 5 6 6 7 81 8 7 9 8 10 4 11 3 12 2 13
REMARK SMILES IDX 1 14 82 15 83 17 84 18 85 19 86 20 87 21 14 22 15 23 16 24
REMARK SMILES IDX 17 25 18 26 19 27 80 28 20 29 79 30 21 31 22 32 23 33 73 34
REMARK SMILES IDX 24 35 78 36 72 37 74 38 25 39 77 40 71 41 70 42 26 44 58 45
REMARK SMILES IDX 38 46 57 47 39 48 42 49 56 50 75 51 40 52 41 53 55 55 76 56
REMARK SMILES IDX 43 57 27 58 28 59 36 60 29 61 31 62 37 63 30 64 32 65 33 66
REMARK SMILES IDX 34 67 35 68 59 69 60 70 68 71 61 72 63 73 69 74 62 75 64 76
REMARK SMILES IDX 65 77 66 78 67 79 44 80 45 81 53 82 46 83 48 84 54 85 47 86
REMARK SMILES IDX 49 87 50 88 51 89 52 90
REMARK H PARENT 82 16 74 43 42 54
REMARK Flexibility Score: inf
ROOT
ATOM      1  C   UNL A   1      35.146  20.790  25.002  1.00  0.00     0.275 C 
ENDROOT
BRANCH   1   2
ATOM      2  O   UNL A   1      34.952  22.189  25.295  1.00  0.00    -0.457 OA
BRANCH   2   3
ATOM      3  C   UNL A   1      34.296  22.897  24.331  1.00  0.00     0.357 C 
ATOM      4  O   UNL A   1      34.496  22.806  23.135  1.00  0.00    -0.244 OA
BRANCH   3   5
ATOM      5  C   UNL A   1      33.246  23.777  24.940  1.00  0.00     0.149 A 
ATOM      6  C   UNL A   1      32.061  25.830  25.171  1.00  0.00     0.012 A 
ATOM      7  C   UNL A   1      31.264  25.239  26.149  1.00  0.00     0.035 A 
ATOM      8  C   UNL A   1      33.102  25.108  24.587  1.00  0.00     0.051 A 
ATOM      9  C   UNL A   1      31.488  23.912  26.450  1.00  0.00     0.113 A 
ATOM     10  N   UNL A   1      32.431  23.167  25.841  1.00  0.00    -0.249 NA
BRANCH   6  11
ATOM     11  S   UNL A   1      31.675  27.472  24.588  1.00  0.00    -0.116 SA
BRANCH  11  12
ATOM     12  C   UNL A   1      30.165  27.058  23.630  1.00  0.00     0.174 C 
BRANCH  12  13
ATOM     13  C   UNL A   1      29.648  28.249  22.834  1.00  0.00     0.230 C 
ATOM     14  O   UNL A   1      30.258  28.706  21.871  1.00  0.00    -0.274 OA
ATOM     15  N   UNL A   1      28.423  28.737  23.228  1.00  0.00    -0.346 N 
ATOM     16  H   UNL A   1      27.949  28.289  23.965  1.00  0.00     0.163 HD
BRANCH  15  17
ATOM     17  C   UNL A   1      27.801  29.898  22.592  1.00  0.00     0.231 C 
BRANCH  17  18
ATOM     18  C   UNL A   1      28.315  31.247  23.088  1.00  0.00     0.405 C 
ATOM     19  F   UNL A   1      27.279  32.058  23.412  1.00  0.00    -0.169 F 
ATOM     20  F   UNL A   1      29.068  31.097  24.201  1.00  0.00    -0.169 F 
ATOM     21  F   UNL A   1      29.062  31.885  22.164  1.00  0.00    -0.169 F 
ENDBRANCH  17  18
ENDBRANCH  15  17
ENDBRANCH  12  13
ENDBRANCH  11  12
ENDBRANCH   6  11
ENDBRANCH   3   5
ENDBRANCH   2   3
ENDBRANCH   1   2
BRANCH   1  22
ATOM     22  C   UNL A   1      36.630  20.402  24.998  1.00  0.00     0.275 C 
BRANCH  22  23
ATOM     23  O   UNL A   1      37.486  21.510  25.336  1.00  0.00    -0.458 OA
BRANCH  23  24
ATOM     24  C   UNL A   1      38.682  21.163  25.872  1.00  0.00     0.338 C 
ATOM     25  O   UNL A   1      39.234  20.077  25.776  1.00  0.00    -0.246 OA
BRANCH  24  26
ATOM     26  C   UNL A   1      39.338  22.337  26.474  1.00  0.00     0.060 A 
ATOM     27  C   UNL A   1      38.891  23.587  26.050  1.00  0.00     0.016 A 
ATOM     28  C   UNL A   1      40.414  22.244  27.358  1.00  0.00     0.016 A 
ATOM     29  C   UNL A   1      39.500  24.751  26.501  1.00  0.00     0.010 A 
ATOM     30  C   UNL A   1      41.036  23.420  27.812  1.00  0.00     0.010 A 
ATOM     31  C   UNL A   1      40.590  24.682  27.378  1.00  0.00    -0.014 A 
BRANCH  31  32
ATOM     32  C   UNL A   1      41.252  25.952  27.773  1.00  0.00     0.031 A 
ATOM     33  C   UNL A   1      42.644  26.267  27.298  1.00  0.00     0.074 A 
ATOM     34  C   UNL A   1      40.567  26.865  28.490  1.00  0.00     0.049 A 
ATOM     35  N   UNL A   1      43.344  27.360  27.465  1.00  0.00    -0.248 NA
ATOM     36  C   UNL A   1      43.339  25.220  26.532  1.00  0.00     0.031 C 
ATOM     37  C   UNL A   1      39.210  26.682  29.005  1.00  0.00     0.029 A 
ATOM     38  N   UNL A   1      40.912  28.131  28.895  1.00  0.00    -0.354 N 
ATOM     39  C   UNL A   1      44.571  27.124  26.859  1.00  0.00     0.074 A 
ATOM     40  C   UNL A   1      44.523  25.779  26.323  1.00  0.00     0.031 C 
ATOM     41  C   UNL A   1      38.832  27.799  29.648  1.00  0.00     0.029 A 
ATOM     42  C   UNL A   1      39.925  28.768  29.609  1.00  0.00     0.049 A 
ATOM     43  H   UNL A   1      41.782  28.543  28.693  1.00  0.00     0.167 HD
ATOM     44  C   UNL A   1      45.635  27.955  26.741  1.00  0.00     0.034 A 
ATOM     45  C   UNL A   1      39.900  29.993  30.170  1.00  0.00     0.034 A 
ATOM     46  C   UNL A   1      45.670  29.308  27.232  1.00  0.00     0.049 A 
ATOM     47  C   UNL A   1      41.087  30.902  30.005  1.00  0.00     0.074 A 
ATOM     48  C   UNL A   1      46.689  30.238  27.119  1.00  0.00     0.029 A 
ATOM     49  N   UNL A   1      44.643  29.926  27.928  1.00  0.00    -0.354 N 
ATOM     50  N   UNL A   1      42.195  30.699  29.333  1.00  0.00    -0.248 NA
ATOM     51  C   UNL A   1      41.008  32.221  30.649  1.00  0.00     0.031 C 
ATOM     52  C   UNL A   1      46.282  31.415  27.758  1.00  0.00     0.029 A 
ATOM     53  C   UNL A   1      45.004  31.222  28.258  1.00  0.00     0.049 A 
ATOM     54  H   UNL A   1      43.782  29.506  28.155  1.00  0.00     0.167 HD
ATOM     55  C   UNL A   1      42.938  31.868  29.461  1.00  0.00     0.074 A 
ATOM     56  C   UNL A   1      42.136  32.789  30.241  1.00  0.00     0.031 C 
ATOM     57  C   UNL A   1      44.182  32.145  28.997  1.00  0.00     0.034 A 
BRANCH  44  58
ATOM     58  C   UNL A   1      46.847  27.434  26.015  1.00  0.00     0.023 A 
ATOM     59  C   UNL A   1      46.961  27.634  24.624  1.00  0.00     0.012 A 
ATOM     60  C   UNL A   1      47.894  26.801  26.712  1.00  0.00     0.148 A 
ATOM     61  C   UNL A   1      48.087  27.186  23.934  1.00  0.00     0.002 A 
ATOM     62  C   UNL A   1      49.029  26.389  26.022  1.00  0.00     0.091 A 
ATOM     63  F   UNL A   1      47.755  26.598  28.030  1.00  0.00    -0.205 F 
ATOM     64  C   UNL A   1      49.124  26.573  24.633  1.00  0.00     0.022 A 
BRANCH  62  65
ATOM     65  S   UNL A   1      50.445  25.654  26.850  1.00  0.00     0.127 S 
ATOM     66  O   UNL A   1      50.805  26.703  27.803  1.00  0.00    -0.237 OA
ATOM     67  O   UNL A   1      49.864  24.455  27.456  1.00  0.00    -0.237 OA
ATOM     68  O   UNL A   1      51.423  25.389  25.805  1.00  0.00    -0.744 OA
ENDBRANCH  62  65
ENDBRANCH  44  58
BRANCH  45  69
ATOM     69  C   UNL A   1      38.683  30.449  30.898  1.00  0.00     0.023 A 
ATOM     70  C   UNL A   1      38.575  30.224  32.284  1.00  0.00     0.012 A 
ATOM     71  C   UNL A   1      37.647  31.134  30.232  1.00  0.00     0.148 A 
ATOM     72  C   UNL A   1      37.450  30.655  32.990  1.00  0.00     0.002 A 
ATOM     73  C   UNL A   1      36.556  31.609  30.950  1.00  0.00     0.091 A 
ATOM     74  F   UNL A   1      37.752  31.314  28.907  1.00  0.00    -0.205 F 
ATOM     75  C   UNL A   1      36.448  31.358  32.326  1.00  0.00     0.022 A 
BRANCH  73  76
ATOM     76  S   UNL A   1      35.293  32.638  30.192  1.00  0.00     0.127 S 
ATOM     77  O   UNL A   1      34.776  31.757  29.149  1.00  0.00    -0.237 OA
ATOM     78  O   UNL A   1      34.377  32.874  31.309  1.00  0.00    -0.237 OA
ATOM     79  O   UNL A   1      35.991  33.831  29.733  1.00  0.00    -0.744 OA
ENDBRANCH  73  76
ENDBRANCH  45  69
BRANCH  57  80
ATOM     80  C   UNL A   1      44.756  33.500  29.323  1.00  0.00     0.023 A 
ATOM     81  C   UNL A   1      45.610  33.639  30.436  1.00  0.00     0.012 A 
ATOM     82  C   UNL A   1      44.496  34.619  28.508  1.00  0.00     0.148 A 
ATOM     83  C   UNL A   1      46.167  34.878  30.753  1.00  0.00     0.002 A 
ATOM     84  C   UNL A   1      45.090  35.841  28.806  1.00  0.00     0.091 A 
ATOM     85  F   UNL A   1      43.665  34.475  27.466  1.00  0.00    -0.205 F 
ATOM     86  C   UNL A   1      45.915  35.975  29.933  1.00  0.00     0.022 A 
BRANCH  84  87
ATOM     87  S   UNL A   1      44.883  37.279  27.748  1.00  0.00     0.127 S 
ATOM     88  O   UNL A   1      45.659  36.898  26.569  1.00  0.00    -0.237 OA
ATOM     89  O   UNL A   1      43.435  37.314  27.538  1.00  0.00    -0.237 OA
ATOM     90  O   UNL A   1      45.402  38.405  28.512  1.00  0.00    -0.744 OA
ENDBRANCH  84  87
ENDBRANCH  57  80
ENDBRANCH  31  32
ENDBRANCH  24  26
ENDBRANCH  23  24
ENDBRANCH  22  23
ENDBRANCH   1  22
TORSDOF 19
ENDMDL
MODEL 2
REMARK VINA RESULT:     -11.0      5.867     10.665
REMARK SMILES O=C(CSc1ccnc(C(=O)OCCOC(=O)c2ccc(-c3c4nc(c(-c5cccc(S(=O)(=O)[O-])c5F)c5ccc([nH]5)c(-c5cccc(S(=O)(=O)[O-])c5F)c5nc(c(-c6cccc(S(=O)(=O)[O-])c6F)c6ccc3[nH]6)C=C5)C=C4)cc2)c1)NCC(F)(F)F
REMARK SMILES IDX 13 1 12 2 10 3 11 4 9 5 5 6 6 7 81 8 7 9 8 10 4 11 3 12 2 13
REMARK SMILES IDX 1 14 82 15 83 17 84 18 85 19 86 20 87 21 14 22 15 23 16 24
REMARK SMILES IDX 17 25 18 26 19 27 80 28 20 29 79 30 21 31 22 32 23 33 73 34
REMARK SMILES IDX 24 35 78 36 72 37 74 38 25 39 77 40 71 41 70 42 26 44 58 45
REMARK SMILES IDX 38 46 57 47 39 48 42 49 56 50 75 51 40 52 41 53 55 55 76 56
REMARK SMILES IDX 43 57 27 58 28 59 36 60 29 61 31 62 37 63 30 64 32 65 33 66
REMARK SMILES IDX 34 67 35 68 59 69 60 70 68 71 61 72 63 73 69 74 62 75 64 76
REMARK SMILES IDX 65 77 66 78 67 79 44 80 45 81 53 82 46 83 48 84 54 85 47 86
REMARK SMILES IDX 49 87 50 88 51 89 52 90
REMARK H PARENT 82 16 74 43 42 54
REMARK Flexibility Score: inf
ROOT
ATOM      1  C   UNL A   1      31.995  28.463  27.079  1.00  0.00     0.275 C 
ENDROOT
BRANCH   1   2
ATOM      2  O   UNL A   1      31.038  27.666  26.352  1.00  0.00    -0.457 OA
BRANCH   2   3
ATOM      3  C   UNL A   1      31.522  27.057  25.231  1.00  0.00     0.357 C 
ATOM      4  O   UNL A   1      32.044  27.629  24.293  1.00  0.00    -0.244 OA
BRANCH   3   5
ATOM      5  C   UNL A   1      31.374  25.568  25.330  1.00  0.00     0.149 A 
ATOM      6  C   UNL A   1      31.703  23.341  24.553  1.00  0.00     0.012 A 
ATOM      7  C   UNL A   1      31.029  22.869  25.676  1.00  0.00     0.035 A 
ATOM      8  C   UNL A   1      31.841  24.714  24.345  1.00  0.00     0.051 A 
ATOM      9  C   UNL A   1      30.584  23.793  26.598  1.00  0.00     0.113 A 
ATOM     10  N   UNL A   1      30.776  25.120  26.465  1.00  0.00    -0.249 NA
BRANCH   6  11
ATOM     11  S   UNL A   1      32.489  22.186  23.442  1.00  0.00    -0.116 SA
BRANCH  11  12
ATOM     12  C   UNL A   1      34.004  21.868  24.427  1.00  0.00     0.174 C 
BRANCH  12  13
ATOM     13  C   UNL A   1      34.212  20.384  24.695  1.00  0.00     0.230 C 
ATOM     14  O   UNL A   1      35.325  19.903  24.888  1.00  0.00    -0.274 OA
ATOM     15  N   UNL A   1      33.062  19.629  24.767  1.00  0.00    -0.346 N 
ATOM     16  H   UNL A   1      32.193  20.080  24.670  1.00  0.00     0.163 HD
BRANCH  15  17
ATOM     17  C   UNL A   1      33.087  18.183  24.984  1.00  0.00     0.231 C 
BRANCH  17  18
ATOM     18  C   UNL A   1      33.399  17.360  23.737  1.00  0.00     0.405 C 
ATOM     19  F   UNL A   1      34.738  17.288  23.540  1.00  0.00    -0.169 F 
ATOM     20  F   UNL A   1      32.946  16.092  23.869  1.00  0.00    -0.169 F 
ATOM     21  F   UNL A   1      32.848  17.883  22.622  1.00  0.00    -0.169 F 
ENDBRANCH  17  18
ENDBRANCH  15  17
ENDBRANCH  12  13
ENDBRANCH  11  12
ENDBRANCH   6  11
ENDBRANCH   3   5
ENDBRANCH   2   3
ENDBRANCH   1   2
BRANCH   1  22
ATOM     22  C   UNL A   1      31.831  29.962  26.793  1.00  0.00     0.275 C 
BRANCH  22  23
ATOM     23  O   UNL A   1      33.072  30.584  26.411  1.00  0.00    -0.458 OA
BRANCH  23  24
ATOM     24  C   UNL A   1      33.499  31.564  27.245  1.00  0.00     0.338 C 
ATOM     25  O   UNL A   1      32.847  32.521  27.636  1.00  0.00    -0.246 OA
BRANCH  24  26
ATOM     26  C   UNL A   1      34.839  31.248  27.771  1.00  0.00     0.060 A 
ATOM     27  C   UNL A   1      35.067  29.923  28.140  1.00  0.00     0.016 A 
ATOM     28  C   UNL A   1      35.824  32.212  27.988  1.00  0.00     0.016 A 
ATOM     29  C   UNL A   1      36.271  29.544  28.719  1.00  0.00     0.010 A 
ATOM     30  C   UNL A   1      37.042  31.832  28.578  1.00  0.00     0.010 A 
ATOM     31  C   UNL A   1      37.269  30.496  28.958  1.00  0.00    -0.014 A 
BRANCH  31  32
ATOM     32  C   UNL A   1      38.510  30.053  29.646  1.00  0.00     0.031 A 
ATOM     33  C   UNL A   1      38.814  30.516  31.043  1.00  0.00     0.074 A 
ATOM     34  C   UNL A   1      39.322  29.161  29.044  1.00  0.00     0.049 A 
ATOM     35  N   UNL A   1      39.797  30.163  31.833  1.00  0.00    -0.248 NA
ATOM     36  C   UNL A   1      37.893  31.499  31.635  1.00  0.00     0.031 C 
ATOM     37  C   UNL A   1      39.134  28.632  27.693  1.00  0.00     0.029 A 
ATOM     38  N   UNL A   1      40.457  28.533  29.495  1.00  0.00    -0.354 N 
ATOM     39  C   UNL A   1      39.637  30.903  32.997  1.00  0.00     0.074 A 
ATOM     40  C   UNL A   1      38.463  31.730  32.810  1.00  0.00     0.031 C 
ATOM     41  C   UNL A   1      40.112  27.750  27.429  1.00  0.00     0.029 A 
ATOM     42  C   UNL A   1      41.007  27.668  28.580  1.00  0.00     0.049 A 
ATOM     43  H   UNL A   1      40.840  28.689  30.389  1.00  0.00     0.167 HD
ATOM     44  C   UNL A   1      40.385  30.884  34.127  1.00  0.00     0.034 A 
ATOM     45  C   UNL A   1      42.108  26.894  28.657  1.00  0.00     0.034 A 
ATOM     46  C   UNL A   1      41.526  30.030  34.333  1.00  0.00     0.049 A 
ATOM     47  C   UNL A   1      42.907  26.876  29.932  1.00  0.00     0.074 A 
ATOM     48  C   UNL A   1      42.318  29.911  35.462  1.00  0.00     0.029 A 
ATOM     49  N   UNL A   1      42.037  29.149  33.394  1.00  0.00    -0.354 N 
ATOM     50  N   UNL A   1      42.675  27.502  31.061  1.00  0.00    -0.248 NA
ATOM     51  C   UNL A   1      44.105  26.023  29.953  1.00  0.00     0.031 C 
ATOM     52  C   UNL A   1      43.317  28.966  35.201  1.00  0.00     0.029 A 
ATOM     53  C   UNL A   1      43.139  28.488  33.913  1.00  0.00     0.049 A 
ATOM     54  H   UNL A   1      41.672  29.013  32.490  1.00  0.00     0.167 HD
ATOM     55  C   UNL A   1      43.686  27.106  31.930  1.00  0.00     0.074 A 
ATOM     56  C   UNL A   1      44.509  26.157  31.210  1.00  0.00     0.031 C 
ATOM     57  C   UNL A   1      43.926  27.513  33.202  1.00  0.00     0.034 A 
BRANCH  44  58
ATOM     58  C   UNL A   1      39.969  31.794  35.252  1.00  0.00     0.023 A 
ATOM     59  C   UNL A   1      40.463  33.113  35.295  1.00  0.00     0.012 A 
ATOM     60  C   UNL A   1      39.051  31.366  36.230  1.00  0.00     0.148 A 
ATOM     61  C   UNL A   1      40.071  33.984  36.311  1.00  0.00     0.002 A 
ATOM     62  C   UNL A   1      38.637  32.251  37.219  1.00  0.00     0.091 A 
ATOM     63  F   UNL A   1      38.612  30.100  36.186  1.00  0.00    -0.205 F 
ATOM     64  C   UNL A   1      39.152  33.557  37.266  1.00  0.00     0.022 A 
BRANCH  62  65
ATOM     65  S   UNL A   1      37.403  31.812  38.450  1.00  0.00     0.127 S 
ATOM     66  O   UNL A   1      38.146  32.011  39.694  1.00  0.00    -0.237 OA
ATOM     67  O   UNL A   1      36.353  32.800  38.205  1.00  0.00    -0.237 OA
ATOM     68  O   UNL A   1      37.021  30.438  38.158  1.00  0.00    -0.744 OA
ENDBRANCH  62  65
ENDBRANCH  44  58
BRANCH  45  69
ATOM     69  C   UNL A   1      42.487  26.029  27.505  1.00  0.00     0.023 A 
ATOM     70  C   UNL A   1      43.347  26.533  26.510  1.00  0.00     0.012 A 
ATOM     71  C   UNL A   1      42.028  24.701  27.406  1.00  0.00     0.148 A 
ATOM     72  C   UNL A   1      43.727  25.736  25.428  1.00  0.00     0.002 A 
ATOM     73  C   UNL A   1      42.454  23.896  26.357  1.00  0.00     0.091 A 
ATOM     74  F   UNL A   1      41.186  24.247  28.347  1.00  0.00    -0.205 F 
ATOM     75  C   UNL A   1      43.292  24.416  25.358  1.00  0.00     0.022 A 
BRANCH  73  76
ATOM     76  S   UNL A   1      42.046  22.148  26.271  1.00  0.00     0.127 S 
ATOM     77  O   UNL A   1      42.504  21.669  27.571  1.00  0.00    -0.237 OA
ATOM     78  O   UNL A   1      40.592  22.180  26.103  1.00  0.00    -0.237 OA
ATOM     79  O   UNL A   1      42.768  21.639  25.112  1.00  0.00    -0.744 OA
ENDBRANCH  73  76
ENDBRANCH  45  69
BRANCH  57  80
ATOM     80  C   UNL A   1      45.131  26.933  33.897  1.00  0.00     0.023 A 
ATOM     81  C   UNL A   1      46.354  27.633  33.858  1.00  0.00     0.012 A 
ATOM     82  C   UNL A   1      45.046  25.732  34.627  1.00  0.00     0.148 A 
ATOM     83  C   UNL A   1      47.482  27.128  34.505  1.00  0.00     0.002 A 
ATOM     84  C   UNL A   1      46.165  25.257  35.305  1.00  0.00     0.091 A 
ATOM     85  F   UNL A   1      43.882  25.067  34.637  1.00  0.00    -0.205 F 
ATOM     86  C   UNL A   1      47.385  25.947  35.235  1.00  0.00     0.022 A 
BRANCH  84  87
ATOM     87  S   UNL A   1      46.095  23.788  36.338  1.00  0.00     0.127 S 
ATOM     88  O   UNL A   1      45.590  22.785  35.401  1.00  0.00    -0.237 OA
ATOM     89  O   UNL A   1      47.493  23.607  36.728  1.00  0.00    -0.237 OA
ATOM     90  O   UNL A   1      45.207  24.128  37.441  1.00  0.00    -0.744 OA
ENDBRANCH  84  87
ENDBRANCH  57  80
ENDBRANCH  31  32
ENDBRANCH  24  26
ENDBRANCH  23  24
ENDBRANCH  22  23
ENDBRANCH   1  22
TORSDOF 19
ENDMDL
MODEL 3
REMARK VINA RESULT:     -10.8      5.070      7.888
REMARK SMILES O=C(CSc1ccnc(C(=O)OCCOC(=O)c2ccc(-c3c4nc(c(-c5cccc(S(=O)(=O)[O-])c5F)c5ccc([nH]5)c(-c5cccc(S(=O)(=O)[O-])c5F)c5nc(c(-c6cccc(S(=O)(=O)[O-])c6F)c6ccc3[nH]6)C=C5)C=C4)cc2)c1)NCC(F)(F)F
REMARK SMILES IDX 13 1 12 2 10 3 11 4 9 5 5 6 6 7 81 8 7 9 8 10 4 11 3 12 2 13
REMARK SMILES IDX 1 14 82 15 83 17 84 18 85 19 86 20 87 21 14 22 15 23 16 24
REMARK SMILES IDX 17 25 18 26 19 27 80 28 20 29 79 30 21 31 22 32 23 33 73 34
REMARK SMILES IDX 24 35 78 36 72 37 74 38 25 39 77 40 71 41 70 42 26 44 58 45
REMARK SMILES IDX 38 46 57 47 39 48 42 49 56 50 75 51 40 52 41 53 55 55 76 56
REMARK SMILES IDX 43 57 27 58 28 59 36 60 29 61 31 62 37 63 30 64 32 65 33 66
REMARK SMILES IDX 34 67 35 68 59 69 60 70 68 71 61 72 63 73 69 74 62 75 64 76
REMARK SMILES IDX 65 77 66 78 67 79 44 80 45 81 53 82 46 83 48 84 54 85 47 86
REMARK SMILES IDX 49 87 50 88 51 89 52 90
REMARK H PARENT 82 16 74 43 42 54
REMARK Flexibility Score: inf
ROOT
ATOM      1  C   UNL A   1      40.930  19.742  26.747  1.00  0.00     0.275 C 
ENDROOT
BRANCH   1   2
ATOM      2  O   UNL A   1      41.595  18.971  25.727  1.00  0.00    -0.457 OA
BRANCH   2   3
ATOM      3  C   UNL A   1      42.798  18.441  26.093  1.00  0.00     0.357 C 
ATOM      4  O   UNL A   1      42.947  17.440  26.767  1.00  0.00    -0.244 OA
BRANCH   3   5
ATOM      5  C   UNL A   1      43.928  19.233  25.507  1.00  0.00     0.149 A 
ATOM      6  C   UNL A   1      44.906  21.224  24.638  1.00  0.00     0.012 A 
ATOM      7  C   UNL A   1      46.104  20.536  24.462  1.00  0.00     0.035 A 
ATOM      8  C   UNL A   1      43.781  20.555  25.124  1.00  0.00     0.051 A 
ATOM      9  C   UNL A   1      46.156  19.216  24.857  1.00  0.00     0.113 A 
ATOM     10  N   UNL A   1      45.110  18.569  25.407  1.00  0.00    -0.249 NA
BRANCH   6  11
ATOM     11  S   UNL A   1      44.845  22.984  24.350  1.00  0.00    -0.116 SA
BRANCH  11  12
ATOM     12  C   UNL A   1      46.424  23.436  25.169  1.00  0.00     0.174 C 
BRANCH  12  13
ATOM     13  C   UNL A   1      46.247  23.666  26.664  1.00  0.00     0.230 C 
ATOM     14  O   UNL A   1      47.174  24.026  27.384  1.00  0.00    -0.274 OA
ATOM     15  N   UNL A   1      44.965  23.506  27.139  1.00  0.00    -0.346 N 
ATOM     16  H   UNL A   1      44.248  23.281  26.504  1.00  0.00     0.163 HD
BRANCH  15  17
ATOM     17  C   UNL A   1      44.631  23.656  28.555  1.00  0.00     0.231 C 
BRANCH  17  18
ATOM     18  C   UNL A   1      43.236  23.164  28.935  1.00  0.00     0.405 C 
ATOM     19  F   UNL A   1      42.938  22.025  28.262  1.00  0.00    -0.169 F 
ATOM     20  F   UNL A   1      43.168  22.878  30.255  1.00  0.00    -0.169 F 
ATOM     21  F   UNL A   1      42.276  24.069  28.656  1.00  0.00    -0.169 F 
ENDBRANCH  17  18
ENDBRANCH  15  17
ENDBRANCH  12  13
ENDBRANCH  11  12
ENDBRANCH   6  11
ENDBRANCH   3   5
ENDBRANCH   2   3
ENDBRANCH   1   2
BRANCH   1  22
ATOM     22  C   UNL A   1      39.944  20.757  26.152  1.00  0.00     0.275 C 
BRANCH  22  23
ATOM     23  O   UNL A   1      40.090  22.066  26.732  1.00  0.00    -0.458 OA
BRANCH  23  24
ATOM     24  C   UNL A   1      39.092  22.935  26.438  1.00  0.00     0.338 C 
ATOM     25  O   UNL A   1      38.037  22.668  25.882  1.00  0.00    -0.246 OA
BRANCH  24  26
ATOM     26  C   UNL A   1      39.367  24.257  27.026  1.00  0.00     0.060 A 
ATOM     27  C   UNL A   1      40.031  25.175  26.214  1.00  0.00     0.016 A 
ATOM     28  C   UNL A   1      39.074  24.582  28.352  1.00  0.00     0.016 A 
ATOM     29  C   UNL A   1      40.404  26.419  26.706  1.00  0.00     0.010 A 
ATOM     30  C   UNL A   1      39.455  25.839  28.853  1.00  0.00     0.010 A 
ATOM     31  C   UNL A   1      40.133  26.762  28.036  1.00  0.00    -0.014 A 
BRANCH  31  32
ATOM     32  C   UNL A   1      40.617  28.077  28.532  1.00  0.00     0.031 A 
ATOM     33  C   UNL A   1      42.089  28.335  28.695  1.00  0.00     0.074 A 
ATOM     34  C   UNL A   1      39.734  29.070  28.755  1.00  0.00     0.049 A 
ATOM     35  N   UNL A   1      42.700  29.444  29.027  1.00  0.00    -0.248 NA
ATOM     36  C   UNL A   1      42.996  27.202  28.449  1.00  0.00     0.031 C 
ATOM     37  C   UNL A   1      38.282  28.948  28.629  1.00  0.00     0.029 A 
ATOM     38  N   UNL A   1      39.930  30.380  29.119  1.00  0.00    -0.354 N 
ATOM     39  C   UNL A   1      44.054  29.139  29.064  1.00  0.00     0.074 A 
ATOM     40  C   UNL A   1      44.178  27.736  28.726  1.00  0.00     0.031 C 
ATOM     41  C   UNL A   1      37.718  30.136  28.898  1.00  0.00     0.029 A 
ATOM     42  C   UNL A   1      38.764  31.098  29.238  1.00  0.00     0.049 A 
ATOM     43  H   UNL A   1      40.821  30.768  29.280  1.00  0.00     0.167 HD
ATOM     44  C   UNL A   1      45.102  29.954  29.336  1.00  0.00     0.034 A 
ATOM     45  C   UNL A   1      38.557  32.385  29.580  1.00  0.00     0.034 A 
ATOM     46  C   UNL A   1      44.987  31.359  29.628  1.00  0.00     0.049 A 
ATOM     47  C   UNL A   1      39.742  33.272  29.856  1.00  0.00     0.074 A 
ATOM     48  C   UNL A   1      45.998  32.272  29.873  1.00  0.00     0.029 A 
ATOM     49  N   UNL A   1      43.792  32.056  29.714  1.00  0.00    -0.354 N 
ATOM     50  N   UNL A   1      41.020  32.990  29.778  1.00  0.00    -0.248 NA
ATOM     51  C   UNL A   1      39.455  34.663  30.237  1.00  0.00     0.031 C 
ATOM     52  C   UNL A   1      45.413  33.520  30.120  1.00  0.00     0.029 A 
ATOM     53  C   UNL A   1      44.038  33.385  30.016  1.00  0.00     0.049 A 
ATOM     54  H   UNL A   1      42.899  31.664  29.582  1.00  0.00     0.167 HD
ATOM     55  C   UNL A   1      41.689  34.170  30.085  1.00  0.00     0.074 A 
ATOM     56  C   UNL A   1      40.675  35.179  30.312  1.00  0.00     0.031 C 
ATOM     57  C   UNL A   1      43.023  34.392  30.196  1.00  0.00     0.034 A 
BRANCH  44  58
ATOM     58  C   UNL A   1      46.481  29.350  29.294  1.00  0.00     0.023 A 
ATOM     59  C   UNL A   1      46.990  28.701  30.436  1.00  0.00     0.012 A 
ATOM     60  C   UNL A   1      47.249  29.376  28.113  1.00  0.00     0.148 A 
ATOM     61  C   UNL A   1      48.253  28.110  30.413  1.00  0.00     0.002 A 
ATOM     62  C   UNL A   1      48.492  28.754  28.087  1.00  0.00     0.091 A 
ATOM     63  F   UNL A   1      46.759  30.020  27.044  1.00  0.00    -0.205 F 
ATOM     64  C   UNL A   1      48.998  28.127  29.238  1.00  0.00     0.022 A 
BRANCH  62  65
ATOM     65  S   UNL A   1      49.493  28.665  26.597  1.00  0.00     0.127 S 
ATOM     66  O   UNL A   1      50.041  30.019  26.530  1.00  0.00    -0.237 OA
ATOM     67  O   UNL A   1      50.470  27.630  26.940  1.00  0.00    -0.237 OA
ATOM     68  O   UNL A   1      48.579  28.301  25.524  1.00  0.00    -0.744 OA
ENDBRANCH  62  65
ENDBRANCH  44  58
BRANCH  45  69
ATOM     69  C   UNL A   1      37.170  32.925  29.629  1.00  0.00     0.023 A 
ATOM     70  C   UNL A   1      36.449  33.101  28.432  1.00  0.00     0.012 A 
ATOM     71  C   UNL A   1      36.549  33.233  30.856  1.00  0.00     0.148 A 
ATOM     72  C   UNL A   1      35.142  33.593  28.455  1.00  0.00     0.002 A 
ATOM     73  C   UNL A   1      35.230  33.669  30.875  1.00  0.00     0.091 A 
ATOM     74  F   UNL A   1      37.260  33.087  31.983  1.00  0.00    -0.205 F 
ATOM     75  C   UNL A   1      34.529  33.864  29.675  1.00  0.00     0.022 A 
BRANCH  73  76
ATOM     76  S   UNL A   1      34.329  33.910  32.411  1.00  0.00     0.127 S 
ATOM     77  O   UNL A   1      33.240  34.784  31.985  1.00  0.00    -0.237 OA
ATOM     78  O   UNL A   1      33.927  32.545  32.750  1.00  0.00    -0.237 OA
ATOM     79  O   UNL A   1      35.291  34.494  33.335  1.00  0.00    -0.744 OA
ENDBRANCH  73  76
ENDBRANCH  45  69
BRANCH  57  80
ATOM     80  C   UNL A   1      43.463  35.780  30.582  1.00  0.00     0.023 A 
ATOM     81  C   UNL A   1      43.785  36.709  29.570  1.00  0.00     0.012 A 
ATOM     82  C   UNL A   1      43.511  36.184  31.930  1.00  0.00     0.148 A 
ATOM     83  C   UNL A   1      44.181  38.005  29.897  1.00  0.00     0.002 A 
ATOM     84  C   UNL A   1      43.866  37.492  32.245  1.00  0.00     0.091 A 
ATOM     85  F   UNL A   1      43.224  35.284  32.881  1.00  0.00    -0.205 F 
ATOM     86  C   UNL A   1      44.212  38.399  31.232  1.00  0.00     0.022 A 
BRANCH  84  87
ATOM     87  S   UNL A   1      43.845  38.098  33.936  1.00  0.00     0.127 S 
ATOM     88  O   UNL A   1      42.460  37.846  34.329  1.00  0.00    -0.237 OA
ATOM     89  O   UNL A   1      44.830  37.239  34.595  1.00  0.00    -0.237 OA
ATOM     90  O   UNL A   1      44.236  39.499  33.855  1.00  0.00    -0.744 OA
ENDBRANCH  84  87
ENDBRANCH  57  80
ENDBRANCH  31  32
ENDBRANCH  24  26
ENDBRANCH  23  24
ENDBRANCH  22  23
ENDBRANCH   1  22
TORSDOF 19
ENDMDL
