MODEL 1
REMARK VINA RESULT:     -12.6      0.000      0.000
REMARK SMILES COc1ccc(NC(=O)[C@@H]2[C@@H](C(=O)OCCOC(=O)c3ccc(-c4c5nc(c(-c6cccc(S(=O)(=O)[O-])c6F)c6ccc([nH]6)c(-c6cccc(S(=O)(=O)[O-])c6F)c6nc(c(-c7cccc(S(=O)(=O)[O-])c7F)c7ccc4[nH]7)C=C6)C=C5)cc3)[C@H]3C=C[C@@H]2C3)cc1O
REMARK SMILES IDX 15 1 14 2 12 3 13 4 11 5 10 6 86 7 83 8 85 9 87 10 84 11
REMARK SMILES IDX 8 12 7 13 9 15 6 16 3 17 4 18 89 19 5 20 88 21 2 22 1 23
REMARK SMILES IDX 90 24 16 26 17 27 18 28 19 29 20 30 21 31 82 32 22 33 81 34
REMARK SMILES IDX 23 35 24 36 25 37 75 38 26 39 80 40 74 41 76 42 27 43 79 44
REMARK SMILES IDX 73 45 72 46 28 48 60 49 40 50 59 51 41 52 44 53 58 54 77 55
REMARK SMILES IDX 42 56 43 57 57 59 78 60 45 61 29 62 30 63 38 64 31 65 33 66
REMARK SMILES IDX 39 67 32 68 34 69 35 70 36 71 37 72 61 73 62 74 70 75 63 76
REMARK SMILES IDX 65 77 71 78 64 79 66 80 67 81 68 82 69 83 46 84 47 85 55 86
REMARK SMILES IDX 48 87 50 88 56 89 49 90 51 91 52 92 53 93 54 94
REMARK H PARENT 7 14 90 25 76 47 44 58
REMARK Flexibility Score: inf
ROOT
ATOM      1  C   UNL A   1      35.965  20.242  24.966  1.00  0.00     0.274 C 
ENDROOT
BRANCH   1   2
ATOM      2  O   UNL A   1      35.598  21.240  25.934  1.00  0.00    -0.462 OA
BRANCH   2   3
ATOM      3  C   UNL A   1      34.296  21.631  25.970  1.00  0.00     0.310 C 
ATOM      4  O   UNL A   1      33.340  20.867  25.985  1.00  0.00    -0.252 OA
BRANCH   3   5
ATOM      5  C   UNL A   1      34.175  23.135  26.155  1.00  0.00     0.119 C 
ATOM      6  C   UNL A   1      32.854  23.704  25.597  1.00  0.00     0.100 C 
ATOM      7  C   UNL A   1      33.320  24.720  24.517  1.00  0.00     0.025 C 
ATOM      8  C   UNL A   1      35.236  23.980  25.391  1.00  0.00     0.027 C 
ATOM      9  C   UNL A   1      34.058  23.980  23.420  1.00  0.00    -0.027 C 
ATOM     10  C   UNL A   1      34.534  25.337  25.204  1.00  0.00     0.017 C 
ATOM     11  C   UNL A   1      35.225  23.565  23.935  1.00  0.00    -0.027 C 
BRANCH   6  12
ATOM     12  C   UNL A   1      31.810  24.355  26.500  1.00  0.00     0.228 C 
ATOM     13  N   UNL A   1      31.049  25.462  26.352  1.00  0.00    -0.326 N 
ATOM     14  H   UNL A   1      30.546  25.611  27.185  1.00  0.00     0.169 HD
ATOM     15  O   UNL A   1      31.595  23.764  27.578  1.00  0.00    -0.274 OA
BRANCH  13  16
ATOM     16  C   UNL A   1      30.717  26.480  25.437  1.00  0.00     0.045 A 
ATOM     17  C   UNL A   1      30.457  28.605  23.586  1.00  0.00     0.160 A 
ATOM     18  C   UNL A   1      29.689  27.458  23.453  1.00  0.00     0.052 A 
ATOM     19  C   UNL A   1      31.303  28.728  24.678  1.00  0.00     0.159 A 
ATOM     20  C   UNL A   1      29.801  26.421  24.392  1.00  0.00     0.030 A 
ATOM     21  C   UNL A   1      31.417  27.690  25.606  1.00  0.00     0.076 A 
BRANCH  17  22
ATOM     22  O   UNL A   1      30.480  29.495  22.554  1.00  0.00    -0.493 OA
ATOM     23  C   UNL A   1      29.213  30.108  22.339  1.00  0.00     0.278 C 
ENDBRANCH  17  22
BRANCH  19  24
ATOM     24  O   UNL A   1      32.118  29.810  24.839  1.00  0.00    -0.504 OA
ATOM     25  H   UNL A   1      32.585  30.158  24.105  1.00  0.00     0.293 HD
ENDBRANCH  19  24
ENDBRANCH  13  16
ENDBRANCH   6  12
ENDBRANCH   3   5
ENDBRANCH   2   3
ENDBRANCH   1   2
BRANCH   1  26
ATOM     26  C   UNL A   1      37.490  20.132  24.898  1.00  0.00     0.275 C 
BRANCH  26  27
ATOM     27  O   UNL A   1      38.128  21.321  25.399  1.00  0.00    -0.458 OA
BRANCH  27  28
ATOM     28  C   UNL A   1      39.279  21.118  26.079  1.00  0.00     0.338 C 
ATOM     29  O   UNL A   1      39.946  20.093  26.125  1.00  0.00    -0.246 OA
BRANCH  28  30
ATOM     30  C   UNL A   1      39.707  22.368  26.715  1.00  0.00     0.060 A 
ATOM     31  C   UNL A   1      39.112  23.551  26.289  1.00  0.00     0.016 A 
ATOM     32  C   UNL A   1      40.766  22.395  27.622  1.00  0.00     0.016 A 
ATOM     33  C   UNL A   1      39.643  24.771  26.698  1.00  0.00     0.010 A 
ATOM     34  C   UNL A   1      41.263  23.629  28.068  1.00  0.00     0.010 A 
ATOM     35  C   UNL A   1      40.744  24.834  27.567  1.00  0.00    -0.014 A 
BRANCH  35  36
ATOM     36  C   UNL A   1      41.333  26.163  27.912  1.00  0.00     0.031 A 
ATOM     37  C   UNL A   1      42.756  26.515  27.552  1.00  0.00     0.074 A 
ATOM     38  C   UNL A   1      40.569  27.091  28.525  1.00  0.00     0.049 A 
ATOM     39  N   UNL A   1      43.389  27.651  27.719  1.00  0.00    -0.248 NA
ATOM     40  C   UNL A   1      43.573  25.476  26.907  1.00  0.00     0.031 C 
ATOM     41  C   UNL A   1      39.181  26.894  28.945  1.00  0.00     0.029 A 
ATOM     42  N   UNL A   1      40.852  28.380  28.909  1.00  0.00    -0.354 N 
ATOM     43  C   UNL A   1      44.674  27.456  27.227  1.00  0.00     0.074 A 
ATOM     44  C   UNL A   1      44.738  26.091  26.754  1.00  0.00     0.031 C 
ATOM     45  C   UNL A   1      38.732  28.017  29.521  1.00  0.00     0.029 A 
ATOM     46  C   UNL A   1      39.814  28.995  29.569  1.00  0.00     0.049 A 
ATOM     47  H   UNL A   1      41.714  28.820  28.729  1.00  0.00     0.167 HD
ATOM     48  C   UNL A   1      45.705  28.334  27.150  1.00  0.00     0.034 A 
ATOM     49  C   UNL A   1      39.740  30.192  30.183  1.00  0.00     0.034 A 
ATOM     50  C   UNL A   1      45.665  29.692  27.621  1.00  0.00     0.049 A 
ATOM     51  C   UNL A   1      40.922  31.116  30.156  1.00  0.00     0.074 A 
ATOM     52  C   UNL A   1      46.649  30.662  27.530  1.00  0.00     0.029 A 
ATOM     53  N   UNL A   1      44.604  30.266  28.302  1.00  0.00    -0.354 N 
ATOM     54  N   UNL A   1      42.073  30.963  29.549  1.00  0.00    -0.248 NA
ATOM     55  C   UNL A   1      40.791  32.386  30.885  1.00  0.00     0.031 C 
ATOM     56  C   UNL A   1      46.195  31.812  28.186  1.00  0.00     0.029 A 
ATOM     57  C   UNL A   1      44.921  31.563  28.669  1.00  0.00     0.049 A 
ATOM     58  H   UNL A   1      43.749  29.817  28.495  1.00  0.00     0.167 HD
ATOM     59  C   UNL A   1      42.798  32.119  29.811  1.00  0.00     0.074 A 
ATOM     60  C   UNL A   1      41.945  32.976  30.609  1.00  0.00     0.031 C 
ATOM     61  C   UNL A   1      44.065  32.429  29.440  1.00  0.00     0.034 A 
BRANCH  48  62
ATOM     62  C   UNL A   1      46.971  27.856  26.490  1.00  0.00     0.023 A 
ATOM     63  C   UNL A   1      47.968  27.247  27.278  1.00  0.00     0.012 A 
ATOM     64  C   UNL A   1      47.154  27.957  25.097  1.00  0.00     0.148 A 
ATOM     65  C   UNL A   1      49.138  26.763  26.694  1.00  0.00     0.002 A 
ATOM     66  C   UNL A   1      48.311  27.449  24.518  1.00  0.00     0.091 A 
ATOM     67  F   UNL A   1      46.206  28.564  24.370  1.00  0.00    -0.205 F 
ATOM     68  C   UNL A   1      49.306  26.857  25.315  1.00  0.00     0.022 A 
BRANCH  66  69
ATOM     69  S   UNL A   1      48.590  27.481  22.743  1.00  0.00     0.127 S 
ATOM     70  O   UNL A   1      49.875  28.174  22.661  1.00  0.00    -0.237 OA
ATOM     71  O   UNL A   1      48.644  26.057  22.410  1.00  0.00    -0.237 OA
ATOM     72  O   UNL A   1      47.452  28.190  22.178  1.00  0.00    -0.744 OA
ENDBRANCH  66  69
ENDBRANCH  48  62
BRANCH  49  73
ATOM     73  C   UNL A   1      38.479  30.568  30.883  1.00  0.00     0.023 A 
ATOM     74  C   UNL A   1      38.343  30.324  32.261  1.00  0.00     0.012 A 
ATOM     75  C   UNL A   1      37.447  31.236  30.195  1.00  0.00     0.148 A 
ATOM     76  C   UNL A   1      37.196  30.737  32.942  1.00  0.00     0.002 A 
ATOM     77  C   UNL A   1      36.339  31.703  30.891  1.00  0.00     0.091 A 
ATOM     78  F   UNL A   1      37.581  31.429  28.874  1.00  0.00    -0.205 F 
ATOM     79  C   UNL A   1      36.204  31.442  32.262  1.00  0.00     0.022 A 
BRANCH  77  80
ATOM     80  S   UNL A   1      35.109  32.756  30.114  1.00  0.00     0.127 S 
ATOM     81  O   UNL A   1      34.591  31.885  29.062  1.00  0.00    -0.237 OA
ATOM     82  O   UNL A   1      34.181  33.013  31.215  1.00  0.00    -0.237 OA
ATOM     83  O   UNL A   1      35.839  33.935  29.666  1.00  0.00    -0.744 OA
ENDBRANCH  77  80
ENDBRANCH  49  73
BRANCH  61  84
ATOM     84  C   UNL A   1      44.622  33.750  29.899  1.00  0.00     0.023 A 
ATOM     85  C   UNL A   1      45.382  33.805  31.085  1.00  0.00     0.012 A 
ATOM     86  C   UNL A   1      44.452  34.921  29.135  1.00  0.00     0.148 A 
ATOM     87  C   UNL A   1      45.941  35.007  31.517  1.00  0.00     0.002 A 
ATOM     88  C   UNL A   1      45.048  36.108  29.549  1.00  0.00     0.091 A 
ATOM     89  F   UNL A   1      43.706  34.858  28.022  1.00  0.00    -0.205 F 
ATOM     90  C   UNL A   1      45.784  36.155  30.744  1.00  0.00     0.022 A 
BRANCH  88  91
ATOM     91  S   UNL A   1      44.970  37.609  28.564  1.00  0.00     0.127 S 
ATOM     92  O   UNL A   1      45.497  37.153  27.280  1.00  0.00    -0.237 OA
ATOM     93  O   UNL A   1      43.538  37.913  28.563  1.00  0.00    -0.237 OA
ATOM     94  O   UNL A   1      45.789  38.586  29.272  1.00  0.00    -0.744 OA
ENDBRANCH  88  91
ENDBRANCH  61  84
ENDBRANCH  35  36
ENDBRANCH  28  30
ENDBRANCH  27  28
ENDBRANCH  26  27
ENDBRANCH   1  26
TORSDOF 18
ENDMDL
MODEL 2
REMARK VINA RESULT:     -12.5      0.584      7.439
REMARK SMILES COc1ccc(NC(=O)[C@@H]2[C@@H](C(=O)OCCOC(=O)c3ccc(-c4c5nc(c(-c6cccc(S(=O)(=O)[O-])c6F)c6ccc([nH]6)c(-c6cccc(S(=O)(=O)[O-])c6F)c6nc(c(-c7cccc(S(=O)(=O)[O-])c7F)c7ccc4[nH]7)C=C6)C=C5)cc3)[C@H]3C=C[C@@H]2C3)cc1O
REMARK SMILES IDX 15 1 14 2 12 3 13 4 11 5 10 6 86 7 83 8 85 9 87 10 84 11
REMARK SMILES IDX 8 12 7 13 9 15 6 16 3 17 4 18 89 19 5 20 88 21 2 22 1 23
REMARK SMILES IDX 90 24 16 26 17 27 18 28 19 29 20 30 21 31 82 32 22 33 81 34
REMARK SMILES IDX 23 35 24 36 25 37 75 38 26 39 80 40 74 41 76 42 27 43 79 44
REMARK SMILES IDX 73 45 72 46 28 48 60 49 40 50 59 51 41 52 44 53 58 54 77 55
REMARK SMILES IDX 42 56 43 57 57 59 78 60 45 61 29 62 30 63 38 64 31 65 33 66
REMARK SMILES IDX 39 67 32 68 34 69 35 70 36 71 37 72 61 73 62 74 70 75 63 76
REMARK SMILES IDX 65 77 71 78 64 79 66 80 67 81 68 82 69 83 46 84 47 85 55 86
REMARK SMILES IDX 48 87 50 88 56 89 49 90 51 91 52 92 53 93 54 94
REMARK H PARENT 7 14 90 25 76 47 44 58
REMARK Flexibility Score: inf
ROOT
ATOM      1  C   UNL A   1      35.902  20.023  25.011  1.00  0.00     0.274 C 
ENDROOT
BRANCH   1   2
ATOM      2  O   UNL A   1      35.477  21.079  25.891  1.00  0.00    -0.462 OA
BRANCH   2   3
ATOM      3  C   UNL A   1      34.201  21.529  25.759  1.00  0.00     0.310 C 
ATOM      4  O   UNL A   1      33.210  20.812  25.709  1.00  0.00    -0.252 OA
BRANCH   3   5
ATOM      5  C   UNL A   1      34.138  23.046  25.847  1.00  0.00     0.119 C 
ATOM      6  C   UNL A   1      32.765  23.615  25.431  1.00  0.00     0.100 C 
ATOM      7  C   UNL A   1      33.102  24.537  24.226  1.00  0.00     0.025 C 
ATOM      8  C   UNL A   1      35.103  23.801  24.887  1.00  0.00     0.027 C 
ATOM      9  C   UNL A   1      33.667  23.699  23.098  1.00  0.00    -0.027 C 
ATOM     10  C   UNL A   1      34.411  25.163  24.696  1.00  0.00     0.017 C 
ATOM     11  C   UNL A   1      34.884  23.286  23.480  1.00  0.00    -0.027 C 
BRANCH   6  12
ATOM     12  C   UNL A   1      31.869  24.360  26.416  1.00  0.00     0.228 C 
ATOM     13  N   UNL A   1      31.187  25.523  26.318  1.00  0.00    -0.326 N 
ATOM     14  H   UNL A   1      30.780  25.723  27.191  1.00  0.00     0.169 HD
ATOM     15  O   UNL A   1      31.714  23.803  27.522  1.00  0.00    -0.274 OA
BRANCH  13  16
ATOM     16  C   UNL A   1      30.848  26.551  25.416  1.00  0.00     0.045 A 
ATOM     17  C   UNL A   1      30.568  28.727  23.629  1.00  0.00     0.160 A 
ATOM     18  C   UNL A   1      29.901  27.534  23.395  1.00  0.00     0.052 A 
ATOM     19  C   UNL A   1      31.319  28.866  24.787  1.00  0.00     0.159 A 
ATOM     20  C   UNL A   1      30.020  26.470  24.302  1.00  0.00     0.030 A 
ATOM     21  C   UNL A   1      31.441  27.800  25.683  1.00  0.00     0.076 A 
BRANCH  17  22
ATOM     22  O   UNL A   1      30.601  29.658  22.634  1.00  0.00    -0.493 OA
ATOM     23  C   UNL A   1      29.330  29.839  22.019  1.00  0.00     0.278 C 
ENDBRANCH  17  22
BRANCH  19  24
ATOM     24  O   UNL A   1      32.035  29.996  25.049  1.00  0.00    -0.504 OA
ATOM     25  H   UNL A   1      31.666  30.671  25.584  1.00  0.00     0.293 HD
ENDBRANCH  19  24
ENDBRANCH  13  16
ENDBRANCH   6  12
ENDBRANCH   3   5
ENDBRANCH   2   3
ENDBRANCH   1   2
BRANCH   1  26
ATOM     26  C   UNL A   1      37.429  20.026  24.908  1.00  0.00     0.275 C 
BRANCH  26  27
ATOM     27  O   UNL A   1      37.998  21.191  25.534  1.00  0.00    -0.458 OA
BRANCH  27  28
ATOM     28  C   UNL A   1      39.211  21.009  26.102  1.00  0.00     0.338 C 
ATOM     29  O   UNL A   1      39.890  19.991  26.098  1.00  0.00    -0.246 OA
BRANCH  28  30
ATOM     30  C   UNL A   1      39.685  22.272  26.677  1.00  0.00     0.060 A 
ATOM     31  C   UNL A   1      39.146  23.455  26.181  1.00  0.00     0.016 A 
ATOM     32  C   UNL A   1      40.735  22.303  27.595  1.00  0.00     0.016 A 
ATOM     33  C   UNL A   1      39.723  24.672  26.531  1.00  0.00     0.010 A 
ATOM     34  C   UNL A   1      41.278  23.538  27.981  1.00  0.00     0.010 A 
ATOM     35  C   UNL A   1      40.817  24.735  27.410  1.00  0.00    -0.014 A 
BRANCH  35  36
ATOM     36  C   UNL A   1      41.458  26.054  27.692  1.00  0.00     0.031 A 
ATOM     37  C   UNL A   1      40.720  27.153  28.420  1.00  0.00     0.074 A 
ATOM     38  C   UNL A   1      42.740  26.264  27.328  1.00  0.00     0.049 A 
ATOM     39  N   UNL A   1      41.163  28.326  28.803  1.00  0.00    -0.248 NA
ATOM     40  C   UNL A   1      39.316  26.906  28.784  1.00  0.00     0.031 C 
ATOM     41  C   UNL A   1      43.577  25.303  26.609  1.00  0.00     0.029 A 
ATOM     42  N   UNL A   1      43.560  27.353  27.502  1.00  0.00    -0.354 N 
ATOM     43  C   UNL A   1      40.094  28.961  29.425  1.00  0.00     0.074 A 
ATOM     44  C   UNL A   1      38.975  28.046  29.369  1.00  0.00     0.031 C 
ATOM     45  C   UNL A   1      44.788  25.838  26.408  1.00  0.00     0.029 A 
ATOM     46  C   UNL A   1      44.800  27.202  26.927  1.00  0.00     0.049 A 
ATOM     47  H   UNL A   1      43.285  28.162  27.991  1.00  0.00     0.167 HD
ATOM     48  C   UNL A   1      40.046  30.182  30.011  1.00  0.00     0.034 A 
ATOM     49  C   UNL A   1      45.824  28.067  26.791  1.00  0.00     0.034 A 
ATOM     50  C   UNL A   1      41.143  31.110  30.070  1.00  0.00     0.049 A 
ATOM     51  C   UNL A   1      45.718  29.444  27.378  1.00  0.00     0.074 A 
ATOM     52  C   UNL A   1      41.192  32.346  30.694  1.00  0.00     0.029 A 
ATOM     53  N   UNL A   1      42.372  30.926  29.457  1.00  0.00    -0.354 N 
ATOM     54  N   UNL A   1      44.750  29.961  28.094  1.00  0.00    -0.248 NA
ATOM     55  C   UNL A   1      46.851  30.352  27.152  1.00  0.00     0.031 C 
ATOM     56  C   UNL A   1      42.439  32.923  30.430  1.00  0.00     0.029 A 
ATOM     57  C   UNL A   1      43.173  32.039  29.656  1.00  0.00     0.049 A 
ATOM     58  H   UNL A   1      42.637  30.122  28.955  1.00  0.00     0.167 HD
ATOM     59  C   UNL A   1      45.162  31.249  28.415  1.00  0.00     0.074 A 
ATOM     60  C   UNL A   1      46.479  31.424  27.839  1.00  0.00     0.031 C 
ATOM     61  C   UNL A   1      44.495  32.206  29.107  1.00  0.00     0.034 A 
BRANCH  48  62
ATOM     62  C   UNL A   1      38.756  30.578  30.679  1.00  0.00     0.023 A 
ATOM     63  C   UNL A   1      38.582  30.305  32.051  1.00  0.00     0.012 A 
ATOM     64  C   UNL A   1      37.747  31.262  29.974  1.00  0.00     0.148 A 
ATOM     65  C   UNL A   1      37.413  30.689  32.708  1.00  0.00     0.002 A 
ATOM     66  C   UNL A   1      36.595  31.665  30.642  1.00  0.00     0.091 A 
ATOM     67  F   UNL A   1      37.921  31.488  28.665  1.00  0.00    -0.205 F 
ATOM     68  C   UNL A   1      36.425  31.374  32.007  1.00  0.00     0.022 A 
BRANCH  66  69
ATOM     69  S   UNL A   1      35.291  32.598  29.831  1.00  0.00     0.127 S 
ATOM     70  O   UNL A   1      34.840  31.647  28.815  1.00  0.00    -0.237 OA
ATOM     71  O   UNL A   1      34.341  32.820  30.921  1.00  0.00    -0.237 OA
ATOM     72  O   UNL A   1      35.927  33.807  29.328  1.00  0.00    -0.744 OA
ENDBRANCH  66  69
ENDBRANCH  48  62
BRANCH  49  73
ATOM     73  C   UNL A   1      47.042  27.632  26.050  1.00  0.00     0.023 A 
ATOM     74  C   UNL A   1      47.998  26.821  26.688  1.00  0.00     0.012 A 
ATOM     75  C   UNL A   1      47.213  27.963  24.691  1.00  0.00     0.148 A 
ATOM     76  C   UNL A   1      49.106  26.349  25.982  1.00  0.00     0.002 A 
ATOM     77  C   UNL A   1      48.282  27.435  23.979  1.00  0.00     0.091 A 
ATOM     78  F   UNL A   1      46.308  28.765  24.111  1.00  0.00    -0.205 F 
ATOM     79  C   UNL A   1      49.238  26.639  24.626  1.00  0.00     0.022 A 
BRANCH  77  80
ATOM     80  S   UNL A   1      48.422  27.632  22.199  1.00  0.00     0.127 S 
ATOM     81  O   UNL A   1      49.580  28.514  22.086  1.00  0.00    -0.237 OA
ATOM     82  O   UNL A   1      48.647  26.258  21.752  1.00  0.00    -0.237 OA
ATOM     83  O   UNL A   1      47.147  28.194  21.772  1.00  0.00    -0.744 OA
ENDBRANCH  77  80
ENDBRANCH  49  73
BRANCH  61  84
ATOM     84  C   UNL A   1      45.169  33.541  29.277  1.00  0.00     0.023 A 
ATOM     85  C   UNL A   1      46.048  33.738  30.361  1.00  0.00     0.012 A 
ATOM     86  C   UNL A   1      44.988  34.577  28.339  1.00  0.00     0.148 A 
ATOM     87  C   UNL A   1      46.715  34.952  30.524  1.00  0.00     0.002 A 
ATOM     88  C   UNL A   1      45.689  35.769  28.484  1.00  0.00     0.091 A 
ATOM     89  F   UNL A   1      44.130  34.382  27.327  1.00  0.00    -0.205 F 
ATOM     90  C   UNL A   1      46.545  35.962  29.581  1.00  0.00     0.022 A 
BRANCH  88  91
ATOM     91  S   UNL A   1      45.596  37.086  27.265  1.00  0.00     0.127 S 
ATOM     92  O   UNL A   1      46.351  36.517  26.151  1.00  0.00    -0.237 OA
ATOM     93  O   UNL A   1      44.155  37.198  27.031  1.00  0.00    -0.237 OA
ATOM     94  O   UNL A   1      46.192  38.254  27.901  1.00  0.00    -0.744 OA
ENDBRANCH  88  91
ENDBRANCH  61  84
ENDBRANCH  35  36
ENDBRANCH  28  30
ENDBRANCH  27  28
ENDBRANCH  26  27
ENDBRANCH   1  26
TORSDOF 18
ENDMDL
MODEL 3
REMARK VINA RESULT:     -12.4      2.274      4.338
REMARK SMILES COc1ccc(NC(=O)[C@@H]2[C@@H](C(=O)OCCOC(=O)c3ccc(-c4c5nc(c(-c6cccc(S(=O)(=O)[O-])c6F)c6ccc([nH]6)c(-c6cccc(S(=O)(=O)[O-])c6F)c6nc(c(-c7cccc(S(=O)(=O)[O-])c7F)c7ccc4[nH]7)C=C6)C=C5)cc3)[C@H]3C=C[C@@H]2C3)cc1O
REMARK SMILES IDX 15 1 14 2 12 3 13 4 11 5 10 6 86 7 83 8 85 9 87 10 84 11
REMARK SMILES IDX 8 12 7 13 9 15 6 16 3 17 4 18 89 19 5 20 88 21 2 22 1 23
REMARK SMILES IDX 90 24 16 26 17 27 18 28 19 29 20 30 21 31 82 32 22 33 81 34
REMARK SMILES IDX 23 35 24 36 25 37 75 38 26 39 80 40 74 41 76 42 27 43 79 44
REMARK SMILES IDX 73 45 72 46 28 48 60 49 40 50 59 51 41 52 44 53 58 54 77 55
REMARK SMILES IDX 42 56 43 57 57 59 78 60 45 61 29 62 30 63 38 64 31 65 33 66
REMARK SMILES IDX 39 67 32 68 34 69 35 70 36 71 37 72 61 73 62 74 70 75 63 76
REMARK SMILES IDX 65 77 71 78 64 79 66 80 67 81 68 82 69 83 46 84 47 85 55 86
REMARK SMILES IDX 48 87 50 88 56 89 49 90 51 91 52 92 53 93 54 94
REMARK H PARENT 7 14 90 25 76 47 44 58
REMARK Flexibility Score: inf
ROOT
ATOM      1  C   UNL A   1      36.060  19.717  24.985  1.00  0.00     0.274 C 
ENDROOT
BRANCH   1   2
ATOM      2  O   UNL A   1      35.632  21.079  24.816  1.00  0.00    -0.462 OA
BRANCH   2   3
ATOM      3  C   UNL A   1      34.970  21.662  25.851  1.00  0.00     0.310 C 
ATOM      4  O   UNL A   1      35.455  21.880  26.954  1.00  0.00    -0.252 OA
BRANCH   3   5
ATOM      5  C   UNL A   1      33.599  22.160  25.420  1.00  0.00     0.119 C 
ATOM      6  C   UNL A   1      33.427  22.192  23.887  1.00  0.00     0.100 C 
ATOM      7  C   UNL A   1      33.139  23.689  23.583  1.00  0.00     0.025 C 
ATOM      8  C   UNL A   1      33.282  23.633  25.810  1.00  0.00     0.027 C 
ATOM      9  C   UNL A   1      34.343  24.520  23.977  1.00  0.00    -0.027 C 
ATOM     10  C   UNL A   1      32.240  24.056  24.760  1.00  0.00     0.017 C 
ATOM     11  C   UNL A   1      34.409  24.516  25.316  1.00  0.00    -0.027 C 
BRANCH   6  12
ATOM     12  C   UNL A   1      32.404  21.315  23.171  1.00  0.00     0.228 C 
ATOM     13  N   UNL A   1      32.192  19.980  23.181  1.00  0.00    -0.326 N 
ATOM     14  H   UNL A   1      31.487  19.769  22.528  1.00  0.00     0.169 HD
ATOM     15  O   UNL A   1      31.595  21.926  22.443  1.00  0.00    -0.274 OA
BRANCH  13  16
ATOM     16  C   UNL A   1      32.617  18.782  23.789  1.00  0.00     0.045 A 
ATOM     17  C   UNL A   1      33.805  16.407  24.767  1.00  0.00     0.160 A 
ATOM     18  C   UNL A   1      33.145  17.270  25.628  1.00  0.00     0.052 A 
ATOM     19  C   UNL A   1      33.816  16.686  23.408  1.00  0.00     0.159 A 
ATOM     20  C   UNL A   1      32.531  18.430  25.131  1.00  0.00     0.030 A 
ATOM     21  C   UNL A   1      33.210  17.847  22.919  1.00  0.00     0.076 A 
BRANCH  17  22
ATOM     22  O   UNL A   1      34.563  15.409  25.302  1.00  0.00    -0.493 OA
ATOM     23  C   UNL A   1      35.872  15.850  25.649  1.00  0.00     0.278 C 
ENDBRANCH  17  22
BRANCH  19  24
ATOM     24  O   UNL A   1      34.488  15.903  22.517  1.00  0.00    -0.504 OA
ATOM     25  H   UNL A   1      35.381  16.092  22.308  1.00  0.00     0.293 HD
ENDBRANCH  19  24
ENDBRANCH  13  16
ENDBRANCH   6  12
ENDBRANCH   3   5
ENDBRANCH   2   3
ENDBRANCH   1   2
BRANCH   1  26
ATOM     26  C   UNL A   1      37.582  19.637  24.835  1.00  0.00     0.275 C 
BRANCH  26  27
ATOM     27  O   UNL A   1      38.223  20.835  25.312  1.00  0.00    -0.458 OA
BRANCH  27  28
ATOM     28  C   UNL A   1      39.345  20.639  26.041  1.00  0.00     0.338 C 
ATOM     29  O   UNL A   1      39.989  19.605  26.154  1.00  0.00    -0.246 OA
BRANCH  28  30
ATOM     30  C   UNL A   1      39.775  21.907  26.640  1.00  0.00     0.060 A 
ATOM     31  C   UNL A   1      39.224  23.082  26.139  1.00  0.00     0.016 A 
ATOM     32  C   UNL A   1      40.797  21.952  27.588  1.00  0.00     0.016 A 
ATOM     33  C   UNL A   1      39.765  24.308  26.516  1.00  0.00     0.010 A 
ATOM     34  C   UNL A   1      41.302  23.194  28.000  1.00  0.00     0.010 A 
ATOM     35  C   UNL A   1      40.831  24.387  27.426  1.00  0.00    -0.014 A 
BRANCH  35  36
ATOM     36  C   UNL A   1      41.435  25.717  27.738  1.00  0.00     0.031 A 
ATOM     37  C   UNL A   1      42.838  26.070  27.305  1.00  0.00     0.074 A 
ATOM     38  C   UNL A   1      40.702  26.646  28.386  1.00  0.00     0.049 A 
ATOM     39  N   UNL A   1      43.476  27.207  27.437  1.00  0.00    -0.248 NA
ATOM     40  C   UNL A   1      43.622  25.030  26.621  1.00  0.00     0.031 C 
ATOM     41  C   UNL A   1      39.338  26.448  28.877  1.00  0.00     0.029 A 
ATOM     42  N   UNL A   1      41.002  27.936  28.753  1.00  0.00    -0.354 N 
ATOM     43  C   UNL A   1      44.735  27.013  26.881  1.00  0.00     0.074 A 
ATOM     44  C   UNL A   1      44.777  25.646  26.409  1.00  0.00     0.031 C 
ATOM     45  C   UNL A   1      38.917  27.572  29.472  1.00  0.00     0.029 A 
ATOM     46  C   UNL A   1      39.998  28.551  29.463  1.00  0.00     0.049 A 
ATOM     47  H   UNL A   1      41.853  28.377  28.528  1.00  0.00     0.167 HD
ATOM     48  C   UNL A   1      45.760  27.891  26.749  1.00  0.00     0.034 A 
ATOM     49  C   UNL A   1      39.954  29.750  30.077  1.00  0.00     0.034 A 
ATOM     50  C   UNL A   1      45.742  29.250  27.218  1.00  0.00     0.049 A 
ATOM     51  C   UNL A   1      41.132  30.675  29.988  1.00  0.00     0.074 A 
ATOM     52  C   UNL A   1      46.719  30.222  27.075  1.00  0.00     0.029 A 
ATOM     53  N   UNL A   1      44.716  29.825  27.951  1.00  0.00    -0.354 N 
ATOM     54  N   UNL A   1      42.251  30.522  29.323  1.00  0.00    -0.248 NA
ATOM     55  C   UNL A   1      41.036  31.947  30.719  1.00  0.00     0.031 C 
ATOM     56  C   UNL A   1      46.297  31.373  27.751  1.00  0.00     0.029 A 
ATOM     57  C   UNL A   1      45.050  31.124  28.298  1.00  0.00     0.049 A 
ATOM     58  H   UNL A   1      43.872  29.375  28.188  1.00  0.00     0.167 HD
ATOM     59  C   UNL A   1      42.987  31.680  29.545  1.00  0.00     0.074 A 
ATOM     60  C   UNL A   1      42.175  32.538  30.383  1.00  0.00     0.031 C 
ATOM     61  C   UNL A   1      44.233  31.990  29.110  1.00  0.00     0.034 A 
BRANCH  48  62
ATOM     62  C   UNL A   1      46.991  27.414  26.027  1.00  0.00     0.023 A 
ATOM     63  C   UNL A   1      47.106  27.642  24.641  1.00  0.00     0.012 A 
ATOM     64  C   UNL A   1      48.051  26.795  26.718  1.00  0.00     0.148 A 
ATOM     65  C   UNL A   1      48.248  27.243  23.948  1.00  0.00     0.002 A 
ATOM     66  C   UNL A   1      49.199  26.424  26.025  1.00  0.00     0.091 A 
ATOM     67  F   UNL A   1      47.911  26.564  28.030  1.00  0.00    -0.205 F 
ATOM     68  C   UNL A   1      49.296  26.642  24.640  1.00  0.00     0.022 A 
BRANCH  66  69
ATOM     69  S   UNL A   1      50.619  25.689  26.844  1.00  0.00     0.127 S 
ATOM     70  O   UNL A   1      50.937  26.706  27.846  1.00  0.00    -0.237 OA
ATOM     71  O   UNL A   1      50.060  24.452  27.390  1.00  0.00    -0.237 OA
ATOM     72  O   UNL A   1      51.616  25.493  25.803  1.00  0.00    -0.744 OA
ENDBRANCH  66  69
ENDBRANCH  48  62
BRANCH  49  73
ATOM     73  C   UNL A   1      38.730  30.126  30.839  1.00  0.00     0.023 A 
ATOM     74  C   UNL A   1      38.625  29.798  32.202  1.00  0.00     0.012 A 
ATOM     75  C   UNL A   1      37.705  30.876  30.228  1.00  0.00     0.148 A 
ATOM     76  C   UNL A   1      37.515  30.208  32.944  1.00  0.00     0.002 A 
ATOM     77  C   UNL A   1      36.637  31.337  30.987  1.00  0.00     0.091 A 
ATOM     78  F   UNL A   1      37.808  31.149  28.919  1.00  0.00    -0.205 F 
ATOM     79  C   UNL A   1      36.532  30.992  32.343  1.00  0.00     0.022 A 
BRANCH  77  80
ATOM     80  S   UNL A   1      35.427  32.484  30.319  1.00  0.00     0.127 S 
ATOM     81  O   UNL A   1      35.023  31.809  29.089  1.00  0.00    -0.237 OA
ATOM     82  O   UNL A   1      34.411  32.510  31.371  1.00  0.00    -0.237 OA
ATOM     83  O   UNL A   1      36.141  33.743  30.152  1.00  0.00    -0.744 OA
ENDBRANCH  77  80
ENDBRANCH  49  73
BRANCH  61  84
ATOM     84  C   UNL A   1      44.810  33.313  29.537  1.00  0.00     0.023 A 
ATOM     85  C   UNL A   1      45.534  33.394  30.744  1.00  0.00     0.012 A 
ATOM     86  C   UNL A   1      44.697  34.458  28.724  1.00  0.00     0.148 A 
ATOM     87  C   UNL A   1      46.111  34.597  31.148  1.00  0.00     0.002 A 
ATOM     88  C   UNL A   1      45.312  35.644  29.111  1.00  0.00     0.091 A 
ATOM     89  F   UNL A   1      43.985  34.371  27.590  1.00  0.00    -0.205 F 
ATOM     90  C   UNL A   1      46.010  35.718  30.328  1.00  0.00     0.022 A 
BRANCH  88  91
ATOM     91  S   UNL A   1      45.306  37.108  28.069  1.00  0.00     0.127 S 
ATOM     92  O   UNL A   1      43.886  37.449  28.039  1.00  0.00    -0.237 OA
ATOM     93  O   UNL A   1      46.142  38.039  28.828  1.00  0.00    -0.237 OA
ATOM     94  O   UNL A   1      45.881  36.687  26.797  1.00  0.00    -0.744 OA
ENDBRANCH  88  91
ENDBRANCH  61  84
ENDBRANCH  35  36
ENDBRANCH  28  30
ENDBRANCH  27  28
ENDBRANCH  26  27
ENDBRANCH   1  26
TORSDOF 18
ENDMDL
