MODEL 1
REMARK VINA RESULT:     -11.7      0.000      0.000
REMARK SMILES CC1(C)O[C@](C)(C(C)(C)O)CC[C@H]1C(=O)OCCOC(=O)c1ccc(-c2c3nc(c(-c4cccc(S(=O)(=O)[O-])c4F)c4ccc([nH]4)c(-c4cccc(S(=O)(=O)[O-])c4F)c4nc(c(-c5cccc(S(=O)(=O)[O-])c5F)c5ccc2[nH]5)C=C4)C=C3)cc1
REMARK SMILES IDX 18 1 17 2 16 3 14 4 15 5 13 6 1 7 2 8 3 9 4 10 5 11 12 12
REMARK SMILES IDX 6 13 11 14 7 15 8 16 9 17 10 18 19 20 20 21 21 22 22 23
REMARK SMILES IDX 23 24 84 25 24 26 83 27 25 28 26 29 27 30 77 31 28 32 82 33
REMARK SMILES IDX 76 34 78 35 29 36 81 37 75 38 74 39 30 41 62 42 42 43 61 44
REMARK SMILES IDX 43 45 46 46 60 47 79 48 44 49 45 50 59 52 80 53 47 54 31 55
REMARK SMILES IDX 32 56 40 57 33 58 35 59 41 60 34 61 36 62 37 63 38 64 39 65
REMARK SMILES IDX 63 66 64 67 72 68 65 69 67 70 73 71 66 72 68 73 69 74 70 75
REMARK SMILES IDX 71 76 48 77 49 78 57 79 50 80 52 81 58 82 51 83 53 84 54 85
REMARK SMILES IDX 55 86 56 87
REMARK H PARENT 10 19 78 40 46 51
REMARK Flexibility Score: inf
ROOT
ATOM      1  C   UNL A   1      37.437  20.004  25.005  1.00  0.00     0.275 C 
ENDROOT
BRANCH   1   2
ATOM      2  C   UNL A   1      35.966  20.415  24.996  1.00  0.00     0.274 C 
BRANCH   2   3
ATOM      3  O   UNL A   1      35.798  21.810  25.319  1.00  0.00    -0.462 OA
BRANCH   3   4
ATOM      4  C   UNL A   1      35.444  22.610  24.287  1.00  0.00     0.311 C 
ATOM      5  O   UNL A   1      36.122  22.767  23.276  1.00  0.00    -0.252 OA
BRANCH   4   6
ATOM      6  C   UNL A   1      34.164  23.399  24.507  1.00  0.00     0.131 C 
ATOM      7  C   UNL A   1      32.447  21.449  24.193  1.00  0.00     0.043 C 
ATOM      8  C   UNL A   1      32.834  22.903  23.895  1.00  0.00     0.077 C 
ATOM      9  C   UNL A   1      32.873  23.059  22.362  1.00  0.00     0.043 C 
ATOM     10  O   UNL A   1      31.744  23.773  24.282  1.00  0.00    -0.366 OA
ATOM     11  C   UNL A   1      31.571  24.178  25.652  1.00  0.00     0.094 C 
ATOM     12  C   UNL A   1      34.045  23.685  26.005  1.00  0.00     0.021 C 
ATOM     13  C   UNL A   1      31.029  23.012  26.508  1.00  0.00     0.045 C 
ATOM     14  C   UNL A   1      32.907  24.665  26.250  1.00  0.00     0.039 C 
BRANCH  11  15
ATOM     15  C   UNL A   1      30.500  25.352  25.640  1.00  0.00     0.088 C 
ATOM     16  C   UNL A   1      31.072  26.689  26.149  1.00  0.00     0.045 C 
ATOM     17  C   UNL A   1      29.930  25.595  24.229  1.00  0.00     0.045 C 
BRANCH  15  18
ATOM     18  O   UNL A   1      29.395  25.005  26.494  1.00  0.00    -0.387 OA
ATOM     19  H   UNL A   1      29.456  24.068  26.737  1.00  0.00     0.211 HD
ENDBRANCH  15  18
ENDBRANCH  11  15
ENDBRANCH   4   6
ENDBRANCH   3   4
ENDBRANCH   2   3
ENDBRANCH   1   2
BRANCH   1  20
ATOM     20  O   UNL A   1      38.275  21.140  25.271  1.00  0.00    -0.458 OA
BRANCH  20  21
ATOM     21  C   UNL A   1      39.314  20.911  26.103  1.00  0.00     0.338 C 
ATOM     22  O   UNL A   1      39.860  19.846  26.334  1.00  0.00    -0.246 OA
BRANCH  21  23
ATOM     23  C   UNL A   1      39.760  22.178  26.697  1.00  0.00     0.060 A 
ATOM     24  C   UNL A   1      39.236  23.379  26.217  1.00  0.00     0.016 A 
ATOM     25  C   UNL A   1      40.804  22.176  27.621  1.00  0.00     0.016 A 
ATOM     26  C   UNL A   1      39.797  24.592  26.611  1.00  0.00     0.010 A 
ATOM     27  C   UNL A   1      41.338  23.394  28.049  1.00  0.00     0.010 A 
ATOM     28  C   UNL A   1      40.867  24.606  27.516  1.00  0.00    -0.014 A 
BRANCH  28  29
ATOM     29  C   UNL A   1      41.546  25.883  27.845  1.00  0.00     0.031 A 
ATOM     30  C   UNL A   1      40.803  26.950  28.598  1.00  0.00     0.074 A 
ATOM     31  C   UNL A   1      42.817  26.092  27.456  1.00  0.00     0.049 A 
ATOM     32  N   UNL A   1      41.185  28.162  28.907  1.00  0.00    -0.248 NA
ATOM     33  C   UNL A   1      39.443  26.615  29.054  1.00  0.00     0.031 C 
ATOM     34  C   UNL A   1      43.637  25.137  26.710  1.00  0.00     0.029 A 
ATOM     35  N   UNL A   1      43.630  27.185  27.613  1.00  0.00    -0.354 N 
ATOM     36  C   UNL A   1      40.101  28.751  29.546  1.00  0.00     0.074 A 
ATOM     37  C   UNL A   1      39.043  27.764  29.581  1.00  0.00     0.031 C 
ATOM     38  C   UNL A   1      44.831  25.695  26.454  1.00  0.00     0.029 A 
ATOM     39  C   UNL A   1      44.849  27.053  26.993  1.00  0.00     0.049 A 
ATOM     40  H   UNL A   1      43.366  27.986  28.120  1.00  0.00     0.167 HD
ATOM     41  C   UNL A   1      40.000  29.994  30.071  1.00  0.00     0.034 A 
ATOM     42  C   UNL A   1      45.859  27.934  26.853  1.00  0.00     0.034 A 
ATOM     43  C   UNL A   1      41.069  30.954  30.090  1.00  0.00     0.049 A 
ATOM     44  C   UNL A   1      45.741  29.292  27.488  1.00  0.00     0.074 A 
ATOM     45  C   UNL A   1      41.082  32.221  30.647  1.00  0.00     0.029 A 
ATOM     46  N   UNL A   1      42.322  30.751  29.532  1.00  0.00    -0.354 N 
ATOM     47  N   UNL A   1      44.748  29.796  28.181  1.00  0.00    -0.248 NA
ATOM     48  C   UNL A   1      46.895  30.195  27.350  1.00  0.00     0.031 C 
ATOM     49  C   UNL A   1      42.345  32.783  30.428  1.00  0.00     0.029 A 
ATOM     50  C   UNL A   1      43.118  31.866  29.733  1.00  0.00     0.049 A 
ATOM     51  H   UNL A   1      42.604  29.934  29.062  1.00  0.00     0.167 HD
ATOM     52  C   UNL A   1      45.159  31.063  28.575  1.00  0.00     0.074 A 
ATOM     53  C   UNL A   1      46.506  31.240  28.068  1.00  0.00     0.031 C 
ATOM     54  C   UNL A   1      44.475  32.005  29.269  1.00  0.00     0.034 A 
BRANCH  41  55
ATOM     55  C   UNL A   1      38.691  30.366  30.713  1.00  0.00     0.023 A 
ATOM     56  C   UNL A   1      38.464  30.034  32.063  1.00  0.00     0.012 A 
ATOM     57  C   UNL A   1      37.701  31.064  29.997  1.00  0.00     0.148 A 
ATOM     58  C   UNL A   1      37.259  30.365  32.682  1.00  0.00     0.002 A 
ATOM     59  C   UNL A   1      36.515  31.420  30.631  1.00  0.00     0.091 A 
ATOM     60  F   UNL A   1      37.917  31.345  28.704  1.00  0.00    -0.205 F 
ATOM     61  C   UNL A   1      36.289  31.065  31.971  1.00  0.00     0.022 A 
BRANCH  59  62
ATOM     62  S   UNL A   1      35.249  32.378  29.790  1.00  0.00     0.127 S 
ATOM     63  O   UNL A   1      34.302  32.639  30.872  1.00  0.00    -0.237 OA
ATOM     64  O   UNL A   1      35.988  33.556  29.333  1.00  0.00    -0.237 OA
ATOM     65  O   UNL A   1      34.772  31.521  28.714  1.00  0.00    -0.744 OA
ENDBRANCH  59  62
ENDBRANCH  41  55
BRANCH  42  66
ATOM     66  C   UNL A   1      47.086  27.522  26.117  1.00  0.00     0.023 A 
ATOM     67  C   UNL A   1      48.039  26.712  26.761  1.00  0.00     0.012 A 
ATOM     68  C   UNL A   1      47.272  27.861  24.762  1.00  0.00     0.148 A 
ATOM     69  C   UNL A   1      49.162  26.253  26.072  1.00  0.00     0.002 A 
ATOM     70  C   UNL A   1      48.364  27.355  24.066  1.00  0.00     0.091 A 
ATOM     71  F   UNL A   1      46.364  28.653  24.174  1.00  0.00    -0.205 F 
ATOM     72  C   UNL A   1      49.316  26.561  24.722  1.00  0.00     0.022 A 
BRANCH  70  73
ATOM     73  S   UNL A   1      48.556  27.587  22.295  1.00  0.00     0.127 S 
ATOM     74  O   UNL A   1      49.802  28.345  22.225  1.00  0.00    -0.237 OA
ATOM     75  O   UNL A   1      48.646  26.208  21.813  1.00  0.00    -0.237 OA
ATOM     76  O   UNL A   1      47.355  28.291  21.864  1.00  0.00    -0.744 OA
ENDBRANCH  70  73
ENDBRANCH  42  66
BRANCH  54  77
ATOM     77  C   UNL A   1      45.167  33.315  29.529  1.00  0.00     0.023 A 
ATOM     78  C   UNL A   1      45.944  33.464  30.695  1.00  0.00     0.012 A 
ATOM     79  C   UNL A   1      45.114  34.367  28.594  1.00  0.00     0.148 A 
ATOM     80  C   UNL A   1      46.639  34.648  30.938  1.00  0.00     0.002 A 
ATOM     81  C   UNL A   1      45.838  35.532  28.827  1.00  0.00     0.091 A 
ATOM     82  F   UNL A   1      44.351  34.221  27.502  1.00  0.00    -0.205 F 
ATOM     83  C   UNL A   1      46.595  35.677  30.000  1.00  0.00     0.022 A 
BRANCH  81  84
ATOM     84  S   UNL A   1      45.888  36.862  27.620  1.00  0.00     0.127 S 
ATOM     85  O   UNL A   1      46.786  37.819  28.261  1.00  0.00    -0.237 OA
ATOM     86  O   UNL A   1      46.447  36.203  26.437  1.00  0.00    -0.237 OA
ATOM     87  O   UNL A   1      44.505  37.291  27.462  1.00  0.00    -0.744 OA
ENDBRANCH  81  84
ENDBRANCH  54  77
ENDBRANCH  28  29
ENDBRANCH  21  23
ENDBRANCH  20  21
ENDBRANCH   1  20
TORSDOF 16
ENDMDL
MODEL 2
REMARK VINA RESULT:     -11.6      1.427      7.858
REMARK SMILES CC1(C)O[C@](C)(C(C)(C)O)CC[C@H]1C(=O)OCCOC(=O)c1ccc(-c2c3nc(c(-c4cccc(S(=O)(=O)[O-])c4F)c4ccc([nH]4)c(-c4cccc(S(=O)(=O)[O-])c4F)c4nc(c(-c5cccc(S(=O)(=O)[O-])c5F)c5ccc2[nH]5)C=C4)C=C3)cc1
REMARK SMILES IDX 18 1 17 2 16 3 14 4 15 5 13 6 1 7 2 8 3 9 4 10 5 11 12 12
REMARK SMILES IDX 6 13 11 14 7 15 8 16 9 17 10 18 19 20 20 21 21 22 22 23
REMARK SMILES IDX 23 24 84 25 24 26 83 27 25 28 26 29 27 30 77 31 28 32 82 33
REMARK SMILES IDX 76 34 78 35 29 36 81 37 75 38 74 39 30 41 62 42 42 43 61 44
REMARK SMILES IDX 43 45 46 46 60 47 79 48 44 49 45 50 59 52 80 53 47 54 31 55
REMARK SMILES IDX 32 56 40 57 33 58 35 59 41 60 34 61 36 62 37 63 38 64 39 65
REMARK SMILES IDX 63 66 64 67 72 68 65 69 67 70 73 71 66 72 68 73 69 74 70 75
REMARK SMILES IDX 71 76 48 77 49 78 57 79 50 80 52 81 58 82 51 83 53 84 54 85
REMARK SMILES IDX 55 86 56 87
REMARK H PARENT 10 19 78 40 46 51
REMARK Flexibility Score: inf
ROOT
ATOM      1  C   UNL A   1      37.549  20.027  25.001  1.00  0.00     0.275 C 
ENDROOT
BRANCH   1   2
ATOM      2  C   UNL A   1      36.114  20.549  24.977  1.00  0.00     0.274 C 
BRANCH   2   3
ATOM      3  O   UNL A   1      36.063  21.980  25.145  1.00  0.00    -0.462 OA
BRANCH   3   4
ATOM      4  C   UNL A   1      35.583  22.676  24.088  1.00  0.00     0.311 C 
ATOM      5  O   UNL A   1      36.157  22.762  23.006  1.00  0.00    -0.252 OA
BRANCH   4   6
ATOM      6  C   UNL A   1      34.302  23.444  24.363  1.00  0.00     0.131 C 
ATOM      7  C   UNL A   1      32.662  21.411  24.539  1.00  0.00     0.043 C 
ATOM      8  C   UNL A   1      32.933  22.821  24.000  1.00  0.00     0.077 C 
ATOM      9  C   UNL A   1      32.775  22.762  22.468  1.00  0.00     0.043 C 
ATOM     10  O   UNL A   1      31.857  23.700  24.403  1.00  0.00    -0.366 OA
ATOM     11  C   UNL A   1      31.832  24.287  25.718  1.00  0.00     0.094 C 
ATOM     12  C   UNL A   1      34.353  23.932  25.811  1.00  0.00     0.021 C 
ATOM     13  C   UNL A   1      31.461  23.234  26.785  1.00  0.00     0.045 C 
ATOM     14  C   UNL A   1      33.205  24.898  26.066  1.00  0.00     0.039 C 
BRANCH  11  15
ATOM     15  C   UNL A   1      30.709  25.410  25.686  1.00  0.00     0.088 C 
ATOM     16  C   UNL A   1      31.186  26.751  26.276  1.00  0.00     0.045 C 
ATOM     17  C   UNL A   1      30.210  25.682  24.254  1.00  0.00     0.045 C 
BRANCH  15  18
ATOM     18  O   UNL A   1      29.575  24.979  26.459  1.00  0.00    -0.387 OA
ATOM     19  H   UNL A   1      29.713  25.209  27.391  1.00  0.00     0.211 HD
ENDBRANCH  15  18
ENDBRANCH  11  15
ENDBRANCH   4   6
ENDBRANCH   3   4
ENDBRANCH   2   3
ENDBRANCH   1   2
BRANCH   1  20
ATOM     20  O   UNL A   1      38.478  21.114  25.133  1.00  0.00    -0.458 OA
BRANCH  20  21
ATOM     21  C   UNL A   1      39.420  20.959  26.090  1.00  0.00     0.338 C 
ATOM     22  O   UNL A   1      39.958  19.923  26.440  1.00  0.00    -0.246 OA
BRANCH  21  23
ATOM     23  C   UNL A   1      39.767  22.267  26.659  1.00  0.00     0.060 A 
ATOM     24  C   UNL A   1      39.136  23.413  26.172  1.00  0.00     0.016 A 
ATOM     25  C   UNL A   1      40.822  22.366  27.565  1.00  0.00     0.016 A 
ATOM     26  C   UNL A   1      39.600  24.674  26.541  1.00  0.00     0.010 A 
ATOM     27  C   UNL A   1      41.258  23.630  27.968  1.00  0.00     0.010 A 
ATOM     28  C   UNL A   1      40.679  24.791  27.427  1.00  0.00    -0.014 A 
BRANCH  28  29
ATOM     29  C   UNL A   1      41.253  26.125  27.728  1.00  0.00     0.031 A 
ATOM     30  C   UNL A   1      42.655  26.448  27.292  1.00  0.00     0.074 A 
ATOM     31  C   UNL A   1      40.528  27.036  28.401  1.00  0.00     0.049 A 
ATOM     32  N   UNL A   1      43.368  27.518  27.530  1.00  0.00    -0.248 NA
ATOM     33  C   UNL A   1      43.354  25.426  26.494  1.00  0.00     0.031 C 
ATOM     34  C   UNL A   1      39.163  26.835  28.886  1.00  0.00     0.029 A 
ATOM     35  N   UNL A   1      40.851  28.303  28.817  1.00  0.00    -0.354 N 
ATOM     36  C   UNL A   1      44.612  27.280  26.959  1.00  0.00     0.074 A 
ATOM     37  C   UNL A   1      44.558  25.963  26.361  1.00  0.00     0.031 C 
ATOM     38  C   UNL A   1      38.771  27.932  29.552  1.00  0.00     0.029 A 
ATOM     39  C   UNL A   1      39.866  28.900  29.565  1.00  0.00     0.049 A 
ATOM     40  H   UNL A   1      41.705  28.742  28.599  1.00  0.00     0.167 HD
ATOM     41  C   UNL A   1      45.695  28.091  26.919  1.00  0.00     0.034 A 
ATOM     42  C   UNL A   1      39.853  30.084  30.209  1.00  0.00     0.034 A 
ATOM     43  C   UNL A   1      45.730  29.422  27.459  1.00  0.00     0.049 A 
ATOM     44  C   UNL A   1      41.051  30.987  30.109  1.00  0.00     0.074 A 
ATOM     45  C   UNL A   1      46.763  30.342  27.421  1.00  0.00     0.029 A 
ATOM     46  N   UNL A   1      44.680  30.029  28.132  1.00  0.00    -0.354 N 
ATOM     47  N   UNL A   1      42.181  30.790  29.474  1.00  0.00    -0.248 NA
ATOM     48  C   UNL A   1      40.963  32.289  30.787  1.00  0.00     0.031 C 
ATOM     49  C   UNL A   1      46.336  31.507  28.069  1.00  0.00     0.029 A 
ATOM     50  C   UNL A   1      45.037  31.311  28.512  1.00  0.00     0.049 A 
ATOM     51  H   UNL A   1      43.809  29.609  28.313  1.00  0.00     0.167 HD
ATOM     52  C   UNL A   1      42.932  31.944  29.660  1.00  0.00     0.074 A 
ATOM     53  C   UNL A   1      42.115  32.850  30.444  1.00  0.00     0.031 C 
ATOM     54  C   UNL A   1      44.193  32.220  29.244  1.00  0.00     0.034 A 
BRANCH  41  55
ATOM     55  C   UNL A   1      46.921  27.568  26.221  1.00  0.00     0.023 A 
ATOM     56  C   UNL A   1      47.097  27.824  24.847  1.00  0.00     0.012 A 
ATOM     57  C   UNL A   1      47.908  26.851  26.923  1.00  0.00     0.148 A 
ATOM     58  C   UNL A   1      48.223  27.350  24.175  1.00  0.00     0.002 A 
ATOM     59  C   UNL A   1      49.045  26.409  26.252  1.00  0.00     0.091 A 
ATOM     60  F   UNL A   1      47.712  26.587  28.222  1.00  0.00    -0.205 F 
ATOM     61  C   UNL A   1      49.200  26.651  24.878  1.00  0.00     0.022 A 
BRANCH  59  62
ATOM     62  S   UNL A   1      50.373  25.558  27.113  1.00  0.00     0.127 S 
ATOM     63  O   UNL A   1      50.755  26.543  28.122  1.00  0.00    -0.237 OA
ATOM     64  O   UNL A   1      49.701  24.371  27.646  1.00  0.00    -0.237 OA
ATOM     65  O   UNL A   1      51.369  25.269  26.090  1.00  0.00    -0.744 OA
ENDBRANCH  59  62
ENDBRANCH  41  55
BRANCH  42  66
ATOM     66  C   UNL A   1      38.633  30.487  30.962  1.00  0.00     0.023 A 
ATOM     67  C   UNL A   1      38.568  30.255  32.348  1.00  0.00     0.012 A 
ATOM     68  C   UNL A   1      37.577  31.170  30.327  1.00  0.00     0.148 A 
ATOM     69  C   UNL A   1      37.468  30.687  33.089  1.00  0.00     0.002 A 
ATOM     70  C   UNL A   1      36.509  31.646  31.079  1.00  0.00     0.091 A 
ATOM     71  F   UNL A   1      37.648  31.360  29.002  1.00  0.00    -0.205 F 
ATOM     72  C   UNL A   1      36.447  31.396  32.458  1.00  0.00     0.022 A 
BRANCH  70  73
ATOM     73  S   UNL A   1      35.232  32.689  30.368  1.00  0.00     0.127 S 
ATOM     74  O   UNL A   1      34.732  31.851  29.280  1.00  0.00    -0.237 OA
ATOM     75  O   UNL A   1      34.309  32.854  31.491  1.00  0.00    -0.237 OA
ATOM     76  O   UNL A   1      35.910  33.915  29.969  1.00  0.00    -0.744 OA
ENDBRANCH  70  73
ENDBRANCH  42  66
BRANCH  54  77
ATOM     77  C   UNL A   1      44.772  33.556  29.623  1.00  0.00     0.023 A 
ATOM     78  C   UNL A   1      45.510  33.672  30.817  1.00  0.00     0.012 A 
ATOM     79  C   UNL A   1      44.653  34.671  28.771  1.00  0.00     0.148 A 
ATOM     80  C   UNL A   1      46.101  34.884  31.170  1.00  0.00     0.002 A 
ATOM     81  C   UNL A   1      45.275  35.867  29.113  1.00  0.00     0.091 A 
ATOM     82  F   UNL A   1      43.927  34.551  27.650  1.00  0.00    -0.205 F 
ATOM     83  C   UNL A   1      45.993  35.978  30.314  1.00  0.00     0.022 A 
BRANCH  81  84
ATOM     84  S   UNL A   1      45.242  37.288  28.014  1.00  0.00     0.127 S 
ATOM     85  O   UNL A   1      45.887  36.758  26.815  1.00  0.00    -0.237 OA
ATOM     86  O   UNL A   1      43.809  37.549  27.868  1.00  0.00    -0.237 OA
ATOM     87  O   UNL A   1      45.968  38.337  28.719  1.00  0.00    -0.744 OA
ENDBRANCH  81  84
ENDBRANCH  54  77
ENDBRANCH  28  29
ENDBRANCH  21  23
ENDBRANCH  20  21
ENDBRANCH   1  20
TORSDOF 16
ENDMDL
MODEL 3
REMARK VINA RESULT:     -11.5      0.485      7.732
REMARK SMILES CC1(C)O[C@](C)(C(C)(C)O)CC[C@H]1C(=O)OCCOC(=O)c1ccc(-c2c3nc(c(-c4cccc(S(=O)(=O)[O-])c4F)c4ccc([nH]4)c(-c4cccc(S(=O)(=O)[O-])c4F)c4nc(c(-c5cccc(S(=O)(=O)[O-])c5F)c5ccc2[nH]5)C=C4)C=C3)cc1
REMARK SMILES IDX 18 1 17 2 16 3 14 4 15 5 13 6 1 7 2 8 3 9 4 10 5 11 12 12
REMARK SMILES IDX 6 13 11 14 7 15 8 16 9 17 10 18 19 20 20 21 21 22 22 23
REMARK SMILES IDX 23 24 84 25 24 26 83 27 25 28 26 29 27 30 77 31 28 32 82 33
REMARK SMILES IDX 76 34 78 35 29 36 81 37 75 38 74 39 30 41 62 42 42 43 61 44
REMARK SMILES IDX 43 45 46 46 60 47 79 48 44 49 45 50 59 52 80 53 47 54 31 55
REMARK SMILES IDX 32 56 40 57 33 58 35 59 41 60 34 61 36 62 37 63 38 64 39 65
REMARK SMILES IDX 63 66 64 67 72 68 65 69 67 70 73 71 66 72 68 73 69 74 70 75
REMARK SMILES IDX 71 76 48 77 49 78 57 79 50 80 52 81 58 82 51 83 53 84 54 85
REMARK SMILES IDX 55 86 56 87
REMARK H PARENT 10 19 78 40 46 51
REMARK Flexibility Score: inf
ROOT
ATOM      1  C   UNL A   1      37.530  20.112  25.043  1.00  0.00     0.275 C 
ENDROOT
BRANCH   1   2
ATOM      2  C   UNL A   1      36.174  20.744  24.737  1.00  0.00     0.274 C 
BRANCH   2   3
ATOM      3  O   UNL A   1      36.205  22.177  24.892  1.00  0.00    -0.462 OA
BRANCH   3   4
ATOM      4  C   UNL A   1      35.751  22.889  23.834  1.00  0.00     0.311 C 
ATOM      5  O   UNL A   1      36.328  22.952  22.752  1.00  0.00    -0.252 OA
BRANCH   4   6
ATOM      6  C   UNL A   1      34.499  23.704  24.108  1.00  0.00     0.131 C 
ATOM      7  C   UNL A   1      32.805  21.730  24.395  1.00  0.00     0.043 C 
ATOM      8  C   UNL A   1      33.105  23.111  23.798  1.00  0.00     0.077 C 
ATOM      9  C   UNL A   1      32.910  23.000  22.273  1.00  0.00     0.043 C 
ATOM     10  O   UNL A   1      32.064  24.035  24.192  1.00  0.00    -0.366 OA
ATOM     11  C   UNL A   1      32.087  24.670  25.484  1.00  0.00     0.094 C 
ATOM     12  C   UNL A   1      34.598  24.244  25.535  1.00  0.00     0.021 C 
ATOM     13  C   UNL A   1      31.709  23.669  26.598  1.00  0.00     0.045 C 
ATOM     14  C   UNL A   1      33.485  25.252  25.779  1.00  0.00     0.039 C 
BRANCH  11  15
ATOM     15  C   UNL A   1      30.996  25.825  25.434  1.00  0.00     0.088 C 
ATOM     16  C   UNL A   1      31.244  26.927  26.482  1.00  0.00     0.045 C 
ATOM     17  C   UNL A   1      30.938  26.500  24.051  1.00  0.00     0.045 C 
BRANCH  15  18
ATOM     18  O   UNL A   1      29.695  25.269  25.695  1.00  0.00    -0.387 OA
ATOM     19  H   UNL A   1      29.712  24.314  25.530  1.00  0.00     0.211 HD
ENDBRANCH  15  18
ENDBRANCH  11  15
ENDBRANCH   4   6
ENDBRANCH   3   4
ENDBRANCH   2   3
ENDBRANCH   1   2
BRANCH   1  20
ATOM     20  O   UNL A   1      38.550  21.121  25.118  1.00  0.00    -0.458 OA
BRANCH  20  21
ATOM     21  C   UNL A   1      39.440  20.973  26.124  1.00  0.00     0.338 C 
ATOM     22  O   UNL A   1      39.931  19.935  26.533  1.00  0.00    -0.246 OA
BRANCH  21  23
ATOM     23  C   UNL A   1      39.797  22.290  26.667  1.00  0.00     0.060 A 
ATOM     24  C   UNL A   1      39.166  23.430  26.164  1.00  0.00     0.016 A 
ATOM     25  C   UNL A   1      40.859  22.401  27.563  1.00  0.00     0.016 A 
ATOM     26  C   UNL A   1      39.637  24.695  26.507  1.00  0.00     0.010 A 
ATOM     27  C   UNL A   1      41.303  23.671  27.939  1.00  0.00     0.010 A 
ATOM     28  C   UNL A   1      40.723  24.824  27.382  1.00  0.00    -0.014 A 
BRANCH  28  29
ATOM     29  C   UNL A   1      41.305  26.161  27.654  1.00  0.00     0.031 A 
ATOM     30  C   UNL A   1      42.704  26.472  27.198  1.00  0.00     0.074 A 
ATOM     31  C   UNL A   1      40.590  27.086  28.320  1.00  0.00     0.049 A 
ATOM     32  N   UNL A   1      43.422  27.543  27.410  1.00  0.00    -0.248 NA
ATOM     33  C   UNL A   1      43.390  25.435  26.410  1.00  0.00     0.031 C 
ATOM     34  C   UNL A   1      39.230  26.897  28.823  1.00  0.00     0.029 A 
ATOM     35  N   UNL A   1      40.921  28.359  28.711  1.00  0.00    -0.354 N 
ATOM     36  C   UNL A   1      44.659  27.292  26.829  1.00  0.00     0.074 A 
ATOM     37  C   UNL A   1      44.594  25.966  26.255  1.00  0.00     0.031 C 
ATOM     38  C   UNL A   1      38.849  28.006  29.475  1.00  0.00     0.029 A 
ATOM     39  C   UNL A   1      39.946  28.971  29.460  1.00  0.00     0.049 A 
ATOM     40  H   UNL A   1      41.775  28.790  28.476  1.00  0.00     0.167 HD
ATOM     41  C   UNL A   1      45.744  28.099  26.764  1.00  0.00     0.034 A 
ATOM     42  C   UNL A   1      39.944  30.165  30.084  1.00  0.00     0.034 A 
ATOM     43  C   UNL A   1      45.789  29.439  27.282  1.00  0.00     0.049 A 
ATOM     44  C   UNL A   1      41.144  31.062  29.956  1.00  0.00     0.074 A 
ATOM     45  C   UNL A   1      46.824  30.354  27.217  1.00  0.00     0.029 A 
ATOM     46  N   UNL A   1      44.748  30.060  27.955  1.00  0.00    -0.354 N 
ATOM     47  N   UNL A   1      42.267  30.851  29.312  1.00  0.00    -0.248 NA
ATOM     48  C   UNL A   1      41.067  32.376  30.613  1.00  0.00     0.031 C 
ATOM     49  C   UNL A   1      46.408  31.531  27.850  1.00  0.00     0.029 A 
ATOM     50  C   UNL A   1      45.113  31.347  28.310  1.00  0.00     0.049 A 
ATOM     51  H   UNL A   1      43.878  29.646  28.153  1.00  0.00     0.167 HD
ATOM     52  C   UNL A   1      43.023  32.006  29.471  1.00  0.00     0.074 A 
ATOM     53  C   UNL A   1      42.217  32.927  30.248  1.00  0.00     0.031 C 
ATOM     54  C   UNL A   1      44.280  32.270  29.036  1.00  0.00     0.034 A 
BRANCH  41  55
ATOM     55  C   UNL A   1      46.961  27.560  26.062  1.00  0.00     0.023 A 
ATOM     56  C   UNL A   1      47.887  26.781  26.784  1.00  0.00     0.012 A 
ATOM     57  C   UNL A   1      47.177  27.798  24.692  1.00  0.00     0.148 A 
ATOM     58  C   UNL A   1      49.025  26.272  26.159  1.00  0.00     0.002 A 
ATOM     59  C   UNL A   1      48.297  27.258  24.068  1.00  0.00     0.091 A 
ATOM     60  F   UNL A   1      46.304  28.568  24.026  1.00  0.00    -0.205 F 
ATOM     61  C   UNL A   1      49.226  26.502  24.801  1.00  0.00     0.022 A 
BRANCH  59  62
ATOM     62  S   UNL A   1      48.582  27.464  22.306  1.00  0.00     0.127 S 
ATOM     63  O   UNL A   1      49.858  28.177  22.291  1.00  0.00    -0.237 OA
ATOM     64  O   UNL A   1      48.654  26.082  21.828  1.00  0.00    -0.237 OA
ATOM     65  O   UNL A   1      47.428  28.204  21.815  1.00  0.00    -0.744 OA
ENDBRANCH  59  62
ENDBRANCH  41  55
BRANCH  42  66
ATOM     66  C   UNL A   1      38.734  30.585  30.843  1.00  0.00     0.023 A 
ATOM     67  C   UNL A   1      38.697  30.408  32.239  1.00  0.00     0.012 A 
ATOM     68  C   UNL A   1      37.658  31.230  30.202  1.00  0.00     0.148 A 
ATOM     69  C   UNL A   1      37.606  30.857  32.982  1.00  0.00     0.002 A 
ATOM     70  C   UNL A   1      36.599  31.724  30.954  1.00  0.00     0.091 A 
ATOM     71  F   UNL A   1      37.702  31.368  28.869  1.00  0.00    -0.205 F 
ATOM     72  C   UNL A   1      36.565  31.528  32.343  1.00  0.00     0.022 A 
BRANCH  70  73
ATOM     73  S   UNL A   1      35.296  32.723  30.226  1.00  0.00     0.127 S 
ATOM     74  O   UNL A   1      34.403  32.927  31.364  1.00  0.00    -0.237 OA
ATOM     75  O   UNL A   1      36.027  33.915  29.795  1.00  0.00    -0.237 OA
ATOM     76  O   UNL A   1      34.762  31.924  29.131  1.00  0.00    -0.744 OA
ENDBRANCH  70  73
ENDBRANCH  42  66
BRANCH  54  77
ATOM     77  C   UNL A   1      44.867  33.611  29.386  1.00  0.00     0.023 A 
ATOM     78  C   UNL A   1      45.618  33.745  30.571  1.00  0.00     0.012 A 
ATOM     79  C   UNL A   1      44.742  34.712  28.517  1.00  0.00     0.148 A 
ATOM     80  C   UNL A   1      46.216  34.961  30.897  1.00  0.00     0.002 A 
ATOM     81  C   UNL A   1      45.372  35.912  28.832  1.00  0.00     0.091 A 
ATOM     82  F   UNL A   1      44.004  34.576  27.407  1.00  0.00    -0.205 F 
ATOM     83  C   UNL A   1      46.103  36.040  30.023  1.00  0.00     0.022 A 
BRANCH  81  84
ATOM     84  S   UNL A   1      45.332  37.315  27.710  1.00  0.00     0.127 S 
ATOM     85  O   UNL A   1      46.028  36.785  26.541  1.00  0.00    -0.237 OA
ATOM     86  O   UNL A   1      43.896  37.530  27.516  1.00  0.00    -0.237 OA
ATOM     87  O   UNL A   1      46.004  38.395  28.420  1.00  0.00    -0.744 OA
ENDBRANCH  81  84
ENDBRANCH  54  77
ENDBRANCH  28  29
ENDBRANCH  21  23
ENDBRANCH  20  21
ENDBRANCH   1  20
TORSDOF 16
ENDMDL
