MODEL 1
REMARK VINA RESULT:     -12.1      0.000      0.000
REMARK SMILES CC(C)(C)c1cc(Nc2ccccc2C(=O)OCCOC(=O)c2ccc(-c3c4nc(c(-c5cccc(S(=O)(=O)[O-])c5F)c5ccc([nH]5)c(-c5cccc(S(=O)(=O)[O-])c5F)c5nc(c(-c6cccc(S(=O)(=O)[O-])c6F)c6ccc3[nH]6)C=C5)C=C4)cc2)cc2c1OCC2(C)C
REMARK SMILES IDX 18 1 17 2 15 3 16 4 14 5 9 6 10 7 11 8 13 9 12 10 8 11 7 13
REMARK SMILES IDX 5 14 6 15 88 16 87 17 89 18 86 19 91 20 90 21 92 22 93 23
REMARK SMILES IDX 2 24 1 25 3 26 4 27 19 28 20 29 21 30 22 31 23 32 24 33
REMARK SMILES IDX 85 34 25 35 84 36 26 37 27 38 28 39 78 40 29 41 83 42 77 43
REMARK SMILES IDX 79 44 30 45 82 46 76 47 75 48 31 50 63 51 43 52 62 53 44 54
REMARK SMILES IDX 47 55 61 56 80 57 45 58 46 59 60 61 81 62 48 63 32 64 33 65
REMARK SMILES IDX 41 66 34 67 36 68 42 69 35 70 37 71 38 72 39 73 40 74 64 75
REMARK SMILES IDX 65 76 73 77 66 78 68 79 74 80 67 81 69 82 70 83 71 84 72 85
REMARK SMILES IDX 49 86 50 87 58 88 51 89 53 90 59 91 52 92 54 93 55 94 56 95
REMARK SMILES IDX 57 96
REMARK H PARENT 8 12 79 49 47 60
REMARK Flexibility Score: inf
ROOT
ATOM      1  C   UNL A   1      42.272  19.132  26.771  1.00  0.00     0.275 C 
ENDROOT
BRANCH   1   2
ATOM      2  O   UNL A   1      41.655  20.300  26.197  1.00  0.00    -0.458 OA
BRANCH   2   3
ATOM      3  C   UNL A   1      40.312  20.268  25.998  1.00  0.00     0.340 C 
ATOM      4  O   UNL A   1      39.671  19.295  25.652  1.00  0.00    -0.246 OA
BRANCH   3   5
ATOM      5  C   UNL A   1      39.687  21.583  26.335  1.00  0.00     0.083 A 
ATOM      6  C   UNL A   1      38.447  22.026  25.829  1.00  0.00     0.053 A 
ATOM      7  C   UNL A   1      38.028  23.329  26.163  1.00  0.00     0.027 A 
ATOM      8  C   UNL A   1      38.821  24.185  26.929  1.00  0.00     0.002 A 
ATOM      9  C   UNL A   1      40.441  22.425  27.176  1.00  0.00     0.018 A 
ATOM     10  C   UNL A   1      40.028  23.731  27.440  1.00  0.00     0.001 A 
BRANCH   6  11
ATOM     11  N   UNL A   1      37.668  21.232  24.956  1.00  0.00    -0.355 N 
ATOM     12  H   UNL A   1      38.183  20.656  24.346  1.00  0.00     0.167 HD
BRANCH  11  13
ATOM     13  C   UNL A   1      36.269  21.140  24.824  1.00  0.00     0.039 A 
ATOM     14  C   UNL A   1      34.260  19.685  24.690  1.00  0.00     0.002 A 
ATOM     15  C   UNL A   1      35.660  19.865  24.798  1.00  0.00     0.034 A 
ATOM     16  C   UNL A   1      33.504  20.861  24.678  1.00  0.00     0.127 A 
ATOM     17  C   UNL A   1      34.084  22.116  24.718  1.00  0.00     0.006 A 
ATOM     18  O   UNL A   1      32.136  20.916  24.618  1.00  0.00    -0.492 OA
ATOM     19  C   UNL A   1      35.456  22.269  24.759  1.00  0.00     0.034 A 
ATOM     20  C   UNL A   1      33.055  23.192  24.731  1.00  0.00     0.028 C 
ATOM     21  C   UNL A   1      31.786  22.321  24.679  1.00  0.00     0.240 C 
ATOM     22  C   UNL A   1      33.136  24.008  26.027  1.00  0.00     0.020 C 
ATOM     23  C   UNL A   1      33.168  24.116  23.515  1.00  0.00     0.020 C 
BRANCH  14  24
ATOM     24  C   UNL A   1      33.621  18.294  24.559  1.00  0.00    -0.009 C 
ATOM     25  C   UNL A   1      32.733  17.975  25.780  1.00  0.00     0.016 C 
ATOM     26  C   UNL A   1      34.652  17.142  24.452  1.00  0.00     0.016 C 
ATOM     27  C   UNL A   1      32.769  18.246  23.271  1.00  0.00     0.016 C 
ENDBRANCH  14  24
ENDBRANCH  11  13
ENDBRANCH   6  11
ENDBRANCH   3   5
ENDBRANCH   2   3
ENDBRANCH   1   2
BRANCH   1  28
ATOM     28  C   UNL A   1      43.167  18.423  25.751  1.00  0.00     0.275 C 
BRANCH  28  29
ATOM     29  O   UNL A   1      43.367  19.255  24.595  1.00  0.00    -0.458 OA
BRANCH  29  30
ATOM     30  C   UNL A   1      44.652  19.596  24.341  1.00  0.00     0.338 C 
ATOM     31  O   UNL A   1      45.476  18.958  23.706  1.00  0.00    -0.246 OA
BRANCH  30  32
ATOM     32  C   UNL A   1      44.864  20.982  24.790  1.00  0.00     0.060 A 
ATOM     33  C   UNL A   1      45.369  21.289  26.054  1.00  0.00     0.016 A 
ATOM     34  C   UNL A   1      44.551  21.997  23.887  1.00  0.00     0.016 A 
ATOM     35  C   UNL A   1      45.531  22.633  26.411  1.00  0.00     0.010 A 
ATOM     36  C   UNL A   1      44.698  23.334  24.248  1.00  0.00     0.010 A 
ATOM     37  C   UNL A   1      45.188  23.667  25.515  1.00  0.00    -0.014 A 
BRANCH  37  38
ATOM     38  C   UNL A   1      45.448  25.087  25.859  1.00  0.00     0.031 A 
ATOM     39  C   UNL A   1      44.349  26.006  26.314  1.00  0.00     0.074 A 
ATOM     40  C   UNL A   1      46.695  25.568  25.691  1.00  0.00     0.049 A 
ATOM     41  N   UNL A   1      44.444  27.235  26.751  1.00  0.00    -0.248 NA
ATOM     42  C   UNL A   1      42.969  25.497  26.253  1.00  0.00     0.031 C 
ATOM     43  C   UNL A   1      47.816  24.813  25.126  1.00  0.00     0.029 A 
ATOM     44  N   UNL A   1      47.228  26.800  25.971  1.00  0.00    -0.354 N 
ATOM     45  C   UNL A   1      43.144  27.653  27.007  1.00  0.00     0.074 A 
ATOM     46  C   UNL A   1      42.271  26.557  26.646  1.00  0.00     0.031 C 
ATOM     47  C   UNL A   1      48.913  25.585  25.137  1.00  0.00     0.029 A 
ATOM     48  C   UNL A   1      48.575  26.888  25.705  1.00  0.00     0.049 A 
ATOM     49  H   UNL A   1      46.699  27.550  26.328  1.00  0.00     0.167 HD
ATOM     50  C   UNL A   1      42.723  28.829  27.530  1.00  0.00     0.034 A 
ATOM     51  C   UNL A   1      49.449  27.890  25.923  1.00  0.00     0.034 A 
ATOM     52  C   UNL A   1      43.602  29.897  27.928  1.00  0.00     0.049 A 
ATOM     53  C   UNL A   1      48.974  29.151  26.586  1.00  0.00     0.074 A 
ATOM     54  C   UNL A   1      43.279  31.076  28.578  1.00  0.00     0.029 A 
ATOM     55  N   UNL A   1      44.971  29.920  27.711  1.00  0.00    -0.354 N 
ATOM     56  N   UNL A   1      47.769  29.452  27.004  1.00  0.00    -0.248 NA
ATOM     57  C   UNL A   1      49.978  30.193  26.841  1.00  0.00     0.031 C 
ATOM     58  C   UNL A   1      44.452  31.818  28.746  1.00  0.00     0.029 A 
ATOM     59  C   UNL A   1      45.505  31.096  28.207  1.00  0.00     0.049 A 
ATOM     60  H   UNL A   1      45.485  29.207  27.270  1.00  0.00     0.167 HD
ATOM     61  C   UNL A   1      47.871  30.710  27.584  1.00  0.00     0.074 A 
ATOM     62  C   UNL A   1      49.259  31.109  27.480  1.00  0.00     0.031 C 
ATOM     63  C   UNL A   1      46.894  31.466  28.139  1.00  0.00     0.034 A 
BRANCH  50  64
ATOM     64  C   UNL A   1      41.254  29.008  27.805  1.00  0.00     0.023 A 
ATOM     65  C   UNL A   1      40.383  29.214  26.717  1.00  0.00     0.012 A 
ATOM     66  C   UNL A   1      40.721  28.834  29.098  1.00  0.00     0.148 A 
ATOM     67  C   UNL A   1      39.004  29.255  26.910  1.00  0.00     0.002 A 
ATOM     68  C   UNL A   1      39.342  28.847  29.278  1.00  0.00     0.091 A 
ATOM     69  F   UNL A   1      41.570  28.641  30.117  1.00  0.00    -0.205 F 
ATOM     70  C   UNL A   1      38.483  29.061  28.187  1.00  0.00     0.022 A 
BRANCH  68  71
ATOM     71  S   UNL A   1      38.560  28.551  30.869  1.00  0.00     0.127 S 
ATOM     72  O   UNL A   1      37.168  28.899  30.582  1.00  0.00    -0.237 OA
ATOM     73  O   UNL A   1      38.802  27.122  31.067  1.00  0.00    -0.237 OA
ATOM     74  O   UNL A   1      39.231  29.424  31.820  1.00  0.00    -0.744 OA
ENDBRANCH  68  71
ENDBRANCH  50  64
BRANCH  51  75
ATOM     75  C   UNL A   1      50.885  27.668  25.612  1.00  0.00     0.023 A 
ATOM     76  C   UNL A   1      51.764  27.325  26.657  1.00  0.00     0.012 A 
ATOM     77  C   UNL A   1      51.360  27.695  24.287  1.00  0.00     0.148 A 
ATOM     78  C   UNL A   1      53.096  27.013  26.388  1.00  0.00     0.002 A 
ATOM     79  C   UNL A   1      52.679  27.347  24.022  1.00  0.00     0.091 A 
ATOM     80  F   UNL A   1      50.501  28.023  23.314  1.00  0.00    -0.205 F 
ATOM     81  C   UNL A   1      53.551  27.013  25.072  1.00  0.00     0.022 A 
BRANCH  79  82
ATOM     82  S   UNL A   1      53.332  27.213  22.354  1.00  0.00     0.127 S 
ATOM     83  O   UNL A   1      53.233  28.593  21.884  1.00  0.00    -0.237 OA
ATOM     84  O   UNL A   1      54.694  26.743  22.603  1.00  0.00    -0.237 OA
ATOM     85  O   UNL A   1      52.476  26.255  21.669  1.00  0.00    -0.744 OA
ENDBRANCH  79  82
ENDBRANCH  51  75
BRANCH  63  86
ATOM     86  C   UNL A   1      47.261  32.818  28.684  1.00  0.00     0.023 A 
ATOM     87  C   UNL A   1      47.754  32.916  30.000  1.00  0.00     0.012 A 
ATOM     88  C   UNL A   1      47.269  33.953  27.849  1.00  0.00     0.148 A 
ATOM     89  C   UNL A   1      48.253  34.126  30.477  1.00  0.00     0.002 A 
ATOM     90  C   UNL A   1      47.798  35.147  28.322  1.00  0.00     0.091 A 
ATOM     91  F   UNL A   1      46.791  33.829  26.603  1.00  0.00    -0.205 F 
ATOM     92  C   UNL A   1      48.288  35.237  29.636  1.00  0.00     0.022 A 
BRANCH  90  93
ATOM     93  S   UNL A   1      47.959  36.614  27.295  1.00  0.00     0.127 S 
ATOM     94  O   UNL A   1      48.783  36.118  26.194  1.00  0.00    -0.237 OA
ATOM     95  O   UNL A   1      46.567  36.893  26.939  1.00  0.00    -0.237 OA
ATOM     96  O   UNL A   1      48.592  37.626  28.130  1.00  0.00    -0.744 OA
ENDBRANCH  90  93
ENDBRANCH  63  86
ENDBRANCH  37  38
ENDBRANCH  30  32
ENDBRANCH  29  30
ENDBRANCH  28  29
ENDBRANCH   1  28
TORSDOF 17
ENDMDL
MODEL 2
REMARK VINA RESULT:     -12.0      0.705      7.639
REMARK SMILES CC(C)(C)c1cc(Nc2ccccc2C(=O)OCCOC(=O)c2ccc(-c3c4nc(c(-c5cccc(S(=O)(=O)[O-])c5F)c5ccc([nH]5)c(-c5cccc(S(=O)(=O)[O-])c5F)c5nc(c(-c6cccc(S(=O)(=O)[O-])c6F)c6ccc3[nH]6)C=C5)C=C4)cc2)cc2c1OCC2(C)C
REMARK SMILES IDX 18 1 17 2 15 3 16 4 14 5 9 6 10 7 11 8 13 9 12 10 8 11 7 13
REMARK SMILES IDX 5 14 6 15 88 16 87 17 89 18 86 19 91 20 90 21 92 22 93 23
REMARK SMILES IDX 2 24 1 25 3 26 4 27 19 28 20 29 21 30 22 31 23 32 24 33
REMARK SMILES IDX 85 34 25 35 84 36 26 37 27 38 28 39 78 40 29 41 83 42 77 43
REMARK SMILES IDX 79 44 30 45 82 46 76 47 75 48 31 50 63 51 43 52 62 53 44 54
REMARK SMILES IDX 47 55 61 56 80 57 45 58 46 59 60 61 81 62 48 63 32 64 33 65
REMARK SMILES IDX 41 66 34 67 36 68 42 69 35 70 37 71 38 72 39 73 40 74 64 75
REMARK SMILES IDX 65 76 73 77 66 78 68 79 74 80 67 81 69 82 70 83 71 84 72 85
REMARK SMILES IDX 49 86 50 87 58 88 51 89 53 90 59 91 52 92 54 93 55 94 56 95
REMARK SMILES IDX 57 96
REMARK H PARENT 8 12 79 49 47 60
REMARK Flexibility Score: inf
ROOT
ATOM      1  C   UNL A   1      42.331  19.002  26.527  1.00  0.00     0.275 C 
ENDROOT
BRANCH   1   2
ATOM      2  O   UNL A   1      41.646  20.165  26.025  1.00  0.00    -0.458 OA
BRANCH   2   3
ATOM      3  C   UNL A   1      40.292  20.103  25.925  1.00  0.00     0.340 C 
ATOM      4  O   UNL A   1      39.645  19.102  25.685  1.00  0.00    -0.246 OA
BRANCH   3   5
ATOM      5  C   UNL A   1      39.670  21.428  26.226  1.00  0.00     0.083 A 
ATOM      6  C   UNL A   1      38.433  21.861  25.705  1.00  0.00     0.053 A 
ATOM      7  C   UNL A   1      38.015  23.173  26.004  1.00  0.00     0.027 A 
ATOM      8  C   UNL A   1      38.809  24.046  26.750  1.00  0.00     0.002 A 
ATOM      9  C   UNL A   1      40.423  22.290  27.047  1.00  0.00     0.018 A 
ATOM     10  C   UNL A   1      40.013  23.603  27.277  1.00  0.00     0.001 A 
BRANCH   6  11
ATOM     11  N   UNL A   1      37.654  21.047  24.851  1.00  0.00    -0.355 N 
ATOM     12  H   UNL A   1      38.159  20.576  24.150  1.00  0.00     0.167 HD
BRANCH  11  13
ATOM     13  C   UNL A   1      36.266  20.807  24.848  1.00  0.00     0.039 A 
ATOM     14  C   UNL A   1      34.418  19.148  24.782  1.00  0.00     0.002 A 
ATOM     15  C   UNL A   1      35.795  19.477  24.769  1.00  0.00     0.034 A 
ATOM     16  C   UNL A   1      33.546  20.228  24.947  1.00  0.00     0.127 A 
ATOM     17  C   UNL A   1      33.992  21.534  25.041  1.00  0.00     0.006 A 
ATOM     18  O   UNL A   1      32.181  20.132  25.025  1.00  0.00    -0.492 OA
ATOM     19  C   UNL A   1      35.337  21.838  24.962  1.00  0.00     0.034 A 
ATOM     20  C   UNL A   1      32.863  22.482  25.248  1.00  0.00     0.028 C 
ATOM     21  C   UNL A   1      31.694  21.480  25.243  1.00  0.00     0.240 C 
ATOM     22  C   UNL A   1      32.995  23.199  26.597  1.00  0.00     0.020 C 
ATOM     23  C   UNL A   1      32.749  23.504  24.113  1.00  0.00     0.020 C 
BRANCH  14  24
ATOM     24  C   UNL A   1      33.919  17.708  24.592  1.00  0.00    -0.009 C 
ATOM     25  C   UNL A   1      33.372  17.495  23.164  1.00  0.00     0.016 C 
ATOM     26  C   UNL A   1      32.779  17.310  25.563  1.00  0.00     0.016 C 
ATOM     27  C   UNL A   1      35.084  16.727  24.852  1.00  0.00     0.016 C 
ENDBRANCH  14  24
ENDBRANCH  11  13
ENDBRANCH   6  11
ENDBRANCH   3   5
ENDBRANCH   2   3
ENDBRANCH   1   2
BRANCH   1  28
ATOM     28  C   UNL A   1      43.394  18.518  25.537  1.00  0.00     0.275 C 
BRANCH  28  29
ATOM     29  O   UNL A   1      43.551  19.465  24.466  1.00  0.00    -0.458 OA
BRANCH  29  30
ATOM     30  C   UNL A   1      44.826  19.839  24.205  1.00  0.00     0.338 C 
ATOM     31  O   UNL A   1      45.629  19.275  23.479  1.00  0.00    -0.246 OA
BRANCH  30  32
ATOM     32  C   UNL A   1      45.049  21.171  24.789  1.00  0.00     0.060 A 
ATOM     33  C   UNL A   1      45.301  21.360  26.148  1.00  0.00     0.016 A 
ATOM     34  C   UNL A   1      45.016  22.260  23.918  1.00  0.00     0.016 A 
ATOM     35  C   UNL A   1      45.493  22.662  26.628  1.00  0.00     0.010 A 
ATOM     36  C   UNL A   1      45.191  23.555  24.398  1.00  0.00     0.010 A 
ATOM     37  C   UNL A   1      45.429  23.770  25.759  1.00  0.00    -0.014 A 
BRANCH  37  38
ATOM     38  C   UNL A   1      45.725  25.138  26.252  1.00  0.00     0.031 A 
ATOM     39  C   UNL A   1      47.131  25.669  26.321  1.00  0.00     0.074 A 
ATOM     40  C   UNL A   1      44.705  25.890  26.709  1.00  0.00     0.049 A 
ATOM     41  N   UNL A   1      47.532  26.876  26.626  1.00  0.00    -0.248 NA
ATOM     42  C   UNL A   1      48.226  24.728  26.036  1.00  0.00     0.031 C 
ATOM     43  C   UNL A   1      43.317  25.437  26.822  1.00  0.00     0.029 A 
ATOM     44  N   UNL A   1      44.674  27.182  27.166  1.00  0.00    -0.354 N 
ATOM     45  C   UNL A   1      48.920  26.843  26.580  1.00  0.00     0.074 A 
ATOM     46  C   UNL A   1      49.297  25.485  26.250  1.00  0.00     0.031 C 
ATOM     47  C   UNL A   1      42.563  26.447  27.281  1.00  0.00     0.029 A 
ATOM     48  C   UNL A   1      43.412  27.617  27.496  1.00  0.00     0.049 A 
ATOM     49  H   UNL A   1      45.478  27.745  27.250  1.00  0.00     0.167 HD
ATOM     50  C   UNL A   1      49.794  27.860  26.762  1.00  0.00     0.034 A 
ATOM     51  C   UNL A   1      42.977  28.828  27.895  1.00  0.00     0.034 A 
ATOM     52  C   UNL A   1      49.409  29.217  27.045  1.00  0.00     0.049 A 
ATOM     53  C   UNL A   1      43.954  29.963  28.002  1.00  0.00     0.074 A 
ATOM     54  C   UNL A   1      50.215  30.339  27.125  1.00  0.00     0.029 A 
ATOM     55  N   UNL A   1      48.112  29.636  27.299  1.00  0.00    -0.354 N 
ATOM     56  N   UNL A   1      45.243  29.959  27.762  1.00  0.00    -0.248 NA
ATOM     57  C   UNL A   1      43.420  31.274  28.397  1.00  0.00     0.031 C 
ATOM     58  C   UNL A   1      49.408  31.436  27.438  1.00  0.00     0.029 A 
ATOM     59  C   UNL A   1      48.098  30.997  27.544  1.00  0.00     0.049 A 
ATOM     60  H   UNL A   1      47.321  29.052  27.305  1.00  0.00     0.167 HD
ATOM     61  C   UNL A   1      45.671  31.265  27.961  1.00  0.00     0.074 A 
ATOM     62  C   UNL A   1      44.503  32.040  28.326  1.00  0.00     0.031 C 
ATOM     63  C   UNL A   1      46.925  31.768  27.863  1.00  0.00     0.034 A 
BRANCH  50  64
ATOM     64  C   UNL A   1      51.262  27.589  26.563  1.00  0.00     0.023 A 
ATOM     65  C   UNL A   1      52.041  27.238  27.683  1.00  0.00     0.012 A 
ATOM     66  C   UNL A   1      51.834  27.541  25.276  1.00  0.00     0.148 A 
ATOM     67  C   UNL A   1      53.372  26.853  27.529  1.00  0.00     0.002 A 
ATOM     68  C   UNL A   1      53.154  27.128  25.128  1.00  0.00     0.091 A 
ATOM     69  F   UNL A   1      51.072  27.880  24.226  1.00  0.00    -0.205 F 
ATOM     70  C   UNL A   1      53.924  26.788  26.252  1.00  0.00     0.022 A 
BRANCH  68  71
ATOM     71  S   UNL A   1      53.950  26.950  23.526  1.00  0.00     0.127 S 
ATOM     72  O   UNL A   1      55.301  26.544  23.912  1.00  0.00    -0.237 OA
ATOM     73  O   UNL A   1      53.151  25.895  22.902  1.00  0.00    -0.237 OA
ATOM     74  O   UNL A   1      53.857  28.252  22.881  1.00  0.00    -0.744 OA
ENDBRANCH  68  71
ENDBRANCH  50  64
BRANCH  51  75
ATOM     75  C   UNL A   1      41.519  29.036  28.099  1.00  0.00     0.023 A 
ATOM     76  C   UNL A   1      40.690  29.203  26.972  1.00  0.00     0.012 A 
ATOM     77  C   UNL A   1      40.942  28.967  29.380  1.00  0.00     0.148 A 
ATOM     78  C   UNL A   1      39.307  29.300  27.120  1.00  0.00     0.002 A 
ATOM     79  C   UNL A   1      39.560  29.027  29.517  1.00  0.00     0.091 A 
ATOM     80  F   UNL A   1      41.756  28.805  30.432  1.00  0.00    -0.205 F 
ATOM     81  C   UNL A   1      38.742  29.202  28.389  1.00  0.00     0.022 A 
BRANCH  79  82
ATOM     82  S   UNL A   1      38.730  28.802  31.094  1.00  0.00     0.127 S 
ATOM     83  O   UNL A   1      39.429  29.768  31.938  1.00  0.00    -0.237 OA
ATOM     84  O   UNL A   1      37.352  29.161  30.759  1.00  0.00    -0.237 OA
ATOM     85  O   UNL A   1      38.923  27.404  31.449  1.00  0.00    -0.744 OA
ENDBRANCH  79  82
ENDBRANCH  51  75
BRANCH  63  86
ATOM     86  C   UNL A   1      47.133  33.228  28.156  1.00  0.00     0.023 A 
ATOM     87  C   UNL A   1      47.321  33.640  29.489  1.00  0.00     0.012 A 
ATOM     88  C   UNL A   1      47.301  34.155  27.109  1.00  0.00     0.148 A 
ATOM     89  C   UNL A   1      47.677  34.955  29.777  1.00  0.00     0.002 A 
ATOM     90  C   UNL A   1      47.688  35.457  27.402  1.00  0.00     0.091 A 
ATOM     91  F   UNL A   1      47.113  33.734  25.850  1.00  0.00    -0.205 F 
ATOM     92  C   UNL A   1      47.874  35.860  28.735  1.00  0.00     0.022 A 
BRANCH  90  93
ATOM     93  S   UNL A   1      48.039  36.677  26.130  1.00  0.00     0.127 S 
ATOM     94  O   UNL A   1      46.694  37.085  25.728  1.00  0.00    -0.237 OA
ATOM     95  O   UNL A   1      48.789  37.689  26.874  1.00  0.00    -0.237 OA
ATOM     96  O   UNL A   1      48.804  35.982  25.103  1.00  0.00    -0.744 OA
ENDBRANCH  90  93
ENDBRANCH  63  86
ENDBRANCH  37  38
ENDBRANCH  30  32
ENDBRANCH  29  30
ENDBRANCH  28  29
ENDBRANCH   1  28
TORSDOF 17
ENDMDL
MODEL 3
REMARK VINA RESULT:     -11.9      7.666     12.818
REMARK SMILES CC(C)(C)c1cc(Nc2ccccc2C(=O)OCCOC(=O)c2ccc(-c3c4nc(c(-c5cccc(S(=O)(=O)[O-])c5F)c5ccc([nH]5)c(-c5cccc(S(=O)(=O)[O-])c5F)c5nc(c(-c6cccc(S(=O)(=O)[O-])c6F)c6ccc3[nH]6)C=C5)C=C4)cc2)cc2c1OCC2(C)C
REMARK SMILES IDX 18 1 17 2 15 3 16 4 14 5 9 6 10 7 11 8 13 9 12 10 8 11 7 13
REMARK SMILES IDX 5 14 6 15 88 16 87 17 89 18 86 19 91 20 90 21 92 22 93 23
REMARK SMILES IDX 2 24 1 25 3 26 4 27 19 28 20 29 21 30 22 31 23 32 24 33
REMARK SMILES IDX 85 34 25 35 84 36 26 37 27 38 28 39 78 40 29 41 83 42 77 43
REMARK SMILES IDX 79 44 30 45 82 46 76 47 75 48 31 50 63 51 43 52 62 53 44 54
REMARK SMILES IDX 47 55 61 56 80 57 45 58 46 59 60 61 81 62 48 63 32 64 33 65
REMARK SMILES IDX 41 66 34 67 36 68 42 69 35 70 37 71 38 72 39 73 40 74 64 75
REMARK SMILES IDX 65 76 73 77 66 78 68 79 74 80 67 81 69 82 70 83 71 84 72 85
REMARK SMILES IDX 49 86 50 87 58 88 51 89 53 90 59 91 52 92 54 93 55 94 56 95
REMARK SMILES IDX 57 96
REMARK H PARENT 8 12 79 49 47 60
REMARK Flexibility Score: inf
ROOT
ATOM      1  C   UNL A   1      33.867  35.163  28.716  1.00  0.00     0.275 C 
ENDROOT
BRANCH   1   2
ATOM      2  O   UNL A   1      33.859  33.736  28.918  1.00  0.00    -0.458 OA
BRANCH   2   3
ATOM      3  C   UNL A   1      33.274  32.969  27.962  1.00  0.00     0.340 C 
ATOM      4  O   UNL A   1      32.273  33.259  27.336  1.00  0.00    -0.246 OA
BRANCH   3   5
ATOM      5  C   UNL A   1      34.066  31.727  27.710  1.00  0.00     0.083 A 
ATOM      6  C   UNL A   1      33.558  30.576  27.073  1.00  0.00     0.053 A 
ATOM      7  C   UNL A   1      34.396  29.447  26.987  1.00  0.00     0.027 A 
ATOM      8  C   UNL A   1      35.674  29.434  27.549  1.00  0.00     0.002 A 
ATOM      9  C   UNL A   1      35.388  31.731  28.199  1.00  0.00     0.018 A 
ATOM     10  C   UNL A   1      36.173  30.579  28.152  1.00  0.00     0.001 A 
BRANCH   6  11
ATOM     11  N   UNL A   1      32.229  30.511  26.594  1.00  0.00    -0.355 N 
ATOM     12  H   UNL A   1      31.573  31.028  27.113  1.00  0.00     0.167 HD
BRANCH  11  13
ATOM     13  C   UNL A   1      31.700  29.818  25.487  1.00  0.00     0.039 A 
ATOM     14  C   UNL A   1      30.021  29.745  23.659  1.00  0.00     0.002 A 
ATOM     15  C   UNL A   1      30.598  30.365  24.792  1.00  0.00     0.034 A 
ATOM     16  C   UNL A   1      30.658  28.579  23.224  1.00  0.00     0.127 A 
ATOM     17  C   UNL A   1      31.747  28.038  23.885  1.00  0.00     0.006 A 
ATOM     18  O   UNL A   1      30.289  27.842  22.129  1.00  0.00    -0.492 OA
ATOM     19  C   UNL A   1      32.254  28.627  25.027  1.00  0.00     0.034 A 
ATOM     20  C   UNL A   1      32.254  26.821  23.195  1.00  0.00     0.028 C 
ATOM     21  C   UNL A   1      31.249  26.760  22.030  1.00  0.00     0.240 C 
ATOM     22  C   UNL A   1      33.690  27.033  22.701  1.00  0.00     0.020 C 
ATOM     23  C   UNL A   1      32.178  25.577  24.085  1.00  0.00     0.020 C 
BRANCH  14  24
ATOM     24  C   UNL A   1      28.761  30.297  22.976  1.00  0.00    -0.009 C 
ATOM     25  C   UNL A   1      28.228  31.541  23.718  1.00  0.00     0.016 C 
ATOM     26  C   UNL A   1      27.589  29.285  22.917  1.00  0.00     0.016 C 
ATOM     27  C   UNL A   1      29.096  30.670  21.514  1.00  0.00     0.016 C 
ENDBRANCH  14  24
ENDBRANCH  11  13
ENDBRANCH   6  11
ENDBRANCH   3   5
ENDBRANCH   2   3
ENDBRANCH   1   2
BRANCH   1  28
ATOM     28  C   UNL A   1      32.930  35.864  29.703  1.00  0.00     0.275 C 
BRANCH  28  29
ATOM     29  O   UNL A   1      32.622  34.996  30.807  1.00  0.00    -0.458 OA
BRANCH  29  30
ATOM     30  C   UNL A   1      32.938  35.480  32.032  1.00  0.00     0.338 C 
ATOM     31  O   UNL A   1      32.271  36.229  32.726  1.00  0.00    -0.246 OA
BRANCH  30  32
ATOM     32  C   UNL A   1      34.155  34.798  32.502  1.00  0.00     0.060 A 
ATOM     33  C   UNL A   1      34.111  33.619  33.245  1.00  0.00     0.016 A 
ATOM     34  C   UNL A   1      35.378  35.374  32.160  1.00  0.00     0.016 A 
ATOM     35  C   UNL A   1      35.314  33.036  33.666  1.00  0.00     0.010 A 
ATOM     36  C   UNL A   1      36.573  34.803  32.591  1.00  0.00     0.010 A 
ATOM     37  C   UNL A   1      36.554  33.629  33.350  1.00  0.00    -0.014 A 
BRANCH  37  38
ATOM     38  C   UNL A   1      37.828  32.962  33.715  1.00  0.00     0.031 A 
ATOM     39  C   UNL A   1      38.634  33.392  34.909  1.00  0.00     0.074 A 
ATOM     40  C   UNL A   1      38.296  31.991  32.908  1.00  0.00     0.049 A 
ATOM     41  N   UNL A   1      39.706  32.836  35.412  1.00  0.00    -0.248 NA
ATOM     42  C   UNL A   1      38.203  34.609  35.617  1.00  0.00     0.031 C 
ATOM     43  C   UNL A   1      37.676  31.578  31.647  1.00  0.00     0.029 A 
ATOM     44  N   UNL A   1      39.397  31.181  33.021  1.00  0.00    -0.354 N 
ATOM     45  C   UNL A   1      40.086  33.632  36.485  1.00  0.00     0.074 A 
ATOM     46  C   UNL A   1      39.147  34.733  36.543  1.00  0.00     0.031 C 
ATOM     47  C   UNL A   1      38.384  30.567  31.122  1.00  0.00     0.029 A 
ATOM     48  C   UNL A   1      39.507  30.260  32.005  1.00  0.00     0.049 A 
ATOM     49  H   UNL A   1      40.046  31.251  33.758  1.00  0.00     0.167 HD
ATOM     50  C   UNL A   1      41.100  33.442  37.360  1.00  0.00     0.034 A 
ATOM     51  C   UNL A   1      40.390  29.260  31.818  1.00  0.00     0.034 A 
ATOM     52  C   UNL A   1      42.001  32.320  37.321  1.00  0.00     0.049 A 
ATOM     53  C   UNL A   1      41.453  29.013  32.850  1.00  0.00     0.074 A 
ATOM     54  C   UNL A   1      42.982  31.976  38.235  1.00  0.00     0.029 A 
ATOM     55  N   UNL A   1      42.035  31.365  36.318  1.00  0.00    -0.354 N 
ATOM     56  N   UNL A   1      41.675  29.662  33.967  1.00  0.00    -0.248 NA
ATOM     57  C   UNL A   1      42.362  27.882  32.620  1.00  0.00     0.031 C 
ATOM     58  C   UNL A   1      43.618  30.818  37.779  1.00  0.00     0.029 A 
ATOM     59  C   UNL A   1      43.026  30.437  36.585  1.00  0.00     0.049 A 
ATOM     60  H   UNL A   1      41.443  31.350  35.532  1.00  0.00     0.167 HD
ATOM     61  C   UNL A   1      42.737  29.010  34.581  1.00  0.00     0.074 A 
ATOM     62  C   UNL A   1      43.105  27.905  33.721  1.00  0.00     0.031 C 
ATOM     63  C   UNL A   1      43.356  29.315  35.746  1.00  0.00     0.034 A 
BRANCH  50  64
ATOM     64  C   UNL A   1      41.249  34.405  38.507  1.00  0.00     0.023 A 
ATOM     65  C   UNL A   1      42.155  35.476  38.377  1.00  0.00     0.012 A 
ATOM     66  C   UNL A   1      40.410  34.338  39.638  1.00  0.00     0.148 A 
ATOM     67  C   UNL A   1      42.231  36.464  39.358  1.00  0.00     0.002 A 
ATOM     68  C   UNL A   1      40.472  35.343  40.597  1.00  0.00     0.091 A 
ATOM     69  F   UNL A   1      39.558  33.308  39.740  1.00  0.00    -0.205 F 
ATOM     70  C   UNL A   1      41.384  36.403  40.461  1.00  0.00     0.022 A 
BRANCH  68  71
ATOM     71  S   UNL A   1      39.387  35.397  42.030  1.00  0.00     0.127 S 
ATOM     72  O   UNL A   1      40.003  34.399  42.904  1.00  0.00    -0.237 OA
ATOM     73  O   UNL A   1      39.543  36.780  42.479  1.00  0.00    -0.237 OA
ATOM     74  O   UNL A   1      38.058  35.056  41.544  1.00  0.00    -0.744 OA
ENDBRANCH  68  71
ENDBRANCH  50  64
BRANCH  51  75
ATOM     75  C   UNL A   1      40.210  28.352  30.655  1.00  0.00     0.023 A 
ATOM     76  C   UNL A   1      39.170  27.404  30.686  1.00  0.00     0.012 A 
ATOM     77  C   UNL A   1      40.990  28.489  29.492  1.00  0.00     0.148 A 
ATOM     78  C   UNL A   1      38.909  26.603  29.574  1.00  0.00     0.002 A 
ATOM     79  C   UNL A   1      40.700  27.715  28.374  1.00  0.00     0.091 A 
ATOM     80  F   UNL A   1      41.971  29.402  29.492  1.00  0.00    -0.205 F 
ATOM     81  C   UNL A   1      39.666  26.766  28.416  1.00  0.00     0.022 A 
BRANCH  79  82
ATOM     82  S   UNL A   1      41.545  27.924  26.803  1.00  0.00     0.127 S 
ATOM     83  O   UNL A   1      42.946  27.802  27.200  1.00  0.00    -0.237 OA
ATOM     84  O   UNL A   1      41.023  26.796  26.031  1.00  0.00    -0.237 OA
ATOM     85  O   UNL A   1      41.146  29.234  26.309  1.00  0.00    -0.744 OA
ENDBRANCH  79  82
ENDBRANCH  51  75
BRANCH  63  86
ATOM     86  C   UNL A   1      44.510  28.458  36.187  1.00  0.00     0.023 A 
ATOM     87  C   UNL A   1      45.821  28.847  35.849  1.00  0.00     0.012 A 
ATOM     88  C   UNL A   1      44.307  27.371  37.060  1.00  0.00     0.148 A 
ATOM     89  C   UNL A   1      46.916  28.167  36.378  1.00  0.00     0.002 A 
ATOM     90  C   UNL A   1      45.405  26.719  37.607  1.00  0.00     0.091 A 
ATOM     91  F   UNL A   1      43.048  27.022  37.360  1.00  0.00    -0.205 F 
ATOM     92  C   UNL A   1      46.710  27.113  37.266  1.00  0.00     0.022 A 
BRANCH  90  93
ATOM     93  S   UNL A   1      45.248  25.400  38.818  1.00  0.00     0.127 S 
ATOM     94  O   UNL A   1      46.648  25.092  39.108  1.00  0.00    -0.237 OA
ATOM     95  O   UNL A   1      44.530  26.065  39.906  1.00  0.00    -0.237 OA
ATOM     96  O   UNL A   1      44.507  24.332  38.160  1.00  0.00    -0.744 OA
ENDBRANCH  90  93
ENDBRANCH  63  86
ENDBRANCH  37  38
ENDBRANCH  30  32
ENDBRANCH  29  30
ENDBRANCH  28  29
ENDBRANCH   1  28
TORSDOF 17
ENDMDL
