MODEL 1
REMARK VINA RESULT:     -12.2      0.000      0.000
REMARK SMILES Cc1nc2cc(C(=O)OCCOC(=O)c3ccc(-c4c5nc(c(-c6cccc(S(=O)(=O)[O-])c6F)c6ccc([nH]6)c(-c6cccc(S(=O)(=O)[O-])c6F)c6nc(c(-c7cccc(S(=O)(=O)[O-])c7F)c7ccc4[nH]7)C=C6)C=C5)cc3)ccc2n1CCC[NH+]1CCOCC1
REMARK SMILES IDX 10 1 9 2 7 3 8 4 6 5 1 6 2 7 3 8 81 9 4 10 80 11 5 12 79 13
REMARK SMILES IDX 78 14 82 15 83 16 84 17 85 18 86 19 90 20 87 22 89 23 88 24
REMARK SMILES IDX 11 25 12 26 13 27 14 28 15 29 16 30 77 31 17 32 76 33 18 34
REMARK SMILES IDX 19 35 20 36 70 37 21 38 75 39 69 40 71 41 22 42 74 43 68 44
REMARK SMILES IDX 67 45 23 47 55 48 35 49 54 50 36 51 39 52 53 53 72 54 37 55
REMARK SMILES IDX 38 56 52 58 73 59 40 60 24 61 25 62 33 63 26 64 28 65 34 66
REMARK SMILES IDX 27 67 29 68 30 69 31 70 32 71 56 72 57 73 65 74 58 75 60 76
REMARK SMILES IDX 66 77 59 78 61 79 62 80 63 81 64 82 41 83 42 84 50 85 43 86
REMARK SMILES IDX 45 87 51 88 44 89 46 90 47 91 48 92 49 93
REMARK H PARENT 85 21 71 46 39 57
REMARK Flexibility Score: inf
ROOT
ATOM      1  C   UNL A   1      33.970  20.494  25.374  1.00  0.00     0.275 C 
ENDROOT
BRANCH   1   2
ATOM      2  O   UNL A   1      32.979  21.531  25.584  1.00  0.00    -0.458 OA
BRANCH   2   3
ATOM      3  C   UNL A   1      33.149  22.285  26.702  1.00  0.00     0.338 C 
ATOM      4  O   UNL A   1      33.317  21.864  27.835  1.00  0.00    -0.246 OA
BRANCH   3   5
ATOM      5  C   UNL A   1      33.326  23.711  26.340  1.00  0.00     0.062 A 
ATOM      6  C   UNL A   1      31.474  29.209  27.205  1.00  0.00     0.088 C 
ATOM      7  C   UNL A   1      31.910  27.963  26.538  1.00  0.00     0.106 A 
ATOM      8  N   UNL A   1      31.341  26.804  26.760  1.00  0.00    -0.233 NA
ATOM      9  N   UNL A   1      33.015  27.802  25.722  1.00  0.00    -0.328 N 
ATOM     10  C   UNL A   1      32.257  25.876  26.378  1.00  0.00     0.090 A 
ATOM     11  C   UNL A   1      33.375  26.462  25.802  1.00  0.00     0.068 A 
ATOM     12  C   UNL A   1      32.222  24.503  26.594  1.00  0.00     0.046 A 
ATOM     13  C   UNL A   1      34.497  25.678  25.464  1.00  0.00     0.029 A 
ATOM     14  C   UNL A   1      34.464  24.291  25.784  1.00  0.00     0.018 A 
BRANCH   9  15
ATOM     15  C   UNL A   1      33.684  28.859  24.977  1.00  0.00     0.130 C 
BRANCH  15  16
ATOM     16  C   UNL A   1      33.366  28.860  23.475  1.00  0.00     0.083 C 
BRANCH  16  17
ATOM     17  C   UNL A   1      33.621  27.557  22.698  1.00  0.00     0.264 C 
BRANCH  17  18
ATOM     18  N   UNL A   1      32.537  27.233  21.739  1.00  0.00    -0.331 N 
ATOM     19  C   UNL A   1      31.186  27.255  22.353  1.00  0.00     0.291 C 
ATOM     20  C   UNL A   1      32.735  25.857  21.202  1.00  0.00     0.291 C 
ATOM     21  H   UNL A   1      32.584  27.949  21.015  1.00  0.00     0.348 HD
ATOM     22  C   UNL A   1      30.890  26.106  23.336  1.00  0.00     0.221 C 
ATOM     23  C   UNL A   1      32.402  24.730  22.202  1.00  0.00     0.221 C 
ATOM     24  O   UNL A   1      31.049  24.849  22.664  1.00  0.00    -0.370 OA
ENDBRANCH  17  18
ENDBRANCH  16  17
ENDBRANCH  15  16
ENDBRANCH   9  15
ENDBRANCH   3   5
ENDBRANCH   2   3
ENDBRANCH   1   2
BRANCH   1  25
ATOM     25  C   UNL A   1      35.207  21.070  24.675  1.00  0.00     0.275 C 
BRANCH  25  26
ATOM     26  O   UNL A   1      36.228  21.260  25.664  1.00  0.00    -0.458 OA
BRANCH  26  27
ATOM     27  C   UNL A   1      37.366  20.529  25.507  1.00  0.00     0.338 C 
ATOM     28  O   UNL A   1      37.464  19.413  25.077  1.00  0.00    -0.246 OA
BRANCH  27  29
ATOM     29  C   UNL A   1      38.473  21.505  25.663  1.00  0.00     0.060 A 
ATOM     30  C   UNL A   1      39.780  21.111  25.986  1.00  0.00     0.016 A 
ATOM     31  C   UNL A   1      38.102  22.839  25.732  1.00  0.00     0.016 A 
ATOM     32  C   UNL A   1      40.658  22.020  26.581  1.00  0.00     0.010 A 
ATOM     33  C   UNL A   1      39.002  23.740  26.278  1.00  0.00     0.010 A 
ATOM     34  C   UNL A   1      40.231  23.322  26.822  1.00  0.00    -0.014 A 
BRANCH  34  35
ATOM     35  C   UNL A   1      41.065  24.286  27.565  1.00  0.00     0.031 A 
ATOM     36  C   UNL A   1      40.369  25.566  27.821  1.00  0.00     0.074 A 
ATOM     37  C   UNL A   1      42.272  24.105  28.158  1.00  0.00     0.049 A 
ATOM     38  N   UNL A   1      40.477  26.646  27.116  1.00  0.00    -0.248 NA
ATOM     39  C   UNL A   1      39.339  25.618  28.864  1.00  0.00     0.031 C 
ATOM     40  C   UNL A   1      43.080  22.891  28.300  1.00  0.00     0.029 A 
ATOM     41  N   UNL A   1      42.989  25.008  28.905  1.00  0.00    -0.354 N 
ATOM     42  C   UNL A   1      39.674  27.565  27.769  1.00  0.00     0.074 A 
ATOM     43  C   UNL A   1      38.809  26.821  28.650  1.00  0.00     0.031 C 
ATOM     44  C   UNL A   1      43.977  23.050  29.306  1.00  0.00     0.029 A 
ATOM     45  C   UNL A   1      43.968  24.439  29.723  1.00  0.00     0.049 A 
ATOM     46  H   UNL A   1      42.826  25.978  28.868  1.00  0.00     0.167 HD
ATOM     47  C   UNL A   1      39.958  28.893  27.800  1.00  0.00     0.034 A 
ATOM     48  C   UNL A   1      44.713  25.080  30.659  1.00  0.00     0.034 A 
ATOM     49  C   UNL A   1      41.072  29.253  26.974  1.00  0.00     0.049 A 
ATOM     50  C   UNL A   1      44.746  26.502  30.240  1.00  0.00     0.074 A 
ATOM     51  C   UNL A   1      41.384  29.172  25.634  1.00  0.00     0.029 A 
ATOM     52  N   UNL A   1      42.254  29.450  27.644  1.00  0.00    -0.354 N 
ATOM     53  N   UNL A   1      45.364  26.939  29.178  1.00  0.00    -0.248 NA
ATOM     54  C   UNL A   1      43.867  27.460  30.894  1.00  0.00     0.031 C 
ATOM     55  C   UNL A   1      42.795  28.965  25.583  1.00  0.00     0.029 A 
ATOM     56  C   UNL A   1      43.277  28.938  26.893  1.00  0.00     0.049 A 
ATOM     57  H   UNL A   1      42.350  29.887  28.522  1.00  0.00     0.167 HD
ATOM     58  C   UNL A   1      44.619  28.037  28.783  1.00  0.00     0.074 A 
ATOM     59  C   UNL A   1      43.847  28.412  29.958  1.00  0.00     0.031 C 
ATOM     60  C   UNL A   1      44.469  28.340  27.462  1.00  0.00     0.034 A 
BRANCH  47  61
ATOM     61  C   UNL A   1      39.464  29.784  28.895  1.00  0.00     0.023 A 
ATOM     62  C   UNL A   1      40.135  29.774  30.127  1.00  0.00     0.012 A 
ATOM     63  C   UNL A   1      38.257  30.510  28.803  1.00  0.00     0.148 A 
ATOM     64  C   UNL A   1      39.650  30.512  31.210  1.00  0.00     0.002 A 
ATOM     65  C   UNL A   1      37.841  31.327  29.840  1.00  0.00     0.091 A 
ATOM     66  F   UNL A   1      37.454  30.327  27.745  1.00  0.00    -0.205 F 
ATOM     67  C   UNL A   1      38.525  31.320  31.056  1.00  0.00     0.022 A 
BRANCH  65  68
ATOM     68  S   UNL A   1      36.474  32.469  29.613  1.00  0.00     0.127 S 
ATOM     69  O   UNL A   1      36.905  33.214  28.436  1.00  0.00    -0.237 OA
ATOM     70  O   UNL A   1      35.350  31.557  29.401  1.00  0.00    -0.237 OA
ATOM     71  O   UNL A   1      36.400  33.218  30.865  1.00  0.00    -0.744 OA
ENDBRANCH  65  68
ENDBRANCH  47  61
BRANCH  48  72
ATOM     72  C   UNL A   1      45.392  24.663  31.919  1.00  0.00     0.023 A 
ATOM     73  C   UNL A   1      46.547  25.374  32.328  1.00  0.00     0.012 A 
ATOM     74  C   UNL A   1      44.770  23.826  32.870  1.00  0.00     0.148 A 
ATOM     75  C   UNL A   1      47.012  25.330  33.647  1.00  0.00     0.002 A 
ATOM     76  C   UNL A   1      45.247  23.775  34.185  1.00  0.00     0.091 A 
ATOM     77  F   UNL A   1      43.661  23.161  32.523  1.00  0.00    -0.205 F 
ATOM     78  C   UNL A   1      46.353  24.542  34.580  1.00  0.00     0.022 A 
BRANCH  76  79
ATOM     79  S   UNL A   1      44.444  22.796  35.464  1.00  0.00     0.127 S 
ATOM     80  O   UNL A   1      45.257  23.088  36.647  1.00  0.00    -0.237 OA
ATOM     81  O   UNL A   1      43.103  23.376  35.492  1.00  0.00    -0.237 OA
ATOM     82  O   UNL A   1      44.530  21.414  35.011  1.00  0.00    -0.744 OA
ENDBRANCH  76  79
ENDBRANCH  48  72
BRANCH  60  83
ATOM     83  C   UNL A   1      45.463  27.768  26.486  1.00  0.00     0.023 A 
ATOM     84  C   UNL A   1      46.649  28.441  26.134  1.00  0.00     0.012 A 
ATOM     85  C   UNL A   1      45.271  26.445  26.050  1.00  0.00     0.148 A 
ATOM     86  C   UNL A   1      47.622  27.808  25.355  1.00  0.00     0.002 A 
ATOM     87  C   UNL A   1      46.258  25.805  25.312  1.00  0.00     0.091 A 
ATOM     88  F   UNL A   1      44.135  25.822  26.402  1.00  0.00    -0.205 F 
ATOM     89  C   UNL A   1      47.433  26.486  24.956  1.00  0.00     0.022 A 
BRANCH  87  90
ATOM     90  S   UNL A   1      46.137  24.071  24.864  1.00  0.00     0.127 S 
ATOM     91  O   UNL A   1      46.440  23.404  26.128  1.00  0.00    -0.237 OA
ATOM     92  O   UNL A   1      44.742  23.959  24.433  1.00  0.00    -0.237 OA
ATOM     93  O   UNL A   1      47.111  23.856  23.800  1.00  0.00    -0.744 OA
ENDBRANCH  87  90
ENDBRANCH  60  83
ENDBRANCH  34  35
ENDBRANCH  27  29
ENDBRANCH  26  27
ENDBRANCH  25  26
ENDBRANCH   1  25
TORSDOF 18
ENDMDL
MODEL 2
REMARK VINA RESULT:     -11.8      1.553      1.971
REMARK SMILES Cc1nc2cc(C(=O)OCCOC(=O)c3ccc(-c4c5nc(c(-c6cccc(S(=O)(=O)[O-])c6F)c6ccc([nH]6)c(-c6cccc(S(=O)(=O)[O-])c6F)c6nc(c(-c7cccc(S(=O)(=O)[O-])c7F)c7ccc4[nH]7)C=C6)C=C5)cc3)ccc2n1CCC[NH+]1CCOCC1
REMARK SMILES IDX 10 1 9 2 7 3 8 4 6 5 1 6 2 7 3 8 81 9 4 10 80 11 5 12 79 13
REMARK SMILES IDX 78 14 82 15 83 16 84 17 85 18 86 19 90 20 87 22 89 23 88 24
REMARK SMILES IDX 11 25 12 26 13 27 14 28 15 29 16 30 77 31 17 32 76 33 18 34
REMARK SMILES IDX 19 35 20 36 70 37 21 38 75 39 69 40 71 41 22 42 74 43 68 44
REMARK SMILES IDX 67 45 23 47 55 48 35 49 54 50 36 51 39 52 53 53 72 54 37 55
REMARK SMILES IDX 38 56 52 58 73 59 40 60 24 61 25 62 33 63 26 64 28 65 34 66
REMARK SMILES IDX 27 67 29 68 30 69 31 70 32 71 56 72 57 73 65 74 58 75 60 76
REMARK SMILES IDX 66 77 59 78 61 79 62 80 63 81 64 82 41 83 42 84 50 85 43 86
REMARK SMILES IDX 45 87 51 88 44 89 46 90 47 91 48 92 49 93
REMARK H PARENT 85 21 71 46 39 57
REMARK Flexibility Score: inf
ROOT
ATOM      1  C   UNL A   1      34.284  20.534  24.866  1.00  0.00     0.275 C 
ENDROOT
BRANCH   1   2
ATOM      2  O   UNL A   1      32.999  21.194  24.989  1.00  0.00    -0.458 OA
BRANCH   2   3
ATOM      3  C   UNL A   1      32.545  21.804  23.862  1.00  0.00     0.338 C 
ATOM      4  O   UNL A   1      32.000  21.256  22.917  1.00  0.00    -0.246 OA
BRANCH   3   5
ATOM      5  C   UNL A   1      32.596  23.277  24.017  1.00  0.00     0.062 A 
ATOM      6  C   UNL A   1      31.712  27.816  27.626  1.00  0.00     0.088 C 
ATOM      7  C   UNL A   1      31.694  26.953  26.425  1.00  0.00     0.106 A 
ATOM      8  N   UNL A   1      31.247  25.720  26.444  1.00  0.00    -0.233 NA
ATOM      9  N   UNL A   1      32.242  27.241  25.188  1.00  0.00    -0.328 N 
ATOM     10  C   UNL A   1      31.804  25.122  25.359  1.00  0.00     0.090 A 
ATOM     11  C   UNL A   1      32.521  26.021  24.584  1.00  0.00     0.068 A 
ATOM     12  C   UNL A   1      31.807  23.768  25.039  1.00  0.00     0.046 A 
ATOM     13  C   UNL A   1      33.286  25.568  23.490  1.00  0.00     0.029 A 
ATOM     14  C   UNL A   1      33.341  24.167  23.247  1.00  0.00     0.018 A 
BRANCH   9  15
ATOM     15  C   UNL A   1      32.512  28.574  24.667  1.00  0.00     0.130 C 
BRANCH  15  16
ATOM     16  C   UNL A   1      31.332  29.546  24.801  1.00  0.00     0.083 C 
BRANCH  16  17
ATOM     17  C   UNL A   1      30.197  29.427  23.768  1.00  0.00     0.264 C 
BRANCH  17  18
ATOM     18  N   UNL A   1      29.974  30.680  23.006  1.00  0.00    -0.331 N 
ATOM     19  C   UNL A   1      29.049  31.621  23.684  1.00  0.00     0.291 C 
ATOM     20  C   UNL A   1      29.362  30.363  21.685  1.00  0.00     0.291 C 
ATOM     21  H   UNL A   1      30.890  31.119  22.921  1.00  0.00     0.348 HD
ATOM     22  C   UNL A   1      27.572  31.183  23.721  1.00  0.00     0.221 C 
ATOM     23  C   UNL A   1      27.876  29.955  21.754  1.00  0.00     0.221 C 
ATOM     24  O   UNL A   1      27.099  30.985  22.382  1.00  0.00    -0.370 OA
ENDBRANCH  17  18
ENDBRANCH  16  17
ENDBRANCH  15  16
ENDBRANCH   9  15
ENDBRANCH   3   5
ENDBRANCH   2   3
ENDBRANCH   1   2
BRANCH   1  25
ATOM     25  C   UNL A   1      35.305  21.170  25.817  1.00  0.00     0.275 C 
BRANCH  25  26
ATOM     26  O   UNL A   1      36.528  21.358  25.093  1.00  0.00    -0.458 OA
BRANCH  26  27
ATOM     27  C   UNL A   1      37.570  20.555  25.444  1.00  0.00     0.338 C 
ATOM     28  O   UNL A   1      37.637  19.361  25.347  1.00  0.00    -0.246 OA
BRANCH  27  29
ATOM     29  C   UNL A   1      38.712  21.479  25.655  1.00  0.00     0.060 A 
ATOM     30  C   UNL A   1      39.940  21.045  26.179  1.00  0.00     0.016 A 
ATOM     31  C   UNL A   1      38.426  22.831  25.558  1.00  0.00     0.016 A 
ATOM     32  C   UNL A   1      40.796  21.957  26.800  1.00  0.00     0.010 A 
ATOM     33  C   UNL A   1      39.310  23.730  26.134  1.00  0.00     0.010 A 
ATOM     34  C   UNL A   1      40.431  23.298  26.868  1.00  0.00    -0.014 A 
BRANCH  34  35
ATOM     35  C   UNL A   1      41.229  24.281  27.625  1.00  0.00     0.031 A 
ATOM     36  C   UNL A   1      40.502  25.546  27.864  1.00  0.00     0.074 A 
ATOM     37  C   UNL A   1      42.428  24.127  28.242  1.00  0.00     0.049 A 
ATOM     38  N   UNL A   1      40.600  26.627  27.159  1.00  0.00    -0.248 NA
ATOM     39  C   UNL A   1      39.450  25.578  28.887  1.00  0.00     0.031 C 
ATOM     40  C   UNL A   1      43.259  22.931  28.403  1.00  0.00     0.029 A 
ATOM     41  N   UNL A   1      43.111  25.047  29.001  1.00  0.00    -0.354 N 
ATOM     42  C   UNL A   1      39.764  27.530  27.793  1.00  0.00     0.074 A 
ATOM     43  C   UNL A   1      38.899  26.769  28.659  1.00  0.00     0.031 C 
ATOM     44  C   UNL A   1      44.132  23.111  29.426  1.00  0.00     0.029 A 
ATOM     45  C   UNL A   1      44.085  24.500  29.839  1.00  0.00     0.049 A 
ATOM     46  H   UNL A   1      42.927  26.013  28.958  1.00  0.00     0.167 HD
ATOM     47  C   UNL A   1      40.020  28.863  27.827  1.00  0.00     0.034 A 
ATOM     48  C   UNL A   1      44.798  25.159  30.788  1.00  0.00     0.034 A 
ATOM     49  C   UNL A   1      41.142  29.246  27.023  1.00  0.00     0.049 A 
ATOM     50  C   UNL A   1      44.809  26.580  30.367  1.00  0.00     0.074 A 
ATOM     51  C   UNL A   1      41.482  29.169  25.689  1.00  0.00     0.029 A 
ATOM     52  N   UNL A   1      42.306  29.470  27.716  1.00  0.00    -0.354 N 
ATOM     53  N   UNL A   1      45.438  27.029  29.316  1.00  0.00    -0.248 NA
ATOM     54  C   UNL A   1      43.897  27.521  31.000  1.00  0.00     0.031 C 
ATOM     55  C   UNL A   1      42.897  28.992  25.666  1.00  0.00     0.029 A 
ATOM     56  C   UNL A   1      43.354  28.979  26.985  1.00  0.00     0.049 A 
ATOM     57  H   UNL A   1      42.375  29.910  28.594  1.00  0.00     0.167 HD
ATOM     58  C   UNL A   1      44.678  28.110  28.903  1.00  0.00     0.074 A 
ATOM     59  C   UNL A   1      43.874  28.471  30.063  1.00  0.00     0.031 C 
ATOM     60  C   UNL A   1      44.547  28.407  27.579  1.00  0.00     0.034 A 
BRANCH  47  61
ATOM     61  C   UNL A   1      39.486  29.746  28.910  1.00  0.00     0.023 A 
ATOM     62  C   UNL A   1      40.117  29.734  30.163  1.00  0.00     0.012 A 
ATOM     63  C   UNL A   1      38.277  30.465  28.784  1.00  0.00     0.148 A 
ATOM     64  C   UNL A   1      39.593  30.464  31.234  1.00  0.00     0.002 A 
ATOM     65  C   UNL A   1      37.823  31.274  29.810  1.00  0.00     0.091 A 
ATOM     66  F   UNL A   1      37.509  30.281  27.700  1.00  0.00    -0.205 F 
ATOM     67  C   UNL A   1      38.468  31.265  31.048  1.00  0.00     0.022 A 
BRANCH  65  68
ATOM     68  S   UNL A   1      36.456  32.408  29.546  1.00  0.00     0.127 S 
ATOM     69  O   UNL A   1      36.391  33.095  30.831  1.00  0.00    -0.237 OA
ATOM     70  O   UNL A   1      36.944  33.214  28.427  1.00  0.00    -0.237 OA
ATOM     71  O   UNL A   1      35.321  31.553  29.209  1.00  0.00    -0.744 OA
ENDBRANCH  65  68
ENDBRANCH  47  61
BRANCH  48  72
ATOM     72  C   UNL A   1      45.461  24.759  32.062  1.00  0.00     0.023 A 
ATOM     73  C   UNL A   1      46.609  25.478  32.477  1.00  0.00     0.012 A 
ATOM     74  C   UNL A   1      44.828  23.934  33.015  1.00  0.00     0.148 A 
ATOM     75  C   UNL A   1      47.057  25.451  33.803  1.00  0.00     0.002 A 
ATOM     76  C   UNL A   1      45.288  23.900  34.337  1.00  0.00     0.091 A 
ATOM     77  F   UNL A   1      43.724  23.262  32.662  1.00  0.00    -0.205 F 
ATOM     78  C   UNL A   1      46.387  24.674  34.737  1.00  0.00     0.022 A 
BRANCH  76  79
ATOM     79  S   UNL A   1      44.469  22.936  35.618  1.00  0.00     0.127 S 
ATOM     80  O   UNL A   1      45.167  23.363  36.833  1.00  0.00    -0.237 OA
ATOM     81  O   UNL A   1      43.089  23.405  35.515  1.00  0.00    -0.237 OA
ATOM     82  O   UNL A   1      44.694  21.541  35.262  1.00  0.00    -0.744 OA
ENDBRANCH  76  79
ENDBRANCH  48  72
BRANCH  60  83
ATOM     83  C   UNL A   1      45.572  27.854  26.624  1.00  0.00     0.023 A 
ATOM     84  C   UNL A   1      46.793  28.508  26.365  1.00  0.00     0.012 A 
ATOM     85  C   UNL A   1      45.365  26.561  26.112  1.00  0.00     0.148 A 
ATOM     86  C   UNL A   1      47.785  27.886  25.602  1.00  0.00     0.002 A 
ATOM     87  C   UNL A   1      46.370  25.930  25.391  1.00  0.00     0.091 A 
ATOM     88  F   UNL A   1      44.197  25.957  26.376  1.00  0.00    -0.205 F 
ATOM     89  C   UNL A   1      47.580  26.591  25.127  1.00  0.00     0.022 A 
BRANCH  87  90
ATOM     90  S   UNL A   1      46.222  24.225  24.848  1.00  0.00     0.127 S 
ATOM     91  O   UNL A   1      47.185  24.166  23.751  1.00  0.00    -0.237 OA
ATOM     92  O   UNL A   1      46.615  23.483  26.047  1.00  0.00    -0.237 OA
ATOM     93  O   UNL A   1      44.829  24.040  24.460  1.00  0.00    -0.744 OA
ENDBRANCH  87  90
ENDBRANCH  60  83
ENDBRANCH  34  35
ENDBRANCH  27  29
ENDBRANCH  26  27
ENDBRANCH  25  26
ENDBRANCH   1  25
TORSDOF 18
ENDMDL
MODEL 3
REMARK VINA RESULT:     -11.4      3.316      7.697
REMARK SMILES Cc1nc2cc(C(=O)OCCOC(=O)c3ccc(-c4c5nc(c(-c6cccc(S(=O)(=O)[O-])c6F)c6ccc([nH]6)c(-c6cccc(S(=O)(=O)[O-])c6F)c6nc(c(-c7cccc(S(=O)(=O)[O-])c7F)c7ccc4[nH]7)C=C6)C=C5)cc3)ccc2n1CCC[NH+]1CCOCC1
REMARK SMILES IDX 10 1 9 2 7 3 8 4 6 5 1 6 2 7 3 8 81 9 4 10 80 11 5 12 79 13
REMARK SMILES IDX 78 14 82 15 83 16 84 17 85 18 86 19 90 20 87 22 89 23 88 24
REMARK SMILES IDX 11 25 12 26 13 27 14 28 15 29 16 30 77 31 17 32 76 33 18 34
REMARK SMILES IDX 19 35 20 36 70 37 21 38 75 39 69 40 71 41 22 42 74 43 68 44
REMARK SMILES IDX 67 45 23 47 55 48 35 49 54 50 36 51 39 52 53 53 72 54 37 55
REMARK SMILES IDX 38 56 52 58 73 59 40 60 24 61 25 62 33 63 26 64 28 65 34 66
REMARK SMILES IDX 27 67 29 68 30 69 31 70 32 71 56 72 57 73 65 74 58 75 60 76
REMARK SMILES IDX 66 77 59 78 61 79 62 80 63 81 64 82 41 83 42 84 50 85 43 86
REMARK SMILES IDX 45 87 51 88 44 89 46 90 47 91 48 92 49 93
REMARK H PARENT 85 21 71 46 39 57
REMARK Flexibility Score: inf
ROOT
ATOM      1  C   UNL A   1      33.660  29.975  26.821  1.00  0.00     0.275 C 
ENDROOT
BRANCH   1   2
ATOM      2  O   UNL A   1      32.475  29.139  26.824  1.00  0.00    -0.458 OA
BRANCH   2   3
ATOM      3  C   UNL A   1      32.151  28.578  25.629  1.00  0.00     0.338 C 
ATOM      4  O   UNL A   1      31.980  29.173  24.578  1.00  0.00    -0.246 OA
BRANCH   3   5
ATOM      5  C   UNL A   1      32.247  27.101  25.711  1.00  0.00     0.062 A 
ATOM      6  C   UNL A   1      35.838  22.465  25.840  1.00  0.00     0.088 C 
ATOM      7  C   UNL A   1      34.714  23.361  25.492  1.00  0.00     0.106 A 
ATOM      8  N   UNL A   1      34.890  24.592  25.079  1.00  0.00    -0.233 NA
ATOM      9  N   UNL A   1      33.365  23.106  25.668  1.00  0.00    -0.328 N 
ATOM     10  C   UNL A   1      33.709  25.220  25.313  1.00  0.00     0.090 A 
ATOM     11  C   UNL A   1      32.739  24.342  25.777  1.00  0.00     0.068 A 
ATOM     12  C   UNL A   1      33.436  26.582  25.236  1.00  0.00     0.046 A 
ATOM     13  C   UNL A   1      31.487  24.825  26.207  1.00  0.00     0.029 A 
ATOM     14  C   UNL A   1      31.275  26.233  26.201  1.00  0.00     0.018 A 
BRANCH   9  15
ATOM     15  C   UNL A   1      32.755  21.789  25.771  1.00  0.00     0.130 C 
BRANCH  15  16
ATOM     16  C   UNL A   1      33.128  20.838  24.624  1.00  0.00     0.083 C 
BRANCH  16  17
ATOM     17  C   UNL A   1      33.537  19.403  25.001  1.00  0.00     0.264 C 
BRANCH  17  18
ATOM     18  N   UNL A   1      32.528  18.391  24.606  1.00  0.00    -0.331 N 
ATOM     19  C   UNL A   1      32.522  17.195  25.484  1.00  0.00     0.291 C 
ATOM     20  C   UNL A   1      32.818  17.902  23.228  1.00  0.00     0.291 C 
ATOM     21  H   UNL A   1      31.624  18.858  24.676  1.00  0.00     0.348 HD
ATOM     22  C   UNL A   1      33.747  16.271  25.348  1.00  0.00     0.221 C 
ATOM     23  C   UNL A   1      34.033  16.957  23.132  1.00  0.00     0.221 C 
ATOM     24  O   UNL A   1      33.859  15.821  23.992  1.00  0.00    -0.370 OA
ENDBRANCH  17  18
ENDBRANCH  16  17
ENDBRANCH  15  16
ENDBRANCH   9  15
ENDBRANCH   3   5
ENDBRANCH   2   3
ENDBRANCH   1   2
BRANCH   1  25
ATOM     25  C   UNL A   1      33.358  31.335  27.461  1.00  0.00     0.275 C 
BRANCH  25  26
ATOM     26  O   UNL A   1      34.305  31.549  28.516  1.00  0.00    -0.458 OA
BRANCH  26  27
ATOM     27  C   UNL A   1      35.451  32.202  28.179  1.00  0.00     0.338 C 
ATOM     28  O   UNL A   1      35.551  33.260  27.622  1.00  0.00    -0.246 OA
BRANCH  27  29
ATOM     29  C   UNL A   1      36.524  31.505  28.930  1.00  0.00     0.060 A 
ATOM     30  C   UNL A   1      37.692  32.162  29.350  1.00  0.00     0.016 A 
ATOM     31  C   UNL A   1      36.440  30.123  28.969  1.00  0.00     0.016 A 
ATOM     32  C   UNL A   1      38.851  31.427  29.611  1.00  0.00     0.010 A 
ATOM     33  C   UNL A   1      37.586  29.406  29.278  1.00  0.00     0.010 A 
ATOM     34  C   UNL A   1      38.827  30.042  29.475  1.00  0.00    -0.014 A 
BRANCH  34  35
ATOM     35  C   UNL A   1      40.049  29.229  29.607  1.00  0.00     0.031 A 
ATOM     36  C   UNL A   1      40.517  29.121  31.006  1.00  0.00     0.074 A 
ATOM     37  C   UNL A   1      40.682  28.467  28.680  1.00  0.00     0.049 A 
ATOM     38  N   UNL A   1      41.436  29.845  31.561  1.00  0.00    -0.248 NA
ATOM     39  C   UNL A   1      39.799  28.235  31.929  1.00  0.00     0.031 C 
ATOM     40  C   UNL A   1      40.313  28.166  27.294  1.00  0.00     0.029 A 
ATOM     41  N   UNL A   1      41.782  27.662  28.857  1.00  0.00    -0.354 N 
ATOM     42  C   UNL A   1      41.538  29.347  32.848  1.00  0.00     0.074 A 
ATOM     43  C   UNL A   1      40.352  28.567  33.094  1.00  0.00     0.031 C 
ATOM     44  C   UNL A   1      40.964  27.053  26.874  1.00  0.00     0.029 A 
ATOM     45  C   UNL A   1      41.961  26.695  27.865  1.00  0.00     0.049 A 
ATOM     46  H   UNL A   1      42.395  27.759  29.622  1.00  0.00     0.167 HD
ATOM     47  C   UNL A   1      42.710  29.328  33.533  1.00  0.00     0.034 A 
ATOM     48  C   UNL A   1      42.873  25.689  27.871  1.00  0.00     0.034 A 
ATOM     49  C   UNL A   1      43.775  30.003  32.853  1.00  0.00     0.049 A 
ATOM     50  C   UNL A   1      43.976  26.154  28.745  1.00  0.00     0.074 A 
ATOM     51  C   UNL A   1      44.011  31.282  32.398  1.00  0.00     0.029 A 
ATOM     52  N   UNL A   1      44.667  29.183  32.208  1.00  0.00    -0.354 N 
ATOM     53  N   UNL A   1      44.782  27.135  28.450  1.00  0.00    -0.248 NA
ATOM     54  C   UNL A   1      44.057  25.666  30.114  1.00  0.00     0.031 C 
ATOM     55  C   UNL A   1      44.803  31.128  31.222  1.00  0.00     0.029 A 
ATOM     56  C   UNL A   1      45.020  29.764  31.020  1.00  0.00     0.049 A 
ATOM     57  H   UNL A   1      44.997  28.318  32.543  1.00  0.00     0.167 HD
ATOM     58  C   UNL A   1      45.125  27.672  29.679  1.00  0.00     0.074 A 
ATOM     59  C   UNL A   1      44.810  26.631  30.646  1.00  0.00     0.031 C 
ATOM     60  C   UNL A   1      45.335  29.012  29.821  1.00  0.00     0.034 A 
BRANCH  47  61
ATOM     61  C   UNL A   1      42.970  28.347  34.632  1.00  0.00     0.023 A 
ATOM     62  C   UNL A   1      43.298  28.833  35.907  1.00  0.00     0.012 A 
ATOM     63  C   UNL A   1      43.063  26.956  34.409  1.00  0.00     0.148 A 
ATOM     64  C   UNL A   1      43.647  27.956  36.938  1.00  0.00     0.002 A 
ATOM     65  C   UNL A   1      43.299  26.084  35.458  1.00  0.00     0.091 A 
ATOM     66  F   UNL A   1      43.025  26.483  33.155  1.00  0.00    -0.205 F 
ATOM     67  C   UNL A   1      43.611  26.579  36.725  1.00  0.00     0.022 A 
BRANCH  65  68
ATOM     68  S   UNL A   1      43.127  24.311  35.231  1.00  0.00     0.127 S 
ATOM     69  O   UNL A   1      41.705  24.119  35.489  1.00  0.00    -0.237 OA
ATOM     70  O   UNL A   1      43.540  24.143  33.837  1.00  0.00    -0.237 OA
ATOM     71  O   UNL A   1      44.049  23.719  36.196  1.00  0.00    -0.744 OA
ENDBRANCH  65  68
ENDBRANCH  47  61
BRANCH  48  72
ATOM     72  C   UNL A   1      42.935  24.332  27.258  1.00  0.00     0.023 A 
ATOM     73  C   UNL A   1      41.742  23.570  27.187  1.00  0.00     0.012 A 
ATOM     74  C   UNL A   1      44.026  23.910  26.469  1.00  0.00     0.148 A 
ATOM     75  C   UNL A   1      41.607  22.492  26.306  1.00  0.00     0.002 A 
ATOM     76  C   UNL A   1      43.890  22.822  25.598  1.00  0.00     0.091 A 
ATOM     77  F   UNL A   1      45.159  24.624  26.492  1.00  0.00    -0.205 F 
ATOM     78  C   UNL A   1      42.675  22.128  25.499  1.00  0.00     0.022 A 
BRANCH  76  79
ATOM     79  S   UNL A   1      45.216  22.293  24.502  1.00  0.00     0.127 S 
ATOM     80  O   UNL A   1      44.530  21.372  23.594  1.00  0.00    -0.237 OA
ATOM     81  O   UNL A   1      45.627  23.554  23.891  1.00  0.00    -0.237 OA
ATOM     82  O   UNL A   1      46.203  21.653  25.364  1.00  0.00    -0.744 OA
ENDBRANCH  76  79
ENDBRANCH  48  72
BRANCH  60  83
ATOM     83  C   UNL A   1      45.638  29.817  28.585  1.00  0.00     0.023 A 
ATOM     84  C   UNL A   1      44.626  30.339  27.756  1.00  0.00     0.012 A 
ATOM     85  C   UNL A   1      46.973  30.195  28.357  1.00  0.00     0.148 A 
ATOM     86  C   UNL A   1      44.941  31.215  26.714  1.00  0.00     0.002 A 
ATOM     87  C   UNL A   1      47.278  31.099  27.348  1.00  0.00     0.091 A 
ATOM     88  F   UNL A   1      47.920  29.689  29.162  1.00  0.00    -0.205 F 
ATOM     89  C   UNL A   1      46.265  31.607  26.518  1.00  0.00     0.022 A 
BRANCH  87  90
ATOM     90  S   UNL A   1      48.939  31.737  27.112  1.00  0.00     0.127 S 
ATOM     91  O   UNL A   1      48.727  32.791  26.122  1.00  0.00    -0.237 OA
ATOM     92  O   UNL A   1      49.280  32.216  28.452  1.00  0.00    -0.237 OA
ATOM     93  O   UNL A   1      49.746  30.612  26.655  1.00  0.00    -0.744 OA
ENDBRANCH  87  90
ENDBRANCH  60  83
ENDBRANCH  34  35
ENDBRANCH  27  29
ENDBRANCH  26  27
ENDBRANCH  25  26
ENDBRANCH   1  25
TORSDOF 18
ENDMDL
