MODEL 1
REMARK VINA RESULT:     -13.7      0.000      0.000
REMARK SMILES O=C(OCCOC(=O)c1ccc(-c2c3nc(c(-c4cccc(S(=O)(=O)[O-])c4F)c4ccc([nH]4)c(-c4cccc(S(=O)(=O)[O-])c4F)c4nc(c(-c5cccc(S(=O)(=O)[O-])c5F)c5ccc2[nH]5)C=C4)C=C3)cc1)C1=Cc2cc(Cl)ccc2O[C@@H]1C(F)(F)F
REMARK SMILES IDX 5 1 4 2 3 3 2 4 1 5 72 6 73 7 82 8 74 9 81 10 75 11 80 12
REMARK SMILES IDX 76 13 79 14 77 15 78 16 83 17 84 18 85 19 86 20 6 21 7 22
REMARK SMILES IDX 8 23 9 24 10 25 71 26 11 27 70 28 12 29 13 30 14 31 64 32
REMARK SMILES IDX 15 33 69 34 63 35 65 36 16 37 68 38 62 39 61 40 17 42 49 43
REMARK SMILES IDX 29 44 48 45 30 46 33 47 47 48 66 49 31 50 32 51 46 53 67 54
REMARK SMILES IDX 34 55 18 56 19 57 27 58 20 59 22 60 28 61 21 62 23 63 24 64
REMARK SMILES IDX 25 65 26 66 50 67 51 68 59 69 52 70 54 71 60 72 53 73 55 74
REMARK SMILES IDX 56 75 57 76 58 77 35 78 36 79 44 80 37 81 39 82 45 83 38 84
REMARK SMILES IDX 40 85 41 86 42 87 43 88
REMARK H PARENT 65 41 33 52
REMARK Flexibility Score: inf
ROOT
ATOM      1  C   UNL A   1      37.072  20.559  24.998  1.00  0.00     0.275 C 
ENDROOT
BRANCH   1   2
ATOM      2  C   UNL A   1      35.266  21.219  25.990  1.00  0.00     0.275 C 
BRANCH   2   3
ATOM      3  O   UNL A   1      34.880  22.688  26.321  1.00  0.00    -0.459 OA
BRANCH   3   4
ATOM      4  C   UNL A   1      35.075  23.529  25.298  1.00  0.00     0.338 C 
ATOM      5  O   UNL A   1      36.095  24.021  24.892  1.00  0.00    -0.246 OA
BRANCH   4   6
ATOM      6  C   UNL A   1      33.686  23.900  25.169  1.00  0.00     0.087 C 
ATOM      7  C   UNL A   1      33.307  24.978  26.094  1.00  0.00     0.027 C 
ATOM      8  C   UNL A   1      33.699  24.032  23.243  1.00  0.00     0.316 C 
ATOM      9  C   UNL A   1      32.980  26.668  25.559  1.00  0.00     0.019 A 
ATOM     10  O   UNL A   1      33.412  25.847  22.655  1.00  0.00    -0.475 OA
ATOM     11  C   UNL A   1      32.849  27.635  26.515  1.00  0.00     0.032 A 
ATOM     12  C   UNL A   1      33.102  27.151  23.894  1.00  0.00     0.128 A 
ATOM     13  C   UNL A   1      32.837  28.948  26.019  1.00  0.00     0.041 A 
ATOM     14  C   UNL A   1      33.071  28.457  23.497  1.00  0.00     0.048 A 
ATOM     15  Cl  UNL A   1      32.737  30.216  27.203  1.00  0.00    -0.084 Cl
ATOM     16  C   UNL A   1      32.942  29.335  24.609  1.00  0.00     0.024 A 
BRANCH   8  17
ATOM     17  C   UNL A   1      32.966  22.662  22.959  1.00  0.00     0.430 C 
ATOM     18  F   UNL A   1      31.677  22.712  23.324  1.00  0.00    -0.167 F 
ATOM     19  F   UNL A   1      32.915  22.474  21.605  1.00  0.00    -0.167 F 
ATOM     20  F   UNL A   1      33.555  21.538  23.389  1.00  0.00    -0.167 F 
ENDBRANCH   8  17
ENDBRANCH   4   6
ENDBRANCH   3   4
ENDBRANCH   2   3
ENDBRANCH   1   2
BRANCH   1  21
ATOM     21  O   UNL A   1      38.673  21.107  25.365  1.00  0.00    -0.458 OA
BRANCH  21  22
ATOM     22  C   UNL A   1      39.728  20.961  26.232  1.00  0.00     0.338 C 
ATOM     23  O   UNL A   1      40.623  20.135  26.243  1.00  0.00    -0.246 OA
BRANCH  22  24
ATOM     24  C   UNL A   1      39.830  22.267  26.956  1.00  0.00     0.060 A 
ATOM     25  C   UNL A   1      40.925  22.476  27.816  1.00  0.00     0.016 A 
ATOM     26  C   UNL A   1      39.103  23.358  26.483  1.00  0.00     0.016 A 
ATOM     27  C   UNL A   1      41.432  23.779  27.992  1.00  0.00     0.010 A 
ATOM     28  C   UNL A   1      39.601  24.650  26.677  1.00  0.00     0.010 A 
ATOM     29  C   UNL A   1      40.810  24.866  27.363  1.00  0.00    -0.014 A 
BRANCH  29  30
ATOM     30  C   UNL A   1      41.242  26.268  27.611  1.00  0.00     0.031 A 
ATOM     31  C   UNL A   1      42.634  26.596  27.162  1.00  0.00     0.074 A 
ATOM     32  C   UNL A   1      40.523  27.173  28.309  1.00  0.00     0.049 A 
ATOM     33  N   UNL A   1      43.339  27.676  27.349  1.00  0.00    -0.248 NA
ATOM     34  C   UNL A   1      43.338  25.526  26.434  1.00  0.00     0.031 C 
ATOM     35  C   UNL A   1      39.173  26.980  28.841  1.00  0.00     0.029 A 
ATOM     36  N   UNL A   1      40.857  28.444  28.729  1.00  0.00    -0.354 N 
ATOM     37  C   UNL A   1      44.580  27.400  26.796  1.00  0.00     0.074 A 
ATOM     38  C   UNL A   1      44.544  26.043  26.302  1.00  0.00     0.031 C 
ATOM     39  C   UNL A   1      38.810  28.075  29.540  1.00  0.00     0.029 A 
ATOM     40  C   UNL A   1      39.903  29.048  29.523  1.00  0.00     0.049 A 
ATOM     41  H   UNL A   1      41.703  28.884  28.485  1.00  0.00     0.167 HD
ATOM     42  C   UNL A   1      45.660  28.204  26.683  1.00  0.00     0.034 A 
ATOM     43  C   UNL A   1      39.921  30.238  30.166  1.00  0.00     0.034 A 
ATOM     44  C   UNL A   1      45.710  29.543  27.183  1.00  0.00     0.049 A 
ATOM     45  C   UNL A   1      41.144  31.127  30.028  1.00  0.00     0.074 A 
ATOM     46  C   UNL A   1      46.740  30.457  27.087  1.00  0.00     0.029 A 
ATOM     47  N   UNL A   1      44.689  30.150  27.897  1.00  0.00    -0.354 N 
ATOM     48  N   UNL A   1      42.251  30.916  29.355  1.00  0.00    -0.248 NA
ATOM     49  C   UNL A   1      41.107  32.434  30.709  1.00  0.00     0.031 C 
ATOM     50  C   UNL A   1      46.352  31.613  27.771  1.00  0.00     0.029 A 
ATOM     51  C   UNL A   1      45.065  31.429  28.256  1.00  0.00     0.049 A 
ATOM     52  H   UNL A   1      43.824  29.732  28.116  1.00  0.00     0.167 HD
ATOM     53  C   UNL A   1      43.014  32.074  29.491  1.00  0.00     0.074 A 
ATOM     54  C   UNL A   1      42.240  32.990  30.301  1.00  0.00     0.031 C 
ATOM     55  C   UNL A   1      44.248  32.352  29.001  1.00  0.00     0.034 A 
BRANCH  42  56
ATOM     56  C   UNL A   1      46.851  27.621  25.982  1.00  0.00     0.023 A 
ATOM     57  C   UNL A   1      46.922  27.673  24.573  1.00  0.00     0.012 A 
ATOM     58  C   UNL A   1      47.863  26.967  26.707  1.00  0.00     0.148 A 
ATOM     59  C   UNL A   1      47.950  27.027  23.892  1.00  0.00     0.002 A 
ATOM     60  C   UNL A   1      48.914  26.373  26.023  1.00  0.00     0.091 A 
ATOM     61  F   UNL A   1      47.755  26.903  28.041  1.00  0.00    -0.205 F 
ATOM     62  C   UNL A   1      48.948  26.383  24.617  1.00  0.00     0.022 A 
BRANCH  60  63
ATOM     63  S   UNL A   1      50.285  25.578  26.861  1.00  0.00     0.127 S 
ATOM     64  O   UNL A   1      50.729  26.634  27.769  1.00  0.00    -0.237 OA
ATOM     65  O   UNL A   1      49.625  24.449  27.515  1.00  0.00    -0.237 OA
ATOM     66  O   UNL A   1      51.236  25.210  25.822  1.00  0.00    -0.744 OA
ENDBRANCH  60  63
ENDBRANCH  42  56
BRANCH  43  67
ATOM     67  C   UNL A   1      38.746  30.720  30.965  1.00  0.00     0.023 A 
ATOM     68  C   UNL A   1      38.679  30.422  32.343  1.00  0.00     0.012 A 
ATOM     69  C   UNL A   1      37.671  31.411  30.371  1.00  0.00     0.148 A 
ATOM     70  C   UNL A   1      37.553  30.756  33.100  1.00  0.00     0.002 A 
ATOM     71  C   UNL A   1      36.571  31.785  31.142  1.00  0.00     0.091 A 
ATOM     72  F   UNL A   1      37.733  31.674  29.059  1.00  0.00    -0.205 F 
ATOM     73  C   UNL A   1      36.501  31.441  32.502  1.00  0.00     0.022 A 
BRANCH  71  74
ATOM     74  S   UNL A   1      35.199  32.748  30.488  1.00  0.00     0.127 S 
ATOM     75  O   UNL A   1      34.781  31.941  29.344  1.00  0.00    -0.237 OA
ATOM     76  O   UNL A   1      34.266  32.745  31.615  1.00  0.00    -0.237 OA
ATOM     77  O   UNL A   1      35.753  34.056  30.165  1.00  0.00    -0.744 OA
ENDBRANCH  71  74
ENDBRANCH  43  67
BRANCH  55  78
ATOM     78  C   UNL A   1      44.835  33.717  29.255  1.00  0.00     0.023 A 
ATOM     79  C   UNL A   1      45.696  33.924  30.349  1.00  0.00     0.012 A 
ATOM     80  C   UNL A   1      44.642  34.753  28.318  1.00  0.00     0.148 A 
ATOM     81  C   UNL A   1      46.344  35.149  30.515  1.00  0.00     0.002 A 
ATOM     82  C   UNL A   1      45.334  35.949  28.460  1.00  0.00     0.091 A 
ATOM     83  F   UNL A   1      43.806  34.538  27.292  1.00  0.00    -0.205 F 
ATOM     84  C   UNL A   1      46.177  36.153  29.564  1.00  0.00     0.022 A 
BRANCH  82  85
ATOM     85  S   UNL A   1      45.272  37.249  27.221  1.00  0.00     0.127 S 
ATOM     86  O   UNL A   1      43.845  37.292  26.906  1.00  0.00    -0.237 OA
ATOM     87  O   UNL A   1      45.769  38.408  27.963  1.00  0.00    -0.237 OA
ATOM     88  O   UNL A   1      46.138  36.812  26.134  1.00  0.00    -0.744 OA
ENDBRANCH  82  85
ENDBRANCH  55  78
ENDBRANCH  29  30
ENDBRANCH  22  24
ENDBRANCH  21  22
ENDBRANCH   1  21
TORSDOF 15
ENDMDL
MODEL 2
REMARK VINA RESULT:     -13.7      5.059     10.396
REMARK SMILES O=C(OCCOC(=O)c1ccc(-c2c3nc(c(-c4cccc(S(=O)(=O)[O-])c4F)c4ccc([nH]4)c(-c4cccc(S(=O)(=O)[O-])c4F)c4nc(c(-c5cccc(S(=O)(=O)[O-])c5F)c5ccc2[nH]5)C=C4)C=C3)cc1)C1=Cc2cc(Cl)ccc2O[C@@H]1C(F)(F)F
REMARK SMILES IDX 5 1 4 2 3 3 2 4 1 5 72 6 73 7 82 8 74 9 81 10 75 11 80 12
REMARK SMILES IDX 76 13 79 14 77 15 78 16 83 17 84 18 85 19 86 20 6 21 7 22
REMARK SMILES IDX 8 23 9 24 10 25 71 26 11 27 70 28 12 29 13 30 14 31 64 32
REMARK SMILES IDX 15 33 69 34 63 35 65 36 16 37 68 38 62 39 61 40 17 42 49 43
REMARK SMILES IDX 29 44 48 45 30 46 33 47 47 48 66 49 31 50 32 51 46 53 67 54
REMARK SMILES IDX 34 55 18 56 19 57 27 58 20 59 22 60 28 61 21 62 23 63 24 64
REMARK SMILES IDX 25 65 26 66 50 67 51 68 59 69 52 70 54 71 60 72 53 73 55 74
REMARK SMILES IDX 56 75 57 76 58 77 35 78 36 79 44 80 37 81 39 82 45 83 38 84
REMARK SMILES IDX 40 85 41 86 42 87 43 88
REMARK H PARENT 65 41 33 52
REMARK Flexibility Score: inf
ROOT
ATOM      1  C   UNL A   1      31.403  31.951  26.518  1.00  0.00     0.275 C 
ENDROOT
BRANCH   1   2
ATOM      2  C   UNL A   1      31.790  30.098  25.471  1.00  0.00     0.275 C 
BRANCH   2   3
ATOM      3  O   UNL A   1      31.837  28.677  26.098  1.00  0.00    -0.459 OA
BRANCH   3   4
ATOM      4  C   UNL A   1      31.572  27.702  25.218  1.00  0.00     0.338 C 
ATOM      5  O   UNL A   1      30.531  27.153  24.970  1.00  0.00    -0.246 OA
BRANCH   4   6
ATOM      6  C   UNL A   1      32.952  27.325  25.025  1.00  0.00     0.087 C 
ATOM      7  C   UNL A   1      33.384  26.283  25.968  1.00  0.00     0.027 C 
ATOM      8  C   UNL A   1      32.829  27.119  23.109  1.00  0.00     0.316 C 
ATOM      9  C   UNL A   1      33.683  24.574  25.480  1.00  0.00     0.019 A 
ATOM     10  O   UNL A   1      33.084  25.282  22.577  1.00  0.00    -0.475 OA
ATOM     11  C   UNL A   1      33.869  23.644  26.465  1.00  0.00     0.032 A 
ATOM     12  C   UNL A   1      33.466  24.027  23.845  1.00  0.00     0.128 A 
ATOM     13  C   UNL A   1      33.855  22.313  26.020  1.00  0.00     0.041 A 
ATOM     14  C   UNL A   1      33.476  22.706  23.497  1.00  0.00     0.048 A 
ATOM     15  Cl  UNL A   1      34.024  21.091  27.244  1.00  0.00    -0.084 Cl
ATOM     16  C   UNL A   1      33.669  21.872  24.634  1.00  0.00     0.024 A 
BRANCH   8  17
ATOM     17  C   UNL A   1      33.543  28.476  22.731  1.00  0.00     0.430 C 
ATOM     18  F   UNL A   1      34.409  28.855  23.682  1.00  0.00    -0.167 F 
ATOM     19  F   UNL A   1      34.334  28.256  21.637  1.00  0.00    -0.167 F 
ATOM     20  F   UNL A   1      32.771  29.498  22.335  1.00  0.00    -0.167 F 
ENDBRANCH   8  17
ENDBRANCH   4   6
ENDBRANCH   3   4
ENDBRANCH   2   3
ENDBRANCH   1   2
BRANCH   1  21
ATOM     21  O   UNL A   1      32.600  33.122  26.956  1.00  0.00    -0.458 OA
BRANCH  21  22
ATOM     22  C   UNL A   1      33.344  33.616  28.000  1.00  0.00     0.338 C 
ATOM     23  O   UNL A   1      33.019  34.359  28.909  1.00  0.00    -0.246 OA
BRANCH  22  24
ATOM     24  C   UNL A   1      34.560  32.746  28.067  1.00  0.00     0.060 A 
ATOM     25  C   UNL A   1      35.824  33.360  28.137  1.00  0.00     0.016 A 
ATOM     26  C   UNL A   1      34.414  31.414  28.455  1.00  0.00     0.016 A 
ATOM     27  C   UNL A   1      36.873  32.717  28.823  1.00  0.00     0.010 A 
ATOM     28  C   UNL A   1      35.465  30.776  29.120  1.00  0.00     0.010 A 
ATOM     29  C   UNL A   1      36.674  31.447  29.381  1.00  0.00    -0.014 A 
BRANCH  29  30
ATOM     30  C   UNL A   1      37.783  30.686  30.015  1.00  0.00     0.031 A 
ATOM     31  C   UNL A   1      38.109  31.084  31.423  1.00  0.00     0.074 A 
ATOM     32  C   UNL A   1      38.560  29.791  29.366  1.00  0.00     0.049 A 
ATOM     33  N   UNL A   1      39.090  30.707  32.193  1.00  0.00    -0.248 NA
ATOM     34  C   UNL A   1      37.213  32.088  32.023  1.00  0.00     0.031 C 
ATOM     35  C   UNL A   1      38.387  29.337  27.986  1.00  0.00     0.029 A 
ATOM     36  N   UNL A   1      39.694  29.127  29.785  1.00  0.00    -0.354 N 
ATOM     37  C   UNL A   1      38.951  31.455  33.351  1.00  0.00     0.074 A 
ATOM     38  C   UNL A   1      37.818  32.332  33.170  1.00  0.00     0.031 C 
ATOM     39  C   UNL A   1      39.393  28.498  27.665  1.00  0.00     0.029 A 
ATOM     40  C   UNL A   1      40.296  28.361  28.807  1.00  0.00     0.049 A 
ATOM     41  H   UNL A   1      40.046  29.193  30.702  1.00  0.00     0.167 HD
ATOM     42  C   UNL A   1      39.684  31.412  34.485  1.00  0.00     0.034 A 
ATOM     43  C   UNL A   1      41.445  27.647  28.836  1.00  0.00     0.034 A 
ATOM     44  C   UNL A   1      40.818  30.559  34.668  1.00  0.00     0.049 A 
ATOM     45  C   UNL A   1      42.255  27.611  30.118  1.00  0.00     0.074 A 
ATOM     46  C   UNL A   1      41.607  30.408  35.790  1.00  0.00     0.029 A 
ATOM     47  N   UNL A   1      41.338  29.728  33.687  1.00  0.00    -0.354 N 
ATOM     48  N   UNL A   1      42.015  28.197  31.268  1.00  0.00    -0.248 NA
ATOM     49  C   UNL A   1      43.479  26.788  30.121  1.00  0.00     0.031 C 
ATOM     50  C   UNL A   1      42.626  29.503  35.479  1.00  0.00     0.029 A 
ATOM     51  C   UNL A   1      42.445  29.063  34.176  1.00  0.00     0.049 A 
ATOM     52  H   UNL A   1      40.972  29.628  32.778  1.00  0.00     0.167 HD
ATOM     53  C   UNL A   1      43.021  27.778  32.136  1.00  0.00     0.074 A 
ATOM     54  C   UNL A   1      43.870  26.877  31.385  1.00  0.00     0.031 C 
ATOM     55  C   UNL A   1      43.232  28.114  33.432  1.00  0.00     0.034 A 
BRANCH  42  56
ATOM     56  C   UNL A   1      39.247  32.324  35.594  1.00  0.00     0.023 A 
ATOM     57  C   UNL A   1      38.214  31.914  36.464  1.00  0.00     0.012 A 
ATOM     58  C   UNL A   1      39.808  33.605  35.733  1.00  0.00     0.148 A 
ATOM     59  C   UNL A   1      37.701  32.790  37.416  1.00  0.00     0.002 A 
ATOM     60  C   UNL A   1      39.329  34.453  36.723  1.00  0.00     0.091 A 
ATOM     61  F   UNL A   1      40.765  33.983  34.874  1.00  0.00    -0.205 F 
ATOM     62  C   UNL A   1      38.263  34.056  37.549  1.00  0.00     0.022 A 
BRANCH  60  63
ATOM     63  S   UNL A   1      40.028  36.077  37.024  1.00  0.00     0.127 S 
ATOM     64  O   UNL A   1      41.427  35.751  37.300  1.00  0.00    -0.237 OA
ATOM     65  O   UNL A   1      39.799  36.746  35.744  1.00  0.00    -0.237 OA
ATOM     66  O   UNL A   1      39.285  36.635  38.145  1.00  0.00    -0.744 OA
ENDBRANCH  60  63
ENDBRANCH  42  56
BRANCH  43  67
ATOM     67  C   UNL A   1      41.907  26.851  27.650  1.00  0.00     0.023 A 
ATOM     68  C   UNL A   1      42.460  27.524  26.540  1.00  0.00     0.012 A 
ATOM     69  C   UNL A   1      41.749  25.452  27.581  1.00  0.00     0.148 A 
ATOM     70  C   UNL A   1      42.801  26.834  25.373  1.00  0.00     0.002 A 
ATOM     71  C   UNL A   1      42.136  24.762  26.433  1.00  0.00     0.091 A 
ATOM     72  F   UNL A   1      41.206  24.822  28.631  1.00  0.00    -0.205 F 
ATOM     73  C   UNL A   1      42.644  25.453  25.321  1.00  0.00     0.022 A 
BRANCH  71  74
ATOM     74  S   UNL A   1      42.057  22.970  26.294  1.00  0.00     0.127 S 
ATOM     75  O   UNL A   1      42.828  22.542  27.460  1.00  0.00    -0.237 OA
ATOM     76  O   UNL A   1      40.618  22.725  26.386  1.00  0.00    -0.237 OA
ATOM     77  O   UNL A   1      42.644  22.648  25.001  1.00  0.00    -0.744 OA
ENDBRANCH  71  74
ENDBRANCH  43  67
BRANCH  55  78
ATOM     78  C   UNL A   1      44.380  27.470  34.167  1.00  0.00     0.023 A 
ATOM     79  C   UNL A   1      45.635  28.106  34.215  1.00  0.00     0.012 A 
ATOM     80  C   UNL A   1      44.164  26.305  34.932  1.00  0.00     0.148 A 
ATOM     81  C   UNL A   1      46.663  27.582  35.000  1.00  0.00     0.002 A 
ATOM     82  C   UNL A   1      45.174  25.821  35.753  1.00  0.00     0.091 A 
ATOM     83  F   UNL A   1      42.965  25.708  34.860  1.00  0.00    -0.205 F 
ATOM     84  C   UNL A   1      46.428  26.452  35.780  1.00  0.00     0.022 A 
BRANCH  82  85
ATOM     85  S   UNL A   1      44.921  24.445  36.881  1.00  0.00     0.127 S 
ATOM     86  O   UNL A   1      44.632  23.351  35.956  1.00  0.00    -0.237 OA
ATOM     87  O   UNL A   1      46.217  24.352  37.552  1.00  0.00    -0.237 OA
ATOM     88  O   UNL A   1      43.818  24.834  37.750  1.00  0.00    -0.744 OA
ENDBRANCH  82  85
ENDBRANCH  55  78
ENDBRANCH  29  30
ENDBRANCH  22  24
ENDBRANCH  21  22
ENDBRANCH   1  21
TORSDOF 15
ENDMDL
MODEL 3
REMARK VINA RESULT:     -13.7      5.386     10.551
REMARK SMILES O=C(OCCOC(=O)c1ccc(-c2c3nc(c(-c4cccc(S(=O)(=O)[O-])c4F)c4ccc([nH]4)c(-c4cccc(S(=O)(=O)[O-])c4F)c4nc(c(-c5cccc(S(=O)(=O)[O-])c5F)c5ccc2[nH]5)C=C4)C=C3)cc1)C1=Cc2cc(Cl)ccc2O[C@@H]1C(F)(F)F
REMARK SMILES IDX 5 1 4 2 3 3 2 4 1 5 72 6 73 7 82 8 74 9 81 10 75 11 80 12
REMARK SMILES IDX 76 13 79 14 77 15 78 16 83 17 84 18 85 19 86 20 6 21 7 22
REMARK SMILES IDX 8 23 9 24 10 25 71 26 11 27 70 28 12 29 13 30 14 31 64 32
REMARK SMILES IDX 15 33 69 34 63 35 65 36 16 37 68 38 62 39 61 40 17 42 49 43
REMARK SMILES IDX 29 44 48 45 30 46 33 47 47 48 66 49 31 50 32 51 46 53 67 54
REMARK SMILES IDX 34 55 18 56 19 57 27 58 20 59 22 60 28 61 21 62 23 63 24 64
REMARK SMILES IDX 25 65 26 66 50 67 51 68 59 69 52 70 54 71 60 72 53 73 55 74
REMARK SMILES IDX 56 75 57 76 58 77 35 78 36 79 44 80 37 81 39 82 45 83 38 84
REMARK SMILES IDX 40 85 41 86 42 87 43 88
REMARK H PARENT 65 41 33 52
REMARK Flexibility Score: inf
ROOT
ATOM      1  C   UNL A   1      31.393  32.023  26.797  1.00  0.00     0.275 C 
ENDROOT
BRANCH   1   2
ATOM      2  C   UNL A   1      31.905  30.122  25.899  1.00  0.00     0.275 C 
BRANCH   2   3
ATOM      3  O   UNL A   1      32.402  28.854  26.646  1.00  0.00    -0.459 OA
BRANCH   3   4
ATOM      4  C   UNL A   1      31.723  27.747  26.317  1.00  0.00     0.338 C 
ATOM      5  O   UNL A   1      30.996  27.065  26.990  1.00  0.00    -0.246 OA
BRANCH   4   6
ATOM      6  C   UNL A   1      32.468  27.493  25.108  1.00  0.00     0.087 C 
ATOM      7  C   UNL A   1      33.734  26.793  25.368  1.00  0.00     0.027 C 
ATOM      8  C   UNL A   1      30.978  26.776  24.111  1.00  0.00     0.316 C 
ATOM      9  C   UNL A   1      34.008  25.061  24.949  1.00  0.00     0.019 A 
ATOM     10  O   UNL A   1      31.228  24.906  23.710  1.00  0.00    -0.475 OA
ATOM     11  C   UNL A   1      35.134  24.451  25.426  1.00  0.00     0.032 A 
ATOM     12  C   UNL A   1      32.777  24.081  24.212  1.00  0.00     0.128 A 
ATOM     13  C   UNL A   1      35.156  23.056  25.263  1.00  0.00     0.041 A 
ATOM     14  C   UNL A   1      32.884  22.725  24.085  1.00  0.00     0.048 A 
ATOM     15  Cl  UNL A   1      36.540  22.229  25.911  1.00  0.00    -0.084 Cl
ATOM     16  C   UNL A   1      34.105  22.248  24.639  1.00  0.00     0.024 A 
BRANCH   8  17
ATOM     17  C   UNL A   1      30.713  28.058  23.227  1.00  0.00     0.430 C 
ATOM     18  F   UNL A   1      30.068  27.746  22.094  1.00  0.00    -0.167 F 
ATOM     19  F   UNL A   1      29.833  28.866  23.892  1.00  0.00    -0.167 F 
ATOM     20  F   UNL A   1      31.747  28.879  22.993  1.00  0.00    -0.167 F 
ENDBRANCH   8  17
ENDBRANCH   4   6
ENDBRANCH   3   4
ENDBRANCH   2   3
ENDBRANCH   1   2
BRANCH   1  21
ATOM     21  O   UNL A   1      32.503  33.314  27.108  1.00  0.00    -0.458 OA
BRANCH  21  22
ATOM     22  C   UNL A   1      33.304  33.887  28.067  1.00  0.00     0.338 C 
ATOM     23  O   UNL A   1      33.028  34.693  28.937  1.00  0.00    -0.246 OA
BRANCH  22  24
ATOM     24  C   UNL A   1      34.529  33.028  28.124  1.00  0.00     0.060 A 
ATOM     25  C   UNL A   1      35.783  33.652  28.255  1.00  0.00     0.016 A 
ATOM     26  C   UNL A   1      34.390  31.677  28.444  1.00  0.00     0.016 A 
ATOM     27  C   UNL A   1      36.822  32.990  28.938  1.00  0.00     0.010 A 
ATOM     28  C   UNL A   1      35.432  31.021  29.106  1.00  0.00     0.010 A 
ATOM     29  C   UNL A   1      36.625  31.692  29.429  1.00  0.00    -0.014 A 
BRANCH  29  30
ATOM     30  C   UNL A   1      37.728  30.914  30.056  1.00  0.00     0.031 A 
ATOM     31  C   UNL A   1      38.056  31.295  31.468  1.00  0.00     0.074 A 
ATOM     32  C   UNL A   1      38.497  30.020  29.397  1.00  0.00     0.049 A 
ATOM     33  N   UNL A   1      39.034  30.900  32.233  1.00  0.00    -0.248 NA
ATOM     34  C   UNL A   1      37.169  32.300  32.079  1.00  0.00     0.031 C 
ATOM     35  C   UNL A   1      38.320  29.582  28.012  1.00  0.00     0.029 A 
ATOM     36  N   UNL A   1      39.625  29.341  29.809  1.00  0.00    -0.354 N 
ATOM     37  C   UNL A   1      38.901  31.637  33.400  1.00  0.00     0.074 A 
ATOM     38  C   UNL A   1      37.775  32.525  33.228  1.00  0.00     0.031 C 
ATOM     39  C   UNL A   1      39.319  28.738  27.682  1.00  0.00     0.029 A 
ATOM     40  C   UNL A   1      40.220  28.581  28.823  1.00  0.00     0.049 A 
ATOM     41  H   UNL A   1      39.977  29.395  30.727  1.00  0.00     0.167 HD
ATOM     42  C   UNL A   1      39.634  31.575  34.533  1.00  0.00     0.034 A 
ATOM     43  C   UNL A   1      41.363  27.856  28.844  1.00  0.00     0.034 A 
ATOM     44  C   UNL A   1      40.760  30.710  34.707  1.00  0.00     0.049 A 
ATOM     45  C   UNL A   1      42.172  27.799  30.126  1.00  0.00     0.074 A 
ATOM     46  C   UNL A   1      41.546  30.540  35.828  1.00  0.00     0.029 A 
ATOM     47  N   UNL A   1      41.272  29.885  33.718  1.00  0.00    -0.354 N 
ATOM     48  N   UNL A   1      41.937  28.375  31.282  1.00  0.00    -0.248 NA
ATOM     49  C   UNL A   1      43.389  26.965  30.120  1.00  0.00     0.031 C 
ATOM     50  C   UNL A   1      42.558  29.630  35.507  1.00  0.00     0.029 A 
ATOM     51  C   UNL A   1      42.373  29.205  34.200  1.00  0.00     0.049 A 
ATOM     52  H   UNL A   1      40.906  29.798  32.807  1.00  0.00     0.167 HD
ATOM     53  C   UNL A   1      42.939  27.937  32.145  1.00  0.00     0.074 A 
ATOM     54  C   UNL A   1      43.780  27.038  31.385  1.00  0.00     0.031 C 
ATOM     55  C   UNL A   1      43.152  28.258  33.446  1.00  0.00     0.034 A 
BRANCH  42  56
ATOM     56  C   UNL A   1      39.204  32.478  35.652  1.00  0.00     0.023 A 
ATOM     57  C   UNL A   1      39.666  33.811  35.685  1.00  0.00     0.012 A 
ATOM     58  C   UNL A   1      38.401  31.993  36.699  1.00  0.00     0.148 A 
ATOM     59  C   UNL A   1      39.390  34.630  36.777  1.00  0.00     0.002 A 
ATOM     60  C   UNL A   1      38.083  32.833  37.758  1.00  0.00     0.091 A 
ATOM     61  F   UNL A   1      38.002  30.714  36.661  1.00  0.00    -0.205 F 
ATOM     62  C   UNL A   1      38.593  34.142  37.809  1.00  0.00     0.022 A 
BRANCH  60  63
ATOM     63  S   UNL A   1      37.010  32.327  39.102  1.00  0.00     0.127 S 
ATOM     64  O   UNL A   1      37.370  30.919  39.256  1.00  0.00    -0.237 OA
ATOM     65  O   UNL A   1      37.459  33.195  40.190  1.00  0.00    -0.237 OA
ATOM     66  O   UNL A   1      35.649  32.576  38.647  1.00  0.00    -0.744 OA
ENDBRANCH  60  63
ENDBRANCH  42  56
BRANCH  43  67
ATOM     67  C   UNL A   1      41.818  27.069  27.650  1.00  0.00     0.023 A 
ATOM     68  C   UNL A   1      42.333  27.753  26.527  1.00  0.00     0.012 A 
ATOM     69  C   UNL A   1      41.691  25.667  27.586  1.00  0.00     0.148 A 
ATOM     70  C   UNL A   1      42.665  27.069  25.355  1.00  0.00     0.002 A 
ATOM     71  C   UNL A   1      42.070  24.984  26.430  1.00  0.00     0.091 A 
ATOM     72  F   UNL A   1      41.183  25.027  28.647  1.00  0.00    -0.205 F 
ATOM     73  C   UNL A   1      42.539  25.685  25.307  1.00  0.00     0.022 A 
BRANCH  71  74
ATOM     74  S   UNL A   1      42.028  23.191  26.295  1.00  0.00     0.127 S 
ATOM     75  O   UNL A   1      42.828  22.782  27.447  1.00  0.00    -0.237 OA
ATOM     76  O   UNL A   1      40.596  22.914  26.411  1.00  0.00    -0.237 OA
ATOM     77  O   UNL A   1      42.600  22.880  24.992  1.00  0.00    -0.744 OA
ENDBRANCH  71  74
ENDBRANCH  43  67
BRANCH  55  78
ATOM     78  C   UNL A   1      44.295  27.596  34.174  1.00  0.00     0.023 A 
ATOM     79  C   UNL A   1      45.548  28.232  34.251  1.00  0.00     0.012 A 
ATOM     80  C   UNL A   1      44.073  26.410  34.904  1.00  0.00     0.148 A 
ATOM     81  C   UNL A   1      46.569  27.688  35.031  1.00  0.00     0.002 A 
ATOM     82  C   UNL A   1      45.076  25.905  35.721  1.00  0.00     0.091 A 
ATOM     83  F   UNL A   1      42.876  25.813  34.804  1.00  0.00    -0.205 F 
ATOM     84  C   UNL A   1      46.329  26.537  35.778  1.00  0.00     0.022 A 
BRANCH  82  85
ATOM     85  S   UNL A   1      44.815  24.498  36.809  1.00  0.00     0.127 S 
ATOM     86  O   UNL A   1      43.816  25.023  37.739  1.00  0.00    -0.237 OA
ATOM     87  O   UNL A   1      44.314  23.481  35.884  1.00  0.00    -0.237 OA
ATOM     88  O   UNL A   1      46.114  24.194  37.394  1.00  0.00    -0.744 OA
ENDBRANCH  82  85
ENDBRANCH  55  78
ENDBRANCH  29  30
ENDBRANCH  22  24
ENDBRANCH  21  22
ENDBRANCH   1  21
TORSDOF 15
ENDMDL
