MODEL 1
REMARK VINA RESULT:     -12.0      0.000      0.000
REMARK SMILES O=C(Cc1ccc(OC[C@H]2Cc3ccccc3S2)cc1)OCCOC(=O)c1ccc(-c2c3nc(c(-c4cccc(S(=O)(=O)[O-])c4F)c4ccc([nH]4)c(-c4cccc(S(=O)(=O)[O-])c4F)c4nc(c(-c5cccc(S(=O)(=O)[O-])c5F)c5ccc2[nH]5)C=C4)C=C3)cc1
REMARK SMILES IDX 22 1 21 2 2 3 1 4 3 5 4 6 5 7 20 8 6 9 19 10 7 11 8 12 9 13
REMARK SMILES IDX 10 14 11 15 18 16 12 17 17 18 13 19 16 20 14 21 15 22 23 23
REMARK SMILES IDX 24 24 25 25 26 26 27 27 28 28 89 29 29 30 88 31 30 32 31 33
REMARK SMILES IDX 32 34 82 35 33 36 87 37 81 38 83 39 34 40 86 41 80 42 79 43
REMARK SMILES IDX 35 45 67 46 47 47 66 48 48 49 51 50 65 51 84 52 49 53 50 54
REMARK SMILES IDX 64 56 85 57 52 58 36 59 37 60 45 61 38 62 40 63 46 64 39 65
REMARK SMILES IDX 41 66 42 67 43 68 44 69 68 70 69 71 77 72 70 73 72 74 78 75
REMARK SMILES IDX 71 76 73 77 74 78 75 79 76 80 53 81 54 82 62 83 55 84 57 85
REMARK SMILES IDX 63 86 56 87 58 88 59 89 60 90 61 91
REMARK H PARENT 83 44 51 55
REMARK Flexibility Score: inf
ROOT
ATOM      1  C   UNL A   1      35.272  20.849  24.795  1.00  0.00     0.274 C 
ENDROOT
BRANCH   1   2
ATOM      2  O   UNL A   1      34.362  19.727  24.764  1.00  0.00    -0.462 OA
BRANCH   2   3
ATOM      3  C   UNL A   1      33.016  19.771  24.911  1.00  0.00     0.310 C 
ATOM      4  O   UNL A   1      32.448  18.891  25.558  1.00  0.00    -0.252 OA
BRANCH   3   5
ATOM      5  C   UNL A   1      32.219  20.844  24.214  1.00  0.00     0.158 C 
BRANCH   5   6
ATOM      6  C   UNL A   1      31.844  22.071  24.997  1.00  0.00    -0.037 A 
ATOM      7  C   UNL A   1      32.212  22.261  26.336  1.00  0.00     0.008 A 
ATOM      8  C   UNL A   1      31.115  23.073  24.335  1.00  0.00     0.008 A 
ATOM      9  C   UNL A   1      31.949  23.480  26.965  1.00  0.00     0.047 A 
ATOM     10  C   UNL A   1      30.848  24.283  24.963  1.00  0.00     0.047 A 
ATOM     11  C   UNL A   1      31.281  24.485  26.270  1.00  0.00     0.119 A 
BRANCH  11  12
ATOM     12  O   UNL A   1      31.115  25.711  26.854  1.00  0.00    -0.492 OA
BRANCH  12  13
ATOM     13  C   UNL A   1      30.852  26.703  25.850  1.00  0.00     0.244 C 
BRANCH  13  14
ATOM     14  C   UNL A   1      32.000  27.736  25.827  1.00  0.00     0.094 C 
ATOM     15  C   UNL A   1      33.342  27.146  26.328  1.00  0.00     0.055 C 
ATOM     16  S   UNL A   1      32.327  28.125  24.073  1.00  0.00    -0.119 SA
ATOM     17  C   UNL A   1      33.829  26.280  25.197  1.00  0.00    -0.033 A 
ATOM     18  C   UNL A   1      33.319  26.663  23.946  1.00  0.00     0.011 A 
ATOM     19  C   UNL A   1      34.624  25.150  25.321  1.00  0.00     0.005 A 
ATOM     20  C   UNL A   1      33.472  25.862  22.834  1.00  0.00     0.015 A 
ATOM     21  C   UNL A   1      34.802  24.348  24.195  1.00  0.00     0.000 A 
ATOM     22  C   UNL A   1      34.204  24.686  22.972  1.00  0.00     0.001 A 
ENDBRANCH  13  14
ENDBRANCH  12  13
ENDBRANCH  11  12
ENDBRANCH   5   6
ENDBRANCH   3   5
ENDBRANCH   2   3
ENDBRANCH   1   2
BRANCH   1  23
ATOM     23  C   UNL A   1      36.712  20.414  25.058  1.00  0.00     0.275 C 
BRANCH  23  24
ATOM     24  O   UNL A   1      37.433  21.469  25.716  1.00  0.00    -0.458 OA
BRANCH  24  25
ATOM     25  C   UNL A   1      38.728  21.201  26.015  1.00  0.00     0.338 C 
ATOM     26  O   UNL A   1      39.339  20.179  25.755  1.00  0.00    -0.246 OA
BRANCH  25  27
ATOM     27  C   UNL A   1      39.366  22.438  26.523  1.00  0.00     0.060 A 
ATOM     28  C   UNL A   1      38.771  23.660  26.184  1.00  0.00     0.016 A 
ATOM     29  C   UNL A   1      40.480  22.408  27.368  1.00  0.00     0.016 A 
ATOM     30  C   UNL A   1      39.296  24.853  26.678  1.00  0.00     0.010 A 
ATOM     31  C   UNL A   1      41.010  23.608  27.855  1.00  0.00     0.010 A 
ATOM     32  C   UNL A   1      40.433  24.838  27.497  1.00  0.00    -0.014 A 
BRANCH  32  33
ATOM     33  C   UNL A   1      41.082  26.120  27.866  1.00  0.00     0.031 A 
ATOM     34  C   UNL A   1      42.503  26.368  27.435  1.00  0.00     0.074 A 
ATOM     35  C   UNL A   1      40.410  27.067  28.548  1.00  0.00     0.049 A 
ATOM     36  N   UNL A   1      43.239  27.438  27.591  1.00  0.00    -0.248 NA
ATOM     37  C   UNL A   1      43.183  25.266  26.733  1.00  0.00     0.031 C 
ATOM     38  C   UNL A   1      39.036  26.957  29.039  1.00  0.00     0.029 A 
ATOM     39  N   UNL A   1      40.811  28.317  28.954  1.00  0.00    -0.354 N 
ATOM     40  C   UNL A   1      44.466  27.143  27.008  1.00  0.00     0.074 A 
ATOM     41  C   UNL A   1      44.387  25.781  26.525  1.00  0.00     0.031 C 
ATOM     42  C   UNL A   1      38.710  28.090  29.689  1.00  0.00     0.029 A 
ATOM     43  C   UNL A   1      39.853  29.000  29.665  1.00  0.00     0.049 A 
ATOM     44  H   UNL A   1      41.700  28.688  28.755  1.00  0.00     0.167 HD
ATOM     45  C   UNL A   1      45.551  27.938  26.859  1.00  0.00     0.034 A 
ATOM     46  C   UNL A   1      39.900  30.222  30.232  1.00  0.00     0.034 A 
ATOM     47  C   UNL A   1      45.639  29.293  27.330  1.00  0.00     0.049 A 
ATOM     48  C   UNL A   1      41.146  31.061  30.098  1.00  0.00     0.074 A 
ATOM     49  C   UNL A   1      46.690  30.186  27.193  1.00  0.00     0.029 A 
ATOM     50  N   UNL A   1      44.649  29.951  28.040  1.00  0.00    -0.354 N 
ATOM     51  N   UNL A   1      42.246  30.814  29.431  1.00  0.00    -0.248 NA
ATOM     52  C   UNL A   1      41.135  32.370  30.773  1.00  0.00     0.031 C 
ATOM     53  C   UNL A   1      46.342  31.375  27.841  1.00  0.00     0.029 A 
ATOM     54  C   UNL A   1      45.066  31.233  28.357  1.00  0.00     0.049 A 
ATOM     55  H   UNL A   1      43.777  29.564  28.283  1.00  0.00     0.167 HD
ATOM     56  C   UNL A   1      43.039  31.949  29.574  1.00  0.00     0.074 A 
ATOM     57  C   UNL A   1      42.283  32.894  30.368  1.00  0.00     0.031 C 
ATOM     58  C   UNL A   1      44.288  32.186  29.102  1.00  0.00     0.034 A 
BRANCH  45  59
ATOM     59  C   UNL A   1      46.729  27.377  26.109  1.00  0.00     0.023 A 
ATOM     60  C   UNL A   1      46.810  27.564  24.714  1.00  0.00     0.012 A 
ATOM     61  C   UNL A   1      47.788  26.742  26.787  1.00  0.00     0.148 A 
ATOM     62  C   UNL A   1      47.916  27.107  24.000  1.00  0.00     0.002 A 
ATOM     63  C   UNL A   1      48.906  26.327  26.074  1.00  0.00     0.091 A 
ATOM     64  F   UNL A   1      47.680  26.558  28.110  1.00  0.00    -0.205 F 
ATOM     65  C   UNL A   1      48.968  26.501  24.681  1.00  0.00     0.022 A 
BRANCH  63  66
ATOM     66  S   UNL A   1      50.346  25.600  26.864  1.00  0.00     0.127 S 
ATOM     67  O   UNL A   1      50.725  26.651  27.808  1.00  0.00    -0.237 OA
ATOM     68  O   UNL A   1      49.783  24.400  27.482  1.00  0.00    -0.237 OA
ATOM     69  O   UNL A   1      51.305  25.347  25.799  1.00  0.00    -0.744 OA
ENDBRANCH  63  66
ENDBRANCH  45  59
BRANCH  46  70
ATOM     70  C   UNL A   1      38.736  30.775  30.977  1.00  0.00     0.023 A 
ATOM     71  C   UNL A   1      38.602  30.501  32.352  1.00  0.00     0.012 A 
ATOM     72  C   UNL A   1      37.707  31.458  30.303  1.00  0.00     0.148 A 
ATOM     73  C   UNL A   1      37.437  30.851  33.035  1.00  0.00     0.002 A 
ATOM     74  C   UNL A   1      36.557  31.818  30.995  1.00  0.00     0.091 A 
ATOM     75  F   UNL A   1      37.870  31.727  29.000  1.00  0.00    -0.205 F 
ATOM     76  C   UNL A   1      36.414  31.503  32.356  1.00  0.00     0.022 A 
BRANCH  74  77
ATOM     77  S   UNL A   1      35.188  32.673  30.220  1.00  0.00     0.127 S 
ATOM     78  O   UNL A   1      34.235  32.795  31.322  1.00  0.00    -0.237 OA
ATOM     79  O   UNL A   1      35.824  33.924  29.816  1.00  0.00    -0.237 OA
ATOM     80  O   UNL A   1      34.754  31.815  29.127  1.00  0.00    -0.744 OA
ENDBRANCH  74  77
ENDBRANCH  46  70
BRANCH  58  81
ATOM     81  C   UNL A   1      44.902  33.530  29.396  1.00  0.00     0.023 A 
ATOM     82  C   UNL A   1      45.686  33.708  30.554  1.00  0.00     0.012 A 
ATOM     83  C   UNL A   1      44.738  34.607  28.502  1.00  0.00     0.148 A 
ATOM     84  C   UNL A   1      46.258  34.947  30.840  1.00  0.00     0.002 A 
ATOM     85  C   UNL A   1      45.355  35.825  28.768  1.00  0.00     0.091 A 
ATOM     86  F   UNL A   1      43.973  34.428  27.415  1.00  0.00    -0.205 F 
ATOM     87  C   UNL A   1      46.102  36.001  29.943  1.00  0.00     0.022 A 
BRANCH  85  88
ATOM     88  S   UNL A   1      45.284  37.206  27.622  1.00  0.00     0.127 S 
ATOM     89  O   UNL A   1      43.866  37.226  27.264  1.00  0.00    -0.237 OA
ATOM     90  O   UNL A   1      45.717  38.327  28.457  1.00  0.00    -0.237 OA
ATOM     91  O   UNL A   1      46.201  36.874  26.540  1.00  0.00    -0.744 OA
ENDBRANCH  85  88
ENDBRANCH  58  81
ENDBRANCH  32  33
ENDBRANCH  25  27
ENDBRANCH  24  25
ENDBRANCH  23  24
ENDBRANCH   1  23
TORSDOF 18
ENDMDL
MODEL 2
REMARK VINA RESULT:     -11.6      1.679      2.455
REMARK SMILES O=C(Cc1ccc(OC[C@H]2Cc3ccccc3S2)cc1)OCCOC(=O)c1ccc(-c2c3nc(c(-c4cccc(S(=O)(=O)[O-])c4F)c4ccc([nH]4)c(-c4cccc(S(=O)(=O)[O-])c4F)c4nc(c(-c5cccc(S(=O)(=O)[O-])c5F)c5ccc2[nH]5)C=C4)C=C3)cc1
REMARK SMILES IDX 22 1 21 2 2 3 1 4 3 5 4 6 5 7 20 8 6 9 19 10 7 11 8 12 9 13
REMARK SMILES IDX 10 14 11 15 18 16 12 17 17 18 13 19 16 20 14 21 15 22 23 23
REMARK SMILES IDX 24 24 25 25 26 26 27 27 28 28 89 29 29 30 88 31 30 32 31 33
REMARK SMILES IDX 32 34 82 35 33 36 87 37 81 38 83 39 34 40 86 41 80 42 79 43
REMARK SMILES IDX 35 45 67 46 47 47 66 48 48 49 51 50 65 51 84 52 49 53 50 54
REMARK SMILES IDX 64 56 85 57 52 58 36 59 37 60 45 61 38 62 40 63 46 64 39 65
REMARK SMILES IDX 41 66 42 67 43 68 44 69 68 70 69 71 77 72 70 73 72 74 78 75
REMARK SMILES IDX 71 76 73 77 74 78 75 79 76 80 53 81 54 82 62 83 55 84 57 85
REMARK SMILES IDX 63 86 56 87 58 88 59 89 60 90 61 91
REMARK H PARENT 83 44 51 55
REMARK Flexibility Score: inf
ROOT
ATOM      1  C   UNL A   1      35.938  20.357  24.912  1.00  0.00     0.274 C 
ENDROOT
BRANCH   1   2
ATOM      2  O   UNL A   1      35.570  21.408  25.834  1.00  0.00    -0.462 OA
BRANCH   2   3
ATOM      3  C   UNL A   1      34.323  21.702  26.272  1.00  0.00     0.310 C 
ATOM      4  O   UNL A   1      34.071  21.637  27.475  1.00  0.00    -0.252 OA
BRANCH   3   5
ATOM      5  C   UNL A   1      33.236  22.026  25.278  1.00  0.00     0.158 C 
BRANCH   5   6
ATOM      6  C   UNL A   1      33.404  23.244  24.414  1.00  0.00    -0.037 A 
ATOM      7  C   UNL A   1      32.966  23.300  23.084  1.00  0.00     0.008 A 
ATOM      8  C   UNL A   1      34.004  24.377  24.989  1.00  0.00     0.008 A 
ATOM      9  C   UNL A   1      33.030  24.503  22.378  1.00  0.00     0.047 A 
ATOM     10  C   UNL A   1      34.074  25.572  24.284  1.00  0.00     0.047 A 
ATOM     11  C   UNL A   1      33.571  25.632  22.988  1.00  0.00     0.119 A 
BRANCH  11  12
ATOM     12  O   UNL A   1      33.539  26.832  22.332  1.00  0.00    -0.492 OA
BRANCH  12  13
ATOM     13  C   UNL A   1      33.865  27.898  23.237  1.00  0.00     0.244 C 
BRANCH  13  14
ATOM     14  C   UNL A   1      32.721  28.934  23.252  1.00  0.00     0.094 C 
ATOM     15  C   UNL A   1      31.378  28.346  22.754  1.00  0.00     0.055 C 
ATOM     16  S   UNL A   1      32.394  29.336  25.004  1.00  0.00    -0.119 SA
ATOM     17  C   UNL A   1      30.886  27.489  23.890  1.00  0.00    -0.033 A 
ATOM     18  C   UNL A   1      31.397  27.878  25.139  1.00  0.00     0.011 A 
ATOM     19  C   UNL A   1      30.088  26.362  23.773  1.00  0.00     0.005 A 
ATOM     20  C   UNL A   1      31.241  27.084  26.256  1.00  0.00     0.015 A 
ATOM     21  C   UNL A   1      29.906  25.567  24.904  1.00  0.00     0.000 A 
ATOM     22  C   UNL A   1      30.505  25.910  26.125  1.00  0.00     0.001 A 
ENDBRANCH  13  14
ENDBRANCH  12  13
ENDBRANCH  11  12
ENDBRANCH   5   6
ENDBRANCH   3   5
ENDBRANCH   2   3
ENDBRANCH   1   2
BRANCH   1  23
ATOM     23  C   UNL A   1      37.423  20.012  24.997  1.00  0.00     0.275 C 
BRANCH  23  24
ATOM     24  O   UNL A   1      38.175  21.169  25.402  1.00  0.00    -0.458 OA
BRANCH  24  25
ATOM     25  C   UNL A   1      39.319  20.919  26.084  1.00  0.00     0.338 C 
ATOM     26  O   UNL A   1      39.907  19.853  26.156  1.00  0.00    -0.246 OA
BRANCH  25  27
ATOM     27  C   UNL A   1      39.877  22.203  26.566  1.00  0.00     0.060 A 
ATOM     28  C   UNL A   1      39.330  23.383  26.045  1.00  0.00     0.016 A 
ATOM     29  C   UNL A   1      40.866  22.262  27.553  1.00  0.00     0.016 A 
ATOM     30  C   UNL A   1      39.778  24.622  26.501  1.00  0.00     0.010 A 
ATOM     31  C   UNL A   1      41.321  23.507  28.002  1.00  0.00     0.010 A 
ATOM     32  C   UNL A   1      40.794  24.693  27.464  1.00  0.00    -0.014 A 
BRANCH  32  33
ATOM     33  C   UNL A   1      41.382  26.012  27.805  1.00  0.00     0.031 A 
ATOM     34  C   UNL A   1      42.785  26.323  27.355  1.00  0.00     0.074 A 
ATOM     35  C   UNL A   1      40.671  26.937  28.479  1.00  0.00     0.049 A 
ATOM     36  N   UNL A   1      43.469  27.430  27.485  1.00  0.00    -0.248 NA
ATOM     37  C   UNL A   1      43.512  25.244  26.664  1.00  0.00     0.031 C 
ATOM     38  C   UNL A   1      39.309  26.767  28.985  1.00  0.00     0.029 A 
ATOM     39  N   UNL A   1      41.013  28.211  28.860  1.00  0.00    -0.354 N 
ATOM     40  C   UNL A   1      44.704  27.186  26.895  1.00  0.00     0.074 A 
ATOM     41  C   UNL A   1      44.687  25.813  26.435  1.00  0.00     0.031 C 
ATOM     42  C   UNL A   1      38.934  27.893  29.620  1.00  0.00     0.029 A 
ATOM     43  C   UNL A   1      40.030  28.858  29.570  1.00  0.00     0.049 A 
ATOM     44  H   UNL A   1      41.881  28.622  28.645  1.00  0.00     0.167 HD
ATOM     45  C   UNL A   1      45.747  28.031  26.722  1.00  0.00     0.034 A 
ATOM     46  C   UNL A   1      40.022  30.090  30.116  1.00  0.00     0.034 A 
ATOM     47  C   UNL A   1      45.772  29.397  27.169  1.00  0.00     0.049 A 
ATOM     48  C   UNL A   1      41.223  30.988  29.955  1.00  0.00     0.074 A 
ATOM     49  C   UNL A   1      46.775  30.337  27.006  1.00  0.00     0.029 A 
ATOM     50  N   UNL A   1      44.757  30.017  27.879  1.00  0.00    -0.354 N 
ATOM     51  N   UNL A   1      42.328  30.784  29.280  1.00  0.00    -0.248 NA
ATOM     52  C   UNL A   1      41.155  32.305  30.608  1.00  0.00     0.031 C 
ATOM     53  C   UNL A   1      46.376  31.519  27.638  1.00  0.00     0.029 A 
ATOM     54  C   UNL A   1      45.114  31.323  28.170  1.00  0.00     0.049 A 
ATOM     55  H   UNL A   1      43.908  29.592  28.137  1.00  0.00     0.167 HD
ATOM     56  C   UNL A   1      43.065  31.959  29.397  1.00  0.00     0.074 A 
ATOM     57  C   UNL A   1      42.271  32.878  30.183  1.00  0.00     0.031 C 
ATOM     58  C   UNL A   1      44.296  32.248  28.908  1.00  0.00     0.034 A 
BRANCH  45  59
ATOM     59  C   UNL A   1      46.943  27.516  25.969  1.00  0.00     0.023 A 
ATOM     60  C   UNL A   1      47.824  26.618  26.606  1.00  0.00     0.012 A 
ATOM     61  C   UNL A   1      47.152  27.852  24.617  1.00  0.00     0.148 A 
ATOM     62  C   UNL A   1      48.908  26.079  25.916  1.00  0.00     0.002 A 
ATOM     63  C   UNL A   1      48.211  27.278  23.925  1.00  0.00     0.091 A 
ATOM     64  F   UNL A   1      46.314  28.722  24.039  1.00  0.00    -0.205 F 
ATOM     65  C   UNL A   1      49.094  26.398  24.574  1.00  0.00     0.022 A 
BRANCH  63  66
ATOM     66  S   UNL A   1      48.497  27.567  22.176  1.00  0.00     0.127 S 
ATOM     67  O   UNL A   1      48.681  26.203  21.679  1.00  0.00    -0.237 OA
ATOM     68  O   UNL A   1      47.247  28.203  21.762  1.00  0.00    -0.237 OA
ATOM     69  O   UNL A   1      49.673  28.420  22.095  1.00  0.00    -0.744 OA
ENDBRANCH  63  66
ENDBRANCH  45  59
BRANCH  46  70
ATOM     70  C   UNL A   1      38.839  30.598  30.863  1.00  0.00     0.023 A 
ATOM     71  C   UNL A   1      38.661  30.225  32.210  1.00  0.00     0.012 A 
ATOM     72  C   UNL A   1      37.837  31.338  30.211  1.00  0.00     0.148 A 
ATOM     73  C   UNL A   1      37.477  30.534  32.881  1.00  0.00     0.002 A 
ATOM     74  C   UNL A   1      36.669  31.657  30.892  1.00  0.00     0.091 A 
ATOM     75  F   UNL A   1      38.042  31.702  28.937  1.00  0.00    -0.205 F 
ATOM     76  C   UNL A   1      36.480  31.244  32.221  1.00  0.00     0.022 A 
BRANCH  74  77
ATOM     77  S   UNL A   1      35.330  32.580  30.141  1.00  0.00     0.127 S 
ATOM     78  O   UNL A   1      34.883  31.674  29.085  1.00  0.00    -0.237 OA
ATOM     79  O   UNL A   1      34.409  32.714  31.266  1.00  0.00    -0.237 OA
ATOM     80  O   UNL A   1      35.923  33.824  29.672  1.00  0.00    -0.744 OA
ENDBRANCH  74  77
ENDBRANCH  46  70
BRANCH  58  81
ATOM     81  C   UNL A   1      44.846  33.626  29.173  1.00  0.00     0.023 A 
ATOM     82  C   UNL A   1      45.547  33.887  30.368  1.00  0.00     0.012 A 
ATOM     83  C   UNL A   1      44.706  34.654  28.218  1.00  0.00     0.148 A 
ATOM     84  C   UNL A   1      46.059  35.157  30.628  1.00  0.00     0.002 A 
ATOM     85  C   UNL A   1      45.263  35.903  28.463  1.00  0.00     0.091 A 
ATOM     86  F   UNL A   1      44.019  34.396  27.096  1.00  0.00    -0.205 F 
ATOM     87  C   UNL A   1      45.927  36.161  29.672  1.00  0.00     0.022 A 
BRANCH  85  88
ATOM     88  S   UNL A   1      45.222  37.226  27.247  1.00  0.00     0.127 S 
ATOM     89  O   UNL A   1      46.007  36.654  26.155  1.00  0.00    -0.237 OA
ATOM     90  O   UNL A   1      43.790  37.349  26.969  1.00  0.00    -0.237 OA
ATOM     91  O   UNL A   1      45.808  38.388  27.902  1.00  0.00    -0.744 OA
ENDBRANCH  85  88
ENDBRANCH  58  81
ENDBRANCH  32  33
ENDBRANCH  25  27
ENDBRANCH  24  25
ENDBRANCH  23  24
ENDBRANCH   1  23
TORSDOF 18
ENDMDL
MODEL 3
REMARK VINA RESULT:     -11.5      4.766      7.622
REMARK SMILES O=C(Cc1ccc(OC[C@H]2Cc3ccccc3S2)cc1)OCCOC(=O)c1ccc(-c2c3nc(c(-c4cccc(S(=O)(=O)[O-])c4F)c4ccc([nH]4)c(-c4cccc(S(=O)(=O)[O-])c4F)c4nc(c(-c5cccc(S(=O)(=O)[O-])c5F)c5ccc2[nH]5)C=C4)C=C3)cc1
REMARK SMILES IDX 22 1 21 2 2 3 1 4 3 5 4 6 5 7 20 8 6 9 19 10 7 11 8 12 9 13
REMARK SMILES IDX 10 14 11 15 18 16 12 17 17 18 13 19 16 20 14 21 15 22 23 23
REMARK SMILES IDX 24 24 25 25 26 26 27 27 28 28 89 29 29 30 88 31 30 32 31 33
REMARK SMILES IDX 32 34 82 35 33 36 87 37 81 38 83 39 34 40 86 41 80 42 79 43
REMARK SMILES IDX 35 45 67 46 47 47 66 48 48 49 51 50 65 51 84 52 49 53 50 54
REMARK SMILES IDX 64 56 85 57 52 58 36 59 37 60 45 61 38 62 40 63 46 64 39 65
REMARK SMILES IDX 41 66 42 67 43 68 44 69 68 70 69 71 77 72 70 73 72 74 78 75
REMARK SMILES IDX 71 76 73 77 74 78 75 79 76 80 53 81 54 82 62 83 55 84 57 85
REMARK SMILES IDX 63 86 56 87 58 88 59 89 60 90 61 91
REMARK H PARENT 83 44 51 55
REMARK Flexibility Score: inf
ROOT
ATOM      1  C   UNL A   1      31.455  29.315  24.628  1.00  0.00     0.274 C 
ENDROOT
BRANCH   1   2
ATOM      2  O   UNL A   1      30.542  29.686  23.570  1.00  0.00    -0.462 OA
BRANCH   2   3
ATOM      3  C   UNL A   1      29.849  28.845  22.767  1.00  0.00     0.310 C 
ATOM      4  O   UNL A   1      29.303  29.286  21.755  1.00  0.00    -0.252 OA
BRANCH   3   5
ATOM      5  C   UNL A   1      29.680  27.399  23.160  1.00  0.00     0.158 C 
BRANCH   5   6
ATOM      6  C   UNL A   1      30.758  26.427  22.769  1.00  0.00    -0.037 A 
ATOM      7  C   UNL A   1      31.893  26.802  22.038  1.00  0.00     0.008 A 
ATOM      8  C   UNL A   1      30.618  25.092  23.186  1.00  0.00     0.008 A 
ATOM      9  C   UNL A   1      32.920  25.881  21.824  1.00  0.00     0.047 A 
ATOM     10  C   UNL A   1      31.637  24.175  22.967  1.00  0.00     0.047 A 
ATOM     11  C   UNL A   1      32.790  24.579  22.302  1.00  0.00     0.119 A 
BRANCH  11  12
ATOM     12  O   UNL A   1      33.839  23.709  22.180  1.00  0.00    -0.492 OA
BRANCH  12  13
ATOM     13  C   UNL A   1      33.661  22.595  23.067  1.00  0.00     0.244 C 
BRANCH  13  14
ATOM     14  C   UNL A   1      34.806  22.568  24.102  1.00  0.00     0.094 C 
ATOM     15  C   UNL A   1      35.349  23.980  24.428  1.00  0.00     0.055 C 
ATOM     16  S   UNL A   1      34.078  22.009  25.682  1.00  0.00    -0.119 SA
ATOM     17  C   UNL A   1      34.299  24.604  25.309  1.00  0.00    -0.033 A 
ATOM     18  C   UNL A   1      33.516  23.660  25.992  1.00  0.00     0.011 A 
ATOM     19  C   UNL A   1      34.019  25.959  25.407  1.00  0.00     0.005 A 
ATOM     20  C   UNL A   1      32.371  24.030  26.665  1.00  0.00     0.015 A 
ATOM     21  C   UNL A   1      32.875  26.342  26.105  1.00  0.00     0.000 A 
ATOM     22  C   UNL A   1      32.043  25.383  26.699  1.00  0.00     0.001 A 
ENDBRANCH  13  14
ENDBRANCH  12  13
ENDBRANCH  11  12
ENDBRANCH   5   6
ENDBRANCH   3   5
ENDBRANCH   2   3
ENDBRANCH   1   2
BRANCH   1  23
ATOM     23  C   UNL A   1      31.618  30.428  25.661  1.00  0.00     0.275 C 
BRANCH  23  24
ATOM     24  O   UNL A   1      32.987  30.497  26.097  1.00  0.00    -0.458 OA
BRANCH  24  25
ATOM     25  C   UNL A   1      33.284  31.510  26.947  1.00  0.00     0.338 C 
ATOM     26  O   UNL A   1      32.574  32.463  27.222  1.00  0.00    -0.246 OA
BRANCH  25  27
ATOM     27  C   UNL A   1      34.532  31.175  27.671  1.00  0.00     0.060 A 
ATOM     28  C   UNL A   1      34.739  29.833  28.016  1.00  0.00     0.016 A 
ATOM     29  C   UNL A   1      35.512  32.133  27.950  1.00  0.00     0.016 A 
ATOM     30  C   UNL A   1      35.920  29.449  28.650  1.00  0.00     0.010 A 
ATOM     31  C   UNL A   1      36.692  31.746  28.596  1.00  0.00     0.010 A 
ATOM     32  C   UNL A   1      36.893  30.406  28.967  1.00  0.00    -0.014 A 
BRANCH  32  33
ATOM     33  C   UNL A   1      38.058  30.013  29.798  1.00  0.00     0.031 A 
ATOM     34  C   UNL A   1      39.065  29.048  29.231  1.00  0.00     0.074 A 
ATOM     35  C   UNL A   1      38.239  30.529  31.029  1.00  0.00     0.049 A 
ATOM     36  N   UNL A   1      40.186  28.620  29.754  1.00  0.00    -0.248 NA
ATOM     37  C   UNL A   1      38.773  28.493  27.898  1.00  0.00     0.031 C 
ATOM     38  C   UNL A   1      37.339  31.463  31.706  1.00  0.00     0.029 A 
ATOM     39  N   UNL A   1      39.252  30.325  31.934  1.00  0.00    -0.354 N 
ATOM     40  C   UNL A   1      40.733  27.750  28.818  1.00  0.00     0.074 A 
ATOM     41  C   UNL A   1      39.805  27.684  27.709  1.00  0.00     0.031 C 
ATOM     42  C   UNL A   1      37.836  31.743  32.926  1.00  0.00     0.029 A 
ATOM     43  C   UNL A   1      39.082  31.006  33.116  1.00  0.00     0.049 A 
ATOM     44  H   UNL A   1      40.026  29.744  31.753  1.00  0.00     0.167 HD
ATOM     45  C   UNL A   1      41.912  27.087  28.860  1.00  0.00     0.034 A 
ATOM     46  C   UNL A   1      39.850  31.026  34.223  1.00  0.00     0.034 A 
ATOM     47  C   UNL A   1      42.844  27.150  29.953  1.00  0.00     0.049 A 
ATOM     48  C   UNL A   1      41.131  30.231  34.260  1.00  0.00     0.074 A 
ATOM     49  C   UNL A   1      44.081  26.537  30.065  1.00  0.00     0.029 A 
ATOM     50  N   UNL A   1      42.641  27.853  31.128  1.00  0.00    -0.354 N 
ATOM     51  N   UNL A   1      41.694  29.519  33.315  1.00  0.00    -0.248 NA
ATOM     52  C   UNL A   1      41.899  30.275  35.516  1.00  0.00     0.031 C 
ATOM     53  C   UNL A   1      44.614  26.852  31.319  1.00  0.00     0.029 A 
ATOM     54  C   UNL A   1      43.722  27.682  31.975  1.00  0.00     0.049 A 
ATOM     55  H   UNL A   1      41.844  28.395  31.331  1.00  0.00     0.167 HD
ATOM     56  C   UNL A   1      42.898  29.065  33.849  1.00  0.00     0.074 A 
ATOM     57  C   UNL A   1      42.993  29.603  35.189  1.00  0.00     0.031 C 
ATOM     58  C   UNL A   1      43.835  28.263  33.286  1.00  0.00     0.034 A 
BRANCH  45  59
ATOM     59  C   UNL A   1      42.294  26.266  27.658  1.00  0.00     0.023 A 
ATOM     60  C   UNL A   1      43.094  26.846  26.653  1.00  0.00     0.012 A 
ATOM     61  C   UNL A   1      41.932  24.908  27.561  1.00  0.00     0.148 A 
ATOM     62  C   UNL A   1      43.512  26.093  25.557  1.00  0.00     0.002 A 
ATOM     63  C   UNL A   1      42.387  24.154  26.486  1.00  0.00     0.091 A 
ATOM     64  F   UNL A   1      41.154  24.385  28.517  1.00  0.00    -0.205 F 
ATOM     65  C   UNL A   1      43.170  24.746  25.480  1.00  0.00     0.022 A 
BRANCH  63  66
ATOM     66  S   UNL A   1      42.063  22.395  26.329  1.00  0.00     0.127 S 
ATOM     67  O   UNL A   1      40.601  22.370  26.262  1.00  0.00    -0.237 OA
ATOM     68  O   UNL A   1      42.736  22.071  25.072  1.00  0.00    -0.237 OA
ATOM     69  O   UNL A   1      42.640  21.771  27.510  1.00  0.00    -0.744 OA
ENDBRANCH  63  66
ENDBRANCH  45  59
BRANCH  46  70
ATOM     70  C   UNL A   1      39.471  31.837  35.413  1.00  0.00     0.023 A 
ATOM     71  C   UNL A   1      38.528  31.325  36.325  1.00  0.00     0.012 A 
ATOM     72  C   UNL A   1      39.946  33.151  35.571  1.00  0.00     0.148 A 
ATOM     73  C   UNL A   1      38.020  32.129  37.346  1.00  0.00     0.002 A 
ATOM     74  C   UNL A   1      39.447  33.939  36.601  1.00  0.00     0.091 A 
ATOM     75  F   UNL A   1      40.861  33.605  34.704  1.00  0.00    -0.205 F 
ATOM     76  C   UNL A   1      38.475  33.436  37.480  1.00  0.00     0.022 A 
BRANCH  74  77
ATOM     77  S   UNL A   1      39.976  35.629  36.871  1.00  0.00     0.127 S 
ATOM     78  O   UNL A   1      39.297  35.970  38.119  1.00  0.00    -0.237 OA
ATOM     79  O   UNL A   1      41.423  35.460  36.985  1.00  0.00    -0.237 OA
ATOM     80  O   UNL A   1      39.527  36.374  35.705  1.00  0.00    -0.744 OA
ENDBRANCH  74  77
ENDBRANCH  46  70
BRANCH  58  81
ATOM     81  C   UNL A   1      45.064  27.950  34.100  1.00  0.00     0.023 A 
ATOM     82  C   UNL A   1      46.184  28.804  34.040  1.00  0.00     0.012 A 
ATOM     83  C   UNL A   1      45.095  26.831  34.956  1.00  0.00     0.148 A 
ATOM     84  C   UNL A   1      47.329  28.526  34.786  1.00  0.00     0.002 A 
ATOM     85  C   UNL A   1      46.222  26.589  35.734  1.00  0.00     0.091 A 
ATOM     86  F   UNL A   1      44.030  26.017  34.986  1.00  0.00    -0.205 F 
ATOM     87  C   UNL A   1      47.344  27.426  35.639  1.00  0.00     0.022 A 
BRANCH  85  88
ATOM     88  S   UNL A   1      46.291  25.249  36.929  1.00  0.00     0.127 S 
ATOM     89  O   UNL A   1      45.080  25.484  37.714  1.00  0.00    -0.237 OA
ATOM     90  O   UNL A   1      46.241  24.064  36.072  1.00  0.00    -0.237 OA
ATOM     91  O   UNL A   1      47.548  25.419  37.646  1.00  0.00    -0.744 OA
ENDBRANCH  85  88
ENDBRANCH  58  81
ENDBRANCH  32  33
ENDBRANCH  25  27
ENDBRANCH  24  25
ENDBRANCH  23  24
ENDBRANCH   1  23
TORSDOF 18
ENDMDL
