MODEL 1
REMARK VINA RESULT:     -12.5      0.000      0.000
REMARK SMILES Cc1ccnc(C(=O)c2[nH]c3cc(Cl)c(F)cc3c2CC(=O)OCCOC(=O)c2ccc(-c3c4nc(c(-c5cccc(S(=O)(=O)[O-])c5F)c5ccc([nH]5)c(-c5cccc(S(=O)(=O)[O-])c5F)c5nc(c(-c6cccc(S(=O)(=O)[O-])c6F)c6ccc3[nH]6)C=C5)C=C4)cc2)c1
REMARK SMILES IDX 24 1 23 2 21 3 22 4 20 5 19 6 9 7 10 8 11 9 18 11 12 12
REMARK SMILES IDX 17 13 13 14 15 15 14 16 16 17 7 18 8 19 6 20 1 21 2 22 3 23
REMARK SMILES IDX 92 24 4 25 5 26 25 27 26 28 27 29 28 30 29 31 30 32 91 33
REMARK SMILES IDX 31 34 90 35 32 36 33 37 34 38 84 39 35 40 89 41 83 42 85 43
REMARK SMILES IDX 36 44 88 45 82 46 81 47 37 49 69 50 49 51 68 52 50 53 53 54
REMARK SMILES IDX 67 55 86 56 51 57 52 58 66 60 87 61 54 62 38 63 39 64 47 65
REMARK SMILES IDX 40 66 42 67 48 68 41 69 43 70 44 71 45 72 46 73 70 74 71 75
REMARK SMILES IDX 79 76 72 77 74 78 80 79 73 80 75 81 76 82 77 83 78 84 55 85
REMARK SMILES IDX 56 86 64 87 57 88 59 89 65 90 58 91 60 92 61 93 62 94 63 95
REMARK H PARENT 10 10 85 48 53 59
REMARK Flexibility Score: inf
ROOT
ATOM      1  C   UNL A   1      33.417  29.699  27.008  1.00  0.00     0.274 C 
ENDROOT
BRANCH   1   2
ATOM      2  O   UNL A   1      31.970  29.713  26.855  1.00  0.00    -0.462 OA
BRANCH   2   3
ATOM      3  C   UNL A   1      31.557  30.324  25.719  1.00  0.00     0.310 C 
ATOM      4  O   UNL A   1      31.042  31.443  25.732  1.00  0.00    -0.252 OA
BRANCH   3   5
ATOM      5  C   UNL A   1      31.608  29.561  24.426  1.00  0.00     0.161 C 
BRANCH   5   6
ATOM      6  C   UNL A   1      30.890  28.284  24.049  1.00  0.00     0.000 A 
ATOM      7  C   UNL A   1      29.587  27.985  23.618  1.00  0.00     0.093 A 
ATOM      8  N   UNL A   1      29.395  26.633  23.804  1.00  0.00    -0.351 N 
ATOM      9  C   UNL A   1      30.523  26.014  24.252  1.00  0.00     0.048 A 
ATOM     10  H   UNL A   1      28.544  26.169  23.635  1.00  0.00     0.167 HD
ATOM     11  C   UNL A   1      31.472  27.010  24.447  1.00  0.00     0.007 A 
ATOM     12  C   UNL A   1      30.743  24.665  24.553  1.00  0.00     0.050 A 
ATOM     13  C   UNL A   1      32.703  26.637  25.035  1.00  0.00     0.051 A 
ATOM     14  C   UNL A   1      31.987  24.321  25.085  1.00  0.00     0.078 A 
ATOM     15  C   UNL A   1      32.945  25.295  25.334  1.00  0.00     0.142 A 
ATOM     16  Cl  UNL A   1      32.313  22.664  25.423  1.00  0.00    -0.081 Cl
ATOM     17  F   UNL A   1      34.133  24.965  25.860  1.00  0.00    -0.205 F 
BRANCH   7  18
ATOM     18  C   UNL A   1      28.412  28.727  23.167  1.00  0.00     0.227 C 
ATOM     19  O   UNL A   1      27.295  28.218  23.238  1.00  0.00    -0.285 OA
BRANCH  18  20
ATOM     20  C   UNL A   1      28.606  30.015  22.408  1.00  0.00     0.113 A 
ATOM     21  C   UNL A   1      28.995  33.664  23.258  1.00  0.00     0.044 C 
ATOM     22  C   UNL A   1      28.787  32.406  22.473  1.00  0.00    -0.047 A 
ATOM     23  C   UNL A   1      28.235  32.434  21.190  1.00  0.00     0.023 A 
ATOM     24  C   UNL A   1      28.998  31.169  23.083  1.00  0.00     0.036 A 
ATOM     25  C   UNL A   1      27.976  31.228  20.550  1.00  0.00     0.112 A 
ATOM     26  N   UNL A   1      28.202  30.017  21.105  1.00  0.00    -0.253 NA
ENDBRANCH  18  20
ENDBRANCH   7  18
ENDBRANCH   5   6
ENDBRANCH   3   5
ENDBRANCH   2   3
ENDBRANCH   1   2
BRANCH   1  27
ATOM     27  C   UNL A   1      34.019  31.000  27.569  1.00  0.00     0.275 C 
BRANCH  27  28
ATOM     28  O   UNL A   1      35.435  30.939  27.777  1.00  0.00    -0.458 OA
BRANCH  28  29
ATOM     29  C   UNL A   1      35.917  31.892  28.610  1.00  0.00     0.338 C 
ATOM     30  O   UNL A   1      35.420  32.989  28.761  1.00  0.00    -0.246 OA
BRANCH  29  31
ATOM     31  C   UNL A   1      36.841  31.329  29.595  1.00  0.00     0.060 A 
ATOM     32  C   UNL A   1      38.160  31.723  29.491  1.00  0.00     0.016 A 
ATOM     33  C   UNL A   1      36.476  30.070  30.100  1.00  0.00     0.016 A 
ATOM     34  C   UNL A   1      39.092  30.717  29.463  1.00  0.00     0.010 A 
ATOM     35  C   UNL A   1      37.428  29.073  30.131  1.00  0.00     0.010 A 
ATOM     36  C   UNL A   1      38.698  29.379  29.669  1.00  0.00    -0.014 A 
BRANCH  36  37
ATOM     37  C   UNL A   1      39.768  28.410  29.751  1.00  0.00     0.031 A 
ATOM     38  C   UNL A   1      40.221  28.371  31.149  1.00  0.00     0.074 A 
ATOM     39  C   UNL A   1      40.397  27.728  28.780  1.00  0.00     0.049 A 
ATOM     40  N   UNL A   1      41.149  29.129  31.622  1.00  0.00    -0.248 NA
ATOM     41  C   UNL A   1      39.366  27.729  32.150  1.00  0.00     0.031 C 
ATOM     42  C   UNL A   1      40.024  27.442  27.398  1.00  0.00     0.029 A 
ATOM     43  N   UNL A   1      41.589  27.085  28.914  1.00  0.00    -0.354 N 
ATOM     44  C   UNL A   1      41.128  28.918  32.984  1.00  0.00     0.074 A 
ATOM     45  C   UNL A   1      39.897  28.227  33.267  1.00  0.00     0.031 C 
ATOM     46  C   UNL A   1      40.870  26.503  26.895  1.00  0.00     0.029 A 
ATOM     47  C   UNL A   1      41.936  26.266  27.854  1.00  0.00     0.049 A 
ATOM     48  H   UNL A   1      42.161  27.195  29.706  1.00  0.00     0.167 HD
ATOM     49  C   UNL A   1      42.261  29.113  33.702  1.00  0.00     0.034 A 
ATOM     50  C   UNL A   1      43.022  25.453  27.817  1.00  0.00     0.034 A 
ATOM     51  C   UNL A   1      43.198  29.949  32.981  1.00  0.00     0.049 A 
ATOM     52  C   UNL A   1      44.028  26.040  28.738  1.00  0.00     0.074 A 
ATOM     53  C   UNL A   1      43.169  31.242  32.491  1.00  0.00     0.029 A 
ATOM     54  N   UNL A   1      44.202  29.309  32.294  1.00  0.00    -0.354 N 
ATOM     55  N   UNL A   1      44.636  27.170  28.505  1.00  0.00    -0.248 NA
ATOM     56  C   UNL A   1      44.048  25.587  30.119  1.00  0.00     0.031 C 
ATOM     57  C   UNL A   1      43.848  31.183  31.236  1.00  0.00     0.029 A 
ATOM     58  C   UNL A   1      44.299  29.875  31.050  1.00  0.00     0.049 A 
ATOM     59  H   UNL A   1      44.756  28.571  32.637  1.00  0.00     0.167 HD
ATOM     60  C   UNL A   1      44.698  27.787  29.747  1.00  0.00     0.074 A 
ATOM     61  C   UNL A   1      44.416  26.726  30.713  1.00  0.00     0.031 C 
ATOM     62  C   UNL A   1      44.697  29.149  29.861  1.00  0.00     0.034 A 
BRANCH  49  63
ATOM     63  C   UNL A   1      42.677  28.199  34.823  1.00  0.00     0.023 A 
ATOM     64  C   UNL A   1      43.077  28.814  36.025  1.00  0.00     0.012 A 
ATOM     65  C   UNL A   1      42.962  26.819  34.680  1.00  0.00     0.148 A 
ATOM     66  C   UNL A   1      43.791  28.111  37.000  1.00  0.00     0.002 A 
ATOM     67  C   UNL A   1      43.601  26.107  35.682  1.00  0.00     0.091 A 
ATOM     68  F   UNL A   1      42.748  26.193  33.522  1.00  0.00    -0.205 F 
ATOM     69  C   UNL A   1      44.051  26.757  36.830  1.00  0.00     0.022 A 
BRANCH  67  70
ATOM     70  S   UNL A   1      43.915  24.344  35.522  1.00  0.00     0.127 S 
ATOM     71  O   UNL A   1      42.591  23.843  35.172  1.00  0.00    -0.237 OA
ATOM     72  O   UNL A   1      44.898  24.319  34.439  1.00  0.00    -0.237 OA
ATOM     73  O   UNL A   1      44.442  23.915  36.812  1.00  0.00    -0.744 OA
ENDBRANCH  67  70
ENDBRANCH  49  63
BRANCH  50  74
ATOM     74  C   UNL A   1      43.151  24.055  27.341  1.00  0.00     0.023 A 
ATOM     75  C   UNL A   1      42.054  23.177  27.488  1.00  0.00     0.012 A 
ATOM     76  C   UNL A   1      44.182  23.691  26.451  1.00  0.00     0.148 A 
ATOM     77  C   UNL A   1      41.958  22.006  26.727  1.00  0.00     0.002 A 
ATOM     78  C   UNL A   1      44.078  22.528  25.690  1.00  0.00     0.091 A 
ATOM     79  F   UNL A   1      45.213  24.529  26.281  1.00  0.00    -0.205 F 
ATOM     80  C   UNL A   1      42.960  21.691  25.816  1.00  0.00     0.022 A 
BRANCH  78  81
ATOM     81  S   UNL A   1      45.296  22.079  24.446  1.00  0.00     0.127 S 
ATOM     82  O   UNL A   1      46.393  21.574  25.273  1.00  0.00    -0.237 OA
ATOM     83  O   UNL A   1      44.585  21.057  23.684  1.00  0.00    -0.237 OA
ATOM     84  O   UNL A   1      45.602  23.306  23.725  1.00  0.00    -0.744 OA
ENDBRANCH  78  81
ENDBRANCH  50  74
BRANCH  62  85
ATOM     85  C   UNL A   1      44.888  29.966  28.603  1.00  0.00     0.023 A 
ATOM     86  C   UNL A   1      43.810  30.370  27.787  1.00  0.00     0.012 A 
ATOM     87  C   UNL A   1      46.169  30.480  28.335  1.00  0.00     0.148 A 
ATOM     88  C   UNL A   1      44.010  31.253  26.719  1.00  0.00     0.002 A 
ATOM     89  C   UNL A   1      46.354  31.398  27.309  1.00  0.00     0.091 A 
ATOM     90  F   UNL A   1      47.186  30.083  29.114  1.00  0.00    -0.205 F 
ATOM     91  C   UNL A   1      45.279  31.779  26.490  1.00  0.00     0.022 A 
BRANCH  89  92
ATOM     92  S   UNL A   1      47.928  32.220  27.054  1.00  0.00     0.127 S 
ATOM     93  O   UNL A   1      47.652  33.060  25.890  1.00  0.00    -0.237 OA
ATOM     94  O   UNL A   1      48.106  32.954  28.308  1.00  0.00    -0.237 OA
ATOM     95  O   UNL A   1      48.908  31.160  26.842  1.00  0.00    -0.744 OA
ENDBRANCH  89  92
ENDBRANCH  62  85
ENDBRANCH  36  37
ENDBRANCH  29  31
ENDBRANCH  28  29
ENDBRANCH  27  28
ENDBRANCH   1  27
TORSDOF 17
ENDMDL
MODEL 2
REMARK VINA RESULT:     -12.3      1.354      2.053
REMARK SMILES Cc1ccnc(C(=O)c2[nH]c3cc(Cl)c(F)cc3c2CC(=O)OCCOC(=O)c2ccc(-c3c4nc(c(-c5cccc(S(=O)(=O)[O-])c5F)c5ccc([nH]5)c(-c5cccc(S(=O)(=O)[O-])c5F)c5nc(c(-c6cccc(S(=O)(=O)[O-])c6F)c6ccc3[nH]6)C=C5)C=C4)cc2)c1
REMARK SMILES IDX 24 1 23 2 21 3 22 4 20 5 19 6 9 7 10 8 11 9 18 11 12 12
REMARK SMILES IDX 17 13 13 14 15 15 14 16 16 17 7 18 8 19 6 20 1 21 2 22 3 23
REMARK SMILES IDX 92 24 4 25 5 26 25 27 26 28 27 29 28 30 29 31 30 32 91 33
REMARK SMILES IDX 31 34 90 35 32 36 33 37 34 38 84 39 35 40 89 41 83 42 85 43
REMARK SMILES IDX 36 44 88 45 82 46 81 47 37 49 69 50 49 51 68 52 50 53 53 54
REMARK SMILES IDX 67 55 86 56 51 57 52 58 66 60 87 61 54 62 38 63 39 64 47 65
REMARK SMILES IDX 40 66 42 67 48 68 41 69 43 70 44 71 45 72 46 73 70 74 71 75
REMARK SMILES IDX 79 76 72 77 74 78 80 79 73 80 75 81 76 82 77 83 78 84 55 85
REMARK SMILES IDX 56 86 64 87 57 88 59 89 65 90 58 91 60 92 61 93 62 94 63 95
REMARK H PARENT 10 10 85 48 53 59
REMARK Flexibility Score: inf
ROOT
ATOM      1  C   UNL A   1      33.716  30.245  27.605  1.00  0.00     0.274 C 
ENDROOT
BRANCH   1   2
ATOM      2  O   UNL A   1      34.405  29.199  26.865  1.00  0.00    -0.462 OA
BRANCH   2   3
ATOM      3  C   UNL A   1      33.574  28.442  26.109  1.00  0.00     0.310 C 
ATOM      4  O   UNL A   1      32.587  28.921  25.548  1.00  0.00    -0.252 OA
BRANCH   3   5
ATOM      5  C   UNL A   1      33.790  26.957  26.059  1.00  0.00     0.161 C 
BRANCH   5   6
ATOM      6  C   UNL A   1      33.856  26.048  24.852  1.00  0.00     0.000 A 
ATOM      7  C   UNL A   1      33.436  26.162  23.517  1.00  0.00     0.093 A 
ATOM      8  N   UNL A   1      33.406  24.890  22.987  1.00  0.00    -0.351 N 
ATOM      9  C   UNL A   1      33.865  23.959  23.869  1.00  0.00     0.048 A 
ATOM     10  H   UNL A   1      33.091  24.679  22.078  1.00  0.00     0.167 HD
ATOM     11  C   UNL A   1      34.130  24.631  25.055  1.00  0.00     0.007 A 
ATOM     12  C   UNL A   1      34.002  22.575  23.716  1.00  0.00     0.050 A 
ATOM     13  C   UNL A   1      34.501  23.858  26.180  1.00  0.00     0.051 A 
ATOM     14  C   UNL A   1      34.420  21.845  24.830  1.00  0.00     0.078 A 
ATOM     15  C   UNL A   1      34.652  22.477  26.045  1.00  0.00     0.142 A 
ATOM     16  Cl  UNL A   1      34.647  20.145  24.669  1.00  0.00    -0.081 Cl
ATOM     17  F   UNL A   1      35.038  21.772  27.119  1.00  0.00    -0.205 F 
BRANCH   7  18
ATOM     18  C   UNL A   1      32.930  27.216  22.641  1.00  0.00     0.227 C 
ATOM     19  O   UNL A   1      33.710  27.983  22.081  1.00  0.00    -0.285 OA
BRANCH  18  20
ATOM     20  C   UNL A   1      31.448  27.496  22.613  1.00  0.00     0.113 A 
ATOM     21  C   UNL A   1      29.237  30.533  22.340  1.00  0.00     0.044 C 
ATOM     22  C   UNL A   1      29.686  29.122  22.565  1.00  0.00    -0.047 A 
ATOM     23  C   UNL A   1      28.892  28.211  23.265  1.00  0.00     0.023 A 
ATOM     24  C   UNL A   1      30.983  28.745  22.212  1.00  0.00     0.036 A 
ATOM     25  C   UNL A   1      29.402  26.945  23.526  1.00  0.00     0.112 A 
ATOM     26  N   UNL A   1      30.641  26.544  23.167  1.00  0.00    -0.253 NA
ENDBRANCH  18  20
ENDBRANCH   7  18
ENDBRANCH   5   6
ENDBRANCH   3   5
ENDBRANCH   2   3
ENDBRANCH   1   2
BRANCH   1  27
ATOM     27  C   UNL A   1      34.422  31.614  27.595  1.00  0.00     0.275 C 
BRANCH  27  28
ATOM     28  O   UNL A   1      35.825  31.543  27.872  1.00  0.00    -0.458 OA
BRANCH  28  29
ATOM     29  C   UNL A   1      36.237  32.359  28.872  1.00  0.00     0.338 C 
ATOM     30  O   UNL A   1      35.748  33.441  29.122  1.00  0.00    -0.246 OA
BRANCH  29  31
ATOM     31  C   UNL A   1      37.046  31.639  29.856  1.00  0.00     0.060 A 
ATOM     32  C   UNL A   1      38.381  31.985  29.921  1.00  0.00     0.016 A 
ATOM     33  C   UNL A   1      36.595  30.343  30.162  1.00  0.00     0.016 A 
ATOM     34  C   UNL A   1      39.279  30.950  29.849  1.00  0.00     0.010 A 
ATOM     35  C   UNL A   1      37.508  29.310  30.151  1.00  0.00     0.010 A 
ATOM     36  C   UNL A   1      38.824  29.615  29.847  1.00  0.00    -0.014 A 
BRANCH  36  37
ATOM     37  C   UNL A   1      39.851  28.597  29.901  1.00  0.00     0.031 A 
ATOM     38  C   UNL A   1      40.339  28.537  31.286  1.00  0.00     0.074 A 
ATOM     39  C   UNL A   1      40.420  27.888  28.914  1.00  0.00     0.049 A 
ATOM     40  N   UNL A   1      41.314  29.252  31.733  1.00  0.00    -0.248 NA
ATOM     41  C   UNL A   1      39.483  27.936  32.311  1.00  0.00     0.031 C 
ATOM     42  C   UNL A   1      39.997  27.619  27.543  1.00  0.00     0.029 A 
ATOM     43  N   UNL A   1      41.584  27.191  29.015  1.00  0.00    -0.354 N 
ATOM     44  C   UNL A   1      41.320  29.041  33.095  1.00  0.00     0.074 A 
ATOM     45  C   UNL A   1      40.067  28.408  33.412  1.00  0.00     0.031 C 
ATOM     46  C   UNL A   1      40.785  26.643  27.017  1.00  0.00     0.029 A 
ATOM     47  C   UNL A   1      41.865  26.356  27.947  1.00  0.00     0.049 A 
ATOM     48  H   UNL A   1      42.183  27.274  29.792  1.00  0.00     0.167 HD
ATOM     49  C   UNL A   1      42.480  29.184  33.782  1.00  0.00     0.034 A 
ATOM     50  C   UNL A   1      42.910  25.495  27.881  1.00  0.00     0.034 A 
ATOM     51  C   UNL A   1      43.435  29.976  33.035  1.00  0.00     0.049 A 
ATOM     52  C   UNL A   1      43.967  26.034  28.774  1.00  0.00     0.074 A 
ATOM     53  C   UNL A   1      43.452  31.268  32.544  1.00  0.00     0.029 A 
ATOM     54  N   UNL A   1      44.389  29.290  32.321  1.00  0.00    -0.354 N 
ATOM     55  N   UNL A   1      44.620  27.134  28.524  1.00  0.00    -0.248 NA
ATOM     56  C   UNL A   1      44.004  25.580  30.154  1.00  0.00     0.031 C 
ATOM     57  C   UNL A   1      44.093  31.179  31.271  1.00  0.00     0.029 A 
ATOM     58  C   UNL A   1      44.478  29.852  31.074  1.00  0.00     0.049 A 
ATOM     59  H   UNL A   1      44.918  28.527  32.649  1.00  0.00     0.167 HD
ATOM     60  C   UNL A   1      44.744  27.748  29.763  1.00  0.00     0.074 A 
ATOM     61  C   UNL A   1      44.441  26.700  30.737  1.00  0.00     0.031 C 
ATOM     62  C   UNL A   1      44.810  29.108  29.875  1.00  0.00     0.034 A 
BRANCH  49  63
ATOM     63  C   UNL A   1      42.884  28.251  34.892  1.00  0.00     0.023 A 
ATOM     64  C   UNL A   1      43.316  28.847  36.093  1.00  0.00     0.012 A 
ATOM     65  C   UNL A   1      43.129  26.865  34.736  1.00  0.00     0.148 A 
ATOM     66  C   UNL A   1      44.021  28.118  37.054  1.00  0.00     0.002 A 
ATOM     67  C   UNL A   1      43.759  26.129  35.727  1.00  0.00     0.091 A 
ATOM     68  F   UNL A   1      42.884  26.253  33.578  1.00  0.00    -0.205 F 
ATOM     69  C   UNL A   1      44.241  26.758  36.873  1.00  0.00     0.022 A 
BRANCH  67  70
ATOM     70  S   UNL A   1      44.023  24.359  35.552  1.00  0.00     0.127 S 
ATOM     71  O   UNL A   1      42.670  23.890  35.271  1.00  0.00    -0.237 OA
ATOM     72  O   UNL A   1      44.947  24.311  34.418  1.00  0.00    -0.237 OA
ATOM     73  O   UNL A   1      44.606  23.916  36.812  1.00  0.00    -0.744 OA
ENDBRANCH  67  70
ENDBRANCH  49  63
BRANCH  50  74
ATOM     74  C   UNL A   1      42.961  24.092  27.404  1.00  0.00     0.023 A 
ATOM     75  C   UNL A   1      41.805  23.287  27.513  1.00  0.00     0.012 A 
ATOM     76  C   UNL A   1      43.993  23.663  26.544  1.00  0.00     0.148 A 
ATOM     77  C   UNL A   1      41.655  22.128  26.745  1.00  0.00     0.002 A 
ATOM     78  C   UNL A   1      43.836  22.511  25.775  1.00  0.00     0.091 A 
ATOM     79  F   UNL A   1      45.081  24.431  26.409  1.00  0.00    -0.205 F 
ATOM     80  C   UNL A   1      42.663  21.749  25.863  1.00  0.00     0.022 A 
BRANCH  78  81
ATOM     81  S   UNL A   1      45.060  21.985  24.567  1.00  0.00     0.127 S 
ATOM     82  O   UNL A   1      46.243  21.792  25.406  1.00  0.00    -0.237 OA
ATOM     83  O   UNL A   1      44.466  20.754  24.054  1.00  0.00    -0.237 OA
ATOM     84  O   UNL A   1      45.172  23.077  23.611  1.00  0.00    -0.744 OA
ENDBRANCH  78  81
ENDBRANCH  50  74
BRANCH  62  85
ATOM     85  C   UNL A   1      45.004  29.916  28.612  1.00  0.00     0.023 A 
ATOM     86  C   UNL A   1      43.925  30.335  27.803  1.00  0.00     0.012 A 
ATOM     87  C   UNL A   1      46.291  30.406  28.330  1.00  0.00     0.148 A 
ATOM     88  C   UNL A   1      44.131  31.209  26.730  1.00  0.00     0.002 A 
ATOM     89  C   UNL A   1      46.483  31.316  27.298  1.00  0.00     0.091 A 
ATOM     90  F   UNL A   1      47.308  29.994  29.102  1.00  0.00    -0.205 F 
ATOM     91  C   UNL A   1      45.407  31.712  26.487  1.00  0.00     0.022 A 
BRANCH  89  92
ATOM     92  S   UNL A   1      48.069  32.109  27.025  1.00  0.00     0.127 S 
ATOM     93  O   UNL A   1      47.757  33.066  25.966  1.00  0.00    -0.237 OA
ATOM     94  O   UNL A   1      48.347  32.712  28.330  1.00  0.00    -0.237 OA
ATOM     95  O   UNL A   1      48.994  31.044  26.654  1.00  0.00    -0.744 OA
ENDBRANCH  89  92
ENDBRANCH  62  85
ENDBRANCH  36  37
ENDBRANCH  29  31
ENDBRANCH  28  29
ENDBRANCH  27  28
ENDBRANCH   1  27
TORSDOF 17
ENDMDL
MODEL 3
REMARK VINA RESULT:     -12.2      3.861      9.497
REMARK SMILES Cc1ccnc(C(=O)c2[nH]c3cc(Cl)c(F)cc3c2CC(=O)OCCOC(=O)c2ccc(-c3c4nc(c(-c5cccc(S(=O)(=O)[O-])c5F)c5ccc([nH]5)c(-c5cccc(S(=O)(=O)[O-])c5F)c5nc(c(-c6cccc(S(=O)(=O)[O-])c6F)c6ccc3[nH]6)C=C5)C=C4)cc2)c1
REMARK SMILES IDX 24 1 23 2 21 3 22 4 20 5 19 6 9 7 10 8 11 9 18 11 12 12
REMARK SMILES IDX 17 13 13 14 15 15 14 16 16 17 7 18 8 19 6 20 1 21 2 22 3 23
REMARK SMILES IDX 92 24 4 25 5 26 25 27 26 28 27 29 28 30 29 31 30 32 91 33
REMARK SMILES IDX 31 34 90 35 32 36 33 37 34 38 84 39 35 40 89 41 83 42 85 43
REMARK SMILES IDX 36 44 88 45 82 46 81 47 37 49 69 50 49 51 68 52 50 53 53 54
REMARK SMILES IDX 67 55 86 56 51 57 52 58 66 60 87 61 54 62 38 63 39 64 47 65
REMARK SMILES IDX 40 66 42 67 48 68 41 69 43 70 44 71 45 72 46 73 70 74 71 75
REMARK SMILES IDX 79 76 72 77 74 78 80 79 73 80 75 81 76 82 77 83 78 84 55 85
REMARK SMILES IDX 56 86 64 87 57 88 59 89 65 90 58 91 60 92 61 93 62 94 63 95
REMARK H PARENT 10 10 85 48 53 59
REMARK Flexibility Score: inf
ROOT
ATOM      1  C   UNL A   1      36.927  22.637  25.537  1.00  0.00     0.274 C 
ENDROOT
BRANCH   1   2
ATOM      2  O   UNL A   1      36.631  22.707  24.114  1.00  0.00    -0.462 OA
BRANCH   2   3
ATOM      3  C   UNL A   1      35.556  23.480  23.827  1.00  0.00     0.310 C 
ATOM      4  O   UNL A   1      35.048  23.497  22.705  1.00  0.00    -0.252 OA
BRANCH   3   5
ATOM      5  C   UNL A   1      35.054  24.438  24.868  1.00  0.00     0.161 C 
BRANCH   5   6
ATOM      6  C   UNL A   1      33.636  24.898  25.128  1.00  0.00     0.000 A 
ATOM      7  C   UNL A   1      32.370  24.437  24.733  1.00  0.00     0.093 A 
ATOM      8  N   UNL A   1      31.476  25.466  24.943  1.00  0.00    -0.351 N 
ATOM      9  C   UNL A   1      32.067  26.542  25.534  1.00  0.00     0.048 A 
ATOM     10  H   UNL A   1      30.524  25.428  24.696  1.00  0.00     0.167 HD
ATOM     11  C   UNL A   1      33.420  26.244  25.641  1.00  0.00     0.007 A 
ATOM     12  C   UNL A   1      31.511  27.768  25.916  1.00  0.00     0.050 A 
ATOM     13  C   UNL A   1      34.281  27.263  26.111  1.00  0.00     0.051 A 
ATOM     14  C   UNL A   1      32.380  28.735  26.424  1.00  0.00     0.078 A 
ATOM     15  C   UNL A   1      33.744  28.489  26.506  1.00  0.00     0.142 A 
ATOM     16  Cl  UNL A   1      31.727  30.240  26.952  1.00  0.00    -0.081 Cl
ATOM     17  F   UNL A   1      34.580  29.425  26.980  1.00  0.00    -0.205 F 
BRANCH   7  18
ATOM     18  C   UNL A   1      31.819  23.256  24.074  1.00  0.00     0.227 C 
ATOM     19  O   UNL A   1      30.761  23.332  23.451  1.00  0.00    -0.285 OA
BRANCH  18  20
ATOM     20  C   UNL A   1      32.432  21.907  24.356  1.00  0.00     0.113 A 
ATOM     21  C   UNL A   1      32.320  18.470  22.820  1.00  0.00     0.044 C 
ATOM     22  C   UNL A   1      32.579  19.582  23.789  1.00  0.00    -0.047 A 
ATOM     23  C   UNL A   1      32.862  19.322  25.132  1.00  0.00     0.023 A 
ATOM     24  C   UNL A   1      32.384  20.905  23.391  1.00  0.00     0.036 A 
ATOM     25  C   UNL A   1      32.998  20.395  26.004  1.00  0.00     0.112 A 
ATOM     26  N   UNL A   1      32.847  21.687  25.638  1.00  0.00    -0.253 NA
ENDBRANCH  18  20
ENDBRANCH   7  18
ENDBRANCH   5   6
ENDBRANCH   3   5
ENDBRANCH   2   3
ENDBRANCH   1   2
BRANCH   1  27
ATOM     27  C   UNL A   1      38.384  22.269  25.875  1.00  0.00     0.275 C 
BRANCH  27  28
ATOM     28  O   UNL A   1      38.999  23.152  26.819  1.00  0.00    -0.458 OA
BRANCH  28  29
ATOM     29  C   UNL A   1      40.307  22.894  27.053  1.00  0.00     0.338 C 
ATOM     30  O   UNL A   1      40.824  21.801  26.939  1.00  0.00    -0.246 OA
BRANCH  29  31
ATOM     31  C   UNL A   1      41.106  24.119  27.059  1.00  0.00     0.060 A 
ATOM     32  C   UNL A   1      41.602  24.520  28.284  1.00  0.00     0.016 A 
ATOM     33  C   UNL A   1      40.789  25.040  26.046  1.00  0.00     0.016 A 
ATOM     34  C   UNL A   1      41.355  25.821  28.642  1.00  0.00     0.010 A 
ATOM     35  C   UNL A   1      40.601  26.361  26.392  1.00  0.00     0.010 A 
ATOM     36  C   UNL A   1      40.746  26.705  27.727  1.00  0.00    -0.014 A 
BRANCH  36  37
ATOM     37  C   UNL A   1      40.648  28.084  28.150  1.00  0.00     0.031 A 
ATOM     38  C   UNL A   1      41.845  28.782  27.661  1.00  0.00     0.074 A 
ATOM     39  C   UNL A   1      39.754  28.683  28.953  1.00  0.00     0.049 A 
ATOM     40  N   UNL A   1      42.945  28.871  28.328  1.00  0.00    -0.248 NA
ATOM     41  C   UNL A   1      41.956  29.075  26.230  1.00  0.00     0.031 C 
ATOM     42  C   UNL A   1      38.417  28.285  29.384  1.00  0.00     0.029 A 
ATOM     43  N   UNL A   1      39.916  29.897  29.546  1.00  0.00    -0.354 N 
ATOM     44  C   UNL A   1      43.856  29.418  27.450  1.00  0.00     0.074 A 
ATOM     45  C   UNL A   1      43.263  29.324  26.141  1.00  0.00     0.031 C 
ATOM     46  C   UNL A   1      37.813  29.342  29.991  1.00  0.00     0.029 A 
ATOM     47  C   UNL A   1      38.782  30.414  30.146  1.00  0.00     0.049 A 
ATOM     48  H   UNL A   1      40.778  30.373  29.547  1.00  0.00     0.167 HD
ATOM     49  C   UNL A   1      44.902  30.128  27.939  1.00  0.00     0.034 A 
ATOM     50  C   UNL A   1      38.684  31.648  30.702  1.00  0.00     0.034 A 
ATOM     51  C   UNL A   1      45.140  29.814  29.333  1.00  0.00     0.049 A 
ATOM     52  C   UNL A   1      40.056  32.044  31.109  1.00  0.00     0.074 A 
ATOM     53  C   UNL A   1      45.467  28.664  30.027  1.00  0.00     0.029 A 
ATOM     54  N   UNL A   1      44.614  30.679  30.264  1.00  0.00    -0.354 N 
ATOM     55  N   UNL A   1      40.711  31.459  32.073  1.00  0.00    -0.248 NA
ATOM     56  C   UNL A   1      40.863  32.805  30.171  1.00  0.00     0.031 C 
ATOM     57  C   UNL A   1      44.718  28.732  31.241  1.00  0.00     0.029 A 
ATOM     58  C   UNL A   1      44.015  29.937  31.247  1.00  0.00     0.049 A 
ATOM     59  H   UNL A   1      44.662  31.662  30.229  1.00  0.00     0.167 HD
ATOM     60  C   UNL A   1      42.016  31.384  31.603  1.00  0.00     0.074 A 
ATOM     61  C   UNL A   1      42.068  32.318  30.479  1.00  0.00     0.031 C 
ATOM     62  C   UNL A   1      42.850  30.375  31.992  1.00  0.00     0.034 A 
BRANCH  49  63
ATOM     63  C   UNL A   1      45.396  31.393  27.291  1.00  0.00     0.023 A 
ATOM     64  C   UNL A   1      46.764  31.442  26.959  1.00  0.00     0.012 A 
ATOM     65  C   UNL A   1      44.679  32.614  27.247  1.00  0.00     0.148 A 
ATOM     66  C   UNL A   1      47.401  32.653  26.674  1.00  0.00     0.002 A 
ATOM     67  C   UNL A   1      45.297  33.800  26.887  1.00  0.00     0.091 A 
ATOM     68  F   UNL A   1      43.421  32.684  27.683  1.00  0.00    -0.205 F 
ATOM     69  C   UNL A   1      46.667  33.832  26.635  1.00  0.00     0.022 A 
BRANCH  67  70
ATOM     70  S   UNL A   1      44.375  35.340  26.780  1.00  0.00     0.127 S 
ATOM     71  O   UNL A   1      45.432  36.289  26.448  1.00  0.00    -0.237 OA
ATOM     72  O   UNL A   1      43.438  35.046  25.696  1.00  0.00    -0.237 OA
ATOM     73  O   UNL A   1      43.742  35.517  28.081  1.00  0.00    -0.744 OA
ENDBRANCH  67  70
ENDBRANCH  49  63
BRANCH  50  74
ATOM     74  C   UNL A   1      37.599  32.654  30.607  1.00  0.00     0.023 A 
ATOM     75  C   UNL A   1      36.970  32.869  29.361  1.00  0.00     0.012 A 
ATOM     76  C   UNL A   1      36.957  33.130  31.769  1.00  0.00     0.148 A 
ATOM     77  C   UNL A   1      35.714  33.481  29.280  1.00  0.00     0.002 A 
ATOM     78  C   UNL A   1      35.703  33.732  31.684  1.00  0.00     0.091 A 
ATOM     79  F   UNL A   1      37.529  32.907  32.959  1.00  0.00    -0.205 F 
ATOM     80  C   UNL A   1      35.073  33.897  30.443  1.00  0.00     0.022 A 
BRANCH  78  81
ATOM     81  S   UNL A   1      34.779  34.242  33.140  1.00  0.00     0.127 S 
ATOM     82  O   UNL A   1      35.543  35.408  33.585  1.00  0.00    -0.237 OA
ATOM     83  O   UNL A   1      33.469  34.549  32.573  1.00  0.00    -0.237 OA
ATOM     84  O   UNL A   1      34.821  33.110  34.055  1.00  0.00    -0.744 OA
ENDBRANCH  78  81
ENDBRANCH  50  74
BRANCH  62  85
ATOM     85  C   UNL A   1      42.410  29.491  33.137  1.00  0.00     0.023 A 
ATOM     86  C   UNL A   1      41.461  28.458  32.980  1.00  0.00     0.012 A 
ATOM     87  C   UNL A   1      43.099  29.598  34.358  1.00  0.00     0.148 A 
ATOM     88  C   UNL A   1      41.194  27.565  34.024  1.00  0.00     0.002 A 
ATOM     89  C   UNL A   1      42.872  28.676  35.372  1.00  0.00     0.091 A 
ATOM     90  F   UNL A   1      43.993  30.588  34.496  1.00  0.00    -0.205 F 
ATOM     91  C   UNL A   1      41.911  27.664  35.214  1.00  0.00     0.022 A 
BRANCH  89  92
ATOM     92  S   UNL A   1      43.860  28.661  36.870  1.00  0.00     0.127 S 
ATOM     93  O   UNL A   1      43.458  29.908  37.517  1.00  0.00    -0.237 OA
ATOM     94  O   UNL A   1      43.394  27.446  37.541  1.00  0.00    -0.237 OA
ATOM     95  O   UNL A   1      45.251  28.602  36.435  1.00  0.00    -0.744 OA
ENDBRANCH  89  92
ENDBRANCH  62  85
ENDBRANCH  36  37
ENDBRANCH  29  31
ENDBRANCH  28  29
ENDBRANCH  27  28
ENDBRANCH   1  27
TORSDOF 17
ENDMDL
