MODEL 1
REMARK VINA RESULT:     -11.6      0.000      0.000
REMARK SMILES CCCc1cc(OC(F)(F)F)cc2c1O[C@@H](C(F)(F)F)C(C(=O)OCCOC(=O)c1ccc(-c3c4nc(c(-c5cccc(S(=O)(=O)[O-])c5F)c5ccc([nH]5)c(-c5cccc(S(=O)(=O)[O-])c5F)c5nc(c(-c6cccc(S(=O)(=O)[O-])c6F)c6ccc3[nH]6)C=C5)C=C4)cc1)=C2
REMARK SMILES IDX 26 1 25 2 24 3 22 4 23 5 21 6 4 7 5 8 14 9 6 10 13 11 15 12
REMARK SMILES IDX 12 13 93 14 16 15 3 16 2 17 1 18 7 19 8 20 9 21 10 22 11 23
REMARK SMILES IDX 17 24 18 25 19 26 20 27 27 28 28 29 29 30 30 31 31 32 92 33
REMARK SMILES IDX 32 34 91 35 33 36 34 37 35 38 85 39 36 40 90 41 84 42 86 43
REMARK SMILES IDX 37 44 89 45 83 46 82 47 38 49 70 50 50 51 69 52 51 53 54 54
REMARK SMILES IDX 68 55 87 56 52 57 53 58 67 60 88 61 55 62 39 63 40 64 48 65
REMARK SMILES IDX 41 66 43 67 49 68 42 69 44 70 45 71 46 72 47 73 71 74 72 75
REMARK SMILES IDX 80 76 73 77 75 78 81 79 74 80 76 81 77 82 78 83 79 84 56 85
REMARK SMILES IDX 57 86 65 87 58 88 60 89 66 90 59 91 61 92 62 93 63 94 64 95
REMARK H PARENT 86 48 54 59
REMARK Flexibility Score: inf
ROOT
ATOM      1  C   UNL A   1      32.038  30.889  26.392  1.00  0.00     0.275 C 
ENDROOT
BRANCH   1   2
ATOM      2  C   UNL A   1      32.411  29.696  25.505  1.00  0.00     0.275 C 
BRANCH   2   3
ATOM      3  O   UNL A   1      31.383  28.682  25.500  1.00  0.00    -0.459 OA
BRANCH   3   4
ATOM      4  C   UNL A   1      31.611  27.615  26.309  1.00  0.00     0.338 C 
ATOM      5  O   UNL A   1      31.304  27.545  27.482  1.00  0.00    -0.246 OA
BRANCH   4   6
ATOM      6  C   UNL A   1      32.261  26.498  25.584  1.00  0.00     0.087 C 
ATOM      7  C   UNL A   1      33.859  23.377  23.329  1.00  0.00    -0.002 A 
ATOM      8  C   UNL A   1      35.176  22.951  23.570  1.00  0.00     0.054 A 
ATOM      9  C   UNL A   1      33.301  24.314  24.205  1.00  0.00     0.131 A 
ATOM     10  C   UNL A   1      35.923  23.486  24.625  1.00  0.00     0.130 A 
ATOM     11  C   UNL A   1      34.068  24.951  25.188  1.00  0.00     0.021 A 
ATOM     12  O   UNL A   1      31.952  24.526  24.145  1.00  0.00    -0.475 OA
ATOM     13  C   UNL A   1      35.382  24.525  25.396  1.00  0.00     0.058 A 
ATOM     14  C   UNL A   1      33.462  26.031  25.974  1.00  0.00     0.027 C 
ATOM     15  C   UNL A   1      31.544  25.897  24.386  1.00  0.00     0.316 C 
BRANCH   7  16
ATOM     16  C   UNL A   1      33.101  22.798  22.150  1.00  0.00     0.039 C 
BRANCH  16  17
ATOM     17  C   UNL A   1      32.076  21.688  22.445  1.00  0.00     0.001 C 
ATOM     18  C   UNL A   1      32.481  20.733  23.560  1.00  0.00     0.004 C 
ENDBRANCH  16  17
ENDBRANCH   7  16
BRANCH  10  19
ATOM     19  O   UNL A   1      37.184  23.096  24.982  1.00  0.00    -0.406 OA
BRANCH  19  20
ATOM     20  C   UNL A   1      37.352  21.747  25.394  1.00  0.00     0.573 C 
ATOM     21  F   UNL A   1      37.461  20.912  24.337  1.00  0.00    -0.132 F 
ATOM     22  F   UNL A   1      38.436  21.616  26.189  1.00  0.00    -0.132 F 
ATOM     23  F   UNL A   1      36.265  21.373  26.106  1.00  0.00    -0.132 F 
ENDBRANCH  19  20
ENDBRANCH  10  19
BRANCH  15  24
ATOM     24  C   UNL A   1      30.004  25.926  24.333  1.00  0.00     0.430 C 
ATOM     25  F   UNL A   1      29.540  27.065  23.774  1.00  0.00    -0.167 F 
ATOM     26  F   UNL A   1      29.548  24.916  23.546  1.00  0.00    -0.167 F 
ATOM     27  F   UNL A   1      29.441  25.764  25.548  1.00  0.00    -0.167 F 
ENDBRANCH  15  24
ENDBRANCH   4   6
ENDBRANCH   3   4
ENDBRANCH   2   3
ENDBRANCH   1   2
BRANCH   1  28
ATOM     28  O   UNL A   1      32.880  30.978  27.556  1.00  0.00    -0.458 OA
BRANCH  28  29
ATOM     29  C   UNL A   1      33.792  31.979  27.525  1.00  0.00     0.338 C 
ATOM     30  O   UNL A   1      33.584  33.143  27.222  1.00  0.00    -0.246 OA
BRANCH  29  31
ATOM     31  C   UNL A   1      35.072  31.523  28.105  1.00  0.00     0.060 A 
ATOM     32  C   UNL A   1      35.082  30.242  28.661  1.00  0.00     0.016 A 
ATOM     33  C   UNL A   1      36.227  32.305  28.132  1.00  0.00     0.016 A 
ATOM     34  C   UNL A   1      36.260  29.695  29.165  1.00  0.00     0.010 A 
ATOM     35  C   UNL A   1      37.399  31.781  28.697  1.00  0.00     0.010 A 
ATOM     36  C   UNL A   1      37.425  30.467  29.200  1.00  0.00    -0.014 A 
BRANCH  36  37
ATOM     37  C   UNL A   1      38.630  29.923  29.870  1.00  0.00     0.031 A 
ATOM     38  C   UNL A   1      38.993  30.425  31.238  1.00  0.00     0.074 A 
ATOM     39  C   UNL A   1      39.377  28.970  29.282  1.00  0.00     0.049 A 
ATOM     40  N   UNL A   1      40.005  30.098  31.998  1.00  0.00    -0.248 NA
ATOM     41  C   UNL A   1      38.085  31.417  31.834  1.00  0.00     0.031 C 
ATOM     42  C   UNL A   1      39.100  28.363  27.982  1.00  0.00     0.029 A 
ATOM     43  N   UNL A   1      40.534  28.361  29.701  1.00  0.00    -0.354 N 
ATOM     44  C   UNL A   1      39.872  30.859  33.152  1.00  0.00     0.074 A 
ATOM     45  C   UNL A   1      38.677  31.660  32.994  1.00  0.00     0.031 C 
ATOM     46  C   UNL A   1      40.085  27.495  27.690  1.00  0.00     0.029 A 
ATOM     47  C   UNL A   1      41.074  27.508  28.767  1.00  0.00     0.049 A 
ATOM     48  H   UNL A   1      40.940  28.522  30.584  1.00  0.00     0.167 HD
ATOM     49  C   UNL A   1      40.672  30.890  34.243  1.00  0.00     0.034 A 
ATOM     50  C   UNL A   1      42.246  26.841  28.770  1.00  0.00     0.034 A 
ATOM     51  C   UNL A   1      41.869  30.105  34.393  1.00  0.00     0.049 A 
ATOM     52  C   UNL A   1      43.157  26.949  29.969  1.00  0.00     0.074 A 
ATOM     53  C   UNL A   1      42.736  30.061  35.470  1.00  0.00     0.029 A 
ATOM     54  N   UNL A   1      42.382  29.249  33.431  1.00  0.00    -0.354 N 
ATOM     55  N   UNL A   1      42.973  27.600  31.092  1.00  0.00    -0.248 NA
ATOM     56  C   UNL A   1      44.427  26.207  29.911  1.00  0.00     0.031 C 
ATOM     57  C   UNL A   1      43.797  29.212  35.142  1.00  0.00     0.029 A 
ATOM     58  C   UNL A   1      43.564  28.686  33.881  1.00  0.00     0.049 A 
ATOM     59  H   UNL A   1      41.967  29.069  32.557  1.00  0.00     0.167 HD
ATOM     60  C   UNL A   1      44.077  27.309  31.889  1.00  0.00     0.074 A 
ATOM     61  C   UNL A   1      44.919  26.413  31.126  1.00  0.00     0.031 C 
ATOM     62  C   UNL A   1      44.369  27.750  33.138  1.00  0.00     0.034 A 
BRANCH  49  63
ATOM     63  C   UNL A   1      40.285  31.818  35.362  1.00  0.00     0.023 A 
ATOM     64  C   UNL A   1      40.892  33.085  35.468  1.00  0.00     0.012 A 
ATOM     65  C   UNL A   1      39.283  31.450  36.282  1.00  0.00     0.148 A 
ATOM     66  C   UNL A   1      40.532  33.959  36.492  1.00  0.00     0.002 A 
ATOM     67  C   UNL A   1      38.898  32.344  37.272  1.00  0.00     0.091 A 
ATOM     68  F   UNL A   1      38.735  30.232  36.174  1.00  0.00    -0.205 F 
ATOM     69  C   UNL A   1      39.529  33.593  37.387  1.00  0.00     0.022 A 
BRANCH  67  70
ATOM     70  S   UNL A   1      37.565  31.996  38.424  1.00  0.00     0.127 S 
ATOM     71  O   UNL A   1      36.573  32.998  38.037  1.00  0.00    -0.237 OA
ATOM     72  O   UNL A   1      37.210  30.620  38.072  1.00  0.00    -0.237 OA
ATOM     73  O   UNL A   1      38.128  32.159  39.756  1.00  0.00    -0.744 OA
ENDBRANCH  67  70
ENDBRANCH  49  63
BRANCH  50  74
ATOM     74  C   UNL A   1      42.640  26.002  27.600  1.00  0.00     0.023 A 
ATOM     75  C   UNL A   1      43.236  26.604  26.475  1.00  0.00     0.012 A 
ATOM     76  C   UNL A   1      42.401  24.614  27.588  1.00  0.00     0.148 A 
ATOM     77  C   UNL A   1      43.550  25.847  25.345  1.00  0.00     0.002 A 
ATOM     78  C   UNL A   1      42.766  23.856  26.482  1.00  0.00     0.091 A 
ATOM     79  F   UNL A   1      41.815  24.062  28.660  1.00  0.00    -0.205 F 
ATOM     80  C   UNL A   1      43.323  24.473  25.351  1.00  0.00     0.022 A 
BRANCH  78  81
ATOM     81  S   UNL A   1      42.608  22.068  26.439  1.00  0.00     0.127 S 
ATOM     82  O   UNL A   1      41.320  21.896  25.773  1.00  0.00    -0.237 OA
ATOM     83  O   UNL A   1      43.770  21.683  25.638  1.00  0.00    -0.237 OA
ATOM     84  O   UNL A   1      42.662  21.632  27.828  1.00  0.00    -0.744 OA
ENDBRANCH  78  81
ENDBRANCH  50  74
BRANCH  62  85
ATOM     85  C   UNL A   1      45.623  27.234  33.799  1.00  0.00     0.023 A 
ATOM     86  C   UNL A   1      46.825  27.963  33.712  1.00  0.00     0.012 A 
ATOM     87  C   UNL A   1      45.582  26.063  34.585  1.00  0.00     0.148 A 
ATOM     88  C   UNL A   1      47.973  27.518  34.369  1.00  0.00     0.002 A 
ATOM     89  C   UNL A   1      46.714  25.656  35.280  1.00  0.00     0.091 A 
ATOM     90  F   UNL A   1      44.434  25.373  34.644  1.00  0.00    -0.205 F 
ATOM     91  C   UNL A   1      47.914  26.375  35.162  1.00  0.00     0.022 A 
BRANCH  89  92
ATOM     92  S   UNL A   1      46.706  24.256  36.406  1.00  0.00     0.127 S 
ATOM     93  O   UNL A   1      48.034  24.350  37.009  1.00  0.00    -0.237 OA
ATOM     94  O   UNL A   1      45.602  24.591  37.306  1.00  0.00    -0.237 OA
ATOM     95  O   UNL A   1      46.478  23.077  35.582  1.00  0.00    -0.744 OA
ENDBRANCH  89  92
ENDBRANCH  62  85
ENDBRANCH  36  37
ENDBRANCH  29  31
ENDBRANCH  28  29
ENDBRANCH   1  28
TORSDOF 19
ENDMDL
MODEL 2
REMARK VINA RESULT:     -11.4      2.237      2.638
REMARK SMILES CCCc1cc(OC(F)(F)F)cc2c1O[C@@H](C(F)(F)F)C(C(=O)OCCOC(=O)c1ccc(-c3c4nc(c(-c5cccc(S(=O)(=O)[O-])c5F)c5ccc([nH]5)c(-c5cccc(S(=O)(=O)[O-])c5F)c5nc(c(-c6cccc(S(=O)(=O)[O-])c6F)c6ccc3[nH]6)C=C5)C=C4)cc1)=C2
REMARK SMILES IDX 26 1 25 2 24 3 22 4 23 5 21 6 4 7 5 8 14 9 6 10 13 11 15 12
REMARK SMILES IDX 12 13 93 14 16 15 3 16 2 17 1 18 7 19 8 20 9 21 10 22 11 23
REMARK SMILES IDX 17 24 18 25 19 26 20 27 27 28 28 29 29 30 30 31 31 32 92 33
REMARK SMILES IDX 32 34 91 35 33 36 34 37 35 38 85 39 36 40 90 41 84 42 86 43
REMARK SMILES IDX 37 44 89 45 83 46 82 47 38 49 70 50 50 51 69 52 51 53 54 54
REMARK SMILES IDX 68 55 87 56 52 57 53 58 67 60 88 61 55 62 39 63 40 64 48 65
REMARK SMILES IDX 41 66 43 67 49 68 42 69 44 70 45 71 46 72 47 73 71 74 72 75
REMARK SMILES IDX 80 76 73 77 75 78 81 79 74 80 76 81 77 82 78 83 79 84 56 85
REMARK SMILES IDX 57 86 65 87 58 88 60 89 66 90 59 91 61 92 62 93 63 94 64 95
REMARK H PARENT 86 48 54 59
REMARK Flexibility Score: inf
ROOT
ATOM      1  C   UNL A   1      32.807  30.613  26.651  1.00  0.00     0.275 C 
ENDROOT
BRANCH   1   2
ATOM      2  C   UNL A   1      32.557  29.694  25.451  1.00  0.00     0.275 C 
BRANCH   2   3
ATOM      3  O   UNL A   1      31.380  28.877  25.630  1.00  0.00    -0.459 OA
BRANCH   3   4
ATOM      4  C   UNL A   1      31.550  27.767  26.394  1.00  0.00     0.338 C 
ATOM      5  O   UNL A   1      31.205  27.654  27.553  1.00  0.00    -0.246 OA
BRANCH   4   6
ATOM      6  C   UNL A   1      32.189  26.665  25.638  1.00  0.00     0.087 C 
ATOM      7  C   UNL A   1      33.745  23.579  23.307  1.00  0.00    -0.002 A 
ATOM      8  C   UNL A   1      35.083  23.184  23.483  1.00  0.00     0.054 A 
ATOM      9  C   UNL A   1      33.210  24.504  24.210  1.00  0.00     0.131 A 
ATOM     10  C   UNL A   1      35.868  23.737  24.499  1.00  0.00     0.130 A 
ATOM     11  C   UNL A   1      34.010  25.159  25.154  1.00  0.00     0.021 A 
ATOM     12  O   UNL A   1      31.855  24.684  24.217  1.00  0.00    -0.475 OA
ATOM     13  C   UNL A   1      35.343  24.764  25.296  1.00  0.00     0.058 A 
ATOM     14  C   UNL A   1      33.419  26.227  25.968  1.00  0.00     0.027 C 
ATOM     15  C   UNL A   1      31.428  26.046  24.478  1.00  0.00     0.316 C 
BRANCH   7  16
ATOM     16  C   UNL A   1      32.944  22.980  22.168  1.00  0.00     0.039 C 
BRANCH  16  17
ATOM     17  C   UNL A   1      32.486  21.518  22.318  1.00  0.00     0.001 C 
ATOM     18  C   UNL A   1      32.182  21.093  23.748  1.00  0.00     0.004 C 
ENDBRANCH  16  17
ENDBRANCH   7  16
BRANCH  10  19
ATOM     19  O   UNL A   1      37.154  23.377  24.793  1.00  0.00    -0.406 OA
BRANCH  19  20
ATOM     20  C   UNL A   1      37.359  22.069  25.308  1.00  0.00     0.573 C 
ATOM     21  F   UNL A   1      38.476  21.999  26.064  1.00  0.00    -0.132 F 
ATOM     22  F   UNL A   1      36.295  21.663  26.034  1.00  0.00    -0.132 F 
ATOM     23  F   UNL A   1      37.507  21.214  24.271  1.00  0.00    -0.132 F 
ENDBRANCH  19  20
ENDBRANCH  10  19
BRANCH  15  24
ATOM     24  C   UNL A   1      29.887  26.039  24.502  1.00  0.00     0.430 C 
ATOM     25  F   UNL A   1      29.372  27.225  24.113  1.00  0.00    -0.167 F 
ATOM     26  F   UNL A   1      29.413  25.123  23.615  1.00  0.00    -0.167 F 
ATOM     27  F   UNL A   1      29.389  25.711  25.712  1.00  0.00    -0.167 F 
ENDBRANCH  15  24
ENDBRANCH   4   6
ENDBRANCH   3   4
ENDBRANCH   2   3
ENDBRANCH   1   2
BRANCH   1  28
ATOM     28  O   UNL A   1      33.909  30.158  27.457  1.00  0.00    -0.458 OA
BRANCH  28  29
ATOM     29  C   UNL A   1      34.865  31.088  27.692  1.00  0.00     0.338 C 
ATOM     30  O   UNL A   1      34.751  32.297  27.565  1.00  0.00    -0.246 OA
BRANCH  29  31
ATOM     31  C   UNL A   1      36.043  30.462  28.327  1.00  0.00     0.060 A 
ATOM     32  C   UNL A   1      37.266  30.632  27.674  1.00  0.00     0.016 A 
ATOM     33  C   UNL A   1      35.978  29.718  29.506  1.00  0.00     0.016 A 
ATOM     34  C   UNL A   1      38.445  30.143  28.234  1.00  0.00     0.010 A 
ATOM     35  C   UNL A   1      37.154  29.170  30.038  1.00  0.00     0.010 A 
ATOM     36  C   UNL A   1      38.394  29.395  29.414  1.00  0.00    -0.014 A 
BRANCH  36  37
ATOM     37  C   UNL A   1      39.636  28.760  29.917  1.00  0.00     0.031 A 
ATOM     38  C   UNL A   1      40.316  29.341  31.123  1.00  0.00     0.074 A 
ATOM     39  C   UNL A   1      40.136  27.658  29.327  1.00  0.00     0.049 A 
ATOM     40  N   UNL A   1      41.412  28.956  31.721  1.00  0.00    -0.248 NA
ATOM     41  C   UNL A   1      39.664  30.504  31.746  1.00  0.00     0.031 C 
ATOM     42  C   UNL A   1      39.542  26.967  28.185  1.00  0.00     0.029 A 
ATOM     43  N   UNL A   1      41.275  26.941  29.601  1.00  0.00    -0.354 N 
ATOM     44  C   UNL A   1      41.598  29.840  32.776  1.00  0.00     0.074 A 
ATOM     45  C   UNL A   1      40.496  30.778  32.739  1.00  0.00     0.031 C 
ATOM     46  C   UNL A   1      40.342  25.947  27.829  1.00  0.00     0.029 A 
ATOM     47  C   UNL A   1      41.518  25.932  28.698  1.00  0.00     0.049 A 
ATOM     48  H   UNL A   1      41.861  27.131  30.369  1.00  0.00     0.167 HD
ATOM     49  C   UNL A   1      42.594  29.869  33.691  1.00  0.00     0.034 A 
ATOM     50  C   UNL A   1      42.582  25.112  28.572  1.00  0.00     0.034 A 
ATOM     51  C   UNL A   1      43.697  28.945  33.718  1.00  0.00     0.049 A 
ATOM     52  C   UNL A   1      43.717  25.213  29.563  1.00  0.00     0.074 A 
ATOM     53  C   UNL A   1      44.748  28.890  34.618  1.00  0.00     0.029 A 
ATOM     54  N   UNL A   1      43.908  27.935  32.793  1.00  0.00    -0.354 N 
ATOM     55  N   UNL A   1      43.833  25.993  30.611  1.00  0.00    -0.248 NA
ATOM     56  C   UNL A   1      44.855  24.301  29.369  1.00  0.00     0.031 C 
ATOM     57  C   UNL A   1      45.618  27.874  34.210  1.00  0.00     0.029 A 
ATOM     58  C   UNL A   1      45.082  27.262  33.088  1.00  0.00     0.049 A 
ATOM     59  H   UNL A   1      43.312  27.726  32.039  1.00  0.00     0.167 HD
ATOM     60  C   UNL A   1      45.031  25.635  31.225  1.00  0.00     0.074 A 
ATOM     61  C   UNL A   1      45.596  24.558  30.439  1.00  0.00     0.031 C 
ATOM     62  C   UNL A   1      45.611  26.154  32.334  1.00  0.00     0.034 A 
BRANCH  49  63
ATOM     63  C   UNL A   1      42.544  30.949  34.737  1.00  0.00     0.023 A 
ATOM     64  C   UNL A   1      41.923  30.700  35.977  1.00  0.00     0.012 A 
ATOM     65  C   UNL A   1      43.157  32.196  34.507  1.00  0.00     0.148 A 
ATOM     66  C   UNL A   1      41.882  31.688  36.959  1.00  0.00     0.002 A 
ATOM     67  C   UNL A   1      43.152  33.160  35.507  1.00  0.00     0.091 A 
ATOM     68  F   UNL A   1      43.724  32.418  33.313  1.00  0.00    -0.205 F 
ATOM     69  C   UNL A   1      42.504  32.913  36.729  1.00  0.00     0.022 A 
BRANCH  67  70
ATOM     70  S   UNL A   1      43.991  34.737  35.334  1.00  0.00     0.127 S 
ATOM     71  O   UNL A   1      45.363  34.313  35.058  1.00  0.00    -0.237 OA
ATOM     72  O   UNL A   1      43.294  35.329  34.190  1.00  0.00    -0.237 OA
ATOM     73  O   UNL A   1      43.798  35.439  36.594  1.00  0.00    -0.744 OA
ENDBRANCH  67  70
ENDBRANCH  49  63
BRANCH  50  74
ATOM     74  C   UNL A   1      42.638  24.114  27.464  1.00  0.00     0.023 A 
ATOM     75  C   UNL A   1      43.154  24.490  26.208  1.00  0.00     0.012 A 
ATOM     76  C   UNL A   1      42.157  22.802  27.643  1.00  0.00     0.148 A 
ATOM     77  C   UNL A   1      43.153  23.590  25.141  1.00  0.00     0.002 A 
ATOM     78  C   UNL A   1      42.210  21.894  26.593  1.00  0.00     0.091 A 
ATOM     79  F   UNL A   1      41.652  22.469  28.840  1.00  0.00    -0.205 F 
ATOM     80  C   UNL A   1      42.689  22.291  25.335  1.00  0.00     0.022 A 
BRANCH  78  81
ATOM     81  S   UNL A   1      41.732  20.173  26.776  1.00  0.00     0.127 S 
ATOM     82  O   UNL A   1      41.910  19.666  25.417  1.00  0.00    -0.237 OA
ATOM     83  O   UNL A   1      42.715  19.691  27.746  1.00  0.00    -0.237 OA
ATOM     84  O   UNL A   1      40.360  20.193  27.266  1.00  0.00    -0.744 OA
ENDBRANCH  78  81
ENDBRANCH  50  74
BRANCH  62  85
ATOM     85  C   UNL A   1      46.902  25.538  32.816  1.00  0.00     0.023 A 
ATOM     86  C   UNL A   1      48.139  26.034  32.361  1.00  0.00     0.012 A 
ATOM     87  C   UNL A   1      46.883  24.521  33.793  1.00  0.00     0.148 A 
ATOM     88  C   UNL A   1      49.336  25.505  32.848  1.00  0.00     0.002 A 
ATOM     89  C   UNL A   1      48.077  24.038  34.312  1.00  0.00     0.091 A 
ATOM     90  F   UNL A   1      45.696  24.051  34.203  1.00  0.00    -0.205 F 
ATOM     91  C   UNL A   1      49.305  24.519  33.831  1.00  0.00     0.022 A 
BRANCH  89  92
ATOM     92  S   UNL A   1      48.136  22.842  35.652  1.00  0.00     0.127 S 
ATOM     93  O   UNL A   1      49.575  22.652  35.821  1.00  0.00    -0.237 OA
ATOM     94  O   UNL A   1      47.484  23.568  36.742  1.00  0.00    -0.237 OA
ATOM     95  O   UNL A   1      47.405  21.673  35.182  1.00  0.00    -0.744 OA
ENDBRANCH  89  92
ENDBRANCH  62  85
ENDBRANCH  36  37
ENDBRANCH  29  31
ENDBRANCH  28  29
ENDBRANCH   1  28
TORSDOF 19
ENDMDL
MODEL 3
REMARK VINA RESULT:     -11.4      1.568      7.588
REMARK SMILES CCCc1cc(OC(F)(F)F)cc2c1O[C@@H](C(F)(F)F)C(C(=O)OCCOC(=O)c1ccc(-c3c4nc(c(-c5cccc(S(=O)(=O)[O-])c5F)c5ccc([nH]5)c(-c5cccc(S(=O)(=O)[O-])c5F)c5nc(c(-c6cccc(S(=O)(=O)[O-])c6F)c6ccc3[nH]6)C=C5)C=C4)cc1)=C2
REMARK SMILES IDX 26 1 25 2 24 3 22 4 23 5 21 6 4 7 5 8 14 9 6 10 13 11 15 12
REMARK SMILES IDX 12 13 93 14 16 15 3 16 2 17 1 18 7 19 8 20 9 21 10 22 11 23
REMARK SMILES IDX 17 24 18 25 19 26 20 27 27 28 28 29 29 30 30 31 31 32 92 33
REMARK SMILES IDX 32 34 91 35 33 36 34 37 35 38 85 39 36 40 90 41 84 42 86 43
REMARK SMILES IDX 37 44 89 45 83 46 82 47 38 49 70 50 50 51 69 52 51 53 54 54
REMARK SMILES IDX 68 55 87 56 52 57 53 58 67 60 88 61 55 62 39 63 40 64 48 65
REMARK SMILES IDX 41 66 43 67 49 68 42 69 44 70 45 71 46 72 47 73 71 74 72 75
REMARK SMILES IDX 80 76 73 77 75 78 81 79 74 80 76 81 77 82 78 83 79 84 56 85
REMARK SMILES IDX 57 86 65 87 58 88 60 89 66 90 59 91 61 92 62 93 63 94 64 95
REMARK H PARENT 86 48 54 59
REMARK Flexibility Score: inf
ROOT
ATOM      1  C   UNL A   1      31.732  29.899  26.094  1.00  0.00     0.275 C 
ENDROOT
BRANCH   1   2
ATOM      2  C   UNL A   1      31.817  28.376  26.241  1.00  0.00     0.275 C 
BRANCH   2   3
ATOM      3  O   UNL A   1      33.100  27.863  25.824  1.00  0.00    -0.459 OA
BRANCH   3   4
ATOM      4  C   UNL A   1      33.137  27.324  24.578  1.00  0.00     0.338 C 
ATOM      5  O   UNL A   1      33.107  27.954  23.539  1.00  0.00    -0.246 OA
BRANCH   4   6
ATOM      6  C   UNL A   1      33.254  25.847  24.614  1.00  0.00     0.087 C 
ATOM      7  C   UNL A   1      33.320  21.680  24.538  1.00  0.00    -0.002 A 
ATOM      8  C   UNL A   1      34.484  20.998  24.934  1.00  0.00     0.054 A 
ATOM      9  C   UNL A   1      33.276  23.066  24.726  1.00  0.00     0.131 A 
ATOM     10  C   UNL A   1      35.582  21.691  25.453  1.00  0.00     0.130 A 
ATOM     11  C   UNL A   1      34.404  23.791  25.127  1.00  0.00     0.021 A 
ATOM     12  O   UNL A   1      32.068  23.692  24.603  1.00  0.00    -0.475 OA
ATOM     13  C   UNL A   1      35.557  23.092  25.495  1.00  0.00     0.058 A 
ATOM     14  C   UNL A   1      34.334  25.255  25.159  1.00  0.00     0.027 C 
ATOM     15  C   UNL A   1      32.130  25.017  24.016  1.00  0.00     0.316 C 
BRANCH   7  16
ATOM     16  C   UNL A   1      32.170  20.891  23.944  1.00  0.00     0.039 C 
BRANCH  16  17
ATOM     17  C   UNL A   1      32.523  19.729  22.998  1.00  0.00     0.001 C 
ATOM     18  C   UNL A   1      32.341  18.343  23.602  1.00  0.00     0.004 C 
ENDBRANCH  16  17
ENDBRANCH   7  16
BRANCH  10  19
ATOM     19  O   UNL A   1      36.731  21.118  25.924  1.00  0.00    -0.406 OA
BRANCH  19  20
ATOM     20  C   UNL A   1      37.512  20.377  24.998  1.00  0.00     0.573 C 
ATOM     21  F   UNL A   1      38.733  20.084  25.497  1.00  0.00    -0.132 F 
ATOM     22  F   UNL A   1      36.884  19.237  24.639  1.00  0.00    -0.132 F 
ATOM     23  F   UNL A   1      37.689  21.124  23.885  1.00  0.00    -0.132 F 
ENDBRANCH  19  20
ENDBRANCH  10  19
BRANCH  15  24
ATOM     24  C   UNL A   1      30.695  25.578  24.013  1.00  0.00     0.430 C 
ATOM     25  F   UNL A   1      29.779  24.617  23.760  1.00  0.00    -0.167 F 
ATOM     26  F   UNL A   1      30.385  26.067  25.243  1.00  0.00    -0.167 F 
ATOM     27  F   UNL A   1      30.535  26.588  23.134  1.00  0.00    -0.167 F 
ENDBRANCH  15  24
ENDBRANCH   4   6
ENDBRANCH   3   4
ENDBRANCH   2   3
ENDBRANCH   1   2
BRANCH   1  28
ATOM     28  O   UNL A   1      33.035  30.507  26.028  1.00  0.00    -0.458 OA
BRANCH  28  29
ATOM     29  C   UNL A   1      33.252  31.490  26.934  1.00  0.00     0.338 C 
ATOM     30  O   UNL A   1      32.474  32.379  27.243  1.00  0.00    -0.246 OA
BRANCH  29  31
ATOM     31  C   UNL A   1      34.508  31.239  27.670  1.00  0.00     0.060 A 
ATOM     32  C   UNL A   1      34.714  29.934  28.124  1.00  0.00     0.016 A 
ATOM     33  C   UNL A   1      35.457  32.228  27.935  1.00  0.00     0.016 A 
ATOM     34  C   UNL A   1      35.901  29.582  28.762  1.00  0.00     0.010 A 
ATOM     35  C   UNL A   1      36.625  31.890  28.633  1.00  0.00     0.010 A 
ATOM     36  C   UNL A   1      36.860  30.562  29.034  1.00  0.00    -0.014 A 
BRANCH  36  37
ATOM     37  C   UNL A   1      38.050  30.201  29.841  1.00  0.00     0.031 A 
ATOM     38  C   UNL A   1      39.035  29.213  29.286  1.00  0.00     0.074 A 
ATOM     39  C   UNL A   1      38.269  30.769  31.041  1.00  0.00     0.049 A 
ATOM     40  N   UNL A   1      40.131  28.746  29.823  1.00  0.00    -0.248 NA
ATOM     41  C   UNL A   1      38.752  28.692  27.939  1.00  0.00     0.031 C 
ATOM     42  C   UNL A   1      37.419  31.780  31.666  1.00  0.00     0.029 A 
ATOM     43  N   UNL A   1      39.271  30.557  31.957  1.00  0.00    -0.354 N 
ATOM     44  C   UNL A   1      40.660  27.860  28.894  1.00  0.00     0.074 A 
ATOM     45  C   UNL A   1      39.765  27.858  27.756  1.00  0.00     0.031 C 
ATOM     46  C   UNL A   1      37.913  32.072  32.882  1.00  0.00     0.029 A 
ATOM     47  C   UNL A   1      39.095  31.249  33.132  1.00  0.00     0.049 A 
ATOM     48  H   UNL A   1      40.040  29.966  31.789  1.00  0.00     0.167 HD
ATOM     49  C   UNL A   1      41.786  27.114  28.980  1.00  0.00     0.034 A 
ATOM     50  C   UNL A   1      39.790  31.199  34.287  1.00  0.00     0.034 A 
ATOM     51  C   UNL A   1      42.666  27.104  30.118  1.00  0.00     0.049 A 
ATOM     52  C   UNL A   1      41.002  30.302  34.383  1.00  0.00     0.074 A 
ATOM     53  C   UNL A   1      43.839  26.389  30.289  1.00  0.00     0.029 A 
ATOM     54  N   UNL A   1      42.460  27.820  31.287  1.00  0.00    -0.354 N 
ATOM     55  N   UNL A   1      41.543  29.541  33.463  1.00  0.00    -0.248 NA
ATOM     56  C   UNL A   1      41.715  30.281  35.670  1.00  0.00     0.031 C 
ATOM     57  C   UNL A   1      44.318  26.639  31.578  1.00  0.00     0.029 A 
ATOM     58  C   UNL A   1      43.473  27.549  32.192  1.00  0.00     0.049 A 
ATOM     59  H   UNL A   1      41.705  28.430  31.449  1.00  0.00     0.167 HD
ATOM     60  C   UNL A   1      42.681  28.987  34.043  1.00  0.00     0.074 A 
ATOM     61  C   UNL A   1      42.760  29.512  35.390  1.00  0.00     0.031 C 
ATOM     62  C   UNL A   1      43.576  28.119  33.511  1.00  0.00     0.034 A 
BRANCH  49  63
ATOM     63  C   UNL A   1      42.125  26.231  27.810  1.00  0.00     0.023 A 
ATOM     64  C   UNL A   1      42.935  26.724  26.767  1.00  0.00     0.012 A 
ATOM     65  C   UNL A   1      41.677  24.896  27.769  1.00  0.00     0.148 A 
ATOM     66  C   UNL A   1      43.266  25.911  25.685  1.00  0.00     0.002 A 
ATOM     67  C   UNL A   1      42.050  24.078  26.709  1.00  0.00     0.091 A 
ATOM     68  F   UNL A   1      40.890  24.456  28.761  1.00  0.00    -0.205 F 
ATOM     69  C   UNL A   1      42.833  24.587  25.661  1.00  0.00     0.022 A 
BRANCH  67  70
ATOM     70  S   UNL A   1      41.605  22.341  26.626  1.00  0.00     0.127 S 
ATOM     71  O   UNL A   1      40.146  22.414  26.549  1.00  0.00    -0.237 OA
ATOM     72  O   UNL A   1      42.260  21.917  25.388  1.00  0.00    -0.237 OA
ATOM     73  O   UNL A   1      42.134  21.729  27.836  1.00  0.00    -0.744 OA
ENDBRANCH  67  70
ENDBRANCH  49  63
BRANCH  50  74
ATOM     74  C   UNL A   1      39.369  32.021  35.458  1.00  0.00     0.023 A 
ATOM     75  C   UNL A   1      38.462  31.491  36.396  1.00  0.00     0.012 A 
ATOM     76  C   UNL A   1      39.844  33.336  35.631  1.00  0.00     0.148 A 
ATOM     77  C   UNL A   1      38.005  32.269  37.462  1.00  0.00     0.002 A 
ATOM     78  C   UNL A   1      39.428  34.086  36.725  1.00  0.00     0.091 A 
ATOM     79  F   UNL A   1      40.692  33.830  34.718  1.00  0.00    -0.205 F 
ATOM     80  C   UNL A   1      38.493  33.562  37.631  1.00  0.00     0.022 A 
BRANCH  78  81
ATOM     81  S   UNL A   1      40.080  35.720  37.083  1.00  0.00     0.127 S 
ATOM     82  O   UNL A   1      39.671  36.472  35.899  1.00  0.00    -0.237 OA
ATOM     83  O   UNL A   1      39.364  36.067  38.310  1.00  0.00    -0.237 OA
ATOM     84  O   UNL A   1      41.517  35.545  37.252  1.00  0.00    -0.744 OA
ENDBRANCH  78  81
ENDBRANCH  50  74
BRANCH  62  85
ATOM     85  C   UNL A   1      44.761  27.714  34.353  1.00  0.00     0.023 A 
ATOM     86  C   UNL A   1      45.951  28.466  34.313  1.00  0.00     0.012 A 
ATOM     87  C   UNL A   1      44.657  26.633  35.252  1.00  0.00     0.148 A 
ATOM     88  C   UNL A   1      47.030  28.129  35.132  1.00  0.00     0.002 A 
ATOM     89  C   UNL A   1      45.716  26.336  36.102  1.00  0.00     0.091 A 
ATOM     90  F   UNL A   1      43.523  25.918  35.265  1.00  0.00    -0.205 F 
ATOM     91  C   UNL A   1      46.908  27.075  36.034  1.00  0.00     0.022 A 
BRANCH  89  92
ATOM     92  S   UNL A   1      45.613  25.065  37.367  1.00  0.00     0.127 S 
ATOM     93  O   UNL A   1      44.582  25.605  38.251  1.00  0.00    -0.237 OA
ATOM     94  O   UNL A   1      45.201  23.893  36.594  1.00  0.00    -0.237 OA
ATOM     95  O   UNL A   1      46.944  24.967  37.951  1.00  0.00    -0.744 OA
ENDBRANCH  89  92
ENDBRANCH  62  85
ENDBRANCH  36  37
ENDBRANCH  29  31
ENDBRANCH  28  29
ENDBRANCH   1  28
TORSDOF 19
ENDMDL
