MODEL 1
REMARK VINA RESULT:     -10.4      0.000      0.000
REMARK SMILES Cc1ccc(C)c(-n2nc(C)c(/C=C(/C#N)C(=O)OCCOC(=O)c3ccc(-c4c5nc(c(-c6cccc(S(=O)(=O)[O-])c6F)c6ccc([nH]6)c(-c6cccc(S(=O)(=O)[O-])c6F)c6nc(c(-c7cccc(S(=O)(=O)[O-])c7F)c7ccc4[nH]7)C=C6)C=C5)cc3)c2Cl)c1
REMARK SMILES IDX 21 1 20 2 19 3 17 4 18 5 14 6 13 7 12 8 8 9 9 10 88 11 10 12
REMARK SMILES IDX 89 13 11 14 7 15 1 16 2 17 3 18 90 19 4 20 5 21 6 22 15 23
REMARK SMILES IDX 16 24 22 25 23 26 24 27 25 28 26 29 87 30 27 31 86 32 28 33
REMARK SMILES IDX 29 34 30 35 80 36 31 37 85 38 79 39 81 40 32 41 84 42 78 43
REMARK SMILES IDX 77 44 33 46 65 47 45 48 64 49 46 50 49 51 63 52 82 53 47 54
REMARK SMILES IDX 48 55 62 57 83 58 50 59 34 60 35 61 43 62 36 63 38 64 44 65
REMARK SMILES IDX 37 66 39 67 40 68 41 69 42 70 66 71 67 72 75 73 68 74 70 75
REMARK SMILES IDX 76 76 69 77 71 78 72 79 73 80 74 81 51 82 52 83 60 84 53 85
REMARK SMILES IDX 55 86 61 87 54 88 56 89 57 90 58 91 59 92
REMARK H PARENT 81 45 49 56
REMARK Flexibility Score: inf
ROOT
ATOM      1  C   UNL A   1      34.753  34.158  28.037  1.00  0.00     0.275 C 
ENDROOT
BRANCH   1   2
ATOM      2  C   UNL A   1      34.020  33.979  29.377  1.00  0.00     0.275 C 
BRANCH   2   3
ATOM      3  O   UNL A   1      34.872  34.330  30.495  1.00  0.00    -0.458 OA
BRANCH   3   4
ATOM      4  C   UNL A   1      34.205  34.611  31.648  1.00  0.00     0.349 C 
ATOM      5  O   UNL A   1      32.992  34.774  31.723  1.00  0.00    -0.245 OA
BRANCH   4   6
ATOM      6  C   UNL A   1      35.072  35.197  32.687  1.00  0.00     0.138 C 
ATOM      7  C   UNL A   1      36.145  34.750  33.385  1.00  0.00     0.040 C 
BRANCH   7   8
ATOM      8  C   UNL A   1      37.117  33.607  33.428  1.00  0.00     0.037 A 
ATOM      9  N   UNL A   1      39.147  32.719  33.966  1.00  0.00    -0.221 N 
ATOM     10  N   UNL A   1      38.579  31.822  33.183  1.00  0.00    -0.171 NA
ATOM     11  C   UNL A   1      38.312  33.793  34.151  1.00  0.00     0.140 A 
ATOM     12  C   UNL A   1      37.312  32.204  33.019  1.00  0.00     0.069 A 
ATOM     13  Cl  UNL A   1      38.901  35.125  35.060  1.00  0.00    -0.061 Cl
ATOM     14  C   UNL A   1      36.592  30.990  32.530  1.00  0.00     0.069 C 
BRANCH   9  15
ATOM     15  C   UNL A   1      40.370  32.303  34.550  1.00  0.00     0.069 A 
ATOM     16  C   UNL A   1      43.877  33.753  34.907  1.00  0.00     0.044 C 
ATOM     17  C   UNL A   1      42.671  32.876  35.075  1.00  0.00    -0.049 A 
ATOM     18  C   UNL A   1      42.675  31.888  36.068  1.00  0.00     0.004 A 
ATOM     19  C   UNL A   1      41.523  33.061  34.292  1.00  0.00     0.032 A 
ATOM     20  C   UNL A   1      41.532  31.134  36.325  1.00  0.00     0.006 A 
ATOM     21  C   UNL A   1      40.353  31.349  35.597  1.00  0.00    -0.025 A 
ATOM     22  C   UNL A   1      39.136  30.556  36.008  1.00  0.00     0.047 C 
ENDBRANCH   9  15
ENDBRANCH   7   8
BRANCH   6  23
ATOM     23  C   UNL A   1      34.292  36.496  32.820  1.00  0.00     0.107 C 
ATOM     24  N   UNL A   1      33.645  37.573  32.931  1.00  0.00    -0.192 NA
ENDBRANCH   6  23
ENDBRANCH   4   6
ENDBRANCH   3   4
ENDBRANCH   2   3
ENDBRANCH   1   2
BRANCH   1  25
ATOM     25  O   UNL A   1      35.647  33.113  27.600  1.00  0.00    -0.458 OA
BRANCH  25  26
ATOM     26  C   UNL A   1      35.288  31.844  27.911  1.00  0.00     0.338 C 
ATOM     27  O   UNL A   1      34.303  31.313  27.461  1.00  0.00    -0.246 OA
BRANCH  26  28
ATOM     28  C   UNL A   1      36.390  31.188  28.697  1.00  0.00     0.060 A 
ATOM     29  C   UNL A   1      36.561  29.785  28.690  1.00  0.00     0.016 A 
ATOM     30  C   UNL A   1      37.409  31.995  29.176  1.00  0.00     0.016 A 
ATOM     31  C   UNL A   1      37.741  29.191  29.089  1.00  0.00     0.010 A 
ATOM     32  C   UNL A   1      38.635  31.427  29.407  1.00  0.00     0.010 A 
ATOM     33  C   UNL A   1      38.792  30.036  29.382  1.00  0.00    -0.014 A 
BRANCH  33  34
ATOM     34  C   UNL A   1      40.114  29.477  29.567  1.00  0.00     0.031 A 
ATOM     35  C   UNL A   1      40.586  29.338  30.977  1.00  0.00     0.074 A 
ATOM     36  C   UNL A   1      40.722  28.947  28.490  1.00  0.00     0.049 A 
ATOM     37  N   UNL A   1      41.614  29.910  31.515  1.00  0.00    -0.248 NA
ATOM     38  C   UNL A   1      39.773  28.580  31.942  1.00  0.00     0.031 C 
ATOM     39  C   UNL A   1      40.164  28.836  27.132  1.00  0.00     0.029 A 
ATOM     40  N   UNL A   1      41.863  28.221  28.411  1.00  0.00    -0.354 N 
ATOM     41  C   UNL A   1      41.740  29.348  32.788  1.00  0.00     0.074 A 
ATOM     42  C   UNL A   1      40.481  28.718  33.066  1.00  0.00     0.031 C 
ATOM     43  C   UNL A   1      40.795  27.845  26.474  1.00  0.00     0.029 A 
ATOM     44  C   UNL A   1      41.918  27.416  27.279  1.00  0.00     0.049 A 
ATOM     45  H   UNL A   1      42.579  28.260  29.086  1.00  0.00     0.167 HD
ATOM     46  C   UNL A   1      42.976  29.187  33.347  1.00  0.00     0.034 A 
ATOM     47  C   UNL A   1      42.806  26.430  27.035  1.00  0.00     0.034 A 
ATOM     48  C   UNL A   1      43.950  29.998  32.649  1.00  0.00     0.049 A 
ATOM     49  C   UNL A   1      43.991  26.720  27.867  1.00  0.00     0.074 A 
ATOM     50  C   UNL A   1      44.133  31.339  32.390  1.00  0.00     0.029 A 
ATOM     51  N   UNL A   1      44.723  29.315  31.745  1.00  0.00    -0.354 N 
ATOM     52  N   UNL A   1      44.732  27.783  27.709  1.00  0.00    -0.248 NA
ATOM     53  C   UNL A   1      44.124  26.050  29.149  1.00  0.00     0.031 C 
ATOM     54  C   UNL A   1      44.700  31.389  31.079  1.00  0.00     0.029 A 
ATOM     55  C   UNL A   1      44.909  30.081  30.633  1.00  0.00     0.049 A 
ATOM     56  H   UNL A   1      45.088  28.411  31.880  1.00  0.00     0.167 HD
ATOM     57  C   UNL A   1      45.024  28.184  29.005  1.00  0.00     0.074 A 
ATOM     58  C   UNL A   1      44.785  26.995  29.822  1.00  0.00     0.031 C 
ATOM     59  C   UNL A   1      45.130  29.512  29.317  1.00  0.00     0.034 A 
BRANCH  46  60
ATOM     60  C   UNL A   1      43.441  27.965  34.143  1.00  0.00     0.023 A 
ATOM     61  C   UNL A   1      44.068  28.228  35.389  1.00  0.00     0.012 A 
ATOM     62  C   UNL A   1      43.611  26.663  33.620  1.00  0.00     0.148 A 
ATOM     63  C   UNL A   1      44.917  27.303  36.006  1.00  0.00     0.002 A 
ATOM     64  C   UNL A   1      44.409  25.722  34.269  1.00  0.00     0.091 A 
ATOM     65  F   UNL A   1      43.091  26.338  32.437  1.00  0.00    -0.205 F 
ATOM     66  C   UNL A   1      45.097  26.050  35.439  1.00  0.00     0.022 A 
BRANCH  64  67
ATOM     67  S   UNL A   1      44.664  24.068  33.609  1.00  0.00     0.127 S 
ATOM     68  O   UNL A   1      45.116  24.365  32.252  1.00  0.00    -0.237 OA
ATOM     69  O   UNL A   1      45.696  23.548  34.506  1.00  0.00    -0.237 OA
ATOM     70  O   UNL A   1      43.378  23.392  33.716  1.00  0.00    -0.744 OA
ENDBRANCH  64  67
ENDBRANCH  46  60
BRANCH  47  71
ATOM     71  C   UNL A   1      42.611  25.157  26.314  1.00  0.00     0.023 A 
ATOM     72  C   UNL A   1      43.563  24.756  25.359  1.00  0.00     0.012 A 
ATOM     73  C   UNL A   1      41.654  24.211  26.749  1.00  0.00     0.148 A 
ATOM     74  C   UNL A   1      43.594  23.440  24.888  1.00  0.00     0.002 A 
ATOM     75  C   UNL A   1      41.684  22.905  26.271  1.00  0.00     0.091 A 
ATOM     76  F   UNL A   1      40.773  24.570  27.693  1.00  0.00    -0.205 F 
ATOM     77  C   UNL A   1      42.665  22.513  25.352  1.00  0.00     0.022 A 
BRANCH  75  78
ATOM     78  S   UNL A   1      40.532  21.646  26.837  1.00  0.00     0.127 S 
ATOM     79  O   UNL A   1      40.989  20.466  26.100  1.00  0.00    -0.237 OA
ATOM     80  O   UNL A   1      40.797  21.612  28.271  1.00  0.00    -0.237 OA
ATOM     81  O   UNL A   1      39.206  22.114  26.450  1.00  0.00    -0.744 OA
ENDBRANCH  75  78
ENDBRANCH  47  71
BRANCH  59  82
ATOM     82  C   UNL A   1      45.283  30.495  28.183  1.00  0.00     0.023 A 
ATOM     83  C   UNL A   1      44.193  30.991  27.438  1.00  0.00     0.012 A 
ATOM     84  C   UNL A   1      46.558  31.038  27.958  1.00  0.00     0.148 A 
ATOM     85  C   UNL A   1      44.379  31.980  26.468  1.00  0.00     0.002 A 
ATOM     86  C   UNL A   1      46.733  32.053  27.026  1.00  0.00     0.091 A 
ATOM     87  F   UNL A   1      47.587  30.561  28.676  1.00  0.00    -0.205 F 
ATOM     88  C   UNL A   1      45.648  32.521  26.269  1.00  0.00     0.022 A 
BRANCH  86  89
ATOM     89  S   UNL A   1      48.321  32.858  26.821  1.00  0.00     0.127 S 
ATOM     90  O   UNL A   1      48.551  33.422  28.150  1.00  0.00    -0.237 OA
ATOM     91  O   UNL A   1      49.202  31.743  26.469  1.00  0.00    -0.237 OA
ATOM     92  O   UNL A   1      48.139  33.828  25.748  1.00  0.00    -0.744 OA
ENDBRANCH  86  89
ENDBRANCH  59  82
ENDBRANCH  33  34
ENDBRANCH  26  28
ENDBRANCH  25  26
ENDBRANCH   1  25
TORSDOF 17
ENDMDL
MODEL 2
REMARK VINA RESULT:     -10.2      4.828      7.743
REMARK SMILES Cc1ccc(C)c(-n2nc(C)c(/C=C(/C#N)C(=O)OCCOC(=O)c3ccc(-c4c5nc(c(-c6cccc(S(=O)(=O)[O-])c6F)c6ccc([nH]6)c(-c6cccc(S(=O)(=O)[O-])c6F)c6nc(c(-c7cccc(S(=O)(=O)[O-])c7F)c7ccc4[nH]7)C=C6)C=C5)cc3)c2Cl)c1
REMARK SMILES IDX 21 1 20 2 19 3 17 4 18 5 14 6 13 7 12 8 8 9 9 10 88 11 10 12
REMARK SMILES IDX 89 13 11 14 7 15 1 16 2 17 3 18 90 19 4 20 5 21 6 22 15 23
REMARK SMILES IDX 16 24 22 25 23 26 24 27 25 28 26 29 87 30 27 31 86 32 28 33
REMARK SMILES IDX 29 34 30 35 80 36 31 37 85 38 79 39 81 40 32 41 84 42 78 43
REMARK SMILES IDX 77 44 33 46 65 47 45 48 64 49 46 50 49 51 63 52 82 53 47 54
REMARK SMILES IDX 48 55 62 57 83 58 50 59 34 60 35 61 43 62 36 63 38 64 44 65
REMARK SMILES IDX 37 66 39 67 40 68 41 69 42 70 66 71 67 72 75 73 68 74 70 75
REMARK SMILES IDX 76 76 69 77 71 78 72 79 73 80 74 81 51 82 52 83 60 84 53 85
REMARK SMILES IDX 55 86 61 87 54 88 56 89 57 90 58 91 59 92
REMARK H PARENT 81 45 49 56
REMARK Flexibility Score: inf
ROOT
ATOM      1  C   UNL A   1      33.281  30.124  26.490  1.00  0.00     0.275 C 
ENDROOT
BRANCH   1   2
ATOM      2  C   UNL A   1      32.036  29.226  26.571  1.00  0.00     0.275 C 
BRANCH   2   3
ATOM      3  O   UNL A   1      32.031  28.235  25.515  1.00  0.00    -0.458 OA
BRANCH   3   4
ATOM      4  C   UNL A   1      31.116  27.240  25.678  1.00  0.00     0.349 C 
ATOM      5  O   UNL A   1      30.820  26.744  26.760  1.00  0.00    -0.245 OA
BRANCH   4   6
ATOM      6  C   UNL A   1      30.881  26.465  24.446  1.00  0.00     0.138 C 
ATOM      7  C   UNL A   1      30.960  25.149  24.127  1.00  0.00     0.040 C 
BRANCH   7   8
ATOM      8  C   UNL A   1      31.139  23.802  24.763  1.00  0.00     0.037 A 
ATOM      9  N   UNL A   1      32.116  21.743  24.862  1.00  0.00    -0.221 N 
ATOM     10  N   UNL A   1      31.107  21.684  25.710  1.00  0.00    -0.171 NA
ATOM     11  C   UNL A   1      32.184  22.986  24.283  1.00  0.00     0.140 A 
ATOM     12  C   UNL A   1      30.641  22.926  25.841  1.00  0.00     0.069 A 
ATOM     13  Cl  UNL A   1      33.369  23.247  23.069  1.00  0.00    -0.061 Cl
ATOM     14  C   UNL A   1      29.833  22.918  27.097  1.00  0.00     0.069 C 
BRANCH   9  15
ATOM     15  C   UNL A   1      32.966  20.609  24.876  1.00  0.00     0.069 A 
ATOM     16  C   UNL A   1      33.154  17.298  22.997  1.00  0.00     0.044 C 
ATOM     17  C   UNL A   1      33.504  18.461  23.878  1.00  0.00    -0.049 A 
ATOM     18  C   UNL A   1      34.800  18.559  24.401  1.00  0.00     0.004 A 
ATOM     19  C   UNL A   1      32.574  19.476  24.144  1.00  0.00     0.032 A 
ATOM     20  C   UNL A   1      35.190  19.683  25.127  1.00  0.00     0.006 A 
ATOM     21  C   UNL A   1      34.294  20.738  25.348  1.00  0.00    -0.025 A 
ATOM     22  C   UNL A   1      34.830  21.957  26.061  1.00  0.00     0.047 C 
ENDBRANCH   9  15
ENDBRANCH   7   8
BRANCH   6  23
ATOM     23  C   UNL A   1      30.602  27.670  23.560  1.00  0.00     0.107 C 
ATOM     24  N   UNL A   1      30.371  28.669  22.826  1.00  0.00    -0.192 NA
ENDBRANCH   6  23
ENDBRANCH   4   6
ENDBRANCH   3   4
ENDBRANCH   2   3
ENDBRANCH   1   2
BRANCH   1  25
ATOM     25  O   UNL A   1      34.315  29.953  27.481  1.00  0.00    -0.458 OA
BRANCH  25  26
ATOM     26  C   UNL A   1      34.954  31.077  27.885  1.00  0.00     0.338 C 
ATOM     27  O   UNL A   1      34.485  32.182  27.754  1.00  0.00    -0.246 OA
BRANCH  26  28
ATOM     28  C   UNL A   1      36.181  30.705  28.673  1.00  0.00     0.060 A 
ATOM     29  C   UNL A   1      36.434  29.365  29.046  1.00  0.00     0.016 A 
ATOM     30  C   UNL A   1      37.199  31.640  28.761  1.00  0.00     0.016 A 
ATOM     31  C   UNL A   1      37.688  28.941  29.438  1.00  0.00     0.010 A 
ATOM     32  C   UNL A   1      38.477  31.193  28.980  1.00  0.00     0.010 A 
ATOM     33  C   UNL A   1      38.713  29.859  29.334  1.00  0.00    -0.014 A 
BRANCH  33  34
ATOM     34  C   UNL A   1      40.079  29.409  29.495  1.00  0.00     0.031 A 
ATOM     35  C   UNL A   1      40.578  29.283  30.896  1.00  0.00     0.074 A 
ATOM     36  C   UNL A   1      40.717  28.953  28.400  1.00  0.00     0.049 A 
ATOM     37  N   UNL A   1      41.561  29.929  31.435  1.00  0.00    -0.248 NA
ATOM     38  C   UNL A   1      39.843  28.441  31.854  1.00  0.00     0.031 C 
ATOM     39  C   UNL A   1      40.154  28.822  27.047  1.00  0.00     0.029 A 
ATOM     40  N   UNL A   1      41.913  28.327  28.295  1.00  0.00    -0.354 N 
ATOM     41  C   UNL A   1      41.749  29.355  32.695  1.00  0.00     0.074 A 
ATOM     42  C   UNL A   1      40.550  28.616  32.973  1.00  0.00     0.031 C 
ATOM     43  C   UNL A   1      40.857  27.900  26.362  1.00  0.00     0.029 A 
ATOM     44  C   UNL A   1      42.022  27.552  27.146  1.00  0.00     0.049 A 
ATOM     45  H   UNL A   1      42.631  28.413  28.963  1.00  0.00     0.167 HD
ATOM     46  C   UNL A   1      43.000  29.287  33.238  1.00  0.00     0.034 A 
ATOM     47  C   UNL A   1      42.986  26.648  26.873  1.00  0.00     0.034 A 
ATOM     48  C   UNL A   1      43.894  30.191  32.546  1.00  0.00     0.049 A 
ATOM     49  C   UNL A   1      44.152  27.020  27.699  1.00  0.00     0.074 A 
ATOM     50  C   UNL A   1      43.962  31.546  32.313  1.00  0.00     0.029 A 
ATOM     51  N   UNL A   1      44.712  29.592  31.621  1.00  0.00    -0.354 N 
ATOM     52  N   UNL A   1      44.801  28.144  27.555  1.00  0.00    -0.248 NA
ATOM     53  C   UNL A   1      44.356  26.339  28.965  1.00  0.00     0.031 C 
ATOM     54  C   UNL A   1      44.507  31.669  30.997  1.00  0.00     0.029 A 
ATOM     55  C   UNL A   1      44.820  30.393  30.523  1.00  0.00     0.049 A 
ATOM     56  H   UNL A   1      45.152  28.720  31.733  1.00  0.00     0.167 HD
ATOM     57  C   UNL A   1      45.073  28.544  28.855  1.00  0.00     0.074 A 
ATOM     58  C   UNL A   1      44.944  27.324  29.651  1.00  0.00     0.031 C 
ATOM     59  C   UNL A   1      45.071  29.870  29.194  1.00  0.00     0.034 A 
BRANCH  46  60
ATOM     60  C   UNL A   1      43.575  28.093  34.004  1.00  0.00     0.023 A 
ATOM     61  C   UNL A   1      44.211  28.386  35.239  1.00  0.00     0.012 A 
ATOM     62  C   UNL A   1      43.830  26.815  33.457  1.00  0.00     0.148 A 
ATOM     63  C   UNL A   1      45.143  27.519  35.822  1.00  0.00     0.002 A 
ATOM     64  C   UNL A   1      44.713  25.929  34.073  1.00  0.00     0.091 A 
ATOM     65  F   UNL A   1      43.308  26.467  32.282  1.00  0.00    -0.205 F 
ATOM     66  C   UNL A   1      45.402  26.292  35.232  1.00  0.00     0.022 A 
BRANCH  64  67
ATOM     67  S   UNL A   1      45.075  24.307  33.382  1.00  0.00     0.127 S 
ATOM     68  O   UNL A   1      43.764  23.666  33.448  1.00  0.00    -0.237 OA
ATOM     69  O   UNL A   1      45.527  24.655  32.034  1.00  0.00    -0.237 OA
ATOM     70  O   UNL A   1      46.107  23.731  34.232  1.00  0.00    -0.744 OA
ENDBRANCH  64  67
ENDBRANCH  46  60
BRANCH  47  71
ATOM     71  C   UNL A   1      42.890  25.378  26.128  1.00  0.00     0.023 A 
ATOM     72  C   UNL A   1      43.863  25.074  25.160  1.00  0.00     0.012 A 
ATOM     73  C   UNL A   1      42.017  24.349  26.551  1.00  0.00     0.148 A 
ATOM     74  C   UNL A   1      43.998  23.774  24.662  1.00  0.00     0.002 A 
ATOM     75  C   UNL A   1      42.150  23.059  26.048  1.00  0.00     0.091 A 
ATOM     76  F   UNL A   1      41.117  24.616  27.508  1.00  0.00    -0.205 F 
ATOM     77  C   UNL A   1      43.151  22.766  25.114  1.00  0.00     0.022 A 
BRANCH  75  78
ATOM     78  S   UNL A   1      41.109  21.699  26.596  1.00  0.00     0.127 S 
ATOM     79  O   UNL A   1      39.784  22.133  26.147  1.00  0.00    -0.237 OA
ATOM     80  O   UNL A   1      41.666  20.572  25.855  1.00  0.00    -0.237 OA
ATOM     81  O   UNL A   1      41.259  21.640  28.045  1.00  0.00    -0.744 OA
ENDBRANCH  75  78
ENDBRANCH  47  71
BRANCH  59  82
ATOM     82  C   UNL A   1      45.128  30.883  28.078  1.00  0.00     0.023 A 
ATOM     83  C   UNL A   1      43.985  31.343  27.393  1.00  0.00     0.012 A 
ATOM     84  C   UNL A   1      46.366  31.492  27.812  1.00  0.00     0.148 A 
ATOM     85  C   UNL A   1      44.081  32.362  26.440  1.00  0.00     0.002 A 
ATOM     86  C   UNL A   1      46.451  32.535  26.899  1.00  0.00     0.091 A 
ATOM     87  F   UNL A   1      47.446  31.050  28.474  1.00  0.00    -0.205 F 
ATOM     88  C   UNL A   1      45.313  32.967  26.201  1.00  0.00     0.022 A 
BRANCH  86  89
ATOM     89  S   UNL A   1      47.989  33.420  26.646  1.00  0.00     0.127 S 
ATOM     90  O   UNL A   1      48.193  34.055  27.947  1.00  0.00    -0.237 OA
ATOM     91  O   UNL A   1      48.931  32.342  26.337  1.00  0.00    -0.237 OA
ATOM     92  O   UNL A   1      47.746  34.328  25.532  1.00  0.00    -0.744 OA
ENDBRANCH  86  89
ENDBRANCH  59  82
ENDBRANCH  33  34
ENDBRANCH  26  28
ENDBRANCH  25  26
ENDBRANCH   1  25
TORSDOF 17
ENDMDL
MODEL 3
REMARK VINA RESULT:     -10.1      2.175      2.740
REMARK SMILES Cc1ccc(C)c(-n2nc(C)c(/C=C(/C#N)C(=O)OCCOC(=O)c3ccc(-c4c5nc(c(-c6cccc(S(=O)(=O)[O-])c6F)c6ccc([nH]6)c(-c6cccc(S(=O)(=O)[O-])c6F)c6nc(c(-c7cccc(S(=O)(=O)[O-])c7F)c7ccc4[nH]7)C=C6)C=C5)cc3)c2Cl)c1
REMARK SMILES IDX 21 1 20 2 19 3 17 4 18 5 14 6 13 7 12 8 8 9 9 10 88 11 10 12
REMARK SMILES IDX 89 13 11 14 7 15 1 16 2 17 3 18 90 19 4 20 5 21 6 22 15 23
REMARK SMILES IDX 16 24 22 25 23 26 24 27 25 28 26 29 87 30 27 31 86 32 28 33
REMARK SMILES IDX 29 34 30 35 80 36 31 37 85 38 79 39 81 40 32 41 84 42 78 43
REMARK SMILES IDX 77 44 33 46 65 47 45 48 64 49 46 50 49 51 63 52 82 53 47 54
REMARK SMILES IDX 48 55 62 57 83 58 50 59 34 60 35 61 43 62 36 63 38 64 44 65
REMARK SMILES IDX 37 66 39 67 40 68 41 69 42 70 66 71 67 72 75 73 68 74 70 75
REMARK SMILES IDX 76 76 69 77 71 78 72 79 73 80 74 81 51 82 52 83 60 84 53 85
REMARK SMILES IDX 55 86 61 87 54 88 56 89 57 90 58 91 59 92
REMARK H PARENT 81 45 49 56
REMARK Flexibility Score: inf
ROOT
ATOM      1  C   UNL A   1      35.392  32.781  28.692  1.00  0.00     0.275 C 
ENDROOT
BRANCH   1   2
ATOM      2  C   UNL A   1      34.066  33.465  29.063  1.00  0.00     0.275 C 
BRANCH   2   3
ATOM      3  O   UNL A   1      34.008  33.770  30.478  1.00  0.00    -0.458 OA
BRANCH   3   4
ATOM      4  C   UNL A   1      33.680  35.060  30.765  1.00  0.00     0.349 C 
ATOM      5  O   UNL A   1      33.472  35.925  29.920  1.00  0.00    -0.245 OA
BRANCH   4   6
ATOM      6  C   UNL A   1      34.080  35.468  32.124  1.00  0.00     0.138 C 
ATOM      7  C   UNL A   1      35.185  35.268  32.885  1.00  0.00     0.040 C 
BRANCH   7   8
ATOM      8  C   UNL A   1      36.584  34.733  32.794  1.00  0.00     0.037 A 
ATOM      9  N   UNL A   1      38.452  33.830  33.740  1.00  0.00    -0.221 N 
ATOM     10  N   UNL A   1      38.822  34.182  32.524  1.00  0.00    -0.171 NA
ATOM     11  C   UNL A   1      37.127  34.127  33.944  1.00  0.00     0.140 A 
ATOM     12  C   UNL A   1      37.711  34.517  31.867  1.00  0.00     0.069 A 
ATOM     13  Cl  UNL A   1      36.468  33.841  35.504  1.00  0.00    -0.061 Cl
ATOM     14  C   UNL A   1      38.076  34.473  30.419  1.00  0.00     0.069 C 
BRANCH   9  15
ATOM     15  C   UNL A   1      39.427  33.099  34.465  1.00  0.00     0.069 A 
ATOM     16  C   UNL A   1      41.831  33.823  37.333  1.00  0.00     0.044 C 
ATOM     17  C   UNL A   1      41.022  33.099  36.296  1.00  0.00    -0.049 A 
ATOM     18  C   UNL A   1      40.983  31.699  36.312  1.00  0.00     0.004 A 
ATOM     19  C   UNL A   1      40.264  33.800  35.347  1.00  0.00     0.032 A 
ATOM     20  C   UNL A   1      40.152  31.002  35.436  1.00  0.00     0.006 A 
ATOM     21  C   UNL A   1      39.338  31.687  34.524  1.00  0.00    -0.025 A 
ATOM     22  C   UNL A   1      38.399  30.857  33.682  1.00  0.00     0.047 C 
ENDBRANCH   9  15
ENDBRANCH   7   8
BRANCH   6  23
ATOM     23  C   UNL A   1      32.760  36.138  32.476  1.00  0.00     0.107 C 
ATOM     24  N   UNL A   1      31.666  36.692  32.767  1.00  0.00    -0.192 NA
ENDBRANCH   6  23
ENDBRANCH   4   6
ENDBRANCH   3   4
ENDBRANCH   2   3
ENDBRANCH   1   2
BRANCH   1  25
ATOM     25  O   UNL A   1      35.576  31.397  29.059  1.00  0.00    -0.458 OA
BRANCH  25  26
ATOM     26  C   UNL A   1      36.242  31.164  30.215  1.00  0.00     0.338 C 
ATOM     27  O   UNL A   1      35.747  31.337  31.303  1.00  0.00    -0.246 OA
BRANCH  26  28
ATOM     28  C   UNL A   1      37.550  30.485  29.915  1.00  0.00     0.060 A 
ATOM     29  C   UNL A   1      38.764  31.208  29.896  1.00  0.00     0.016 A 
ATOM     30  C   UNL A   1      37.583  29.100  29.960  1.00  0.00     0.016 A 
ATOM     31  C   UNL A   1      39.990  30.579  29.984  1.00  0.00     0.010 A 
ATOM     32  C   UNL A   1      38.781  28.486  30.222  1.00  0.00     0.010 A 
ATOM     33  C   UNL A   1      39.974  29.219  30.214  1.00  0.00    -0.014 A 
BRANCH  33  34
ATOM     34  C   UNL A   1      41.209  28.548  30.557  1.00  0.00     0.031 A 
ATOM     35  C   UNL A   1      41.572  28.519  32.004  1.00  0.00     0.074 A 
ATOM     36  C   UNL A   1      41.820  27.838  29.590  1.00  0.00     0.049 A 
ATOM     37  N   UNL A   1      42.622  29.036  32.555  1.00  0.00    -0.248 NA
ATOM     38  C   UNL A   1      40.618  27.965  32.980  1.00  0.00     0.031 C 
ATOM     39  C   UNL A   1      41.340  27.635  28.213  1.00  0.00     0.029 A 
ATOM     40  N   UNL A   1      42.874  26.991  29.674  1.00  0.00    -0.354 N 
ATOM     41  C   UNL A   1      42.603  28.611  33.887  1.00  0.00     0.074 A 
ATOM     42  C   UNL A   1      41.265  28.153  34.133  1.00  0.00     0.031 C 
ATOM     43  C   UNL A   1      41.894  26.514  27.712  1.00  0.00     0.029 A 
ATOM     44  C   UNL A   1      42.908  26.062  28.640  1.00  0.00     0.049 A 
ATOM     45  H   UNL A   1      43.545  27.030  30.393  1.00  0.00     0.167 HD
ATOM     46  C   UNL A   1      43.774  28.384  34.550  1.00  0.00     0.034 A 
ATOM     47  C   UNL A   1      43.692  24.966  28.569  1.00  0.00     0.034 A 
ATOM     48  C   UNL A   1      44.876  29.003  33.846  1.00  0.00     0.049 A 
ATOM     49  C   UNL A   1      44.847  25.221  29.453  1.00  0.00     0.074 A 
ATOM     50  C   UNL A   1      45.227  30.278  33.463  1.00  0.00     0.029 A 
ATOM     51  N   UNL A   1      45.623  28.143  33.080  1.00  0.00    -0.354 N 
ATOM     52  N   UNL A   1      45.713  26.174  29.240  1.00  0.00    -0.248 NA
ATOM     53  C   UNL A   1      44.821  24.689  30.804  1.00  0.00     0.031 C 
ATOM     54  C   UNL A   1      45.878  30.120  32.200  1.00  0.00     0.029 A 
ATOM     55  C   UNL A   1      45.965  28.756  31.911  1.00  0.00     0.049 A 
ATOM     56  H   UNL A   1      45.873  27.227  33.336  1.00  0.00     0.167 HD
ATOM     57  C   UNL A   1      45.966  26.686  30.505  1.00  0.00     0.074 A 
ATOM     58  C   UNL A   1      45.542  25.629  31.422  1.00  0.00     0.031 C 
ATOM     59  C   UNL A   1      46.202  28.022  30.683  1.00  0.00     0.034 A 
BRANCH  46  60
ATOM     60  C   UNL A   1      44.046  27.216  35.503  1.00  0.00     0.023 A 
ATOM     61  C   UNL A   1      44.637  27.548  36.750  1.00  0.00     0.012 A 
ATOM     62  C   UNL A   1      44.081  25.851  35.138  1.00  0.00     0.148 A 
ATOM     63  C   UNL A   1      45.335  26.608  37.518  1.00  0.00     0.002 A 
ATOM     64  C   UNL A   1      44.726  24.906  35.935  1.00  0.00     0.091 A 
ATOM     65  F   UNL A   1      43.586  25.453  33.967  1.00  0.00    -0.205 F 
ATOM     66  C   UNL A   1      45.389  25.286  37.104  1.00  0.00     0.022 A 
BRANCH  64  67
ATOM     67  S   UNL A   1      44.808  23.168  35.477  1.00  0.00     0.127 S 
ATOM     68  O   UNL A   1      43.403  22.874  35.207  1.00  0.00    -0.237 OA
ATOM     69  O   UNL A   1      45.669  23.216  34.294  1.00  0.00    -0.237 OA
ATOM     70  O   UNL A   1      45.393  22.481  36.620  1.00  0.00    -0.744 OA
ENDBRANCH  64  67
ENDBRANCH  46  60
BRANCH  47  71
ATOM     71  C   UNL A   1      43.400  23.648  27.972  1.00  0.00     0.023 A 
ATOM     72  C   UNL A   1      42.161  23.035  28.232  1.00  0.00     0.012 A 
ATOM     73  C   UNL A   1      44.208  23.121  26.937  1.00  0.00     0.148 A 
ATOM     74  C   UNL A   1      41.716  21.961  27.455  1.00  0.00     0.002 A 
ATOM     75  C   UNL A   1      43.764  22.048  26.172  1.00  0.00     0.091 A 
ATOM     76  F   UNL A   1      45.368  23.728  26.650  1.00  0.00    -0.205 F 
ATOM     77  C   UNL A   1      42.509  21.476  26.419  1.00  0.00     0.022 A 
BRANCH  75  78
ATOM     78  S   UNL A   1      44.721  21.378  24.805  1.00  0.00     0.127 S 
ATOM     79  O   UNL A   1      44.059  20.093  24.574  1.00  0.00    -0.237 OA
ATOM     80  O   UNL A   1      44.502  22.375  23.763  1.00  0.00    -0.237 OA
ATOM     81  O   UNL A   1      46.090  21.265  25.294  1.00  0.00    -0.744 OA
ENDBRANCH  75  78
ENDBRANCH  47  71
BRANCH  59  82
ATOM     82  C   UNL A   1      46.538  28.848  29.467  1.00  0.00     0.023 A 
ATOM     83  C   UNL A   1      47.792  28.802  28.823  1.00  0.00     0.012 A 
ATOM     84  C   UNL A   1      45.503  29.591  28.876  1.00  0.00     0.148 A 
ATOM     85  C   UNL A   1      48.016  29.508  27.637  1.00  0.00     0.002 A 
ATOM     86  C   UNL A   1      45.714  30.254  27.674  1.00  0.00     0.091 A 
ATOM     87  F   UNL A   1      44.312  29.624  29.495  1.00  0.00    -0.205 F 
ATOM     88  C   UNL A   1      46.973  30.225  27.055  1.00  0.00     0.022 A 
BRANCH  86  89
ATOM     89  S   UNL A   1      44.372  31.090  26.829  1.00  0.00     0.127 S 
ATOM     90  O   UNL A   1      43.910  32.031  27.847  1.00  0.00    -0.237 OA
ATOM     91  O   UNL A   1      45.049  31.707  25.687  1.00  0.00    -0.237 OA
ATOM     92  O   UNL A   1      43.425  30.045  26.458  1.00  0.00    -0.744 OA
ENDBRANCH  86  89
ENDBRANCH  59  82
ENDBRANCH  33  34
ENDBRANCH  26  28
ENDBRANCH  25  26
ENDBRANCH   1  25
TORSDOF 17
ENDMDL
