MODEL 1
REMARK VINA RESULT:     -13.1      0.000      0.000
REMARK SMILES COc1ccc2c(c1)c(CC(=O)OCCOC(=O)c1ccc(-c3c4nc(c(-c5cccc(S(=O)(=O)[O-])c5F)c5ccc([nH]5)c(-c5cccc(S(=O)(=O)[O-])c5F)c5nc(c(-c6cccc(S(=O)(=O)[O-])c6F)c6ccc3[nH]6)C=C5)C=C4)cc1)c(C(F)(F)F)n2C(=O)c1ccc(Cl)cc1
REMARK SMILES IDX 14 1 13 2 11 3 12 4 10 5 9 6 3 7 4 8 8 9 5 10 7 11 6 12
REMARK SMILES IDX 87 13 82 14 2 15 1 16 88 17 89 18 90 19 91 20 96 21 92 22
REMARK SMILES IDX 95 23 93 24 94 25 83 26 84 27 85 28 86 29 15 30 16 31 17 32
REMARK SMILES IDX 18 33 19 34 20 35 81 36 21 37 80 38 22 39 23 40 24 41 74 42
REMARK SMILES IDX 25 43 79 44 73 45 75 46 26 47 78 48 72 49 71 50 27 52 59 53
REMARK SMILES IDX 39 54 58 55 40 56 43 57 57 58 76 59 41 60 42 61 56 63 77 64
REMARK SMILES IDX 44 65 28 66 29 67 37 68 30 69 32 70 38 71 31 72 33 73 34 74
REMARK SMILES IDX 35 75 36 76 60 77 61 78 69 79 62 80 64 81 70 82 63 83 65 84
REMARK SMILES IDX 66 85 67 86 68 87 45 88 46 89 54 90 47 91 49 92 55 93 48 94
REMARK SMILES IDX 50 95 51 96 52 97 53 98
REMARK H PARENT 75 51 43 62
REMARK Flexibility Score: inf
ROOT
ATOM      1  C   UNL A   1      34.845  22.067  23.983  1.00  0.00     0.274 C 
ENDROOT
BRANCH   1   2
ATOM      2  O   UNL A   1      35.549  23.317  24.146  1.00  0.00    -0.462 OA
BRANCH   2   3
ATOM      3  C   UNL A   1      34.845  24.282  24.788  1.00  0.00     0.310 C 
ATOM      4  O   UNL A   1      34.677  24.309  26.004  1.00  0.00    -0.252 OA
BRANCH   3   5
ATOM      5  C   UNL A   1      34.163  25.270  23.892  1.00  0.00     0.161 C 
BRANCH   5   6
ATOM      6  C   UNL A   1      32.972  26.082  24.343  1.00  0.00     0.002 A 
ATOM      7  C   UNL A   1      33.216  28.663  27.225  1.00  0.00     0.119 A 
ATOM      8  C   UNL A   1      31.859  28.859  27.364  1.00  0.00     0.048 A 
ATOM      9  C   UNL A   1      33.688  27.844  26.186  1.00  0.00     0.057 A 
ATOM     10  C   UNL A   1      30.970  28.208  26.506  1.00  0.00     0.031 A 
ATOM     11  C   UNL A   1      32.821  27.106  25.342  1.00  0.00     0.008 A 
ATOM     12  C   UNL A   1      31.447  27.344  25.491  1.00  0.00     0.057 A 
ATOM     13  N   UNL A   1      30.796  26.669  24.448  1.00  0.00    -0.271 N 
ATOM     14  C   UNL A   1      31.680  25.735  23.943  1.00  0.00     0.135 A 
BRANCH   7  15
ATOM     15  O   UNL A   1      34.159  29.261  28.019  1.00  0.00    -0.497 OA
ATOM     16  C   UNL A   1      34.847  30.369  27.437  1.00  0.00     0.278 C 
ENDBRANCH   7  15
BRANCH  13  17
ATOM     17  C   UNL A   1      29.503  26.950  23.944  1.00  0.00     0.262 C 
ATOM     18  O   UNL A   1      28.615  26.116  24.084  1.00  0.00    -0.268 OA
BRANCH  17  19
ATOM     19  C   UNL A   1      29.181  28.120  23.124  1.00  0.00     0.040 A 
ATOM     20  C   UNL A   1      30.222  28.780  22.463  1.00  0.00     0.015 A 
ATOM     21  C   UNL A   1      27.873  28.611  23.104  1.00  0.00     0.015 A 
ATOM     22  C   UNL A   1      29.958  29.986  21.818  1.00  0.00     0.021 A 
ATOM     23  C   UNL A   1      27.616  29.814  22.447  1.00  0.00     0.021 A 
ATOM     24  C   UNL A   1      28.660  30.500  21.819  1.00  0.00     0.041 A 
ATOM     25  Cl  UNL A   1      28.353  32.016  21.064  1.00  0.00    -0.084 Cl
ENDBRANCH  17  19
ENDBRANCH  13  17
BRANCH  14  26
ATOM     26  C   UNL A   1      31.272  24.580  23.080  1.00  0.00     0.432 C 
ATOM     27  F   UNL A   1      30.891  25.017  21.854  1.00  0.00    -0.165 F 
ATOM     28  F   UNL A   1      32.335  23.757  22.878  1.00  0.00    -0.165 F 
ATOM     29  F   UNL A   1      30.297  23.800  23.588  1.00  0.00    -0.165 F 
ENDBRANCH  14  26
ENDBRANCH   5   6
ENDBRANCH   3   5
ENDBRANCH   2   3
ENDBRANCH   1   2
BRANCH   1  30
ATOM     30  C   UNL A   1      35.353  21.034  24.991  1.00  0.00     0.275 C 
BRANCH  30  31
ATOM     31  O   UNL A   1      36.518  21.557  25.649  1.00  0.00    -0.458 OA
BRANCH  31  32
ATOM     32  C   UNL A   1      37.698  20.921  25.433  1.00  0.00     0.338 C 
ATOM     33  O   UNL A   1      37.873  19.890  24.810  1.00  0.00    -0.246 OA
BRANCH  32  34
ATOM     34  C   UNL A   1      38.742  21.898  25.799  1.00  0.00     0.060 A 
ATOM     35  C   UNL A   1      40.021  21.459  26.139  1.00  0.00     0.016 A 
ATOM     36  C   UNL A   1      38.343  23.209  26.076  1.00  0.00     0.016 A 
ATOM     37  C   UNL A   1      40.817  22.272  26.932  1.00  0.00     0.010 A 
ATOM     38  C   UNL A   1      39.113  23.994  26.912  1.00  0.00     0.010 A 
ATOM     39  C   UNL A   1      40.308  23.489  27.404  1.00  0.00    -0.014 A 
BRANCH  39  40
ATOM     40  C   UNL A   1      41.152  24.368  28.187  1.00  0.00     0.031 A 
ATOM     41  C   UNL A   1      40.527  25.696  28.347  1.00  0.00     0.074 A 
ATOM     42  C   UNL A   1      42.304  24.080  28.820  1.00  0.00     0.049 A 
ATOM     43  N   UNL A   1      40.717  26.716  27.583  1.00  0.00    -0.248 NA
ATOM     44  C   UNL A   1      39.428  25.845  29.307  1.00  0.00     0.031 C 
ATOM     45  C   UNL A   1      42.949  22.796  29.085  1.00  0.00     0.029 A 
ATOM     46  N   UNL A   1      43.133  24.969  29.432  1.00  0.00    -0.354 N 
ATOM     47  C   UNL A   1      39.927  27.719  28.117  1.00  0.00     0.074 A 
ATOM     48  C   UNL A   1      39.006  27.077  29.020  1.00  0.00     0.031 C 
ATOM     49  C   UNL A   1      43.974  22.978  29.958  1.00  0.00     0.029 A 
ATOM     50  C   UNL A   1      44.162  24.403  30.174  1.00  0.00     0.049 A 
ATOM     51  H   UNL A   1      43.013  25.943  29.354  1.00  0.00     0.167 HD
ATOM     52  C   UNL A   1      40.260  29.027  27.965  1.00  0.00     0.034 A 
ATOM     53  C   UNL A   1      45.077  25.093  30.899  1.00  0.00     0.034 A 
ATOM     54  C   UNL A   1      41.292  29.208  26.975  1.00  0.00     0.049 A 
ATOM     55  C   UNL A   1      45.143  26.451  30.300  1.00  0.00     0.074 A 
ATOM     56  C   UNL A   1      41.418  28.896  25.635  1.00  0.00     0.029 A 
ATOM     57  N   UNL A   1      42.573  29.386  27.443  1.00  0.00    -0.354 N 
ATOM     58  N   UNL A   1      45.595  26.693  29.101  1.00  0.00    -0.248 NA
ATOM     59  C   UNL A   1      44.342  27.509  30.893  1.00  0.00     0.031 C 
ATOM     60  C   UNL A   1      42.761  28.437  25.489  1.00  0.00     0.029 A 
ATOM     61  C   UNL A   1      43.389  28.541  26.733  1.00  0.00     0.049 A 
ATOM     62  H   UNL A   1      42.854  30.004  28.155  1.00  0.00     0.167 HD
ATOM     63  C   UNL A   1      44.791  27.719  28.624  1.00  0.00     0.074 A 
ATOM     64  C   UNL A   1      44.116  28.251  29.805  1.00  0.00     0.031 C 
ATOM     65  C   UNL A   1      44.539  27.860  27.290  1.00  0.00     0.034 A 
BRANCH  52  66
ATOM     66  C   UNL A   1      39.901  30.098  28.953  1.00  0.00     0.023 A 
ATOM     67  C   UNL A   1      40.735  30.258  30.077  1.00  0.00     0.012 A 
ATOM     68  C   UNL A   1      38.667  30.788  28.956  1.00  0.00     0.148 A 
ATOM     69  C   UNL A   1      40.353  31.059  31.156  1.00  0.00     0.002 A 
ATOM     70  C   UNL A   1      38.332  31.651  29.989  1.00  0.00     0.091 A 
ATOM     71  F   UNL A   1      37.744  30.511  28.029  1.00  0.00    -0.205 F 
ATOM     72  C   UNL A   1      39.161  31.771  31.105  1.00  0.00     0.022 A 
BRANCH  70  73
ATOM     73  S   UNL A   1      36.826  32.627  29.931  1.00  0.00     0.127 S 
ATOM     74  O   UNL A   1      35.816  31.625  30.257  1.00  0.00    -0.237 OA
ATOM     75  O   UNL A   1      37.072  33.625  30.972  1.00  0.00    -0.237 OA
ATOM     76  O   UNL A   1      36.780  33.179  28.582  1.00  0.00    -0.744 OA
ENDBRANCH  70  73
ENDBRANCH  52  66
BRANCH  53  77
ATOM     77  C   UNL A   1      45.789  24.784  32.164  1.00  0.00     0.023 A 
ATOM     78  C   UNL A   1      47.036  25.399  32.419  1.00  0.00     0.012 A 
ATOM     79  C   UNL A   1      45.123  24.168  33.245  1.00  0.00     0.148 A 
ATOM     80  C   UNL A   1      47.568  25.461  33.712  1.00  0.00     0.002 A 
ATOM     81  C   UNL A   1      45.659  24.228  34.532  1.00  0.00     0.091 A 
ATOM     82  F   UNL A   1      43.922  23.615  33.029  1.00  0.00    -0.205 F 
ATOM     83  C   UNL A   1      46.872  24.889  34.771  1.00  0.00     0.022 A 
BRANCH  81  84
ATOM     84  S   UNL A   1      44.815  23.536  35.962  1.00  0.00     0.127 S 
ATOM     85  O   UNL A   1      43.675  24.444  36.112  1.00  0.00    -0.237 OA
ATOM     86  O   UNL A   1      44.469  22.198  35.492  1.00  0.00    -0.237 OA
ATOM     87  O   UNL A   1      45.775  23.595  37.055  1.00  0.00    -0.744 OA
ENDBRANCH  81  84
ENDBRANCH  53  77
BRANCH  65  88
ATOM     88  C   UNL A   1      45.346  27.027  26.323  1.00  0.00     0.023 A 
ATOM     89  C   UNL A   1      46.634  27.417  25.898  1.00  0.00     0.012 A 
ATOM     90  C   UNL A   1      44.886  25.739  26.004  1.00  0.00     0.148 A 
ATOM     91  C   UNL A   1      47.444  26.539  25.170  1.00  0.00     0.002 A 
ATOM     92  C   UNL A   1      45.708  24.855  25.314  1.00  0.00     0.091 A 
ATOM     93  F   UNL A   1      43.662  25.384  26.426  1.00  0.00    -0.205 F 
ATOM     94  C   UNL A   1      46.987  25.253  24.892  1.00  0.00     0.022 A 
BRANCH  92  95
ATOM     95  S   UNL A   1      45.237  23.149  25.020  1.00  0.00     0.127 S 
ATOM     96  O   UNL A   1      46.232  22.415  25.801  1.00  0.00    -0.237 OA
ATOM     97  O   UNL A   1      43.879  23.103  25.564  1.00  0.00    -0.237 OA
ATOM     98  O   UNL A   1      45.313  22.948  23.578  1.00  0.00    -0.744 OA
ENDBRANCH  92  95
ENDBRANCH  65  88
ENDBRANCH  39  40
ENDBRANCH  32  34
ENDBRANCH  31  32
ENDBRANCH  30  31
ENDBRANCH   1  30
TORSDOF 19
ENDMDL
MODEL 2
REMARK VINA RESULT:     -13.0      3.474      7.925
REMARK SMILES COc1ccc2c(c1)c(CC(=O)OCCOC(=O)c1ccc(-c3c4nc(c(-c5cccc(S(=O)(=O)[O-])c5F)c5ccc([nH]5)c(-c5cccc(S(=O)(=O)[O-])c5F)c5nc(c(-c6cccc(S(=O)(=O)[O-])c6F)c6ccc3[nH]6)C=C5)C=C4)cc1)c(C(F)(F)F)n2C(=O)c1ccc(Cl)cc1
REMARK SMILES IDX 14 1 13 2 11 3 12 4 10 5 9 6 3 7 4 8 8 9 5 10 7 11 6 12
REMARK SMILES IDX 87 13 82 14 2 15 1 16 88 17 89 18 90 19 91 20 96 21 92 22
REMARK SMILES IDX 95 23 93 24 94 25 83 26 84 27 85 28 86 29 15 30 16 31 17 32
REMARK SMILES IDX 18 33 19 34 20 35 81 36 21 37 80 38 22 39 23 40 24 41 74 42
REMARK SMILES IDX 25 43 79 44 73 45 75 46 26 47 78 48 72 49 71 50 27 52 59 53
REMARK SMILES IDX 39 54 58 55 40 56 43 57 57 58 76 59 41 60 42 61 56 63 77 64
REMARK SMILES IDX 44 65 28 66 29 67 37 68 30 69 32 70 38 71 31 72 33 73 34 74
REMARK SMILES IDX 35 75 36 76 60 77 61 78 69 79 62 80 64 81 70 82 63 83 65 84
REMARK SMILES IDX 66 85 67 86 68 87 45 88 46 89 54 90 47 91 49 92 55 93 48 94
REMARK SMILES IDX 50 95 51 96 52 97 53 98
REMARK H PARENT 75 51 43 62
REMARK Flexibility Score: inf
ROOT
ATOM      1  C   UNL A   1      41.572  19.512  26.558  1.00  0.00     0.274 C 
ENDROOT
BRANCH   1   2
ATOM      2  O   UNL A   1      40.360  19.591  25.778  1.00  0.00    -0.462 OA
BRANCH   2   3
ATOM      3  C   UNL A   1      39.602  20.687  26.023  1.00  0.00     0.310 C 
ATOM      4  O   UNL A   1      39.653  21.333  27.066  1.00  0.00    -0.252 OA
BRANCH   3   5
ATOM      5  C   UNL A   1      38.583  21.002  24.970  1.00  0.00     0.161 C 
BRANCH   5   6
ATOM      6  C   UNL A   1      37.104  21.055  25.266  1.00  0.00     0.002 A 
ATOM      7  C   UNL A   1      34.746  18.072  24.508  1.00  0.00     0.119 A 
ATOM      8  C   UNL A   1      33.569  18.761  24.704  1.00  0.00     0.048 A 
ATOM      9  C   UNL A   1      35.968  18.714  24.771  1.00  0.00     0.057 A 
ATOM     10  C   UNL A   1      33.602  20.095  25.113  1.00  0.00     0.031 A 
ATOM     11  C   UNL A   1      36.050  20.087  25.113  1.00  0.00     0.008 A 
ATOM     12  C   UNL A   1      34.836  20.754  25.329  1.00  0.00     0.057 A 
ATOM     13  N   UNL A   1      35.147  22.024  25.838  1.00  0.00    -0.271 N 
ATOM     14  C   UNL A   1      36.478  22.269  25.553  1.00  0.00     0.135 A 
BRANCH   7  15
ATOM     15  O   UNL A   1      34.808  16.763  24.110  1.00  0.00    -0.497 OA
ATOM     16  C   UNL A   1      35.102  15.816  25.138  1.00  0.00     0.278 C 
ENDBRANCH   7  15
BRANCH  13  17
ATOM     17  C   UNL A   1      34.287  22.866  26.582  1.00  0.00     0.262 C 
ATOM     18  O   UNL A   1      34.311  22.808  27.806  1.00  0.00    -0.268 OA
BRANCH  17  19
ATOM     19  C   UNL A   1      33.248  23.708  25.985  1.00  0.00     0.040 A 
ATOM     20  C   UNL A   1      32.125  24.031  26.755  1.00  0.00     0.015 A 
ATOM     21  C   UNL A   1      33.347  24.078  24.642  1.00  0.00     0.015 A 
ATOM     22  C   UNL A   1      31.056  24.688  26.150  1.00  0.00     0.021 A 
ATOM     23  C   UNL A   1      32.275  24.746  24.047  1.00  0.00     0.021 A 
ATOM     24  C   UNL A   1      31.133  25.036  24.800  1.00  0.00     0.041 A 
ATOM     25  Cl  UNL A   1      29.788  25.801  24.048  1.00  0.00    -0.084 Cl
ENDBRANCH  17  19
ENDBRANCH  13  17
BRANCH  14  26
ATOM     26  C   UNL A   1      37.103  23.630  25.597  1.00  0.00     0.432 C 
ATOM     27  F   UNL A   1      38.089  23.668  26.528  1.00  0.00    -0.165 F 
ATOM     28  F   UNL A   1      37.695  23.904  24.404  1.00  0.00    -0.165 F 
ATOM     29  F   UNL A   1      36.249  24.648  25.823  1.00  0.00    -0.165 F 
ENDBRANCH  14  26
ENDBRANCH   5   6
ENDBRANCH   3   5
ENDBRANCH   2   3
ENDBRANCH   1   2
BRANCH   1  30
ATOM     30  C   UNL A   1      42.630  18.689  25.819  1.00  0.00     0.275 C 
BRANCH  30  31
ATOM     31  O   UNL A   1      43.106  19.445  24.694  1.00  0.00    -0.458 OA
BRANCH  31  32
ATOM     32  C   UNL A   1      44.435  19.718  24.640  1.00  0.00     0.338 C 
ATOM     33  O   UNL A   1      45.305  19.031  24.136  1.00  0.00    -0.246 OA
BRANCH  32  34
ATOM     34  C   UNL A   1      44.557  21.146  24.992  1.00  0.00     0.060 A 
ATOM     35  C   UNL A   1      45.514  21.557  25.919  1.00  0.00     0.016 A 
ATOM     36  C   UNL A   1      43.523  22.006  24.610  1.00  0.00     0.016 A 
ATOM     37  C   UNL A   1      45.312  22.746  26.604  1.00  0.00     0.010 A 
ATOM     38  C   UNL A   1      43.294  23.161  25.331  1.00  0.00     0.010 A 
ATOM     39  C   UNL A   1      44.142  23.483  26.380  1.00  0.00    -0.014 A 
BRANCH  39  40
ATOM     40  C   UNL A   1      43.950  24.753  27.050  1.00  0.00     0.031 A 
ATOM     41  C   UNL A   1      45.095  25.654  26.812  1.00  0.00     0.074 A 
ATOM     42  C   UNL A   1      42.872  25.192  27.723  1.00  0.00     0.049 A 
ATOM     43  N   UNL A   1      46.133  25.772  27.568  1.00  0.00    -0.248 NA
ATOM     44  C   UNL A   1      45.206  26.322  25.510  1.00  0.00     0.031 C 
ATOM     45  C   UNL A   1      41.522  24.640  27.822  1.00  0.00     0.029 A 
ATOM     46  N   UNL A   1      42.785  26.338  28.452  1.00  0.00    -0.354 N 
ATOM     47  C   UNL A   1      46.927  26.719  26.945  1.00  0.00     0.074 A 
ATOM     48  C   UNL A   1      46.426  26.853  25.601  1.00  0.00     0.031 C 
ATOM     49  C   UNL A   1      40.707  25.547  28.420  1.00  0.00     0.029 A 
ATOM     50  C   UNL A   1      41.510  26.661  28.896  1.00  0.00     0.049 A 
ATOM     51  H   UNL A   1      43.570  26.898  28.650  1.00  0.00     0.167 HD
ATOM     52  C   UNL A   1      47.775  27.501  27.661  1.00  0.00     0.034 A 
ATOM     53  C   UNL A   1      41.182  27.774  29.599  1.00  0.00     0.034 A 
ATOM     54  C   UNL A   1      47.945  27.017  29.008  1.00  0.00     0.049 A 
ATOM     55  C   UNL A   1      42.428  28.219  30.275  1.00  0.00     0.074 A 
ATOM     56  C   UNL A   1      48.378  25.829  29.566  1.00  0.00     0.029 A 
ATOM     57  N   UNL A   1      47.221  27.653  29.990  1.00  0.00    -0.354 N 
ATOM     58  N   UNL A   1      43.024  27.541  31.216  1.00  0.00    -0.248 NA
ATOM     59  C   UNL A   1      43.235  29.245  29.634  1.00  0.00     0.031 C 
ATOM     60  C   UNL A   1      47.502  25.600  30.670  1.00  0.00     0.029 A 
ATOM     61  C   UNL A   1      46.621  26.681  30.750  1.00  0.00     0.049 A 
ATOM     62  H   UNL A   1      47.148  28.625  30.124  1.00  0.00     0.167 HD
ATOM     63  C   UNL A   1      44.379  27.745  30.990  1.00  0.00     0.074 A 
ATOM     64  C   UNL A   1      44.443  28.885  30.078  1.00  0.00     0.031 C 
ATOM     65  C   UNL A   1      45.305  26.807  31.342  1.00  0.00     0.034 A 
BRANCH  52  66
ATOM     66  C   UNL A   1      48.174  28.889  27.253  1.00  0.00     0.023 A 
ATOM     67  C   UNL A   1      49.549  29.198  27.238  1.00  0.00     0.012 A 
ATOM     68  C   UNL A   1      47.265  29.962  27.114  1.00  0.00     0.148 A 
ATOM     69  C   UNL A   1      49.995  30.515  27.101  1.00  0.00     0.002 A 
ATOM     70  C   UNL A   1      47.714  31.256  26.890  1.00  0.00     0.091 A 
ATOM     71  F   UNL A   1      45.960  29.767  27.335  1.00  0.00    -0.205 F 
ATOM     72  C   UNL A   1      49.079  31.543  26.908  1.00  0.00     0.022 A 
BRANCH  70  73
ATOM     73  S   UNL A   1      46.561  32.598  26.584  1.00  0.00     0.127 S 
ATOM     74  O   UNL A   1      46.073  32.878  27.931  1.00  0.00    -0.237 OA
ATOM     75  O   UNL A   1      47.435  33.623  26.012  1.00  0.00    -0.237 OA
ATOM     76  O   UNL A   1      45.588  32.058  25.641  1.00  0.00    -0.744 OA
ENDBRANCH  70  73
ENDBRANCH  52  66
BRANCH  53  77
ATOM     77  C   UNL A   1      39.958  28.612  29.630  1.00  0.00     0.023 A 
ATOM     78  C   UNL A   1      39.194  28.757  28.449  1.00  0.00     0.012 A 
ATOM     79  C   UNL A   1      39.363  28.990  30.852  1.00  0.00     0.148 A 
ATOM     80  C   UNL A   1      37.865  29.195  28.490  1.00  0.00     0.002 A 
ATOM     81  C   UNL A   1      38.039  29.430  30.887  1.00  0.00     0.091 A 
ATOM     82  F   UNL A   1      40.057  28.821  31.985  1.00  0.00    -0.205 F 
ATOM     83  C   UNL A   1      37.283  29.517  29.710  1.00  0.00     0.022 A 
BRANCH  81  84
ATOM     84  S   UNL A   1      37.200  29.844  32.424  1.00  0.00     0.127 S 
ATOM     85  O   UNL A   1      37.179  28.554  33.117  1.00  0.00    -0.237 OA
ATOM     86  O   UNL A   1      38.103  30.833  33.006  1.00  0.00    -0.237 OA
ATOM     87  O   UNL A   1      35.885  30.337  32.036  1.00  0.00    -0.744 OA
ENDBRANCH  81  84
ENDBRANCH  53  77
BRANCH  65  88
ATOM     88  C   UNL A   1      44.853  25.650  32.200  1.00  0.00     0.023 A 
ATOM     89  C   UNL A   1      44.427  24.427  31.639  1.00  0.00     0.012 A 
ATOM     90  C   UNL A   1      45.058  25.726  33.588  1.00  0.00     0.148 A 
ATOM     91  C   UNL A   1      44.209  23.305  32.446  1.00  0.00     0.002 A 
ATOM     92  C   UNL A   1      44.879  24.599  34.383  1.00  0.00     0.091 A 
ATOM     93  F   UNL A   1      45.473  26.895  34.101  1.00  0.00    -0.205 F 
ATOM     94  C   UNL A   1      44.451  23.387  33.815  1.00  0.00     0.022 A 
BRANCH  92  95
ATOM     95  S   UNL A   1      45.279  24.595  36.132  1.00  0.00     0.127 S 
ATOM     96  O   UNL A   1      46.622  25.176  36.142  1.00  0.00    -0.237 OA
ATOM     97  O   UNL A   1      44.237  25.456  36.691  1.00  0.00    -0.237 OA
ATOM     98  O   UNL A   1      45.205  23.205  36.563  1.00  0.00    -0.744 OA
ENDBRANCH  92  95
ENDBRANCH  65  88
ENDBRANCH  39  40
ENDBRANCH  32  34
ENDBRANCH  31  32
ENDBRANCH  30  31
ENDBRANCH   1  30
TORSDOF 19
ENDMDL
MODEL 3
REMARK VINA RESULT:     -12.6      3.566      8.274
REMARK SMILES COc1ccc2c(c1)c(CC(=O)OCCOC(=O)c1ccc(-c3c4nc(c(-c5cccc(S(=O)(=O)[O-])c5F)c5ccc([nH]5)c(-c5cccc(S(=O)(=O)[O-])c5F)c5nc(c(-c6cccc(S(=O)(=O)[O-])c6F)c6ccc3[nH]6)C=C5)C=C4)cc1)c(C(F)(F)F)n2C(=O)c1ccc(Cl)cc1
REMARK SMILES IDX 14 1 13 2 11 3 12 4 10 5 9 6 3 7 4 8 8 9 5 10 7 11 6 12
REMARK SMILES IDX 87 13 82 14 2 15 1 16 88 17 89 18 90 19 91 20 96 21 92 22
REMARK SMILES IDX 95 23 93 24 94 25 83 26 84 27 85 28 86 29 15 30 16 31 17 32
REMARK SMILES IDX 18 33 19 34 20 35 81 36 21 37 80 38 22 39 23 40 24 41 74 42
REMARK SMILES IDX 25 43 79 44 73 45 75 46 26 47 78 48 72 49 71 50 27 52 59 53
REMARK SMILES IDX 39 54 58 55 40 56 43 57 57 58 76 59 41 60 42 61 56 63 77 64
REMARK SMILES IDX 44 65 28 66 29 67 37 68 30 69 32 70 38 71 31 72 33 73 34 74
REMARK SMILES IDX 35 75 36 76 60 77 61 78 69 79 62 80 64 81 70 82 63 83 65 84
REMARK SMILES IDX 66 85 67 86 68 87 45 88 46 89 54 90 47 91 49 92 55 93 48 94
REMARK SMILES IDX 50 95 51 96 52 97 53 98
REMARK H PARENT 75 51 43 62
REMARK Flexibility Score: inf
ROOT
ATOM      1  C   UNL A   1      39.489  20.658  25.779  1.00  0.00     0.274 C 
ENDROOT
BRANCH   1   2
ATOM      2  O   UNL A   1      38.717  21.874  25.698  1.00  0.00    -0.462 OA
BRANCH   2   3
ATOM      3  C   UNL A   1      37.507  21.737  25.103  1.00  0.00     0.310 C 
ATOM      4  O   UNL A   1      37.326  21.842  23.892  1.00  0.00    -0.252 OA
BRANCH   3   5
ATOM      5  C   UNL A   1      36.353  21.566  26.043  1.00  0.00     0.161 C 
BRANCH   5   6
ATOM      6  C   UNL A   1      34.932  21.405  25.558  1.00  0.00     0.002 A 
ATOM      7  C   UNL A   1      33.699  18.147  23.856  1.00  0.00     0.119 A 
ATOM      8  C   UNL A   1      32.500  18.660  23.408  1.00  0.00     0.048 A 
ATOM      9  C   UNL A   1      34.525  18.944  24.665  1.00  0.00     0.057 A 
ATOM     10  C   UNL A   1      32.144  19.973  23.719  1.00  0.00     0.031 A 
ATOM     11  C   UNL A   1      34.239  20.305  24.942  1.00  0.00     0.008 A 
ATOM     12  C   UNL A   1      33.002  20.790  24.494  1.00  0.00     0.057 A 
ATOM     13  N   UNL A   1      32.843  22.075  25.034  1.00  0.00    -0.271 N 
ATOM     14  C   UNL A   1      34.089  22.511  25.440  1.00  0.00     0.135 A 
BRANCH   7  15
ATOM     15  O   UNL A   1      34.127  16.872  23.599  1.00  0.00    -0.497 OA
ATOM     16  C   UNL A   1      34.640  16.153  24.722  1.00  0.00     0.278 C 
ENDBRANCH   7  15
BRANCH  13  17
ATOM     17  C   UNL A   1      31.620  22.766  25.211  1.00  0.00     0.262 C 
ATOM     18  O   UNL A   1      30.761  22.279  25.937  1.00  0.00    -0.268 OA
BRANCH  17  19
ATOM     19  C   UNL A   1      31.243  23.968  24.464  1.00  0.00     0.040 A 
ATOM     20  C   UNL A   1      31.638  24.073  23.126  1.00  0.00     0.015 A 
ATOM     21  C   UNL A   1      30.599  25.017  25.123  1.00  0.00     0.015 A 
ATOM     22  C   UNL A   1      31.433  25.275  22.452  1.00  0.00     0.021 A 
ATOM     23  C   UNL A   1      30.389  26.214  24.437  1.00  0.00     0.021 A 
ATOM     24  C   UNL A   1      30.817  26.341  23.111  1.00  0.00     0.041 A 
ATOM     25  Cl  UNL A   1      30.616  27.838  22.288  1.00  0.00    -0.084 Cl
ENDBRANCH  17  19
ENDBRANCH  13  17
BRANCH  14  26
ATOM     26  C   UNL A   1      34.419  23.943  25.732  1.00  0.00     0.432 C 
ATOM     27  F   UNL A   1      34.278  24.699  24.614  1.00  0.00    -0.165 F 
ATOM     28  F   UNL A   1      33.540  24.442  26.642  1.00  0.00    -0.165 F 
ATOM     29  F   UNL A   1      35.644  24.157  26.252  1.00  0.00    -0.165 F 
ENDBRANCH  14  26
ENDBRANCH   5   6
ENDBRANCH   3   5
ENDBRANCH   2   3
ENDBRANCH   1   2
BRANCH   1  30
ATOM     30  C   UNL A   1      40.840  20.926  26.447  1.00  0.00     0.275 C 
BRANCH  30  31
ATOM     31  O   UNL A   1      41.416  22.111  25.874  1.00  0.00    -0.458 OA
BRANCH  31  32
ATOM     32  C   UNL A   1      42.434  22.702  26.550  1.00  0.00     0.338 C 
ATOM     33  O   UNL A   1      43.627  22.555  26.355  1.00  0.00    -0.246 OA
BRANCH  32  34
ATOM     34  C   UNL A   1      41.813  23.801  27.314  1.00  0.00     0.060 A 
ATOM     35  C   UNL A   1      40.771  24.539  26.753  1.00  0.00     0.016 A 
ATOM     36  C   UNL A   1      42.474  24.260  28.457  1.00  0.00     0.016 A 
ATOM     37  C   UNL A   1      40.537  25.824  27.220  1.00  0.00     0.010 A 
ATOM     38  C   UNL A   1      42.277  25.558  28.884  1.00  0.00     0.010 A 
ATOM     39  C   UNL A   1      41.369  26.362  28.211  1.00  0.00    -0.014 A 
BRANCH  39  40
ATOM     40  C   UNL A   1      41.096  27.681  28.743  1.00  0.00     0.031 A 
ATOM     41  C   UNL A   1      42.002  28.686  28.153  1.00  0.00     0.074 A 
ATOM     42  C   UNL A   1      40.109  28.063  29.573  1.00  0.00     0.049 A 
ATOM     43  N   UNL A   1      43.130  29.067  28.647  1.00  0.00    -0.248 NA
ATOM     44  C   UNL A   1      41.743  29.150  26.785  1.00  0.00     0.031 C 
ATOM     45  C   UNL A   1      38.918  27.348  30.028  1.00  0.00     0.029 A 
ATOM     46  N   UNL A   1      39.969  29.286  30.154  1.00  0.00    -0.354 N 
ATOM     47  C   UNL A   1      43.615  30.007  27.754  1.00  0.00     0.074 A 
ATOM     48  C   UNL A   1      42.849  29.856  26.544  1.00  0.00     0.031 C 
ATOM     49  C   UNL A   1      38.091  28.213  30.670  1.00  0.00     0.029 A 
ATOM     50  C   UNL A   1      38.768  29.491  30.819  1.00  0.00     0.049 A 
ATOM     51  H   UNL A   1      40.671  29.975  30.107  1.00  0.00     0.167 HD
ATOM     52  C   UNL A   1      44.439  31.005  28.168  1.00  0.00     0.034 A 
ATOM     53  C   UNL A   1      38.396  30.643  31.432  1.00  0.00     0.034 A 
ATOM     54  C   UNL A   1      44.946  30.767  29.496  1.00  0.00     0.049 A 
ATOM     55  C   UNL A   1      39.655  31.360  31.763  1.00  0.00     0.074 A 
ATOM     56  C   UNL A   1      45.675  29.755  30.091  1.00  0.00     0.029 A 
ATOM     57  N   UNL A   1      44.328  31.440  30.524  1.00  0.00    -0.354 N 
ATOM     58  N   UNL A   1      40.528  30.930  32.630  1.00  0.00    -0.248 NA
ATOM     59  C   UNL A   1      40.136  32.376  30.840  1.00  0.00     0.031 C 
ATOM     60  C   UNL A   1      45.082  29.581  31.377  1.00  0.00     0.029 A 
ATOM     61  C   UNL A   1      44.061  30.525  31.510  1.00  0.00     0.049 A 
ATOM     62  H   UNL A   1      44.117  32.401  30.549  1.00  0.00     0.167 HD
ATOM     63  C   UNL A   1      41.759  31.286  32.094  1.00  0.00     0.074 A 
ATOM     64  C   UNL A   1      41.450  32.265  31.054  1.00  0.00     0.031 C 
ATOM     65  C   UNL A   1      42.882  30.555  32.352  1.00  0.00     0.034 A 
BRANCH  52  66
ATOM     66  C   UNL A   1      44.508  32.353  27.514  1.00  0.00     0.023 A 
ATOM     67  C   UNL A   1      45.584  32.601  26.637  1.00  0.00     0.012 A 
ATOM     68  C   UNL A   1      43.712  33.457  27.894  1.00  0.00     0.148 A 
ATOM     69  C   UNL A   1      45.857  33.890  26.172  1.00  0.00     0.002 A 
ATOM     70  C   UNL A   1      43.934  34.718  27.361  1.00  0.00     0.091 A 
ATOM     71  F   UNL A   1      42.820  33.329  28.882  1.00  0.00    -0.205 F 
ATOM     72  C   UNL A   1      45.022  34.946  26.518  1.00  0.00     0.022 A 
BRANCH  70  73
ATOM     73  S   UNL A   1      42.844  36.092  27.743  1.00  0.00     0.127 S 
ATOM     74  O   UNL A   1      43.130  36.308  29.157  1.00  0.00    -0.237 OA
ATOM     75  O   UNL A   1      43.341  37.133  26.841  1.00  0.00    -0.237 OA
ATOM     76  O   UNL A   1      41.504  35.619  27.416  1.00  0.00    -0.744 OA
ENDBRANCH  70  73
ENDBRANCH  52  66
BRANCH  53  77
ATOM     77  C   UNL A   1      37.077  31.294  31.621  1.00  0.00     0.023 A 
ATOM     78  C   UNL A   1      36.662  31.640  32.927  1.00  0.00     0.012 A 
ATOM     79  C   UNL A   1      36.383  31.867  30.534  1.00  0.00     0.148 A 
ATOM     80  C   UNL A   1      35.642  32.574  33.145  1.00  0.00     0.002 A 
ATOM     81  C   UNL A   1      35.364  32.795  30.756  1.00  0.00     0.091 A 
ATOM     82  F   UNL A   1      36.789  31.582  29.290  1.00  0.00    -0.205 F 
ATOM     83  C   UNL A   1      35.004  33.163  32.060  1.00  0.00     0.022 A 
BRANCH  81  84
ATOM     84  S   UNL A   1      34.503  33.622  29.411  1.00  0.00     0.127 S 
ATOM     85  O   UNL A   1      33.484  34.392  30.129  1.00  0.00    -0.237 OA
ATOM     86  O   UNL A   1      35.567  34.426  28.817  1.00  0.00    -0.237 OA
ATOM     87  O   UNL A   1      33.968  32.560  28.571  1.00  0.00    -0.744 OA
ENDBRANCH  81  84
ENDBRANCH  53  77
BRANCH  65  88
ATOM     88  C   UNL A   1      42.809  29.495  33.424  1.00  0.00     0.023 A 
ATOM     89  C   UNL A   1      42.375  28.181  33.146  1.00  0.00     0.012 A 
ATOM     90  C   UNL A   1      43.380  29.772  34.678  1.00  0.00     0.148 A 
ATOM     91  C   UNL A   1      42.508  27.166  34.099  1.00  0.00     0.002 A 
ATOM     92  C   UNL A   1      43.547  28.752  35.609  1.00  0.00     0.091 A 
ATOM     93  F   UNL A   1      43.795  31.024  34.919  1.00  0.00    -0.205 F 
ATOM     94  C   UNL A   1      43.109  27.448  35.324  1.00  0.00     0.022 A 
BRANCH  92  95
ATOM     95  S   UNL A   1      44.413  29.011  37.159  1.00  0.00     0.127 S 
ATOM     96  O   UNL A   1      45.757  29.366  36.705  1.00  0.00    -0.237 OA
ATOM     97  O   UNL A   1      43.658  30.113  37.756  1.00  0.00    -0.237 OA
ATOM     98  O   UNL A   1      44.321  27.754  37.892  1.00  0.00    -0.744 OA
ENDBRANCH  92  95
ENDBRANCH  65  88
ENDBRANCH  39  40
ENDBRANCH  32  34
ENDBRANCH  31  32
ENDBRANCH  30  31
ENDBRANCH   1  30
TORSDOF 19
ENDMDL
