MODEL 1
REMARK VINA RESULT:     -11.5      0.000      0.000
REMARK SMILES CC(C)=CC[C@@]1(C(=O)OCCOC(=O)c2ccc(-c3c4nc(c(-c5cccc(S(=O)(=O)[O-])c5F)c5ccc([nH]5)c(-c5cccc(S(=O)(=O)[O-])c5F)c5nc(c(-c6cccc(S(=O)(=O)[O-])c6F)c6ccc3[nH]6)C=C5)C=C4)cc2)CCC[C@H](C)C1
REMARK SMILES IDX 11 1 10 2 9 3 7 4 8 5 6 6 78 7 83 8 79 9 81 10 80 11 82 12
REMARK SMILES IDX 5 13 4 14 1 15 2 16 3 17 12 18 13 19 14 20 15 21 16 22 77 23
REMARK SMILES IDX 17 24 76 25 18 26 19 27 20 28 70 29 21 30 75 31 69 32 71 33
REMARK SMILES IDX 22 34 74 35 68 36 67 37 23 39 55 40 35 41 54 42 36 43 39 44
REMARK SMILES IDX 53 45 72 46 37 47 38 48 52 50 73 51 40 52 24 53 25 54 33 55
REMARK SMILES IDX 26 56 28 57 34 58 27 59 29 60 30 61 31 62 32 63 56 64 57 65
REMARK SMILES IDX 65 66 58 67 60 68 66 69 59 70 61 71 62 72 63 73 64 74 41 75
REMARK SMILES IDX 42 76 50 77 43 78 45 79 51 80 44 81 46 82 47 83 48 84 49 85
REMARK H PARENT 71 38 39 49
REMARK Flexibility Score: inf
ROOT
ATOM      1  C   UNL A   1      36.178  20.541  25.003  1.00  0.00     0.275 C 
ENDROOT
BRANCH   1   2
ATOM      2  C   UNL A   1      35.005  21.133  25.791  1.00  0.00     0.274 C 
BRANCH   2   3
ATOM      3  O   UNL A   1      34.681  22.467  25.338  1.00  0.00    -0.462 OA
BRANCH   3   4
ATOM      4  C   UNL A   1      33.646  22.542  24.463  1.00  0.00     0.312 C 
ATOM      5  O   UNL A   1      33.045  21.556  24.047  1.00  0.00    -0.252 OA
BRANCH   4   6
ATOM      6  C   UNL A   1      33.296  23.970  24.010  1.00  0.00     0.072 C 
ATOM      7  C   UNL A   1      31.874  24.188  24.646  1.00  0.00     0.019 C 
ATOM      8  C   UNL A   1      33.145  24.155  22.489  1.00  0.00     0.022 C 
ATOM      9  C   UNL A   1      31.151  25.465  24.226  1.00  0.00     0.001 C 
ATOM     10  C   UNL A   1      32.550  25.530  22.132  1.00  0.00    -0.013 C 
ATOM     11  C   UNL A   1      31.140  25.654  22.716  1.00  0.00     0.003 C 
ATOM     12  C   UNL A   1      32.542  25.753  20.624  1.00  0.00     0.007 C 
BRANCH   6  13
ATOM     13  C   UNL A   1      34.298  24.980  24.652  1.00  0.00     0.046 C 
BRANCH  13  14
ATOM     14  C   UNL A   1      33.992  26.100  25.627  1.00  0.00    -0.027 C 
ATOM     15  C   UNL A   1      33.690  28.323  24.394  1.00  0.00     0.039 C 
ATOM     16  C   UNL A   1      33.719  27.420  25.583  1.00  0.00    -0.080 C 
ATOM     17  C   UNL A   1      33.431  28.161  26.872  1.00  0.00     0.039 C 
ENDBRANCH  13  14
ENDBRANCH   6  13
ENDBRANCH   4   6
ENDBRANCH   3   4
ENDBRANCH   2   3
ENDBRANCH   1   2
BRANCH   1  18
ATOM     18  O   UNL A   1      37.245  21.499  24.912  1.00  0.00    -0.458 OA
BRANCH  18  19
ATOM     19  C   UNL A   1      38.384  21.170  25.569  1.00  0.00     0.338 C 
ATOM     20  O   UNL A   1      38.863  20.050  25.642  1.00  0.00    -0.246 OA
BRANCH  19  21
ATOM     21  C   UNL A   1      39.006  22.373  26.187  1.00  0.00     0.060 A 
ATOM     22  C   UNL A   1      38.494  23.658  25.994  1.00  0.00     0.016 A 
ATOM     23  C   UNL A   1      40.185  22.222  26.920  1.00  0.00     0.016 A 
ATOM     24  C   UNL A   1      39.213  24.783  26.406  1.00  0.00     0.010 A 
ATOM     25  C   UNL A   1      40.845  23.345  27.432  1.00  0.00     0.010 A 
ATOM     26  C   UNL A   1      40.400  24.647  27.139  1.00  0.00    -0.014 A 
BRANCH  26  27
ATOM     27  C   UNL A   1      41.201  25.831  27.574  1.00  0.00     0.031 A 
ATOM     28  C   UNL A   1      40.576  26.874  28.471  1.00  0.00     0.074 A 
ATOM     29  C   UNL A   1      42.468  26.012  27.148  1.00  0.00     0.049 A 
ATOM     30  N   UNL A   1      40.998  28.077  28.768  1.00  0.00    -0.248 NA
ATOM     31  C   UNL A   1      39.291  26.524  29.098  1.00  0.00     0.031 C 
ATOM     32  C   UNL A   1      43.222  25.089  26.301  1.00  0.00     0.029 A 
ATOM     33  N   UNL A   1      43.345  27.051  27.362  1.00  0.00    -0.354 N 
ATOM     34  C   UNL A   1      39.992  28.658  29.532  1.00  0.00     0.074 A 
ATOM     35  C   UNL A   1      38.943  27.670  29.666  1.00  0.00     0.031 C 
ATOM     36  C   UNL A   1      44.451  25.582  26.091  1.00  0.00     0.029 A 
ATOM     37  C   UNL A   1      44.550  26.896  26.716  1.00  0.00     0.049 A 
ATOM     38  H   UNL A   1      43.131  27.830  27.924  1.00  0.00     0.167 HD
ATOM     39  C   UNL A   1      39.945  29.896  30.083  1.00  0.00     0.034 A 
ATOM     40  C   UNL A   1      45.607  27.727  26.606  1.00  0.00     0.034 A 
ATOM     41  C   UNL A   1      41.027  30.844  30.034  1.00  0.00     0.049 A 
ATOM     42  C   UNL A   1      45.548  29.083  27.252  1.00  0.00     0.074 A 
ATOM     43  C   UNL A   1      41.090  32.111  30.590  1.00  0.00     0.029 A 
ATOM     44  N   UNL A   1      42.249  30.619  29.418  1.00  0.00    -0.354 N 
ATOM     45  N   UNL A   1      44.592  29.610  27.978  1.00  0.00    -0.248 NA
ATOM     46  C   UNL A   1      46.717  29.956  27.070  1.00  0.00     0.031 C 
ATOM     47  C   UNL A   1      42.353  32.648  30.316  1.00  0.00     0.029 A 
ATOM     48  C   UNL A   1      43.078  31.714  29.594  1.00  0.00     0.049 A 
ATOM     49  H   UNL A   1      42.491  29.800  28.929  1.00  0.00     0.167 HD
ATOM     50  C   UNL A   1      45.053  30.864  28.361  1.00  0.00     0.074 A 
ATOM     51  C   UNL A   1      46.383  31.010  27.804  1.00  0.00     0.031 C 
ATOM     52  C   UNL A   1      44.422  31.819  29.088  1.00  0.00     0.034 A 
BRANCH  39  53
ATOM     53  C   UNL A   1      38.688  30.287  30.819  1.00  0.00     0.023 A 
ATOM     54  C   UNL A   1      38.531  29.929  32.173  1.00  0.00     0.012 A 
ATOM     55  C   UNL A   1      37.681  31.041  30.185  1.00  0.00     0.148 A 
ATOM     56  C   UNL A   1      37.377  30.281  32.872  1.00  0.00     0.002 A 
ATOM     57  C   UNL A   1      36.551  31.425  30.901  1.00  0.00     0.091 A 
ATOM     58  F   UNL A   1      37.829  31.354  28.890  1.00  0.00    -0.205 F 
ATOM     59  C   UNL A   1      36.392  31.036  32.240  1.00  0.00     0.022 A 
BRANCH  57  60
ATOM     60  S   UNL A   1      35.277  32.466  30.177  1.00  0.00     0.127 S 
ATOM     61  O   UNL A   1      36.038  33.660  29.815  1.00  0.00    -0.237 OA
ATOM     62  O   UNL A   1      34.821  31.667  29.038  1.00  0.00    -0.237 OA
ATOM     63  O   UNL A   1      34.278  32.638  31.223  1.00  0.00    -0.744 OA
ENDBRANCH  57  60
ENDBRANCH  39  53
BRANCH  40  64
ATOM     64  C   UNL A   1      46.833  27.270  25.890  1.00  0.00     0.023 A 
ATOM     65  C   UNL A   1      47.682  26.340  26.520  1.00  0.00     0.012 A 
ATOM     66  C   UNL A   1      47.127  27.689  24.577  1.00  0.00     0.148 A 
ATOM     67  C   UNL A   1      48.806  25.841  25.860  1.00  0.00     0.002 A 
ATOM     68  C   UNL A   1      48.213  27.144  23.904  1.00  0.00     0.091 A 
ATOM     69  F   UNL A   1      46.322  28.595  24.004  1.00  0.00    -0.205 F 
ATOM     70  C   UNL A   1      49.062  26.229  24.548  1.00  0.00     0.022 A 
BRANCH  68  71
ATOM     71  S   UNL A   1      48.530  27.473  22.167  1.00  0.00     0.127 S 
ATOM     72  O   UNL A   1      48.690  26.125  21.629  1.00  0.00    -0.237 OA
ATOM     73  O   UNL A   1      47.302  28.159  21.758  1.00  0.00    -0.237 OA
ATOM     74  O   UNL A   1      49.719  28.314  22.139  1.00  0.00    -0.744 OA
ENDBRANCH  68  71
ENDBRANCH  40  64
BRANCH  52  75
ATOM     75  C   UNL A   1      45.174  33.095  29.357  1.00  0.00     0.023 A 
ATOM     76  C   UNL A   1      46.076  33.157  30.438  1.00  0.00     0.012 A 
ATOM     77  C   UNL A   1      45.035  34.210  28.507  1.00  0.00     0.148 A 
ATOM     78  C   UNL A   1      46.807  34.317  30.684  1.00  0.00     0.002 A 
ATOM     79  C   UNL A   1      45.795  35.351  28.737  1.00  0.00     0.091 A 
ATOM     80  F   UNL A   1      44.153  34.142  27.499  1.00  0.00    -0.205 F 
ATOM     81  C   UNL A   1      46.675  35.410  29.829  1.00  0.00     0.022 A 
BRANCH  79  82
ATOM     82  S   UNL A   1      45.739  36.768  27.634  1.00  0.00     0.127 S 
ATOM     83  O   UNL A   1      44.359  37.219  27.796  1.00  0.00    -0.237 OA
ATOM     84  O   UNL A   1      46.745  37.660  28.212  1.00  0.00    -0.237 OA
ATOM     85  O   UNL A   1      46.087  36.252  26.316  1.00  0.00    -0.744 OA
ENDBRANCH  79  82
ENDBRANCH  52  75
ENDBRANCH  26  27
ENDBRANCH  19  21
ENDBRANCH  18  19
ENDBRANCH   1  18
TORSDOF 16
ENDMDL
MODEL 2
REMARK VINA RESULT:     -11.4      1.434      1.731
REMARK SMILES CC(C)=CC[C@@]1(C(=O)OCCOC(=O)c2ccc(-c3c4nc(c(-c5cccc(S(=O)(=O)[O-])c5F)c5ccc([nH]5)c(-c5cccc(S(=O)(=O)[O-])c5F)c5nc(c(-c6cccc(S(=O)(=O)[O-])c6F)c6ccc3[nH]6)C=C5)C=C4)cc2)CCC[C@H](C)C1
REMARK SMILES IDX 11 1 10 2 9 3 7 4 8 5 6 6 78 7 83 8 79 9 81 10 80 11 82 12
REMARK SMILES IDX 5 13 4 14 1 15 2 16 3 17 12 18 13 19 14 20 15 21 16 22 77 23
REMARK SMILES IDX 17 24 76 25 18 26 19 27 20 28 70 29 21 30 75 31 69 32 71 33
REMARK SMILES IDX 22 34 74 35 68 36 67 37 23 39 55 40 35 41 54 42 36 43 39 44
REMARK SMILES IDX 53 45 72 46 37 47 38 48 52 50 73 51 40 52 24 53 25 54 33 55
REMARK SMILES IDX 26 56 28 57 34 58 27 59 29 60 30 61 31 62 32 63 56 64 57 65
REMARK SMILES IDX 65 66 58 67 60 68 66 69 59 70 61 71 62 72 63 73 64 74 41 75
REMARK SMILES IDX 42 76 50 77 43 78 45 79 51 80 44 81 46 82 47 83 48 84 49 85
REMARK H PARENT 71 38 39 49
REMARK Flexibility Score: inf
ROOT
ATOM      1  C   UNL A   1      36.148  20.402  24.948  1.00  0.00     0.275 C 
ENDROOT
BRANCH   1   2
ATOM      2  C   UNL A   1      34.643  20.684  24.977  1.00  0.00     0.274 C 
BRANCH   2   3
ATOM      3  O   UNL A   1      34.353  22.056  24.625  1.00  0.00    -0.462 OA
BRANCH   3   4
ATOM      4  C   UNL A   1      33.085  22.462  24.889  1.00  0.00     0.312 C 
ATOM      5  O   UNL A   1      32.229  21.724  25.369  1.00  0.00    -0.252 OA
BRANCH   4   6
ATOM      6  C   UNL A   1      32.793  23.926  24.516  1.00  0.00     0.072 C 
ATOM      7  C   UNL A   1      31.433  24.199  25.256  1.00  0.00     0.019 C 
ATOM      8  C   UNL A   1      32.551  24.182  23.017  1.00  0.00     0.022 C 
ATOM      9  C   UNL A   1      30.763  25.533  24.937  1.00  0.00     0.001 C 
ATOM     10  C   UNL A   1      32.019  25.603  22.754  1.00  0.00    -0.013 C 
ATOM     11  C   UNL A   1      30.662  25.785  23.439  1.00  0.00     0.003 C 
ATOM     12  C   UNL A   1      31.924  25.890  21.260  1.00  0.00     0.007 C 
BRANCH   6  13
ATOM     13  C   UNL A   1      33.895  24.847  25.124  1.00  0.00     0.046 C 
BRANCH  13  14
ATOM     14  C   UNL A   1      33.705  26.103  25.954  1.00  0.00    -0.027 C 
ATOM     15  C   UNL A   1      33.827  28.194  24.481  1.00  0.00     0.039 C 
ATOM     16  C   UNL A   1      33.641  27.435  25.754  1.00  0.00    -0.080 C 
ATOM     17  C   UNL A   1      33.389  28.350  26.934  1.00  0.00     0.039 C 
ENDBRANCH  13  14
ENDBRANCH   6  13
ENDBRANCH   4   6
ENDBRANCH   3   4
ENDBRANCH   2   3
ENDBRANCH   1   2
BRANCH   1  18
ATOM     18  O   UNL A   1      36.853  21.403  25.699  1.00  0.00    -0.458 OA
BRANCH  18  19
ATOM     19  C   UNL A   1      38.199  21.251  25.758  1.00  0.00     0.338 C 
ATOM     20  O   UNL A   1      38.820  20.279  25.360  1.00  0.00    -0.246 OA
BRANCH  19  21
ATOM     21  C   UNL A   1      38.843  22.451  26.360  1.00  0.00     0.060 A 
ATOM     22  C   UNL A   1      38.353  23.741  26.150  1.00  0.00     0.016 A 
ATOM     23  C   UNL A   1      40.018  22.288  27.096  1.00  0.00     0.016 A 
ATOM     24  C   UNL A   1      39.093  24.859  26.548  1.00  0.00     0.010 A 
ATOM     25  C   UNL A   1      40.699  23.406  27.593  1.00  0.00     0.010 A 
ATOM     26  C   UNL A   1      40.277  24.711  27.283  1.00  0.00    -0.014 A 
BRANCH  26  27
ATOM     27  C   UNL A   1      41.099  25.887  27.702  1.00  0.00     0.031 A 
ATOM     28  C   UNL A   1      40.488  26.961  28.571  1.00  0.00     0.074 A 
ATOM     29  C   UNL A   1      42.374  26.031  27.286  1.00  0.00     0.049 A 
ATOM     30  N   UNL A   1      40.933  28.161  28.848  1.00  0.00    -0.248 NA
ATOM     31  C   UNL A   1      39.188  26.652  29.191  1.00  0.00     0.031 C 
ATOM     32  C   UNL A   1      43.116  25.075  26.466  1.00  0.00     0.029 A 
ATOM     33  N   UNL A   1      43.271  27.055  27.489  1.00  0.00    -0.354 N 
ATOM     34  C   UNL A   1      39.931  28.779  29.589  1.00  0.00     0.074 A 
ATOM     35  C   UNL A   1      38.860  27.817  29.731  1.00  0.00     0.031 C 
ATOM     36  C   UNL A   1      44.358  25.537  26.259  1.00  0.00     0.029 A 
ATOM     37  C   UNL A   1      44.479  26.861  26.859  1.00  0.00     0.049 A 
ATOM     38  H   UNL A   1      43.068  27.850  28.032  1.00  0.00     0.167 HD
ATOM     39  C   UNL A   1      39.906  30.029  30.114  1.00  0.00     0.034 A 
ATOM     40  C   UNL A   1      45.555  27.666  26.743  1.00  0.00     0.034 A 
ATOM     41  C   UNL A   1      41.008  30.952  30.058  1.00  0.00     0.049 A 
ATOM     42  C   UNL A   1      45.519  29.037  27.362  1.00  0.00     0.074 A 
ATOM     43  C   UNL A   1      41.094  32.228  30.588  1.00  0.00     0.029 A 
ATOM     44  N   UNL A   1      42.232  30.688  29.460  1.00  0.00    -0.354 N 
ATOM     45  N   UNL A   1      44.568  29.599  28.066  1.00  0.00    -0.248 NA
ATOM     46  C   UNL A   1      46.708  29.880  27.174  1.00  0.00     0.031 C 
ATOM     47  C   UNL A   1      42.371  32.732  30.317  1.00  0.00     0.029 A 
ATOM     48  C   UNL A   1      43.083  31.768  29.622  1.00  0.00     0.049 A 
ATOM     49  H   UNL A   1      42.461  29.854  28.990  1.00  0.00     0.167 HD
ATOM     50  C   UNL A   1      45.052  30.851  28.428  1.00  0.00     0.074 A 
ATOM     51  C   UNL A   1      46.390  30.956  27.883  1.00  0.00     0.031 C 
ATOM     52  C   UNL A   1      44.434  31.834  29.129  1.00  0.00     0.034 A 
BRANCH  39  53
ATOM     53  C   UNL A   1      38.650  30.462  30.828  1.00  0.00     0.023 A 
ATOM     54  C   UNL A   1      38.511  30.214  32.208  1.00  0.00     0.012 A 
ATOM     55  C   UNL A   1      37.627  31.148  30.145  1.00  0.00     0.148 A 
ATOM     56  C   UNL A   1      37.358  30.607  32.888  1.00  0.00     0.002 A 
ATOM     57  C   UNL A   1      36.498  31.574  30.839  1.00  0.00     0.091 A 
ATOM     58  F   UNL A   1      37.759  31.356  28.827  1.00  0.00    -0.205 F 
ATOM     59  C   UNL A   1      36.357  31.294  32.206  1.00  0.00     0.022 A 
BRANCH  57  60
ATOM     60  S   UNL A   1      35.203  32.536  30.045  1.00  0.00     0.127 S 
ATOM     61  O   UNL A   1      34.266  32.741  31.147  1.00  0.00    -0.237 OA
ATOM     62  O   UNL A   1      35.916  33.742  29.622  1.00  0.00    -0.237 OA
ATOM     63  O   UNL A   1      34.725  31.708  28.946  1.00  0.00    -0.744 OA
ENDBRANCH  57  60
ENDBRANCH  39  53
BRANCH  40  64
ATOM     64  C   UNL A   1      46.778  27.168  26.050  1.00  0.00     0.023 A 
ATOM     65  C   UNL A   1      46.934  27.428  24.675  1.00  0.00     0.012 A 
ATOM     66  C   UNL A   1      47.810  26.508  26.746  1.00  0.00     0.148 A 
ATOM     67  C   UNL A   1      48.093  27.032  24.003  1.00  0.00     0.002 A 
ATOM     68  C   UNL A   1      48.984  26.170  26.085  1.00  0.00     0.091 A 
ATOM     69  F   UNL A   1      47.631  26.245  28.049  1.00  0.00    -0.205 F 
ATOM     70  C   UNL A   1      49.123  26.420  24.710  1.00  0.00     0.022 A 
BRANCH  68  71
ATOM     71  S   UNL A   1      50.418  25.515  26.948  1.00  0.00     0.127 S 
ATOM     72  O   UNL A   1      51.367  25.327  25.854  1.00  0.00    -0.237 OA
ATOM     73  O   UNL A   1      50.745  26.607  27.867  1.00  0.00    -0.237 OA
ATOM     74  O   UNL A   1      49.955  24.301  27.605  1.00  0.00    -0.744 OA
ENDBRANCH  68  71
ENDBRANCH  40  64
BRANCH  52  75
ATOM     75  C   UNL A   1      45.211  33.098  29.380  1.00  0.00     0.023 A 
ATOM     76  C   UNL A   1      46.019  33.202  30.529  1.00  0.00     0.012 A 
ATOM     77  C   UNL A   1      45.189  34.157  28.452  1.00  0.00     0.148 A 
ATOM     78  C   UNL A   1      46.773  34.350  30.763  1.00  0.00     0.002 A 
ATOM     79  C   UNL A   1      45.972  35.284  28.673  1.00  0.00     0.091 A 
ATOM     80  F   UNL A   1      44.393  34.052  27.376  1.00  0.00    -0.205 F 
ATOM     81  C   UNL A   1      46.758  35.387  29.832  1.00  0.00     0.022 A 
BRANCH  79  82
ATOM     82  S   UNL A   1      46.066  36.625  27.480  1.00  0.00     0.127 S 
ATOM     83  O   UNL A   1      47.013  37.532  28.124  1.00  0.00    -0.237 OA
ATOM     84  O   UNL A   1      46.582  35.951  26.287  1.00  0.00    -0.237 OA
ATOM     85  O   UNL A   1      44.704  37.123  27.342  1.00  0.00    -0.744 OA
ENDBRANCH  79  82
ENDBRANCH  52  75
ENDBRANCH  26  27
ENDBRANCH  19  21
ENDBRANCH  18  19
ENDBRANCH   1  18
TORSDOF 16
ENDMDL
MODEL 3
REMARK VINA RESULT:     -11.4      5.318     10.079
REMARK SMILES CC(C)=CC[C@@]1(C(=O)OCCOC(=O)c2ccc(-c3c4nc(c(-c5cccc(S(=O)(=O)[O-])c5F)c5ccc([nH]5)c(-c5cccc(S(=O)(=O)[O-])c5F)c5nc(c(-c6cccc(S(=O)(=O)[O-])c6F)c6ccc3[nH]6)C=C5)C=C4)cc2)CCC[C@H](C)C1
REMARK SMILES IDX 11 1 10 2 9 3 7 4 8 5 6 6 78 7 83 8 79 9 81 10 80 11 82 12
REMARK SMILES IDX 5 13 4 14 1 15 2 16 3 17 12 18 13 19 14 20 15 21 16 22 77 23
REMARK SMILES IDX 17 24 76 25 18 26 19 27 20 28 70 29 21 30 75 31 69 32 71 33
REMARK SMILES IDX 22 34 74 35 68 36 67 37 23 39 55 40 35 41 54 42 36 43 39 44
REMARK SMILES IDX 53 45 72 46 37 47 38 48 52 50 73 51 40 52 24 53 25 54 33 55
REMARK SMILES IDX 26 56 28 57 34 58 27 59 29 60 30 61 31 62 32 63 56 64 57 65
REMARK SMILES IDX 65 66 58 67 60 68 66 69 59 70 61 71 62 72 63 73 64 74 41 75
REMARK SMILES IDX 42 76 50 77 43 78 45 79 51 80 44 81 46 82 47 83 48 84 49 85
REMARK H PARENT 71 38 39 49
REMARK Flexibility Score: inf
ROOT
ATOM      1  C   UNL A   1      31.411  29.982  25.615  1.00  0.00     0.275 C 
ENDROOT
BRANCH   1   2
ATOM      2  C   UNL A   1      31.305  28.643  24.878  1.00  0.00     0.274 C 
BRANCH   2   3
ATOM      3  O   UNL A   1      31.923  27.573  25.629  1.00  0.00    -0.462 OA
BRANCH   3   4
ATOM      4  C   UNL A   1      32.956  26.954  25.002  1.00  0.00     0.312 C 
ATOM      5  O   UNL A   1      33.872  27.561  24.456  1.00  0.00    -0.252 OA
BRANCH   4   6
ATOM      6  C   UNL A   1      32.877  25.417  25.009  1.00  0.00     0.072 C 
ATOM      7  C   UNL A   1      32.647  25.083  23.490  1.00  0.00     0.019 C 
ATOM      8  C   UNL A   1      31.685  24.828  25.787  1.00  0.00     0.022 C 
ATOM      9  C   UNL A   1      32.339  23.622  23.173  1.00  0.00     0.001 C 
ATOM     10  C   UNL A   1      31.527  23.316  25.539  1.00  0.00    -0.013 C 
ATOM     11  C   UNL A   1      31.235  23.060  24.058  1.00  0.00     0.003 C 
ATOM     12  C   UNL A   1      30.438  22.723  26.425  1.00  0.00     0.007 C 
BRANCH   6  13
ATOM     13  C   UNL A   1      34.250  24.828  25.456  1.00  0.00     0.046 C 
BRANCH  13  14
ATOM     14  C   UNL A   1      35.292  24.139  24.595  1.00  0.00    -0.027 C 
ATOM     15  C   UNL A   1      35.021  21.595  24.700  1.00  0.00     0.039 C 
ATOM     16  C   UNL A   1      35.625  22.882  24.239  1.00  0.00    -0.080 C 
ATOM     17  C   UNL A   1      36.776  22.663  23.280  1.00  0.00     0.039 C 
ENDBRANCH  13  14
ENDBRANCH   6  13
ENDBRANCH   4   6
ENDBRANCH   3   4
ENDBRANCH   2   3
ENDBRANCH   1   2
BRANCH   1  18
ATOM     18  O   UNL A   1      32.791  30.348  25.776  1.00  0.00    -0.458 OA
BRANCH  18  19
ATOM     19  C   UNL A   1      33.057  31.186  26.807  1.00  0.00     0.338 C 
ATOM     20  O   UNL A   1      32.307  32.052  27.230  1.00  0.00    -0.246 OA
BRANCH  19  21
ATOM     21  C   UNL A   1      34.397  30.902  27.391  1.00  0.00     0.060 A 
ATOM     22  C   UNL A   1      34.852  29.600  27.608  1.00  0.00     0.016 A 
ATOM     23  C   UNL A   1      35.193  31.971  27.806  1.00  0.00     0.016 A 
ATOM     24  C   UNL A   1      36.015  29.363  28.346  1.00  0.00     0.010 A 
ATOM     25  C   UNL A   1      36.416  31.732  28.445  1.00  0.00     0.010 A 
ATOM     26  C   UNL A   1      36.822  30.426  28.773  1.00  0.00    -0.014 A 
BRANCH  26  27
ATOM     27  C   UNL A   1      38.059  30.205  29.583  1.00  0.00     0.031 A 
ATOM     28  C   UNL A   1      39.175  29.347  29.033  1.00  0.00     0.074 A 
ATOM     29  C   UNL A   1      38.186  30.725  30.821  1.00  0.00     0.049 A 
ATOM     30  N   UNL A   1      40.211  28.834  29.648  1.00  0.00    -0.248 NA
ATOM     31  C   UNL A   1      39.100  29.000  27.604  1.00  0.00     0.031 C 
ATOM     32  C   UNL A   1      37.213  31.592  31.484  1.00  0.00     0.029 A 
ATOM     33  N   UNL A   1      39.190  30.586  31.752  1.00  0.00    -0.354 N 
ATOM     34  C   UNL A   1      40.853  28.032  28.711  1.00  0.00     0.074 A 
ATOM     35  C   UNL A   1      40.099  28.136  27.480  1.00  0.00     0.031 C 
ATOM     36  C   UNL A   1      37.675  31.931  32.697  1.00  0.00     0.029 A 
ATOM     37  C   UNL A   1      38.938  31.242  32.935  1.00  0.00     0.049 A 
ATOM     38  H   UNL A   1      40.010  30.068  31.586  1.00  0.00     0.167 HD
ATOM     39  C   UNL A   1      41.974  27.283  28.854  1.00  0.00     0.034 A 
ATOM     40  C   UNL A   1      39.623  31.262  34.097  1.00  0.00     0.034 A 
ATOM     41  C   UNL A   1      42.781  27.254  30.046  1.00  0.00     0.049 A 
ATOM     42  C   UNL A   1      40.883  30.451  34.224  1.00  0.00     0.074 A 
ATOM     43  C   UNL A   1      43.953  26.555  30.278  1.00  0.00     0.029 A 
ATOM     44  N   UNL A   1      42.516  27.980  31.197  1.00  0.00    -0.354 N 
ATOM     45  N   UNL A   1      41.478  29.707  33.325  1.00  0.00    -0.248 NA
ATOM     46  C   UNL A   1      41.566  30.488  35.525  1.00  0.00     0.031 C 
ATOM     47  C   UNL A   1      44.400  26.864  31.568  1.00  0.00     0.029 A 
ATOM     48  C   UNL A   1      43.509  27.759  32.137  1.00  0.00     0.049 A 
ATOM     49  H   UNL A   1      41.737  28.567  31.327  1.00  0.00     0.167 HD
ATOM     50  C   UNL A   1      42.621  29.208  33.940  1.00  0.00     0.074 A 
ATOM     51  C   UNL A   1      42.644  29.752  35.284  1.00  0.00     0.031 C 
ATOM     52  C   UNL A   1      43.553  28.357  33.446  1.00  0.00     0.034 A 
BRANCH  39  53
ATOM     53  C   UNL A   1      42.417  26.454  27.675  1.00  0.00     0.023 A 
ATOM     54  C   UNL A   1      43.249  27.026  26.691  1.00  0.00     0.012 A 
ATOM     55  C   UNL A   1      42.043  25.100  27.558  1.00  0.00     0.148 A 
ATOM     56  C   UNL A   1      43.669  26.276  25.593  1.00  0.00     0.002 A 
ATOM     57  C   UNL A   1      42.502  24.347  26.481  1.00  0.00     0.091 A 
ATOM     58  F   UNL A   1      41.231  24.574  28.486  1.00  0.00    -0.205 F 
ATOM     59  C   UNL A   1      43.304  24.936  25.492  1.00  0.00     0.022 A 
BRANCH  57  60
ATOM     60  S   UNL A   1      42.139  22.593  26.327  1.00  0.00     0.127 S 
ATOM     61  O   UNL A   1      40.678  22.594  26.283  1.00  0.00    -0.237 OA
ATOM     62  O   UNL A   1      42.785  22.244  25.061  1.00  0.00    -0.237 OA
ATOM     63  O   UNL A   1      42.743  21.969  27.497  1.00  0.00    -0.744 OA
ENDBRANCH  57  60
ENDBRANCH  39  53
BRANCH  40  64
ATOM     64  C   UNL A   1      39.149  32.126  35.216  1.00  0.00     0.023 A 
ATOM     65  C   UNL A   1      38.251  31.589  36.159  1.00  0.00     0.012 A 
ATOM     66  C   UNL A   1      39.628  33.440  35.396  1.00  0.00     0.148 A 
ATOM     67  C   UNL A   1      37.833  32.345  37.255  1.00  0.00     0.002 A 
ATOM     68  C   UNL A   1      39.254  34.165  36.521  1.00  0.00     0.091 A 
ATOM     69  F   UNL A   1      40.461  33.944  34.474  1.00  0.00    -0.205 F 
ATOM     70  C   UNL A   1      38.346  33.624  37.445  1.00  0.00     0.022 A 
BRANCH  68  71
ATOM     71  S   UNL A   1      39.981  35.758  36.921  1.00  0.00     0.127 S 
ATOM     72  O   UNL A   1      41.402  35.430  36.999  1.00  0.00    -0.237 OA
ATOM     73  O   UNL A   1      39.598  36.567  35.762  1.00  0.00    -0.237 OA
ATOM     74  O   UNL A   1      39.353  36.170  38.169  1.00  0.00    -0.744 OA
ENDBRANCH  68  71
ENDBRANCH  40  64
BRANCH  52  75
ATOM     75  C   UNL A   1      44.700  27.987  34.347  1.00  0.00     0.023 A 
ATOM     76  C   UNL A   1      45.865  28.780  34.351  1.00  0.00     0.012 A 
ATOM     77  C   UNL A   1      44.604  26.895  35.230  1.00  0.00     0.148 A 
ATOM     78  C   UNL A   1      46.926  28.475  35.203  1.00  0.00     0.002 A 
ATOM     79  C   UNL A   1      45.651  26.619  36.102  1.00  0.00     0.091 A 
ATOM     80  F   UNL A   1      43.498  26.136  35.194  1.00  0.00    -0.205 F 
ATOM     81  C   UNL A   1      46.815  27.402  36.085  1.00  0.00     0.022 A 
BRANCH  79  82
ATOM     82  S   UNL A   1      45.549  25.303  37.322  1.00  0.00     0.127 S 
ATOM     83  O   UNL A   1      44.363  25.689  38.082  1.00  0.00    -0.237 OA
ATOM     84  O   UNL A   1      45.378  24.111  36.489  1.00  0.00    -0.237 OA
ATOM     85  O   UNL A   1      46.810  25.346  38.051  1.00  0.00    -0.744 OA
ENDBRANCH  79  82
ENDBRANCH  52  75
ENDBRANCH  26  27
ENDBRANCH  19  21
ENDBRANCH  18  19
ENDBRANCH   1  18
TORSDOF 16
ENDMDL
