MODEL 1
REMARK VINA RESULT:     -10.3      0.000      0.000
REMARK SMILES COCC[C@H](NC(=O)c1ccc(Br)nc1)C(=O)OCCOC(=O)c1ccc(-c2c3nc(c(-c4cccc(S(=O)(=O)[O-])c4F)c4ccc([nH]4)c(-c4cccc(S(=O)(=O)[O-])c4F)c4nc(c(-c5cccc(S(=O)(=O)[O-])c5F)c5ccc2[nH]5)C=C4)C=C3)cc1
REMARK SMILES IDX 19 1 18 2 16 3 17 4 5 5 4 6 3 7 2 8 1 9 6 10 7 11 8 13 9 14
REMARK SMILES IDX 10 15 15 16 11 17 14 18 12 19 13 20 20 21 21 22 22 23 23 24
REMARK SMILES IDX 24 25 25 26 86 27 26 28 85 29 27 30 28 31 29 32 79 33 30 34
REMARK SMILES IDX 84 35 78 36 80 37 31 38 83 39 77 40 76 41 32 43 64 44 44 45
REMARK SMILES IDX 63 46 45 47 48 48 62 49 81 50 46 51 47 52 61 54 82 55 49 56
REMARK SMILES IDX 33 57 34 58 42 59 35 60 37 61 43 62 36 63 38 64 39 65 40 66
REMARK SMILES IDX 41 67 65 68 66 69 74 70 67 71 69 72 75 73 68 74 70 75 71 76
REMARK SMILES IDX 72 77 73 78 50 79 51 80 59 81 52 82 54 83 60 84 53 85 55 86
REMARK SMILES IDX 56 87 57 88 58 89
REMARK H PARENT 6 12 80 42 48 53
REMARK Flexibility Score: inf
ROOT
ATOM      1  C   UNL A   1      31.751  29.018  27.219  1.00  0.00     0.274 C 
ENDROOT
BRANCH   1   2
ATOM      2  O   UNL A   1      31.572  28.028  26.186  1.00  0.00    -0.461 OA
BRANCH   2   3
ATOM      3  C   UNL A   1      32.671  27.376  25.738  1.00  0.00     0.328 C 
ATOM      4  O   UNL A   1      33.759  27.374  26.303  1.00  0.00    -0.250 OA
BRANCH   3   5
ATOM      5  C   UNL A   1      32.401  26.564  24.449  1.00  0.00     0.194 C 
BRANCH   5   6
ATOM      6  C   UNL A   1      32.205  27.486  23.235  1.00  0.00     0.065 C 
BRANCH   6   7
ATOM      7  C   UNL A   1      30.951  27.136  22.425  1.00  0.00     0.162 C 
BRANCH   7   8
ATOM      8  O   UNL A   1      30.269  28.316  22.001  1.00  0.00    -0.385 OA
ATOM      9  C   UNL A   1      29.270  28.776  22.900  1.00  0.00     0.194 C 
ENDBRANCH   7   8
ENDBRANCH   6   7
ENDBRANCH   5   6
BRANCH   5  10
ATOM     10  N   UNL A   1      31.465  25.429  24.470  1.00  0.00    -0.338 N 
ATOM     11  C   UNL A   1      31.624  24.111  24.794  1.00  0.00     0.253 C 
ATOM     12  H   UNL A   1      30.550  25.663  24.198  1.00  0.00     0.164 HD
ATOM     13  O   UNL A   1      30.660  23.356  24.852  1.00  0.00    -0.269 OA
BRANCH  11  14
ATOM     14  C   UNL A   1      32.967  23.557  24.964  1.00  0.00     0.058 A 
ATOM     15  C   UNL A   1      33.708  23.705  26.129  1.00  0.00     0.018 A 
ATOM     16  C   UNL A   1      33.531  22.888  23.887  1.00  0.00     0.126 A 
ATOM     17  C   UNL A   1      35.025  23.250  26.144  1.00  0.00     0.037 A 
ATOM     18  N   UNL A   1      34.804  22.428  23.879  1.00  0.00    -0.249 NA
ATOM     19  C   UNL A   1      35.527  22.635  25.002  1.00  0.00     0.106 A 
ATOM     20  Br  UNL A   1      37.336  22.065  24.995  1.00  0.00    -0.029 Br
ENDBRANCH  11  14
ENDBRANCH   5  10
ENDBRANCH   3   5
ENDBRANCH   2   3
ENDBRANCH   1   2
BRANCH   1  21
ATOM     21  C   UNL A   1      31.767  30.417  26.599  1.00  0.00     0.275 C 
BRANCH  21  22
ATOM     22  O   UNL A   1      33.119  30.866  26.380  1.00  0.00    -0.458 OA
BRANCH  22  23
ATOM     23  C   UNL A   1      33.551  31.810  27.247  1.00  0.00     0.338 C 
ATOM     24  O   UNL A   1      32.929  32.772  27.666  1.00  0.00    -0.246 OA
BRANCH  23  25
ATOM     25  C   UNL A   1      34.861  31.429  27.794  1.00  0.00     0.060 A 
ATOM     26  C   UNL A   1      35.035  30.089  28.141  1.00  0.00     0.016 A 
ATOM     27  C   UNL A   1      35.858  32.366  28.060  1.00  0.00     0.016 A 
ATOM     28  C   UNL A   1      36.181  29.679  28.805  1.00  0.00     0.010 A 
ATOM     29  C   UNL A   1      37.027  31.948  28.707  1.00  0.00     0.010 A 
ATOM     30  C   UNL A   1      37.182  30.608  29.107  1.00  0.00    -0.014 A 
BRANCH  30  31
ATOM     31  C   UNL A   1      38.351  30.152  29.896  1.00  0.00     0.031 A 
ATOM     32  C   UNL A   1      38.532  30.621  31.311  1.00  0.00     0.074 A 
ATOM     33  C   UNL A   1      39.208  29.265  29.356  1.00  0.00     0.049 A 
ATOM     34  N   UNL A   1      39.481  30.327  32.160  1.00  0.00    -0.248 NA
ATOM     35  C   UNL A   1      37.513  31.542  31.842  1.00  0.00     0.031 C 
ATOM     36  C   UNL A   1      39.119  28.727  27.997  1.00  0.00     0.029 A 
ATOM     37  N   UNL A   1      40.317  28.655  29.885  1.00  0.00    -0.354 N 
ATOM     38  C   UNL A   1      39.204  31.060  33.307  1.00  0.00     0.074 A 
ATOM     39  C   UNL A   1      37.997  31.813  33.046  1.00  0.00     0.031 C 
ATOM     40  C   UNL A   1      40.125  27.860  27.802  1.00  0.00     0.029 A 
ATOM     41  C   UNL A   1      40.951  27.811  29.004  1.00  0.00     0.049 A 
ATOM     42  H   UNL A   1      40.628  28.806  30.806  1.00  0.00     0.167 HD
ATOM     43  C   UNL A   1      39.887  31.090  34.477  1.00  0.00     0.034 A 
ATOM     44  C   UNL A   1      42.082  27.092  29.144  1.00  0.00     0.034 A 
ATOM     45  C   UNL A   1      41.060  30.302  34.746  1.00  0.00     0.049 A 
ATOM     46  C   UNL A   1      42.809  27.134  30.460  1.00  0.00     0.074 A 
ATOM     47  C   UNL A   1      41.808  30.241  35.909  1.00  0.00     0.029 A 
ATOM     48  N   UNL A   1      41.653  29.432  33.843  1.00  0.00    -0.354 N 
ATOM     49  N   UNL A   1      42.489  27.773  31.559  1.00  0.00    -0.248 NA
ATOM     50  C   UNL A   1      44.038  26.335  30.563  1.00  0.00     0.031 C 
ATOM     51  C   UNL A   1      42.859  29.341  35.705  1.00  0.00     0.029 A 
ATOM     52  C   UNL A   1      42.757  28.830  34.421  1.00  0.00     0.049 A 
ATOM     53  H   UNL A   1      41.335  29.267  32.926  1.00  0.00     0.167 HD
ATOM     54  C   UNL A   1      43.463  27.437  32.491  1.00  0.00     0.074 A 
ATOM     55  C   UNL A   1      44.365  26.512  31.836  1.00  0.00     0.031 C 
ATOM     56  C   UNL A   1      43.613  27.873  33.767  1.00  0.00     0.034 A 
BRANCH  43  57
ATOM     57  C   UNL A   1      39.365  31.990  35.564  1.00  0.00     0.023 A 
ATOM     58  C   UNL A   1      38.416  31.497  36.482  1.00  0.00     0.012 A 
ATOM     59  C   UNL A   1      39.845  33.307  35.705  1.00  0.00     0.148 A 
ATOM     60  C   UNL A   1      37.933  32.310  37.508  1.00  0.00     0.002 A 
ATOM     61  C   UNL A   1      39.387  34.098  36.753  1.00  0.00     0.091 A 
ATOM     62  F   UNL A   1      40.725  33.767  34.804  1.00  0.00    -0.205 F 
ATOM     63  C   UNL A   1      38.424  33.605  37.649  1.00  0.00     0.022 A 
BRANCH  61  64
ATOM     64  S   UNL A   1      40.013  35.755  37.055  1.00  0.00     0.127 S 
ATOM     65  O   UNL A   1      41.445  35.503  37.217  1.00  0.00    -0.237 OA
ATOM     66  O   UNL A   1      39.654  36.453  35.820  1.00  0.00    -0.237 OA
ATOM     67  O   UNL A   1      39.321  36.232  38.243  1.00  0.00    -0.744 OA
ENDBRANCH  61  64
ENDBRANCH  43  57
BRANCH  44  68
ATOM     68  C   UNL A   1      42.565  26.242  28.020  1.00  0.00     0.023 A 
ATOM     69  C   UNL A   1      43.586  26.718  27.178  1.00  0.00     0.012 A 
ATOM     70  C   UNL A   1      42.046  24.950  27.806  1.00  0.00     0.148 A 
ATOM     71  C   UNL A   1      44.068  25.934  26.129  1.00  0.00     0.002 A 
ATOM     72  C   UNL A   1      42.571  24.150  26.798  1.00  0.00     0.091 A 
ATOM     73  F   UNL A   1      41.057  24.521  28.603  1.00  0.00    -0.205 F 
ATOM     74  C   UNL A   1      43.571  24.646  25.948  1.00  0.00     0.022 A 
BRANCH  72  75
ATOM     75  S   UNL A   1      42.087  22.432  26.597  1.00  0.00     0.127 S 
ATOM     76  O   UNL A   1      42.778  22.068  25.364  1.00  0.00    -0.237 OA
ATOM     77  O   UNL A   1      42.626  21.818  27.812  1.00  0.00    -0.237 OA
ATOM     78  O   UNL A   1      40.631  22.447  26.535  1.00  0.00    -0.744 OA
ENDBRANCH  72  75
ENDBRANCH  44  68
BRANCH  56  79
ATOM     79  C   UNL A   1      44.786  27.337  34.544  1.00  0.00     0.023 A 
ATOM     80  C   UNL A   1      46.010  28.035  34.524  1.00  0.00     0.012 A 
ATOM     81  C   UNL A   1      44.664  26.177  35.333  1.00  0.00     0.148 A 
ATOM     82  C   UNL A   1      47.105  27.568  35.249  1.00  0.00     0.002 A 
ATOM     83  C   UNL A   1      45.746  25.741  36.089  1.00  0.00     0.091 A 
ATOM     84  F   UNL A   1      43.499  25.512  35.322  1.00  0.00    -0.205 F 
ATOM     85  C   UNL A   1      46.970  26.428  36.039  1.00  0.00     0.022 A 
BRANCH  83  86
ATOM     86  S   UNL A   1      45.622  24.335  37.199  1.00  0.00     0.127 S 
ATOM     87  O   UNL A   1      45.347  23.242  36.269  1.00  0.00    -0.237 OA
ATOM     88  O   UNL A   1      46.952  24.296  37.810  1.00  0.00    -0.237 OA
ATOM     89  O   UNL A   1      44.549  24.664  38.128  1.00  0.00    -0.744 OA
ENDBRANCH  83  86
ENDBRANCH  56  79
ENDBRANCH  30  31
ENDBRANCH  23  25
ENDBRANCH  22  23
ENDBRANCH  21  22
ENDBRANCH   1  21
TORSDOF 19
ENDMDL
MODEL 2
REMARK VINA RESULT:     -10.3      5.346      9.990
REMARK SMILES COCC[C@H](NC(=O)c1ccc(Br)nc1)C(=O)OCCOC(=O)c1ccc(-c2c3nc(c(-c4cccc(S(=O)(=O)[O-])c4F)c4ccc([nH]4)c(-c4cccc(S(=O)(=O)[O-])c4F)c4nc(c(-c5cccc(S(=O)(=O)[O-])c5F)c5ccc2[nH]5)C=C4)C=C3)cc1
REMARK SMILES IDX 19 1 18 2 16 3 17 4 5 5 4 6 3 7 2 8 1 9 6 10 7 11 8 13 9 14
REMARK SMILES IDX 10 15 15 16 11 17 14 18 12 19 13 20 20 21 21 22 22 23 23 24
REMARK SMILES IDX 24 25 25 26 86 27 26 28 85 29 27 30 28 31 29 32 79 33 30 34
REMARK SMILES IDX 84 35 78 36 80 37 31 38 83 39 77 40 76 41 32 43 64 44 44 45
REMARK SMILES IDX 63 46 45 47 48 48 62 49 81 50 46 51 47 52 61 54 82 55 49 56
REMARK SMILES IDX 33 57 34 58 42 59 35 60 37 61 43 62 36 63 38 64 39 65 40 66
REMARK SMILES IDX 41 67 65 68 66 69 74 70 67 71 69 72 75 73 68 74 70 75 71 76
REMARK SMILES IDX 72 77 73 78 50 79 51 80 59 81 52 82 54 83 60 84 53 85 55 86
REMARK SMILES IDX 56 87 57 88 58 89
REMARK H PARENT 6 12 80 42 48 53
REMARK Flexibility Score: inf
ROOT
ATOM      1  C   UNL A   1      35.951  21.856  24.262  1.00  0.00     0.274 C 
ENDROOT
BRANCH   1   2
ATOM      2  O   UNL A   1      35.750  23.232  24.644  1.00  0.00    -0.461 OA
BRANCH   2   3
ATOM      3  C   UNL A   1      34.767  23.504  25.535  1.00  0.00     0.328 C 
ATOM      4  O   UNL A   1      34.861  23.344  26.747  1.00  0.00    -0.250 OA
BRANCH   3   5
ATOM      5  C   UNL A   1      33.507  24.107  24.870  1.00  0.00     0.194 C 
BRANCH   5   6
ATOM      6  C   UNL A   1      33.679  25.611  24.605  1.00  0.00     0.065 C 
BRANCH   6   7
ATOM      7  C   UNL A   1      33.493  25.973  23.127  1.00  0.00     0.162 C 
BRANCH   7   8
ATOM      8  O   UNL A   1      32.212  25.556  22.654  1.00  0.00    -0.385 OA
ATOM      9  C   UNL A   1      31.129  26.362  23.096  1.00  0.00     0.194 C 
ENDBRANCH   7   8
ENDBRANCH   6   7
ENDBRANCH   5   6
BRANCH   5  10
ATOM     10  N   UNL A   1      32.166  23.757  25.366  1.00  0.00    -0.338 N 
ATOM     11  C   UNL A   1      31.525  22.560  25.517  1.00  0.00     0.253 C 
ATOM     12  H   UNL A   1      31.629  24.533  25.641  1.00  0.00     0.164 HD
ATOM     13  O   UNL A   1      30.432  22.496  26.069  1.00  0.00    -0.269 OA
BRANCH  11  14
ATOM     14  C   UNL A   1      32.085  21.350  24.915  1.00  0.00     0.058 A 
ATOM     15  C   UNL A   1      32.036  21.085  23.554  1.00  0.00     0.018 A 
ATOM     16  C   UNL A   1      32.654  20.411  25.765  1.00  0.00     0.126 A 
ATOM     17  C   UNL A   1      32.484  19.847  23.099  1.00  0.00     0.037 A 
ATOM     18  N   UNL A   1      33.106  19.205  25.347  1.00  0.00    -0.249 NA
ATOM     19  C   UNL A   1      32.994  18.944  24.025  1.00  0.00     0.106 A 
ATOM     20  Br  UNL A   1      33.552  17.235  23.421  1.00  0.00    -0.029 Br
ENDBRANCH  11  14
ENDBRANCH   5  10
ENDBRANCH   3   5
ENDBRANCH   2   3
ENDBRANCH   1   2
BRANCH   1  21
ATOM     21  C   UNL A   1      37.409  21.458  24.511  1.00  0.00     0.275 C 
BRANCH  21  22
ATOM     22  O   UNL A   1      37.749  21.602  25.904  1.00  0.00    -0.458 OA
BRANCH  22  23
ATOM     23  C   UNL A   1      39.067  21.478  26.182  1.00  0.00     0.338 C 
ATOM     24  O   UNL A   1      39.813  20.574  25.845  1.00  0.00    -0.246 OA
BRANCH  23  25
ATOM     25  C   UNL A   1      39.565  22.705  26.817  1.00  0.00     0.060 A 
ATOM     26  C   UNL A   1      39.015  23.911  26.382  1.00  0.00     0.016 A 
ATOM     27  C   UNL A   1      40.612  22.696  27.738  1.00  0.00     0.016 A 
ATOM     28  C   UNL A   1      39.537  25.119  26.816  1.00  0.00     0.010 A 
ATOM     29  C   UNL A   1      41.123  23.916  28.197  1.00  0.00     0.010 A 
ATOM     30  C   UNL A   1      40.606  25.133  27.717  1.00  0.00    -0.014 A 
BRANCH  30  31
ATOM     31  C   UNL A   1      41.197  26.440  28.090  1.00  0.00     0.031 A 
ATOM     32  C   UNL A   1      42.607  26.768  27.693  1.00  0.00     0.074 A 
ATOM     33  C   UNL A   1      40.437  27.353  28.725  1.00  0.00     0.049 A 
ATOM     34  N   UNL A   1      43.293  27.858  27.919  1.00  0.00    -0.248 NA
ATOM     35  C   UNL A   1      43.346  25.736  26.947  1.00  0.00     0.031 C 
ATOM     36  C   UNL A   1      39.048  27.149  29.142  1.00  0.00     0.029 A 
ATOM     37  N   UNL A   1      40.721  28.633  29.125  1.00  0.00    -0.354 N 
ATOM     38  C   UNL A   1      44.556  27.628  27.387  1.00  0.00     0.074 A 
ATOM     39  C   UNL A   1      44.542  26.295  26.826  1.00  0.00     0.031 C 
ATOM     40  C   UNL A   1      38.598  28.269  29.730  1.00  0.00     0.029 A 
ATOM     41  C   UNL A   1      39.676  29.252  29.769  1.00  0.00     0.049 A 
ATOM     42  H   UNL A   1      41.590  29.068  28.966  1.00  0.00     0.167 HD
ATOM     43  C   UNL A   1      45.625  28.460  27.356  1.00  0.00     0.034 A 
ATOM     44  C   UNL A   1      39.601  30.470  30.341  1.00  0.00     0.034 A 
ATOM     45  C   UNL A   1      45.616  29.802  27.873  1.00  0.00     0.049 A 
ATOM     46  C   UNL A   1      40.799  31.376  30.277  1.00  0.00     0.074 A 
ATOM     47  C   UNL A   1      46.640  30.734  27.865  1.00  0.00     0.029 A 
ATOM     48  N   UNL A   1      44.530  30.407  28.486  1.00  0.00    -0.354 N 
ATOM     49  N   UNL A   1      41.958  31.170  29.702  1.00  0.00    -0.248 NA
ATOM     50  C   UNL A   1      40.668  32.692  30.917  1.00  0.00     0.031 C 
ATOM     51  C   UNL A   1      46.173  31.900  28.482  1.00  0.00     0.029 A 
ATOM     52  C   UNL A   1      44.856  31.699  28.861  1.00  0.00     0.049 A 
ATOM     53  H   UNL A   1      43.654  29.981  28.632  1.00  0.00     0.167 HD
ATOM     54  C   UNL A   1      42.689  32.337  29.890  1.00  0.00     0.074 A 
ATOM     55  C   UNL A   1      41.827  33.257  30.605  1.00  0.00     0.031 C 
ATOM     56  C   UNL A   1      43.966  32.616  29.527  1.00  0.00     0.034 A 
BRANCH  43  57
ATOM     57  C   UNL A   1      46.888  27.947  26.718  1.00  0.00     0.023 A 
ATOM     58  C   UNL A   1      47.892  27.371  27.524  1.00  0.00     0.012 A 
ATOM     59  C   UNL A   1      47.064  27.994  25.322  1.00  0.00     0.148 A 
ATOM     60  C   UNL A   1      49.062  26.874  26.950  1.00  0.00     0.002 A 
ATOM     61  C   UNL A   1      48.217  27.462  24.755  1.00  0.00     0.091 A 
ATOM     62  F   UNL A   1      46.111  28.572  24.576  1.00  0.00    -0.205 F 
ATOM     63  C   UNL A   1      49.220  26.910  25.568  1.00  0.00     0.022 A 
BRANCH  61  64
ATOM     64  S   UNL A   1      48.478  27.402  22.978  1.00  0.00     0.127 S 
ATOM     65  O   UNL A   1      49.844  27.910  22.863  1.00  0.00    -0.237 OA
ATOM     66  O   UNL A   1      48.331  25.975  22.691  1.00  0.00    -0.237 OA
ATOM     67  O   UNL A   1      47.443  28.246  22.395  1.00  0.00    -0.744 OA
ENDBRANCH  61  64
ENDBRANCH  43  57
BRANCH  44  68
ATOM     68  C   UNL A   1      38.331  30.909  30.984  1.00  0.00     0.023 A 
ATOM     69  C   UNL A   1      38.140  30.698  32.362  1.00  0.00     0.012 A 
ATOM     70  C   UNL A   1      37.330  31.572  30.247  1.00  0.00     0.148 A 
ATOM     71  C   UNL A   1      36.967  31.117  32.990  1.00  0.00     0.002 A 
ATOM     72  C   UNL A   1      36.191  32.041  30.890  1.00  0.00     0.091 A 
ATOM     73  F   UNL A   1      37.518  31.744  28.931  1.00  0.00    -0.205 F 
ATOM     74  C   UNL A   1      36.000  31.800  32.259  1.00  0.00     0.022 A 
BRANCH  72  75
ATOM     75  S   UNL A   1      34.971  33.055  30.046  1.00  0.00     0.127 S 
ATOM     76  O   UNL A   1      35.806  34.097  29.454  1.00  0.00    -0.237 OA
ATOM     77  O   UNL A   1      34.394  32.108  29.090  1.00  0.00    -0.237 OA
ATOM     78  O   UNL A   1      34.047  33.489  31.085  1.00  0.00    -0.744 OA
ENDBRANCH  72  75
ENDBRANCH  44  68
BRANCH  56  79
ATOM     79  C   UNL A   1      44.501  33.978  29.881  1.00  0.00     0.023 A 
ATOM     80  C   UNL A   1      45.240  34.148  31.068  1.00  0.00     0.012 A 
ATOM     81  C   UNL A   1      44.317  35.075  29.017  1.00  0.00     0.148 A 
ATOM     82  C   UNL A   1      45.760  35.396  31.407  1.00  0.00     0.002 A 
ATOM     83  C   UNL A   1      44.876  36.307  29.340  1.00  0.00     0.091 A 
ATOM     84  F   UNL A   1      43.591  34.901  27.903  1.00  0.00    -0.205 F 
ATOM     85  C   UNL A   1      45.587  36.471  30.539  1.00  0.00     0.022 A 
BRANCH  83  86
ATOM     86  S   UNL A   1      44.773  37.715  28.229  1.00  0.00     0.127 S 
ATOM     87  O   UNL A   1      45.851  38.567  28.726  1.00  0.00    -0.237 OA
ATOM     88  O   UNL A   1      45.029  37.107  26.923  1.00  0.00    -0.237 OA
ATOM     89  O   UNL A   1      43.424  38.241  28.389  1.00  0.00    -0.744 OA
ENDBRANCH  83  86
ENDBRANCH  56  79
ENDBRANCH  30  31
ENDBRANCH  23  25
ENDBRANCH  22  23
ENDBRANCH  21  22
ENDBRANCH   1  21
TORSDOF 19
ENDMDL
MODEL 3
REMARK VINA RESULT:     -10.1      4.996     10.134
REMARK SMILES COCC[C@H](NC(=O)c1ccc(Br)nc1)C(=O)OCCOC(=O)c1ccc(-c2c3nc(c(-c4cccc(S(=O)(=O)[O-])c4F)c4ccc([nH]4)c(-c4cccc(S(=O)(=O)[O-])c4F)c4nc(c(-c5cccc(S(=O)(=O)[O-])c5F)c5ccc2[nH]5)C=C4)C=C3)cc1
REMARK SMILES IDX 19 1 18 2 16 3 17 4 5 5 4 6 3 7 2 8 1 9 6 10 7 11 8 13 9 14
REMARK SMILES IDX 10 15 15 16 11 17 14 18 12 19 13 20 20 21 21 22 22 23 23 24
REMARK SMILES IDX 24 25 25 26 86 27 26 28 85 29 27 30 28 31 29 32 79 33 30 34
REMARK SMILES IDX 84 35 78 36 80 37 31 38 83 39 77 40 76 41 32 43 64 44 44 45
REMARK SMILES IDX 63 46 45 47 48 48 62 49 81 50 46 51 47 52 61 54 82 55 49 56
REMARK SMILES IDX 33 57 34 58 42 59 35 60 37 61 43 62 36 63 38 64 39 65 40 66
REMARK SMILES IDX 41 67 65 68 66 69 74 70 67 71 69 72 75 73 68 74 70 75 71 76
REMARK SMILES IDX 72 77 73 78 50 79 51 80 59 81 52 82 54 83 60 84 53 85 55 86
REMARK SMILES IDX 56 87 57 88 58 89
REMARK H PARENT 6 12 80 42 48 53
REMARK Flexibility Score: inf
ROOT
ATOM      1  C   UNL A   1      35.617  21.414  24.910  1.00  0.00     0.274 C 
ENDROOT
BRANCH   1   2
ATOM      2  O   UNL A   1      34.517  20.565  24.524  1.00  0.00    -0.461 OA
BRANCH   2   3
ATOM      3  C   UNL A   1      33.312  20.788  25.099  1.00  0.00     0.328 C 
ATOM      4  O   UNL A   1      32.609  19.920  25.604  1.00  0.00    -0.250 OA
BRANCH   3   5
ATOM      5  C   UNL A   1      32.925  22.286  25.116  1.00  0.00     0.194 C 
BRANCH   5   6
ATOM      6  C   UNL A   1      33.030  22.877  26.531  1.00  0.00     0.065 C 
BRANCH   6   7
ATOM      7  C   UNL A   1      31.867  22.449  27.435  1.00  0.00     0.162 C 
BRANCH   7   8
ATOM      8  O   UNL A   1      30.793  23.387  27.366  1.00  0.00    -0.385 OA
ATOM      9  C   UNL A   1      29.501  22.801  27.303  1.00  0.00     0.194 C 
ENDBRANCH   7   8
ENDBRANCH   6   7
ENDBRANCH   5   6
BRANCH   5  10
ATOM     10  N   UNL A   1      31.741  22.755  24.380  1.00  0.00    -0.338 N 
ATOM     11  C   UNL A   1      31.353  23.993  23.953  1.00  0.00     0.253 C 
ATOM     12  H   UNL A   1      31.106  22.039  24.151  1.00  0.00     0.164 HD
ATOM     13  O   UNL A   1      30.364  24.134  23.241  1.00  0.00    -0.269 OA
BRANCH  11  14
ATOM     14  C   UNL A   1      32.051  25.184  24.436  1.00  0.00     0.058 A 
ATOM     15  C   UNL A   1      33.250  25.632  23.901  1.00  0.00     0.018 A 
ATOM     16  C   UNL A   1      31.496  25.867  25.510  1.00  0.00     0.126 A 
ATOM     17  C   UNL A   1      33.898  26.702  24.516  1.00  0.00     0.037 A 
ATOM     18  N   UNL A   1      32.099  26.914  26.120  1.00  0.00    -0.249 NA
ATOM     19  C   UNL A   1      33.295  27.297  25.619  1.00  0.00     0.106 A 
ATOM     20  Br  UNL A   1      34.197  28.715  26.497  1.00  0.00    -0.029 Br
ENDBRANCH  11  14
ENDBRANCH   5  10
ENDBRANCH   3   5
ENDBRANCH   2   3
ENDBRANCH   1   2
BRANCH   1  21
ATOM     21  C   UNL A   1      36.874  20.567  25.123  1.00  0.00     0.275 C 
BRANCH  21  22
ATOM     22  O   UNL A   1      38.061  21.382  25.040  1.00  0.00    -0.458 OA
BRANCH  22  23
ATOM     23  C   UNL A   1      39.028  21.067  25.932  1.00  0.00     0.338 C 
ATOM     24  O   UNL A   1      39.533  19.973  26.123  1.00  0.00    -0.246 OA
BRANCH  23  25
ATOM     25  C   UNL A   1      39.554  22.290  26.554  1.00  0.00     0.060 A 
ATOM     26  C   UNL A   1      39.082  23.505  26.059  1.00  0.00     0.016 A 
ATOM     27  C   UNL A   1      40.558  22.261  27.521  1.00  0.00     0.016 A 
ATOM     28  C   UNL A   1      39.640  24.701  26.482  1.00  0.00     0.010 A 
ATOM     29  C   UNL A   1      41.105  23.470  27.969  1.00  0.00     0.010 A 
ATOM     30  C   UNL A   1      40.668  24.694  27.431  1.00  0.00    -0.014 A 
BRANCH  30  31
ATOM     31  C   UNL A   1      41.302  25.984  27.793  1.00  0.00     0.031 A 
ATOM     32  C   UNL A   1      42.691  26.298  27.316  1.00  0.00     0.074 A 
ATOM     33  C   UNL A   1      40.599  26.894  28.492  1.00  0.00     0.049 A 
ATOM     34  N   UNL A   1      43.407  27.372  27.520  1.00  0.00    -0.248 NA
ATOM     35  C   UNL A   1      43.364  25.271  26.504  1.00  0.00     0.031 C 
ATOM     36  C   UNL A   1      39.235  26.703  28.990  1.00  0.00     0.029 A 
ATOM     37  N   UNL A   1      40.929  28.161  28.899  1.00  0.00    -0.354 N 
ATOM     38  C   UNL A   1      44.631  27.134  26.906  1.00  0.00     0.074 A 
ATOM     39  C   UNL A   1      44.560  25.814  26.320  1.00  0.00     0.031 C 
ATOM     40  C   UNL A   1      38.841  27.816  29.628  1.00  0.00     0.029 A 
ATOM     41  C   UNL A   1      39.935  28.782  29.619  1.00  0.00     0.049 A 
ATOM     42  H   UNL A   1      41.793  28.586  28.695  1.00  0.00     0.167 HD
ATOM     43  C   UNL A   1      45.710  27.950  26.825  1.00  0.00     0.034 A 
ATOM     44  C   UNL A   1      39.916  29.988  30.220  1.00  0.00     0.034 A 
ATOM     45  C   UNL A   1      45.756  29.280  27.369  1.00  0.00     0.049 A 
ATOM     46  C   UNL A   1      41.123  30.877  30.100  1.00  0.00     0.074 A 
ATOM     47  C   UNL A   1      46.792  30.196  27.316  1.00  0.00     0.029 A 
ATOM     48  N   UNL A   1      44.719  29.889  28.061  1.00  0.00    -0.354 N 
ATOM     49  N   UNL A   1      42.241  30.666  29.449  1.00  0.00    -0.248 NA
ATOM     50  C   UNL A   1      41.054  32.181  30.773  1.00  0.00     0.031 C 
ATOM     51  C   UNL A   1      46.384  31.356  27.985  1.00  0.00     0.029 A 
ATOM     52  C   UNL A   1      45.089  31.168  28.440  1.00  0.00     0.049 A 
ATOM     53  H   UNL A   1      43.848  29.473  28.253  1.00  0.00     0.167 HD
ATOM     54  C   UNL A   1      43.001  31.817  29.615  1.00  0.00     0.074 A 
ATOM     55  C   UNL A   1      42.201  32.735  30.401  1.00  0.00     0.031 C 
ATOM     56  C   UNL A   1      44.258  32.084  29.179  1.00  0.00     0.034 A 
BRANCH  43  57
ATOM     57  C   UNL A   1      46.922  27.431  26.100  1.00  0.00     0.023 A 
ATOM     58  C   UNL A   1      47.045  27.636  24.710  1.00  0.00     0.012 A 
ATOM     59  C   UNL A   1      47.958  26.781  26.797  1.00  0.00     0.148 A 
ATOM     60  C   UNL A   1      48.168  27.178  24.023  1.00  0.00     0.002 A 
ATOM     61  C   UNL A   1      49.093  26.361  26.111  1.00  0.00     0.091 A 
ATOM     62  F   UNL A   1      47.809  26.569  28.113  1.00  0.00    -0.205 F 
ATOM     63  C   UNL A   1      49.195  26.551  24.723  1.00  0.00     0.022 A 
BRANCH  61  64
ATOM     64  S   UNL A   1      50.496  25.605  26.940  1.00  0.00     0.127 S 
ATOM     65  O   UNL A   1      50.883  26.655  27.881  1.00  0.00    -0.237 OA
ATOM     66  O   UNL A   1      49.892  24.425  27.559  1.00  0.00    -0.237 OA
ATOM     67  O   UNL A   1      51.465  25.311  25.894  1.00  0.00    -0.744 OA
ENDBRANCH  61  64
ENDBRANCH  43  57
BRANCH  44  68
ATOM     68  C   UNL A   1      38.696  30.434  30.949  1.00  0.00     0.023 A 
ATOM     69  C   UNL A   1      38.614  30.251  32.342  1.00  0.00     0.012 A 
ATOM     70  C   UNL A   1      37.636  31.074  30.278  1.00  0.00     0.148 A 
ATOM     71  C   UNL A   1      37.489  30.677  33.050  1.00  0.00     0.002 A 
ATOM     72  C   UNL A   1      36.546  31.549  30.996  1.00  0.00     0.091 A 
ATOM     73  F   UNL A   1      37.721  31.218  28.947  1.00  0.00    -0.205 F 
ATOM     74  C   UNL A   1      36.463  31.337  32.381  1.00  0.00     0.022 A 
BRANCH  72  75
ATOM     75  S   UNL A   1      35.257  32.537  30.228  1.00  0.00     0.127 S 
ATOM     76  O   UNL A   1      34.311  32.702  31.327  1.00  0.00    -0.237 OA
ATOM     77  O   UNL A   1      35.985  33.751  29.851  1.00  0.00    -0.237 OA
ATOM     78  O   UNL A   1      34.791  31.749  29.095  1.00  0.00    -0.744 OA
ENDBRANCH  72  75
ENDBRANCH  44  68
BRANCH  56  79
ATOM     79  C   UNL A   1      44.836  33.430  29.527  1.00  0.00     0.023 A 
ATOM     80  C   UNL A   1      45.591  33.578  30.707  1.00  0.00     0.012 A 
ATOM     81  C   UNL A   1      44.678  34.531  28.663  1.00  0.00     0.148 A 
ATOM     82  C   UNL A   1      46.151  34.810  31.040  1.00  0.00     0.002 A 
ATOM     83  C   UNL A   1      45.276  35.746  28.980  1.00  0.00     0.091 A 
ATOM     84  F   UNL A   1      43.936  34.378  27.556  1.00  0.00    -0.205 F 
ATOM     85  C   UNL A   1      46.003  35.890  30.172  1.00  0.00     0.022 A 
BRANCH  83  86
ATOM     86  S   UNL A   1      45.205  37.155  27.869  1.00  0.00     0.127 S 
ATOM     87  O   UNL A   1      43.765  37.384  27.767  1.00  0.00    -0.237 OA
ATOM     88  O   UNL A   1      45.934  38.182  28.613  1.00  0.00    -0.237 OA
ATOM     89  O   UNL A   1      45.866  36.722  26.645  1.00  0.00    -0.744 OA
ENDBRANCH  83  86
ENDBRANCH  56  79
ENDBRANCH  30  31
ENDBRANCH  23  25
ENDBRANCH  22  23
ENDBRANCH  21  22
ENDBRANCH   1  21
TORSDOF 19
ENDMDL
