MODEL 1
REMARK VINA RESULT:     -14.8      0.000      0.000
REMARK SMILES O=C(OCCOC(=O)c1ccc(-c2c3nc(c(-c4cccc(S(=O)(=O)[O-])c4F)c4ccc([nH]4)c(-c4cccc(S(=O)(=O)[O-])c4F)c4nc(c(-c5cccc(S(=O)(=O)[O-])c5F)c5ccc2[nH]5)C=C4)C=C3)cc1)C1=Cc2cc(Cl)cc(-c3ccc(O)cc3)c2O[C@@H]1C(F)(F)F
REMARK SMILES IDX 5 1 4 2 3 3 2 4 1 5 72 6 73 7 89 8 74 9 88 10 75 11 87 12
REMARK SMILES IDX 76 13 79 14 77 15 78 16 90 17 91 18 92 19 93 20 80 21 81 22
REMARK SMILES IDX 86 23 82 24 85 25 83 26 84 27 6 29 7 30 8 31 9 32 10 33
REMARK SMILES IDX 71 34 11 35 70 36 12 37 13 38 14 39 64 40 15 41 69 42 63 43
REMARK SMILES IDX 65 44 16 45 68 46 62 47 61 48 17 50 49 51 29 52 48 53 30 54
REMARK SMILES IDX 33 55 47 56 66 57 31 58 32 59 46 61 67 62 34 63 18 64 19 65
REMARK SMILES IDX 27 66 20 67 22 68 28 69 21 70 23 71 24 72 25 73 26 74 50 75
REMARK SMILES IDX 51 76 59 77 52 78 54 79 60 80 53 81 55 82 56 83 57 84 58 85
REMARK SMILES IDX 35 86 36 87 44 88 37 89 39 90 45 91 38 92 40 93 41 94 42 95
REMARK SMILES IDX 43 96
REMARK H PARENT 84 28 65 49 33 60
REMARK Flexibility Score: inf
ROOT
ATOM      1  C   UNL A   1      31.501  32.037  26.657  1.00  0.00     0.275 C 
ENDROOT
BRANCH   1   2
ATOM      2  C   UNL A   1      31.503  29.985  25.916  1.00  0.00     0.275 C 
BRANCH   2   3
ATOM      3  O   UNL A   1      32.086  28.747  26.643  1.00  0.00    -0.459 OA
BRANCH   3   4
ATOM      4  C   UNL A   1      31.570  27.587  26.217  1.00  0.00     0.338 C 
ATOM      5  O   UNL A   1      30.886  26.791  26.806  1.00  0.00    -0.246 OA
BRANCH   4   6
ATOM      6  C   UNL A   1      32.436  27.480  25.066  1.00  0.00     0.087 C 
ATOM      7  C   UNL A   1      33.756  26.968  25.394  1.00  0.00     0.027 C 
ATOM      8  C   UNL A   1      31.142  26.616  23.930  1.00  0.00     0.316 C 
ATOM      9  C   UNL A   1      34.308  25.325  24.945  1.00  0.00     0.019 A 
ATOM     10  O   UNL A   1      31.680  24.796  23.507  1.00  0.00    -0.475 OA
ATOM     11  C   UNL A   1      35.511  24.944  25.472  1.00  0.00     0.032 A 
ATOM     12  C   UNL A   1      33.285  24.167  24.128  1.00  0.00     0.135 A 
ATOM     13  C   UNL A   1      35.815  23.598  25.306  1.00  0.00     0.042 A 
ATOM     14  C   UNL A   1      33.642  22.837  24.087  1.00  0.00     0.026 A 
ATOM     15  Cl  UNL A   1      37.310  23.035  25.978  1.00  0.00    -0.084 Cl
ATOM     16  C   UNL A   1      34.947  22.630  24.672  1.00  0.00     0.033 A 
BRANCH   8  17
ATOM     17  C   UNL A   1      30.866  27.961  23.099  1.00  0.00     0.430 C 
ATOM     18  F   UNL A   1      32.012  28.579  22.782  1.00  0.00    -0.167 F 
ATOM     19  F   UNL A   1      30.343  27.636  21.874  1.00  0.00    -0.167 F 
ATOM     20  F   UNL A   1      29.952  28.823  23.572  1.00  0.00    -0.167 F 
ENDBRANCH   8  17
BRANCH  14  21
ATOM     21  C   UNL A   1      32.926  21.627  23.694  1.00  0.00    -0.014 A 
ATOM     22  C   UNL A   1      33.171  20.434  24.419  1.00  0.00     0.012 A 
ATOM     23  C   UNL A   1      32.247  21.527  22.478  1.00  0.00     0.012 A 
ATOM     24  C   UNL A   1      32.800  19.185  23.920  1.00  0.00     0.047 A 
ATOM     25  C   UNL A   1      31.867  20.272  21.976  1.00  0.00     0.047 A 
ATOM     26  C   UNL A   1      32.163  19.113  22.693  1.00  0.00     0.115 A 
BRANCH  26  27
ATOM     27  O   UNL A   1      31.864  17.874  22.210  1.00  0.00    -0.508 OA
ATOM     28  H   UNL A   1      32.098  17.111  22.700  1.00  0.00     0.293 HD
ENDBRANCH  26  27
ENDBRANCH  14  21
ENDBRANCH   4   6
ENDBRANCH   3   4
ENDBRANCH   2   3
ENDBRANCH   1   2
BRANCH   1  29
ATOM     29  O   UNL A   1      32.675  32.697  27.758  1.00  0.00    -0.458 OA
BRANCH  29  30
ATOM     30  C   UNL A   1      33.760  33.539  27.868  1.00  0.00     0.338 C 
ATOM     31  O   UNL A   1      33.797  34.710  28.203  1.00  0.00    -0.246 OA
BRANCH  30  32
ATOM     32  C   UNL A   1      34.974  32.654  27.929  1.00  0.00     0.060 A 
ATOM     33  C   UNL A   1      36.235  33.258  28.110  1.00  0.00     0.016 A 
ATOM     34  C   UNL A   1      34.817  31.299  28.215  1.00  0.00     0.016 A 
ATOM     35  C   UNL A   1      37.243  32.577  28.822  1.00  0.00     0.010 A 
ATOM     36  C   UNL A   1      35.831  30.620  28.900  1.00  0.00     0.010 A 
ATOM     37  C   UNL A   1      37.016  31.274  29.287  1.00  0.00    -0.014 A 
BRANCH  37  38
ATOM     38  C   UNL A   1      38.082  30.469  29.946  1.00  0.00     0.031 A 
ATOM     39  C   UNL A   1      38.372  30.844  31.367  1.00  0.00     0.074 A 
ATOM     40  C   UNL A   1      38.867  29.572  29.309  1.00  0.00     0.049 A 
ATOM     41  N   UNL A   1      39.343  30.468  32.151  1.00  0.00    -0.248 NA
ATOM     42  C   UNL A   1      37.455  31.832  31.962  1.00  0.00     0.031 C 
ATOM     43  C   UNL A   1      38.728  29.137  27.919  1.00  0.00     0.029 A 
ATOM     44  N   UNL A   1      39.987  28.894  29.749  1.00  0.00    -0.354 N 
ATOM     45  C   UNL A   1      39.183  31.212  33.309  1.00  0.00     0.074 A 
ATOM     46  C   UNL A   1      38.048  32.082  33.112  1.00  0.00     0.031 C 
ATOM     47  C   UNL A   1      39.740  28.301  27.612  1.00  0.00     0.029 A 
ATOM     48  C   UNL A   1      40.618  28.149  28.772  1.00  0.00     0.049 A 
ATOM     49  H   UNL A   1      40.308  28.939  30.679  1.00  0.00     0.167 HD
ATOM     50  C   UNL A   1      39.903  31.175  34.450  1.00  0.00     0.034 A 
ATOM     51  C   UNL A   1      41.775  27.446  28.813  1.00  0.00     0.034 A 
ATOM     52  C   UNL A   1      41.037  30.326  34.648  1.00  0.00     0.049 A 
ATOM     53  C   UNL A   1      42.565  27.405  30.108  1.00  0.00     0.074 A 
ATOM     54  C   UNL A   1      41.805  30.171  35.783  1.00  0.00     0.029 A 
ATOM     55  N   UNL A   1      41.578  29.506  33.670  1.00  0.00    -0.354 N 
ATOM     56  N   UNL A   1      42.305  27.988  31.255  1.00  0.00    -0.248 NA
ATOM     57  C   UNL A   1      43.790  26.585  30.129  1.00  0.00     0.031 C 
ATOM     58  C   UNL A   1      42.838  29.279  35.483  1.00  0.00     0.029 A 
ATOM     59  C   UNL A   1      42.681  28.846  34.174  1.00  0.00     0.049 A 
ATOM     60  H   UNL A   1      41.229  29.409  32.755  1.00  0.00     0.167 HD
ATOM     61  C   UNL A   1      43.300  27.572  32.137  1.00  0.00     0.074 A 
ATOM     62  C   UNL A   1      44.167  26.679  31.397  1.00  0.00     0.031 C 
ATOM     63  C   UNL A   1      43.487  27.905  33.438  1.00  0.00     0.034 A 
BRANCH  50  64
ATOM     64  C   UNL A   1      39.457  32.098  35.547  1.00  0.00     0.023 A 
ATOM     65  C   UNL A   1      38.481  31.664  36.470  1.00  0.00     0.012 A 
ATOM     66  C   UNL A   1      39.943  33.415  35.616  1.00  0.00     0.148 A 
ATOM     67  C   UNL A   1      37.944  32.550  37.400  1.00  0.00     0.002 A 
ATOM     68  C   UNL A   1      39.445  34.274  36.585  1.00  0.00     0.091 A 
ATOM     69  F   UNL A   1      40.845  33.814  34.709  1.00  0.00    -0.205 F 
ATOM     70  C   UNL A   1      38.430  33.853  37.461  1.00  0.00     0.022 A 
BRANCH  68  71
ATOM     71  S   UNL A   1      40.057  35.947  36.797  1.00  0.00     0.127 S 
ATOM     72  O   UNL A   1      41.487  35.716  36.996  1.00  0.00    -0.237 OA
ATOM     73  O   UNL A   1      39.709  36.560  35.515  1.00  0.00    -0.237 OA
ATOM     74  O   UNL A   1      39.347  36.493  37.945  1.00  0.00    -0.744 OA
ENDBRANCH  68  71
ENDBRANCH  50  64
BRANCH  51  75
ATOM     75  C   UNL A   1      42.267  26.682  27.619  1.00  0.00     0.023 A 
ATOM     76  C   UNL A   1      42.942  27.368  26.587  1.00  0.00     0.012 A 
ATOM     77  C   UNL A   1      42.034  25.299  27.470  1.00  0.00     0.148 A 
ATOM     78  C   UNL A   1      43.336  26.707  25.419  1.00  0.00     0.002 A 
ATOM     79  C   UNL A   1      42.474  24.635  26.326  1.00  0.00     0.091 A 
ATOM     80  F   UNL A   1      41.376  24.659  28.447  1.00  0.00    -0.205 F 
ATOM     81  C   UNL A   1      43.108  25.341  25.292  1.00  0.00     0.022 A 
BRANCH  79  82
ATOM     82  S   UNL A   1      42.311  22.859  26.102  1.00  0.00     0.127 S 
ATOM     83  O   UNL A   1      42.873  22.670  24.766  1.00  0.00    -0.237 OA
ATOM     84  O   UNL A   1      43.136  22.342  27.193  1.00  0.00    -0.237 OA
ATOM     85  O   UNL A   1      40.889  22.571  26.229  1.00  0.00    -0.744 OA
ENDBRANCH  79  82
ENDBRANCH  51  75
BRANCH  63  86
ATOM     86  C   UNL A   1      44.624  27.267  34.195  1.00  0.00     0.023 A 
ATOM     87  C   UNL A   1      45.878  27.903  34.258  1.00  0.00     0.012 A 
ATOM     88  C   UNL A   1      44.386  26.119  34.980  1.00  0.00     0.148 A 
ATOM     89  C   UNL A   1      46.882  27.399  35.086  1.00  0.00     0.002 A 
ATOM     90  C   UNL A   1      45.371  25.657  35.841  1.00  0.00     0.091 A 
ATOM     91  F   UNL A   1      43.188  25.524  34.891  1.00  0.00    -0.205 F 
ATOM     92  C   UNL A   1      46.623  26.290  35.890  1.00  0.00     0.022 A 
BRANCH  90  93
ATOM     93  S   UNL A   1      45.084  24.315  37.001  1.00  0.00     0.127 S 
ATOM     94  O   UNL A   1      44.019  24.867  37.836  1.00  0.00    -0.237 OA
ATOM     95  O   UNL A   1      44.663  23.228  36.116  1.00  0.00    -0.237 OA
ATOM     96  O   UNL A   1      46.352  24.086  37.680  1.00  0.00    -0.744 OA
ENDBRANCH  90  93
ENDBRANCH  63  86
ENDBRANCH  37  38
ENDBRANCH  30  32
ENDBRANCH  29  30
ENDBRANCH   1  29
TORSDOF 17
ENDMDL
MODEL 2
REMARK VINA RESULT:     -14.4      4.929     10.373
REMARK SMILES O=C(OCCOC(=O)c1ccc(-c2c3nc(c(-c4cccc(S(=O)(=O)[O-])c4F)c4ccc([nH]4)c(-c4cccc(S(=O)(=O)[O-])c4F)c4nc(c(-c5cccc(S(=O)(=O)[O-])c5F)c5ccc2[nH]5)C=C4)C=C3)cc1)C1=Cc2cc(Cl)cc(-c3ccc(O)cc3)c2O[C@@H]1C(F)(F)F
REMARK SMILES IDX 5 1 4 2 3 3 2 4 1 5 72 6 73 7 89 8 74 9 88 10 75 11 87 12
REMARK SMILES IDX 76 13 79 14 77 15 78 16 90 17 91 18 92 19 93 20 80 21 81 22
REMARK SMILES IDX 86 23 82 24 85 25 83 26 84 27 6 29 7 30 8 31 9 32 10 33
REMARK SMILES IDX 71 34 11 35 70 36 12 37 13 38 14 39 64 40 15 41 69 42 63 43
REMARK SMILES IDX 65 44 16 45 68 46 62 47 61 48 17 50 49 51 29 52 48 53 30 54
REMARK SMILES IDX 33 55 47 56 66 57 31 58 32 59 46 61 67 62 34 63 18 64 19 65
REMARK SMILES IDX 27 66 20 67 22 68 28 69 21 70 23 71 24 72 25 73 26 74 50 75
REMARK SMILES IDX 51 76 59 77 52 78 54 79 60 80 53 81 55 82 56 83 57 84 58 85
REMARK SMILES IDX 35 86 36 87 44 88 37 89 39 90 45 91 38 92 40 93 41 94 42 95
REMARK SMILES IDX 43 96
REMARK H PARENT 84 28 65 49 33 60
REMARK Flexibility Score: inf
ROOT
ATOM      1  C   UNL A   1      37.453  20.126  24.950  1.00  0.00     0.275 C 
ENDROOT
BRANCH   1   2
ATOM      2  C   UNL A   1      35.616  21.287  24.744  1.00  0.00     0.275 C 
BRANCH   2   3
ATOM      3  O   UNL A   1      35.395  22.745  25.218  1.00  0.00    -0.459 OA
BRANCH   3   4
ATOM      4  C   UNL A   1      34.572  23.444  24.426  1.00  0.00     0.338 C 
ATOM      5  O   UNL A   1      34.755  23.868  23.315  1.00  0.00    -0.246 OA
BRANCH   4   6
ATOM      6  C   UNL A   1      33.665  23.819  25.486  1.00  0.00     0.087 C 
ATOM      7  C   UNL A   1      34.021  25.078  26.118  1.00  0.00     0.027 C 
ATOM      8  C   UNL A   1      32.052  23.473  24.492  1.00  0.00     0.316 C 
ATOM      9  C   UNL A   1      33.087  26.588  25.888  1.00  0.00     0.019 A 
ATOM     10  O   UNL A   1      31.068  25.116  24.152  1.00  0.00    -0.475 OA
ATOM     11  C   UNL A   1      33.651  27.715  26.419  1.00  0.00     0.032 A 
ATOM     12  C   UNL A   1      31.699  26.697  24.832  1.00  0.00     0.135 A 
ATOM     13  C   UNL A   1      33.037  28.903  26.039  1.00  0.00     0.042 A 
ATOM     14  C   UNL A   1      31.215  27.929  24.452  1.00  0.00     0.026 A 
ATOM     15  Cl  UNL A   1      33.718  30.376  26.648  1.00  0.00    -0.084 Cl
ATOM     16  C   UNL A   1      31.918  28.996  25.127  1.00  0.00     0.033 A 
BRANCH   8  17
ATOM     17  C   UNL A   1      31.773  22.103  25.281  1.00  0.00     0.430 C 
ATOM     18  F   UNL A   1      32.248  21.049  24.603  1.00  0.00    -0.167 F 
ATOM     19  F   UNL A   1      32.514  22.086  26.434  1.00  0.00    -0.167 F 
ATOM     20  F   UNL A   1      30.533  21.879  25.743  1.00  0.00    -0.167 F 
ENDBRANCH   8  17
BRANCH  14  21
ATOM     21  C   UNL A   1      30.249  28.349  23.442  1.00  0.00    -0.014 A 
ATOM     22  C   UNL A   1      30.636  29.349  22.513  1.00  0.00     0.012 A 
ATOM     23  C   UNL A   1      28.893  28.028  23.530  1.00  0.00     0.012 A 
ATOM     24  C   UNL A   1      29.696  30.037  21.745  1.00  0.00     0.047 A 
ATOM     25  C   UNL A   1      27.946  28.716  22.754  1.00  0.00     0.047 A 
ATOM     26  C   UNL A   1      28.355  29.724  21.883  1.00  0.00     0.115 A 
BRANCH  26  27
ATOM     27  O   UNL A   1      27.460  30.454  21.159  1.00  0.00    -0.508 OA
ATOM     28  H   UNL A   1      27.513  31.390  21.154  1.00  0.00     0.293 HD
ENDBRANCH  26  27
ENDBRANCH  14  21
ENDBRANCH   4   6
ENDBRANCH   3   4
ENDBRANCH   2   3
ENDBRANCH   1   2
BRANCH   1  29
ATOM     29  O   UNL A   1      39.004  20.787  25.377  1.00  0.00    -0.458 OA
BRANCH  29  30
ATOM     30  C   UNL A   1      40.014  20.762  26.313  1.00  0.00     0.338 C 
ATOM     31  O   UNL A   1      40.969  20.010  26.397  1.00  0.00    -0.246 OA
BRANCH  30  32
ATOM     32  C   UNL A   1      39.999  22.107  26.985  1.00  0.00     0.060 A 
ATOM     33  C   UNL A   1      40.982  22.382  27.956  1.00  0.00     0.016 A 
ATOM     34  C   UNL A   1      39.319  23.164  26.382  1.00  0.00     0.016 A 
ATOM     35  C   UNL A   1      41.461  23.699  28.117  1.00  0.00     0.010 A 
ATOM     36  C   UNL A   1      39.782  24.472  26.564  1.00  0.00     0.010 A 
ATOM     37  C   UNL A   1      40.910  24.743  27.362  1.00  0.00    -0.014 A 
BRANCH  37  38
ATOM     38  C   UNL A   1      41.299  26.165  27.570  1.00  0.00     0.031 A 
ATOM     39  C   UNL A   1      42.678  26.520  27.104  1.00  0.00     0.074 A 
ATOM     40  C   UNL A   1      40.568  27.065  28.267  1.00  0.00     0.049 A 
ATOM     41  N   UNL A   1      43.374  27.605  27.298  1.00  0.00    -0.248 NA
ATOM     42  C   UNL A   1      43.385  25.465  26.358  1.00  0.00     0.031 C 
ATOM     43  C   UNL A   1      39.229  26.849  28.814  1.00  0.00     0.029 A 
ATOM     44  N   UNL A   1      40.883  28.345  28.678  1.00  0.00    -0.354 N 
ATOM     45  C   UNL A   1      44.617  27.341  26.743  1.00  0.00     0.074 A 
ATOM     46  C   UNL A   1      44.590  25.987  26.240  1.00  0.00     0.031 C 
ATOM     47  C   UNL A   1      38.855  27.938  29.516  1.00  0.00     0.029 A 
ATOM     48  C   UNL A   1      39.932  28.928  29.493  1.00  0.00     0.049 A 
ATOM     49  H   UNL A   1      41.715  28.802  28.414  1.00  0.00     0.167 HD
ATOM     50  C   UNL A   1      45.692  28.150  26.643  1.00  0.00     0.034 A 
ATOM     51  C   UNL A   1      39.945  30.111  30.150  1.00  0.00     0.034 A 
ATOM     52  C   UNL A   1      45.732  29.486  27.151  1.00  0.00     0.049 A 
ATOM     53  C   UNL A   1      41.157  31.015  30.015  1.00  0.00     0.074 A 
ATOM     54  C   UNL A   1      46.752  30.410  27.055  1.00  0.00     0.029 A 
ATOM     55  N   UNL A   1      44.709  30.077  27.874  1.00  0.00    -0.354 N 
ATOM     56  N   UNL A   1      42.266  30.816  29.343  1.00  0.00    -0.248 NA
ATOM     57  C   UNL A   1      41.110  32.318  30.702  1.00  0.00     0.031 C 
ATOM     58  C   UNL A   1      46.359  31.555  27.754  1.00  0.00     0.029 A 
ATOM     59  C   UNL A   1      45.076  31.356  28.242  1.00  0.00     0.049 A 
ATOM     60  H   UNL A   1      43.849  29.650  28.092  1.00  0.00     0.167 HD
ATOM     61  C   UNL A   1      43.022  31.978  29.488  1.00  0.00     0.074 A 
ATOM     62  C   UNL A   1      42.243  32.883  30.305  1.00  0.00     0.031 C 
ATOM     63  C   UNL A   1      44.253  32.267  28.997  1.00  0.00     0.034 A 
BRANCH  50  64
ATOM     64  C   UNL A   1      46.896  27.572  25.956  1.00  0.00     0.023 A 
ATOM     65  C   UNL A   1      46.970  27.590  24.546  1.00  0.00     0.012 A 
ATOM     66  C   UNL A   1      47.911  26.945  26.699  1.00  0.00     0.148 A 
ATOM     67  C   UNL A   1      48.001  26.928  23.884  1.00  0.00     0.002 A 
ATOM     68  C   UNL A   1      48.967  26.340  26.032  1.00  0.00     0.091 A 
ATOM     69  F   UNL A   1      47.803  26.913  28.034  1.00  0.00    -0.205 F 
ATOM     70  C   UNL A   1      49.002  26.308  24.628  1.00  0.00     0.022 A 
BRANCH  68  71
ATOM     71  S   UNL A   1      50.344  25.581  26.895  1.00  0.00     0.127 S 
ATOM     72  O   UNL A   1      51.232  25.232  25.787  1.00  0.00    -0.237 OA
ATOM     73  O   UNL A   1      50.818  26.681  27.736  1.00  0.00    -0.237 OA
ATOM     74  O   UNL A   1      49.788  24.451  27.627  1.00  0.00    -0.744 OA
ENDBRANCH  68  71
ENDBRANCH  50  64
BRANCH  51  75
ATOM     75  C   UNL A   1      38.774  30.560  30.975  1.00  0.00     0.023 A 
ATOM     76  C   UNL A   1      38.709  30.202  32.338  1.00  0.00     0.012 A 
ATOM     77  C   UNL A   1      37.705  31.291  30.417  1.00  0.00     0.148 A 
ATOM     78  C   UNL A   1      37.592  30.524  33.116  1.00  0.00     0.002 A 
ATOM     79  C   UNL A   1      36.616  31.652  31.210  1.00  0.00     0.091 A 
ATOM     80  F   UNL A   1      37.766  31.609  29.117  1.00  0.00    -0.205 F 
ATOM     81  C   UNL A   1      36.550  31.254  32.554  1.00  0.00     0.022 A 
BRANCH  79  82
ATOM     82  S   UNL A   1      35.263  32.671  30.607  1.00  0.00     0.127 S 
ATOM     83  O   UNL A   1      34.795  31.901  29.456  1.00  0.00    -0.237 OA
ATOM     84  O   UNL A   1      34.355  32.672  31.755  1.00  0.00    -0.237 OA
ATOM     85  O   UNL A   1      35.849  33.968  30.296  1.00  0.00    -0.744 OA
ENDBRANCH  79  82
ENDBRANCH  51  75
BRANCH  63  86
ATOM     86  C   UNL A   1      44.834  33.634  29.255  1.00  0.00     0.023 A 
ATOM     87  C   UNL A   1      45.648  33.856  30.381  1.00  0.00     0.012 A 
ATOM     88  C   UNL A   1      44.704  34.646  28.281  1.00  0.00     0.148 A 
ATOM     89  C   UNL A   1      46.317  35.070  30.538  1.00  0.00     0.002 A 
ATOM     90  C   UNL A   1      45.415  35.829  28.417  1.00  0.00     0.091 A 
ATOM     91  F   UNL A   1      43.912  34.414  27.224  1.00  0.00    -0.205 F 
ATOM     92  C   UNL A   1      46.216  36.048  29.549  1.00  0.00     0.022 A 
BRANCH  90  93
ATOM     93  S   UNL A   1      45.442  37.089  27.136  1.00  0.00     0.127 S 
ATOM     94  O   UNL A   1      46.249  38.134  27.764  1.00  0.00    -0.237 OA
ATOM     95  O   UNL A   1      46.101  36.392  26.031  1.00  0.00    -0.237 OA
ATOM     96  O   UNL A   1      44.052  37.443  26.886  1.00  0.00    -0.744 OA
ENDBRANCH  90  93
ENDBRANCH  63  86
ENDBRANCH  37  38
ENDBRANCH  30  32
ENDBRANCH  29  30
ENDBRANCH   1  29
TORSDOF 17
ENDMDL
MODEL 3
REMARK VINA RESULT:     -14.1      5.746      9.171
REMARK SMILES O=C(OCCOC(=O)c1ccc(-c2c3nc(c(-c4cccc(S(=O)(=O)[O-])c4F)c4ccc([nH]4)c(-c4cccc(S(=O)(=O)[O-])c4F)c4nc(c(-c5cccc(S(=O)(=O)[O-])c5F)c5ccc2[nH]5)C=C4)C=C3)cc1)C1=Cc2cc(Cl)cc(-c3ccc(O)cc3)c2O[C@@H]1C(F)(F)F
REMARK SMILES IDX 5 1 4 2 3 3 2 4 1 5 72 6 73 7 89 8 74 9 88 10 75 11 87 12
REMARK SMILES IDX 76 13 79 14 77 15 78 16 90 17 91 18 92 19 93 20 80 21 81 22
REMARK SMILES IDX 86 23 82 24 85 25 83 26 84 27 6 29 7 30 8 31 9 32 10 33
REMARK SMILES IDX 71 34 11 35 70 36 12 37 13 38 14 39 64 40 15 41 69 42 63 43
REMARK SMILES IDX 65 44 16 45 68 46 62 47 61 48 17 50 49 51 29 52 48 53 30 54
REMARK SMILES IDX 33 55 47 56 66 57 31 58 32 59 46 61 67 62 34 63 18 64 19 65
REMARK SMILES IDX 27 66 20 67 22 68 28 69 21 70 23 71 24 72 25 73 26 74 50 75
REMARK SMILES IDX 51 76 59 77 52 78 54 79 60 80 53 81 55 82 56 83 57 84 58 85
REMARK SMILES IDX 35 86 36 87 44 88 37 89 39 90 45 91 38 92 40 93 41 94 42 95
REMARK SMILES IDX 43 96
REMARK H PARENT 84 28 65 49 33 60
REMARK Flexibility Score: inf
ROOT
ATOM      1  C   UNL A   1      38.871  21.995  25.967  1.00  0.00     0.275 C 
ENDROOT
BRANCH   1   2
ATOM      2  C   UNL A   1      37.209  22.117  24.558  1.00  0.00     0.275 C 
BRANCH   2   3
ATOM      3  O   UNL A   1      36.541  23.415  24.038  1.00  0.00    -0.459 OA
BRANCH   3   4
ATOM      4  C   UNL A   1      35.307  23.223  23.557  1.00  0.00     0.338 C 
ATOM      5  O   UNL A   1      34.915  23.256  22.420  1.00  0.00    -0.246 OA
BRANCH   4   6
ATOM      6  C   UNL A   1      34.647  23.389  24.831  1.00  0.00     0.087 C 
ATOM      7  C   UNL A   1      34.927  24.673  25.452  1.00  0.00     0.027 C 
ATOM      8  C   UNL A   1      32.921  22.776  24.237  1.00  0.00     0.316 C 
ATOM      9  C   UNL A   1      33.716  25.986  25.573  1.00  0.00     0.019 A 
ATOM     10  O   UNL A   1      31.612  24.214  24.273  1.00  0.00    -0.475 OA
ATOM     11  C   UNL A   1      34.190  27.183  26.035  1.00  0.00     0.032 A 
ATOM     12  C   UNL A   1      32.109  25.864  24.898  1.00  0.00     0.135 A 
ATOM     13  C   UNL A   1      33.303  28.245  25.907  1.00  0.00     0.042 A 
ATOM     14  C   UNL A   1      31.337  26.994  24.742  1.00  0.00     0.026 A 
ATOM     15  Cl  UNL A   1      33.848  29.801  26.442  1.00  0.00    -0.084 Cl
ATOM     16  C   UNL A   1      31.991  28.153  25.305  1.00  0.00     0.033 A 
BRANCH   8  17
ATOM     17  C   UNL A   1      33.094  21.355  24.963  1.00  0.00     0.430 C 
ATOM     18  F   UNL A   1      31.918  20.723  25.078  1.00  0.00    -0.167 F 
ATOM     19  F   UNL A   1      33.815  20.518  24.151  1.00  0.00    -0.167 F 
ATOM     20  F   UNL A   1      33.797  21.308  26.105  1.00  0.00    -0.167 F 
ENDBRANCH   8  17
BRANCH  14  21
ATOM     21  C   UNL A   1      30.088  27.255  24.033  1.00  0.00    -0.014 A 
ATOM     22  C   UNL A   1      29.932  28.505  23.381  1.00  0.00     0.012 A 
ATOM     23  C   UNL A   1      28.952  26.463  24.210  1.00  0.00     0.012 A 
ATOM     24  C   UNL A   1      28.680  28.967  22.973  1.00  0.00     0.047 A 
ATOM     25  C   UNL A   1      27.692  26.923  23.796  1.00  0.00     0.047 A 
ATOM     26  C   UNL A   1      27.566  28.176  23.198  1.00  0.00     0.115 A 
BRANCH  26  27
ATOM     27  O   UNL A   1      26.352  28.682  22.839  1.00  0.00    -0.508 OA
ATOM     28  H   UNL A   1      26.128  28.764  21.933  1.00  0.00     0.293 HD
ENDBRANCH  26  27
ENDBRANCH  14  21
ENDBRANCH   4   6
ENDBRANCH   3   4
ENDBRANCH   2   3
ENDBRANCH   1   2
BRANCH   1  29
ATOM     29  O   UNL A   1      39.658  20.521  26.450  1.00  0.00    -0.458 OA
BRANCH  29  30
ATOM     30  C   UNL A   1      40.799  19.761  26.312  1.00  0.00     0.338 C 
ATOM     31  O   UNL A   1      40.958  18.708  25.720  1.00  0.00    -0.246 OA
BRANCH  30  32
ATOM     32  C   UNL A   1      41.951  20.668  26.645  1.00  0.00     0.060 A 
ATOM     33  C   UNL A   1      42.589  21.357  25.594  1.00  0.00     0.016 A 
ATOM     34  C   UNL A   1      42.103  21.124  27.953  1.00  0.00     0.016 A 
ATOM     35  C   UNL A   1      43.141  22.633  25.825  1.00  0.00     0.010 A 
ATOM     36  C   UNL A   1      42.676  22.381  28.181  1.00  0.00     0.010 A 
ATOM     37  C   UNL A   1      43.120  23.185  27.113  1.00  0.00    -0.014 A 
BRANCH  37  38
ATOM     38  C   UNL A   1      43.786  24.477  27.436  1.00  0.00     0.031 A 
ATOM     39  C   UNL A   1      42.873  25.553  27.939  1.00  0.00     0.074 A 
ATOM     40  C   UNL A   1      45.079  24.762  27.159  1.00  0.00     0.049 A 
ATOM     41  N   UNL A   1      43.101  26.821  28.135  1.00  0.00    -0.248 NA
ATOM     42  C   UNL A   1      41.486  25.133  28.205  1.00  0.00     0.031 C 
ATOM     43  C   UNL A   1      46.073  23.828  26.631  1.00  0.00     0.029 A 
ATOM     44  N   UNL A   1      45.768  25.956  27.243  1.00  0.00    -0.354 N 
ATOM     45  C   UNL A   1      41.874  27.358  28.496  1.00  0.00     0.074 A 
ATOM     46  C   UNL A   1      40.904  26.289  28.457  1.00  0.00     0.031 C 
ATOM     47  C   UNL A   1      47.226  24.490  26.403  1.00  0.00     0.029 A 
ATOM     48  C   UNL A   1      47.057  25.901  26.748  1.00  0.00     0.049 A 
ATOM     49  H   UNL A   1      45.374  26.775  27.622  1.00  0.00     0.167 HD
ATOM     50  C   UNL A   1      41.571  28.625  28.845  1.00  0.00     0.034 A 
ATOM     51  C   UNL A   1      47.976  26.881  26.581  1.00  0.00     0.034 A 
ATOM     52  C   UNL A   1      42.523  29.692  28.872  1.00  0.00     0.049 A 
ATOM     53  C   UNL A   1      47.621  28.299  26.991  1.00  0.00     0.074 A 
ATOM     54  C   UNL A   1      42.333  31.002  29.261  1.00  0.00     0.029 A 
ATOM     55  N   UNL A   1      43.843  29.572  28.468  1.00  0.00    -0.354 N 
ATOM     56  N   UNL A   1      46.499  28.760  27.491  1.00  0.00    -0.248 NA
ATOM     57  C   UNL A   1      48.667  29.328  26.845  1.00  0.00     0.031 C 
ATOM     58  C   UNL A   1      43.534  31.688  29.060  1.00  0.00     0.029 A 
ATOM     59  C   UNL A   1      44.481  30.790  28.589  1.00  0.00     0.049 A 
ATOM     60  H   UNL A   1      44.263  28.742  28.144  1.00  0.00     0.167 HD
ATOM     61  C   UNL A   1      46.718  30.110  27.758  1.00  0.00     0.074 A 
ATOM     62  C   UNL A   1      48.084  30.395  27.374  1.00  0.00     0.031 C 
ATOM     63  C   UNL A   1      45.864  31.033  28.267  1.00  0.00     0.034 A 
BRANCH  50  64
ATOM     64  C   UNL A   1      40.139  28.888  29.211  1.00  0.00     0.023 A 
ATOM     65  C   UNL A   1      39.206  29.200  28.199  1.00  0.00     0.012 A 
ATOM     66  C   UNL A   1      39.736  28.905  30.557  1.00  0.00     0.148 A 
ATOM     67  C   UNL A   1      37.911  29.593  28.527  1.00  0.00     0.002 A 
ATOM     68  C   UNL A   1      38.427  29.240  30.872  1.00  0.00     0.091 A 
ATOM     69  F   UNL A   1      40.648  28.637  31.503  1.00  0.00    -0.205 F 
ATOM     70  C   UNL A   1      37.521  29.608  29.863  1.00  0.00     0.022 A 
BRANCH  68  71
ATOM     71  S   UNL A   1      37.803  29.217  32.554  1.00  0.00     0.127 S 
ATOM     72  O   UNL A   1      36.480  29.816  32.387  1.00  0.00    -0.237 OA
ATOM     73  O   UNL A   1      37.792  27.784  32.852  1.00  0.00    -0.237 OA
ATOM     74  O   UNL A   1      38.746  29.996  33.345  1.00  0.00    -0.744 OA
ENDBRANCH  68  71
ENDBRANCH  50  64
BRANCH  51  75
ATOM     75  C   UNL A   1      49.342  26.586  26.037  1.00  0.00     0.023 A 
ATOM     76  C   UNL A   1      50.268  25.878  26.832  1.00  0.00     0.012 A 
ATOM     77  C   UNL A   1      49.752  27.039  24.766  1.00  0.00     0.148 A 
ATOM     78  C   UNL A   1      51.579  25.663  26.395  1.00  0.00     0.002 A 
ATOM     79  C   UNL A   1      51.046  26.779  24.315  1.00  0.00     0.091 A 
ATOM     80  F   UNL A   1      48.873  27.728  24.025  1.00  0.00    -0.205 F 
ATOM     81  C   UNL A   1      51.965  26.107  25.135  1.00  0.00     0.022 A 
BRANCH  79  82
ATOM     82  S   UNL A   1      51.618  27.228  22.670  1.00  0.00     0.127 S 
ATOM     83  O   UNL A   1      51.656  28.687  22.751  1.00  0.00    -0.237 OA
ATOM     84  O   UNL A   1      52.929  26.581  22.622  1.00  0.00    -0.237 OA
ATOM     85  O   UNL A   1      50.637  26.678  21.744  1.00  0.00    -0.744 OA
ENDBRANCH  79  82
ENDBRANCH  51  75
BRANCH  63  86
ATOM     86  C   UNL A   1      46.371  32.431  28.514  1.00  0.00     0.023 A 
ATOM     87  C   UNL A   1      46.900  32.780  29.770  1.00  0.00     0.012 A 
ATOM     88  C   UNL A   1      46.472  33.340  27.440  1.00  0.00     0.148 A 
ATOM     89  C   UNL A   1      47.515  34.019  29.956  1.00  0.00     0.002 A 
ATOM     90  C   UNL A   1      47.133  34.547  27.619  1.00  0.00     0.091 A 
ATOM     91  F   UNL A   1      45.947  32.989  26.257  1.00  0.00    -0.205 F 
ATOM     92  C   UNL A   1      47.648  34.893  28.878  1.00  0.00     0.022 A 
BRANCH  90  93
ATOM     93  S   UNL A   1      47.459  35.677  26.260  1.00  0.00     0.127 S 
ATOM     94  O   UNL A   1      46.171  36.355  26.123  1.00  0.00    -0.237 OA
ATOM     95  O   UNL A   1      48.533  36.511  26.802  1.00  0.00    -0.237 OA
ATOM     96  O   UNL A   1      47.848  34.848  25.127  1.00  0.00    -0.744 OA
ENDBRANCH  90  93
ENDBRANCH  63  86
ENDBRANCH  37  38
ENDBRANCH  30  32
ENDBRANCH  29  30
ENDBRANCH   1  29
TORSDOF 17
ENDMDL
