MODEL 1
REMARK VINA RESULT:     -12.1      0.000      0.000
REMARK SMILES CCOc1ccc(N2C[C@H](C(=O)OCCOC(=O)c3ccc(-c4c5nc(c(-c6cccc(S(=O)(=O)[O-])c6F)c6ccc([nH]6)c(-c6cccc(S(=O)(=O)[O-])c6F)c6nc(c(-c7cccc(S(=O)(=O)[O-])c7F)c7ccc4[nH]7)C=C6)C=C5)cc3)CC2=O)cc1C(F)(F)F
REMARK SMILES IDX 14 1 13 2 11 3 12 4 10 5 8 6 9 7 83 8 82 9 84 10 7 11 4 12
REMARK SMILES IDX 5 13 86 14 6 15 85 16 3 17 2 18 1 19 87 20 88 21 89 22 90 23
REMARK SMILES IDX 15 24 16 25 17 26 18 27 19 28 20 29 81 30 21 31 80 32 22 33
REMARK SMILES IDX 23 34 24 35 74 36 25 37 79 38 73 39 75 40 26 41 78 42 72 43
REMARK SMILES IDX 71 44 27 46 59 47 39 48 58 49 40 50 43 51 57 52 76 53 41 54
REMARK SMILES IDX 42 55 56 57 77 58 44 59 28 60 29 61 37 62 30 63 32 64 38 65
REMARK SMILES IDX 31 66 33 67 34 68 35 69 36 70 60 71 61 72 69 73 62 74 64 75
REMARK SMILES IDX 70 76 63 77 65 78 66 79 67 80 68 81 45 82 46 83 54 84 47 85
REMARK SMILES IDX 49 86 55 87 48 88 50 89 51 90 52 91 53 92
REMARK H PARENT 75 45 43 56
REMARK Flexibility Score: inf
ROOT
ATOM      1  C   UNL A   1      36.307  20.187  24.995  1.00  0.00     0.274 C 
ENDROOT
BRANCH   1   2
ATOM      2  O   UNL A   1      35.900  21.373  25.708  1.00  0.00    -0.462 OA
BRANCH   2   3
ATOM      3  C   UNL A   1      34.561  21.576  25.805  1.00  0.00     0.311 C 
ATOM      4  O   UNL A   1      33.706  20.886  25.263  1.00  0.00    -0.252 OA
BRANCH   3   5
ATOM      5  C   UNL A   1      34.199  22.730  26.708  1.00  0.00     0.128 C 
ATOM      6  N   UNL A   1      32.588  24.363  26.131  1.00  0.00    -0.312 N 
ATOM      7  C   UNL A   1      33.961  23.995  25.913  1.00  0.00     0.141 C 
ATOM      8  C   UNL A   1      31.950  23.503  27.021  1.00  0.00     0.227 C 
ATOM      9  C   UNL A   1      32.952  22.507  27.542  1.00  0.00     0.117 C 
ATOM     10  O   UNL A   1      30.781  23.506  27.383  1.00  0.00    -0.274 OA
BRANCH   6  11
ATOM     11  C   UNL A   1      32.007  25.498  25.508  1.00  0.00     0.044 A 
ATOM     12  C   UNL A   1      30.874  27.780  24.297  1.00  0.00     0.131 A 
ATOM     13  C   UNL A   1      30.287  26.527  24.120  1.00  0.00     0.049 A 
ATOM     14  C   UNL A   1      32.026  27.914  25.074  1.00  0.00     0.100 A 
ATOM     15  C   UNL A   1      30.865  25.391  24.700  1.00  0.00     0.030 A 
ATOM     16  C   UNL A   1      32.576  26.764  25.673  1.00  0.00     0.043 A 
BRANCH  12  17
ATOM     17  O   UNL A   1      30.257  28.903  23.830  1.00  0.00    -0.493 OA
BRANCH  17  18
ATOM     18  C   UNL A   1      30.354  29.085  22.413  1.00  0.00     0.226 C 
ATOM     19  C   UNL A   1      29.352  30.149  22.001  1.00  0.00     0.049 C 
ENDBRANCH  17  18
ENDBRANCH  12  17
BRANCH  14  20
ATOM     20  C   UNL A   1      32.742  29.228  25.218  1.00  0.00     0.420 C 
ATOM     21  F   UNL A   1      33.800  29.169  26.081  1.00  0.00    -0.166 F 
ATOM     22  F   UNL A   1      33.277  29.649  24.035  1.00  0.00    -0.166 F 
ATOM     23  F   UNL A   1      31.976  30.259  25.671  1.00  0.00    -0.166 F 
ENDBRANCH  14  20
ENDBRANCH   6  11
ENDBRANCH   3   5
ENDBRANCH   2   3
ENDBRANCH   1   2
BRANCH   1  24
ATOM     24  C   UNL A   1      37.823  20.007  25.025  1.00  0.00     0.275 C 
BRANCH  24  25
ATOM     25  O   UNL A   1      38.469  21.232  25.414  1.00  0.00    -0.458 OA
BRANCH  25  26
ATOM     26  C   UNL A   1      39.563  21.074  26.189  1.00  0.00     0.338 C 
ATOM     27  O   UNL A   1      40.255  20.075  26.300  1.00  0.00    -0.246 OA
BRANCH  26  28
ATOM     28  C   UNL A   1      39.909  22.326  26.874  1.00  0.00     0.060 A 
ATOM     29  C   UNL A   1      39.293  23.513  26.479  1.00  0.00     0.016 A 
ATOM     30  C   UNL A   1      41.006  22.352  27.732  1.00  0.00     0.016 A 
ATOM     31  C   UNL A   1      39.861  24.733  26.832  1.00  0.00     0.010 A 
ATOM     32  C   UNL A   1      41.496  23.580  28.185  1.00  0.00     0.010 A 
ATOM     33  C   UNL A   1      40.963  24.786  27.699  1.00  0.00    -0.014 A 
BRANCH  33  34
ATOM     34  C   UNL A   1      41.552  26.095  28.096  1.00  0.00     0.031 A 
ATOM     35  C   UNL A   1      40.719  27.131  28.813  1.00  0.00     0.074 A 
ATOM     36  C   UNL A   1      42.833  26.373  27.778  1.00  0.00     0.049 A 
ATOM     37  N   UNL A   1      41.017  28.373  29.099  1.00  0.00    -0.248 NA
ATOM     38  C   UNL A   1      39.371  26.729  29.248  1.00  0.00     0.031 C 
ATOM     39  C   UNL A   1      43.742  25.472  27.066  1.00  0.00     0.029 A 
ATOM     40  N   UNL A   1      43.589  27.499  27.993  1.00  0.00    -0.354 N 
ATOM     41  C   UNL A   1      39.871  28.923  29.664  1.00  0.00     0.074 A 
ATOM     42  C   UNL A   1      38.877  27.872  29.705  1.00  0.00     0.031 C 
ATOM     43  C   UNL A   1      44.929  26.073  26.910  1.00  0.00     0.029 A 
ATOM     44  C   UNL A   1      44.848  27.426  27.443  1.00  0.00     0.049 A 
ATOM     45  H   UNL A   1      43.261  28.283  28.490  1.00  0.00     0.167 HD
ATOM     46  C   UNL A   1      39.670  30.185  30.111  1.00  0.00     0.034 A 
ATOM     47  C   UNL A   1      45.820  28.354  27.339  1.00  0.00     0.034 A 
ATOM     48  C   UNL A   1      40.688  31.201  30.153  1.00  0.00     0.049 A 
ATOM     49  C   UNL A   1      45.590  29.720  27.915  1.00  0.00     0.074 A 
ATOM     50  C   UNL A   1      40.597  32.487  30.661  1.00  0.00     0.029 A 
ATOM     51  N   UNL A   1      41.982  31.050  29.683  1.00  0.00    -0.354 N 
ATOM     52  N   UNL A   1      44.530  30.187  28.528  1.00  0.00    -0.248 NA
ATOM     53  C   UNL A   1      46.697  30.681  27.809  1.00  0.00     0.031 C 
ATOM     54  C   UNL A   1      41.836  33.113  30.492  1.00  0.00     0.029 A 
ATOM     55  C   UNL A   1      42.701  32.214  29.891  1.00  0.00     0.049 A 
ATOM     56  H   UNL A   1      42.337  30.234  29.262  1.00  0.00     0.167 HD
ATOM     57  C   UNL A   1      44.851  31.486  28.903  1.00  0.00     0.074 A 
ATOM     58  C   UNL A   1      46.214  31.720  28.475  1.00  0.00     0.031 C 
ATOM     59  C   UNL A   1      44.077  32.411  29.521  1.00  0.00     0.034 A 
BRANCH  46  60
ATOM     60  C   UNL A   1      38.304  30.550  30.631  1.00  0.00     0.023 A 
ATOM     61  C   UNL A   1      37.966  30.278  31.970  1.00  0.00     0.012 A 
ATOM     62  C   UNL A   1      37.399  31.266  29.819  1.00  0.00     0.148 A 
ATOM     63  C   UNL A   1      36.743  30.699  32.493  1.00  0.00     0.002 A 
ATOM     64  C   UNL A   1      36.198  31.715  30.357  1.00  0.00     0.091 A 
ATOM     65  F   UNL A   1      37.732  31.496  28.542  1.00  0.00    -0.205 F 
ATOM     66  C   UNL A   1      35.867  31.427  31.691  1.00  0.00     0.022 A 
BRANCH  64  67
ATOM     67  S   UNL A   1      35.039  32.729  29.431  1.00  0.00     0.127 S 
ATOM     68  O   UNL A   1      35.915  33.782  28.920  1.00  0.00    -0.237 OA
ATOM     69  O   UNL A   1      34.554  31.793  28.416  1.00  0.00    -0.237 OA
ATOM     70  O   UNL A   1      34.032  33.165  30.387  1.00  0.00    -0.744 OA
ENDBRANCH  64  67
ENDBRANCH  46  60
BRANCH  47  71
ATOM     71  C   UNL A   1      47.107  28.003  26.673  1.00  0.00     0.023 A 
ATOM     72  C   UNL A   1      48.219  27.646  27.459  1.00  0.00     0.012 A 
ATOM     73  C   UNL A   1      47.221  27.975  25.271  1.00  0.00     0.148 A 
ATOM     74  C   UNL A   1      49.429  27.295  26.858  1.00  0.00     0.002 A 
ATOM     75  C   UNL A   1      48.408  27.560  24.679  1.00  0.00     0.091 A 
ATOM     76  F   UNL A   1      46.160  28.340  24.535  1.00  0.00    -0.205 F 
ATOM     77  C   UNL A   1      49.519  27.236  25.469  1.00  0.00     0.022 A 
BRANCH  75  78
ATOM     78  S   UNL A   1      48.526  27.307  22.904  1.00  0.00     0.127 S 
ATOM     79  O   UNL A   1      47.496  28.209  22.400  1.00  0.00    -0.237 OA
ATOM     80  O   UNL A   1      49.902  27.719  22.619  1.00  0.00    -0.237 OA
ATOM     81  O   UNL A   1      48.288  25.881  22.713  1.00  0.00    -0.744 OA
ENDBRANCH  75  78
ENDBRANCH  47  71
BRANCH  59  82
ATOM     82  C   UNL A   1      44.698  33.749  29.810  1.00  0.00     0.023 A 
ATOM     83  C   UNL A   1      45.455  33.928  30.985  1.00  0.00     0.012 A 
ATOM     84  C   UNL A   1      44.577  34.812  28.895  1.00  0.00     0.148 A 
ATOM     85  C   UNL A   1      46.054  35.156  31.260  1.00  0.00     0.002 A 
ATOM     86  C   UNL A   1      45.213  36.020  29.156  1.00  0.00     0.091 A 
ATOM     87  F   UNL A   1      43.832  34.631  27.795  1.00  0.00    -0.205 F 
ATOM     88  C   UNL A   1      45.942  36.197  30.342  1.00  0.00     0.022 A 
BRANCH  86  89
ATOM     89  S   UNL A   1      45.186  37.374  27.976  1.00  0.00     0.127 S 
ATOM     90  O   UNL A   1      43.760  37.687  27.912  1.00  0.00    -0.237 OA
ATOM     91  O   UNL A   1      46.004  38.391  28.639  1.00  0.00    -0.237 OA
ATOM     92  O   UNL A   1      45.774  36.839  26.755  1.00  0.00    -0.744 OA
ENDBRANCH  86  89
ENDBRANCH  59  82
ENDBRANCH  33  34
ENDBRANCH  26  28
ENDBRANCH  25  26
ENDBRANCH  24  25
ENDBRANCH   1  24
TORSDOF 18
ENDMDL
MODEL 2
REMARK VINA RESULT:     -11.8      1.385      1.968
REMARK SMILES CCOc1ccc(N2C[C@H](C(=O)OCCOC(=O)c3ccc(-c4c5nc(c(-c6cccc(S(=O)(=O)[O-])c6F)c6ccc([nH]6)c(-c6cccc(S(=O)(=O)[O-])c6F)c6nc(c(-c7cccc(S(=O)(=O)[O-])c7F)c7ccc4[nH]7)C=C6)C=C5)cc3)CC2=O)cc1C(F)(F)F
REMARK SMILES IDX 14 1 13 2 11 3 12 4 10 5 8 6 9 7 83 8 82 9 84 10 7 11 4 12
REMARK SMILES IDX 5 13 86 14 6 15 85 16 3 17 2 18 1 19 87 20 88 21 89 22 90 23
REMARK SMILES IDX 15 24 16 25 17 26 18 27 19 28 20 29 81 30 21 31 80 32 22 33
REMARK SMILES IDX 23 34 24 35 74 36 25 37 79 38 73 39 75 40 26 41 78 42 72 43
REMARK SMILES IDX 71 44 27 46 59 47 39 48 58 49 40 50 43 51 57 52 76 53 41 54
REMARK SMILES IDX 42 55 56 57 77 58 44 59 28 60 29 61 37 62 30 63 32 64 38 65
REMARK SMILES IDX 31 66 33 67 34 68 35 69 36 70 60 71 61 72 69 73 62 74 64 75
REMARK SMILES IDX 70 76 63 77 65 78 66 79 67 80 68 81 45 82 46 83 54 84 47 85
REMARK SMILES IDX 49 86 55 87 48 88 50 89 51 90 52 91 53 92
REMARK H PARENT 75 45 43 56
REMARK Flexibility Score: inf
ROOT
ATOM      1  C   UNL A   1      35.529  20.307  25.001  1.00  0.00     0.274 C 
ENDROOT
BRANCH   1   2
ATOM      2  O   UNL A   1      34.509  21.054  24.305  1.00  0.00    -0.462 OA
BRANCH   2   3
ATOM      3  C   UNL A   1      33.227  20.758  24.637  1.00  0.00     0.311 C 
ATOM      4  O   UNL A   1      32.890  19.870  25.409  1.00  0.00    -0.252 OA
BRANCH   3   5
ATOM      5  C   UNL A   1      32.219  21.681  23.995  1.00  0.00     0.128 C 
ATOM      6  N   UNL A   1      32.544  24.017  23.814  1.00  0.00    -0.312 N 
ATOM      7  C   UNL A   1      32.130  22.997  24.738  1.00  0.00     0.141 C 
ATOM      8  C   UNL A   1      32.829  23.498  22.553  1.00  0.00     0.227 C 
ATOM      9  C   UNL A   1      32.515  22.026  22.549  1.00  0.00     0.117 C 
ATOM     10  O   UNL A   1      33.247  24.082  21.562  1.00  0.00    -0.274 OA
BRANCH   6  11
ATOM     11  C   UNL A   1      32.611  25.385  24.186  1.00  0.00     0.044 A 
ATOM     12  C   UNL A   1      32.724  28.115  24.885  1.00  0.00     0.131 A 
ATOM     13  C   UNL A   1      33.498  27.182  25.575  1.00  0.00     0.049 A 
ATOM     14  C   UNL A   1      31.888  27.707  23.846  1.00  0.00     0.100 A 
ATOM     15  C   UNL A   1      33.421  25.823  25.244  1.00  0.00     0.030 A 
ATOM     16  C   UNL A   1      31.846  26.340  23.508  1.00  0.00     0.043 A 
BRANCH  12  17
ATOM     17  O   UNL A   1      32.877  29.449  25.126  1.00  0.00    -0.493 OA
BRANCH  17  18
ATOM     18  C   UNL A   1      32.665  29.832  26.490  1.00  0.00     0.226 C 
ATOM     19  C   UNL A   1      31.781  31.067  26.504  1.00  0.00     0.049 C 
ENDBRANCH  17  18
ENDBRANCH  12  17
BRANCH  14  20
ATOM     20  C   UNL A   1      30.971  28.664  23.136  1.00  0.00     0.420 C 
ATOM     21  F   UNL A   1      30.030  28.035  22.370  1.00  0.00    -0.166 F 
ATOM     22  F   UNL A   1      30.257  29.429  24.012  1.00  0.00    -0.166 F 
ATOM     23  F   UNL A   1      31.586  29.538  22.291  1.00  0.00    -0.166 F 
ENDBRANCH  14  20
ENDBRANCH   6  11
ENDBRANCH   3   5
ENDBRANCH   2   3
ENDBRANCH   1   2
BRANCH   1  24
ATOM     24  C   UNL A   1      36.494  21.229  25.742  1.00  0.00     0.275 C 
BRANCH  24  25
ATOM     25  O   UNL A   1      37.736  21.340  25.025  1.00  0.00    -0.458 OA
BRANCH  25  26
ATOM     26  C   UNL A   1      38.838  21.061  25.755  1.00  0.00     0.338 C 
ATOM     27  O   UNL A   1      39.441  20.001  25.810  1.00  0.00    -0.246 OA
BRANCH  26  28
ATOM     28  C   UNL A   1      39.316  22.254  26.464  1.00  0.00     0.060 A 
ATOM     29  C   UNL A   1      38.803  23.504  26.121  1.00  0.00     0.016 A 
ATOM     30  C   UNL A   1      40.434  22.152  27.290  1.00  0.00     0.016 A 
ATOM     31  C   UNL A   1      39.491  24.656  26.491  1.00  0.00     0.010 A 
ATOM     32  C   UNL A   1      41.048  23.315  27.763  1.00  0.00     0.010 A 
ATOM     33  C   UNL A   1      40.617  24.579  27.326  1.00  0.00    -0.014 A 
BRANCH  33  34
ATOM     34  C   UNL A   1      41.335  25.816  27.743  1.00  0.00     0.031 A 
ATOM     35  C   UNL A   1      40.631  26.886  28.543  1.00  0.00     0.074 A 
ATOM     36  C   UNL A   1      42.618  25.999  27.369  1.00  0.00     0.049 A 
ATOM     37  N   UNL A   1      41.048  28.085  28.861  1.00  0.00    -0.248 NA
ATOM     38  C   UNL A   1      39.276  26.580  29.033  1.00  0.00     0.031 C 
ATOM     39  C   UNL A   1      43.410  25.056  26.574  1.00  0.00     0.029 A 
ATOM     40  N   UNL A   1      43.478  27.047  27.587  1.00  0.00    -0.354 N 
ATOM     41  C   UNL A   1      39.984  28.704  29.507  1.00  0.00     0.074 A 
ATOM     42  C   UNL A   1      38.906  27.740  29.560  1.00  0.00     0.031 C 
ATOM     43  C   UNL A   1      44.635  25.561  26.380  1.00  0.00     0.029 A 
ATOM     44  C   UNL A   1      44.697  26.893  26.969  1.00  0.00     0.049 A 
ATOM     45  H   UNL A   1      43.244  27.834  28.131  1.00  0.00     0.167 HD
ATOM     46  C   UNL A   1      39.914  29.958  30.014  1.00  0.00     0.034 A 
ATOM     47  C   UNL A   1      45.739  27.739  26.849  1.00  0.00     0.034 A 
ATOM     48  C   UNL A   1      41.017  30.883  30.041  1.00  0.00     0.049 A 
ATOM     49  C   UNL A   1      45.657  29.093  27.490  1.00  0.00     0.074 A 
ATOM     50  C   UNL A   1      41.063  32.148  30.603  1.00  0.00     0.029 A 
ATOM     51  N   UNL A   1      42.268  30.643  29.497  1.00  0.00    -0.354 N 
ATOM     52  N   UNL A   1      44.672  29.620  28.176  1.00  0.00    -0.248 NA
ATOM     53  C   UNL A   1      46.836  29.961  27.363  1.00  0.00     0.031 C 
ATOM     54  C   UNL A   1      42.341  32.675  30.393  1.00  0.00     0.029 A 
ATOM     55  C   UNL A   1      43.094  31.733  29.713  1.00  0.00     0.049 A 
ATOM     56  H   UNL A   1      42.531  29.820  29.026  1.00  0.00     0.167 HD
ATOM     57  C   UNL A   1      45.122  30.870  28.584  1.00  0.00     0.074 A 
ATOM     58  C   UNL A   1      46.478  31.008  28.094  1.00  0.00     0.031 C 
ATOM     59  C   UNL A   1      44.463  31.829  29.278  1.00  0.00     0.034 A 
BRANCH  46  60
ATOM     60  C   UNL A   1      38.613  30.414  30.619  1.00  0.00     0.023 A 
ATOM     61  C   UNL A   1      38.383  30.249  31.998  1.00  0.00     0.012 A 
ATOM     62  C   UNL A   1      37.666  31.109  29.837  1.00  0.00     0.148 A 
ATOM     63  C   UNL A   1      37.225  30.754  32.590  1.00  0.00     0.002 A 
ATOM     64  C   UNL A   1      36.532  31.642  30.440  1.00  0.00     0.091 A 
ATOM     65  F   UNL A   1      37.894  31.236  28.522  1.00  0.00    -0.205 F 
ATOM     66  C   UNL A   1      36.309  31.461  31.815  1.00  0.00     0.022 A 
BRANCH  64  67
ATOM     67  S   UNL A   1      35.334  32.637  29.544  1.00  0.00     0.127 S 
ATOM     68  O   UNL A   1      36.164  33.744  29.074  1.00  0.00    -0.237 OA
ATOM     69  O   UNL A   1      34.893  31.716  28.495  1.00  0.00    -0.237 OA
ATOM     70  O   UNL A   1      34.305  32.994  30.510  1.00  0.00    -0.744 OA
ENDBRANCH  64  67
ENDBRANCH  46  60
BRANCH  47  71
ATOM     71  C   UNL A   1      46.956  27.310  26.104  1.00  0.00     0.023 A 
ATOM     72  C   UNL A   1      47.882  26.449  26.722  1.00  0.00     0.012 A 
ATOM     73  C   UNL A   1      47.177  27.712  24.773  1.00  0.00     0.148 A 
ATOM     74  C   UNL A   1      49.019  26.019  26.037  1.00  0.00     0.002 A 
ATOM     75  C   UNL A   1      48.277  27.226  24.075  1.00  0.00     0.091 A 
ATOM     76  F   UNL A   1      46.299  28.551  24.203  1.00  0.00    -0.205 F 
ATOM     77  C   UNL A   1      49.209  26.394  24.709  1.00  0.00     0.022 A 
BRANCH  75  78
ATOM     78  S   UNL A   1      48.480  27.542  22.318  1.00  0.00     0.127 S 
ATOM     79  O   UNL A   1      48.650  26.194  21.785  1.00  0.00    -0.237 OA
ATOM     80  O   UNL A   1      47.215  28.190  21.967  1.00  0.00    -0.237 OA
ATOM     81  O   UNL A   1      49.638  28.425  22.228  1.00  0.00    -0.744 OA
ENDBRANCH  75  78
ENDBRANCH  47  71
BRANCH  59  82
ATOM     82  C   UNL A   1      45.210  33.097  29.586  1.00  0.00     0.023 A 
ATOM     83  C   UNL A   1      45.974  33.187  30.766  1.00  0.00     0.012 A 
ATOM     84  C   UNL A   1      45.199  34.177  28.683  1.00  0.00     0.148 A 
ATOM     85  C   UNL A   1      46.689  34.347  31.059  1.00  0.00     0.002 A 
ATOM     86  C   UNL A   1      45.949  35.313  28.961  1.00  0.00     0.091 A 
ATOM     87  F   UNL A   1      44.447  34.082  27.577  1.00  0.00    -0.205 F 
ATOM     88  C   UNL A   1      46.685  35.405  30.153  1.00  0.00     0.022 A 
BRANCH  86  89
ATOM     89  S   UNL A   1      46.062  36.677  27.797  1.00  0.00     0.127 S 
ATOM     90  O   UNL A   1      46.575  36.010  26.603  1.00  0.00    -0.237 OA
ATOM     91  O   UNL A   1      44.673  37.125  27.695  1.00  0.00    -0.237 OA
ATOM     92  O   UNL A   1      46.957  37.645  28.418  1.00  0.00    -0.744 OA
ENDBRANCH  86  89
ENDBRANCH  59  82
ENDBRANCH  33  34
ENDBRANCH  26  28
ENDBRANCH  25  26
ENDBRANCH  24  25
ENDBRANCH   1  24
TORSDOF 18
ENDMDL
MODEL 3
REMARK VINA RESULT:     -11.8      5.372     10.199
REMARK SMILES CCOc1ccc(N2C[C@H](C(=O)OCCOC(=O)c3ccc(-c4c5nc(c(-c6cccc(S(=O)(=O)[O-])c6F)c6ccc([nH]6)c(-c6cccc(S(=O)(=O)[O-])c6F)c6nc(c(-c7cccc(S(=O)(=O)[O-])c7F)c7ccc4[nH]7)C=C6)C=C5)cc3)CC2=O)cc1C(F)(F)F
REMARK SMILES IDX 14 1 13 2 11 3 12 4 10 5 8 6 9 7 83 8 82 9 84 10 7 11 4 12
REMARK SMILES IDX 5 13 86 14 6 15 85 16 3 17 2 18 1 19 87 20 88 21 89 22 90 23
REMARK SMILES IDX 15 24 16 25 17 26 18 27 19 28 20 29 81 30 21 31 80 32 22 33
REMARK SMILES IDX 23 34 24 35 74 36 25 37 79 38 73 39 75 40 26 41 78 42 72 43
REMARK SMILES IDX 71 44 27 46 59 47 39 48 58 49 40 50 43 51 57 52 76 53 41 54
REMARK SMILES IDX 42 55 56 57 77 58 44 59 28 60 29 61 37 62 30 63 32 64 38 65
REMARK SMILES IDX 31 66 33 67 34 68 35 69 36 70 60 71 61 72 69 73 62 74 64 75
REMARK SMILES IDX 70 76 63 77 65 78 66 79 67 80 68 81 45 82 46 83 54 84 47 85
REMARK SMILES IDX 49 86 55 87 48 88 50 89 51 90 52 91 53 92
REMARK H PARENT 75 45 43 56
REMARK Flexibility Score: inf
ROOT
ATOM      1  C   UNL A   1      31.039  29.529  25.084  1.00  0.00     0.274 C 
ENDROOT
BRANCH   1   2
ATOM      2  O   UNL A   1      31.983  29.106  24.078  1.00  0.00    -0.462 OA
BRANCH   2   3
ATOM      3  C   UNL A   1      31.793  27.860  23.573  1.00  0.00     0.311 C 
ATOM      4  O   UNL A   1      30.706  27.384  23.274  1.00  0.00    -0.252 OA
BRANCH   3   5
ATOM      5  C   UNL A   1      33.082  27.106  23.352  1.00  0.00     0.128 C 
ATOM      6  N   UNL A   1      33.206  24.745  23.332  1.00  0.00    -0.312 N 
ATOM      7  C   UNL A   1      33.151  25.871  24.223  1.00  0.00     0.141 C 
ATOM      8  C   UNL A   1      33.239  25.135  21.995  1.00  0.00     0.227 C 
ATOM      9  C   UNL A   1      33.299  26.637  21.926  1.00  0.00     0.117 C 
ATOM     10  O   UNL A   1      33.241  24.433  20.993  1.00  0.00    -0.274 OA
BRANCH   6  11
ATOM     11  C   UNL A   1      33.249  23.409  23.810  1.00  0.00     0.044 A 
ATOM     12  C   UNL A   1      33.379  20.753  24.751  1.00  0.00     0.131 A 
ATOM     13  C   UNL A   1      32.144  21.343  24.481  1.00  0.00     0.049 A 
ATOM     14  C   UNL A   1      34.559  21.472  24.559  1.00  0.00     0.100 A 
ATOM     15  C   UNL A   1      32.079  22.670  24.040  1.00  0.00     0.030 A 
ATOM     16  C   UNL A   1      34.476  22.797  24.086  1.00  0.00     0.043 A 
BRANCH  12  17
ATOM     17  O   UNL A   1      33.455  19.430  25.074  1.00  0.00    -0.493 OA
BRANCH  17  18
ATOM     18  C   UNL A   1      32.505  18.600  24.396  1.00  0.00     0.226 C 
ATOM     19  C   UNL A   1      33.234  17.842  23.301  1.00  0.00     0.049 C 
ENDBRANCH  17  18
ENDBRANCH  12  17
BRANCH  14  20
ATOM     20  C   UNL A   1      35.905  20.908  24.921  1.00  0.00     0.420 C 
ATOM     21  F   UNL A   1      36.253  21.146  26.221  1.00  0.00    -0.166 F 
ATOM     22  F   UNL A   1      35.939  19.550  24.792  1.00  0.00    -0.166 F 
ATOM     23  F   UNL A   1      36.949  21.380  24.185  1.00  0.00    -0.166 F 
ENDBRANCH  14  20
ENDBRANCH   6  11
ENDBRANCH   3   5
ENDBRANCH   2   3
ENDBRANCH   1   2
BRANCH   1  24
ATOM     24  C   UNL A   1      31.463  30.842  25.736  1.00  0.00     0.275 C 
BRANCH  24  25
ATOM     25  O   UNL A   1      32.404  30.597  26.796  1.00  0.00    -0.458 OA
BRANCH  25  26
ATOM     26  C   UNL A   1      33.086  31.686  27.211  1.00  0.00     0.338 C 
ATOM     27  O   UNL A   1      32.661  32.823  27.337  1.00  0.00    -0.246 OA
BRANCH  26  28
ATOM     28  C   UNL A   1      34.461  31.334  27.592  1.00  0.00     0.060 A 
ATOM     29  C   UNL A   1      34.768  30.006  27.887  1.00  0.00     0.016 A 
ATOM     30  C   UNL A   1      35.368  32.351  27.883  1.00  0.00     0.016 A 
ATOM     31  C   UNL A   1      35.925  29.711  28.601  1.00  0.00     0.010 A 
ATOM     32  C   UNL A   1      36.586  32.032  28.488  1.00  0.00     0.010 A 
ATOM     33  C   UNL A   1      36.857  30.717  28.902  1.00  0.00    -0.014 A 
BRANCH  33  34
ATOM     34  C   UNL A   1      38.108  30.392  29.644  1.00  0.00     0.031 A 
ATOM     35  C   UNL A   1      39.140  29.464  29.048  1.00  0.00     0.074 A 
ATOM     36  C   UNL A   1      38.303  30.903  30.876  1.00  0.00     0.049 A 
ATOM     37  N   UNL A   1      40.207  28.953  29.606  1.00  0.00    -0.248 NA
ATOM     38  C   UNL A   1      38.938  29.039  27.652  1.00  0.00     0.031 C 
ATOM     39  C   UNL A   1      37.375  31.793  31.580  1.00  0.00     0.029 A 
ATOM     40  N   UNL A   1      39.334  30.733  31.768  1.00  0.00    -0.354 N 
ATOM     41  C   UNL A   1      40.754  28.084  28.668  1.00  0.00     0.074 A 
ATOM     42  C   UNL A   1      39.914  28.154  27.491  1.00  0.00     0.031 C 
ATOM     43  C   UNL A   1      37.879  32.096  32.783  1.00  0.00     0.029 A 
ATOM     44  C   UNL A   1      39.128  31.368  32.971  1.00  0.00     0.049 A 
ATOM     45  H   UNL A   1      40.141  30.207  31.566  1.00  0.00     0.167 HD
ATOM     46  C   UNL A   1      41.856  27.305  28.776  1.00  0.00     0.034 A 
ATOM     47  C   UNL A   1      39.837  31.339  34.116  1.00  0.00     0.034 A 
ATOM     48  C   UNL A   1      42.740  27.306  29.912  1.00  0.00     0.049 A 
ATOM     49  C   UNL A   1      41.096  30.525  34.175  1.00  0.00     0.074 A 
ATOM     50  C   UNL A   1      43.923  26.606  30.079  1.00  0.00     0.029 A 
ATOM     51  N   UNL A   1      42.548  28.046  31.067  1.00  0.00    -0.354 N 
ATOM     52  N   UNL A   1      41.641  29.784  33.241  1.00  0.00    -0.248 NA
ATOM     53  C   UNL A   1      41.852  30.560  35.435  1.00  0.00     0.031 C 
ATOM     54  C   UNL A   1      44.444  26.921  31.338  1.00  0.00     0.029 A 
ATOM     55  C   UNL A   1      43.592  27.825  31.949  1.00  0.00     0.049 A 
ATOM     56  H   UNL A   1      41.783  28.642  31.235  1.00  0.00     0.167 HD
ATOM     57  C   UNL A   1      42.815  29.286  33.791  1.00  0.00     0.074 A 
ATOM     58  C   UNL A   1      42.917  29.834  35.128  1.00  0.00     0.031 C 
ATOM     59  C   UNL A   1      43.715  28.430  33.249  1.00  0.00     0.034 A 
BRANCH  46  60
ATOM     60  C   UNL A   1      42.207  26.398  27.626  1.00  0.00     0.023 A 
ATOM     61  C   UNL A   1      43.101  26.838  26.632  1.00  0.00     0.012 A 
ATOM     62  C   UNL A   1      41.735  25.069  27.595  1.00  0.00     0.148 A 
ATOM     63  C   UNL A   1      43.512  25.975  25.615  1.00  0.00     0.002 A 
ATOM     64  C   UNL A   1      42.178  24.204  26.600  1.00  0.00     0.091 A 
ATOM     65  F   UNL A   1      40.868  24.678  28.539  1.00  0.00    -0.205 F 
ATOM     66  C   UNL A   1      43.061  24.658  25.607  1.00  0.00     0.022 A 
BRANCH  64  67
ATOM     67  S   UNL A   1      41.718  22.467  26.551  1.00  0.00     0.127 S 
ATOM     68  O   UNL A   1      42.315  22.042  25.286  1.00  0.00    -0.237 OA
ATOM     69  O   UNL A   1      42.379  21.940  27.745  1.00  0.00    -0.237 OA
ATOM     70  O   UNL A   1      40.264  22.435  26.597  1.00  0.00    -0.744 OA
ENDBRANCH  64  67
ENDBRANCH  46  60
BRANCH  47  71
ATOM     71  C   UNL A   1      39.372  32.128  35.292  1.00  0.00     0.023 A 
ATOM     72  C   UNL A   1      38.554  31.515  36.260  1.00  0.00     0.012 A 
ATOM     73  C   UNL A   1      39.772  33.464  35.480  1.00  0.00     0.148 A 
ATOM     74  C   UNL A   1      38.123  32.228  37.380  1.00  0.00     0.002 A 
ATOM     75  C   UNL A   1      39.393  34.147  36.630  1.00  0.00     0.091 A 
ATOM     76  F   UNL A   1      40.532  34.044  34.538  1.00  0.00    -0.205 F 
ATOM     77  C   UNL A   1      38.554  33.538  37.573  1.00  0.00     0.022 A 
BRANCH  75  78
ATOM     78  S   UNL A   1      40.055  35.774  37.010  1.00  0.00     0.127 S 
ATOM     79  O   UNL A   1      41.485  35.503  37.112  1.00  0.00    -0.237 OA
ATOM     80  O   UNL A   1      39.657  36.556  35.838  1.00  0.00    -0.237 OA
ATOM     81  O   UNL A   1      39.382  36.173  38.240  1.00  0.00    -0.744 OA
ENDBRANCH  75  78
ENDBRANCH  47  71
BRANCH  59  82
ATOM     82  C   UNL A   1      44.911  28.063  34.083  1.00  0.00     0.023 A 
ATOM     83  C   UNL A   1      46.065  28.870  34.040  1.00  0.00     0.012 A 
ATOM     84  C   UNL A   1      44.872  26.954  34.950  1.00  0.00     0.148 A 
ATOM     85  C   UNL A   1      47.176  28.557  34.822  1.00  0.00     0.002 A 
ATOM     86  C   UNL A   1      45.968  26.673  35.757  1.00  0.00     0.091 A 
ATOM     87  F   UNL A   1      43.775  26.184  34.959  1.00  0.00    -0.205 F 
ATOM     88  C   UNL A   1      47.124  27.467  35.687  1.00  0.00     0.022 A 
BRANCH  86  89
ATOM     89  S   UNL A   1      45.937  25.339  36.959  1.00  0.00     0.127 S 
ATOM     90  O   UNL A   1      47.306  25.364  37.469  1.00  0.00    -0.237 OA
ATOM     91  O   UNL A   1      44.923  25.792  37.912  1.00  0.00    -0.237 OA
ATOM     92  O   UNL A   1      45.562  24.148  36.209  1.00  0.00    -0.744 OA
ENDBRANCH  86  89
ENDBRANCH  59  82
ENDBRANCH  33  34
ENDBRANCH  26  28
ENDBRANCH  25  26
ENDBRANCH  24  25
ENDBRANCH   1  24
TORSDOF 18
ENDMDL
