MODEL 1
REMARK VINA RESULT:     -12.5      0.000      0.000
REMARK SMILES Cc1cc(OC(F)(F)F)cc2c1O[C@H](C(F)(F)F)C(C(=O)OCCOC(=O)c1ccc(-c3c4nc(c(-c5cccc(S(=O)(=O)[O-])c5F)c5ccc([nH]5)c(-c5cccc(S(=O)(=O)[O-])c5F)c5nc(c(-c6cccc(S(=O)(=O)[O-])c6F)c6ccc3[nH]6)C=C5)C=C4)cc1)=C2
REMARK SMILES IDX 24 1 23 2 22 3 20 4 21 5 19 6 1 7 2 8 3 9 12 10 4 11 11 12
REMARK SMILES IDX 13 13 10 14 91 15 14 16 5 17 6 18 7 19 8 20 9 21 15 22 16 23
REMARK SMILES IDX 17 24 18 25 25 26 26 27 27 28 28 29 29 30 90 31 30 32 89 33
REMARK SMILES IDX 31 34 32 35 33 36 83 37 34 38 88 39 82 40 84 41 35 42 87 43
REMARK SMILES IDX 81 44 80 45 36 47 68 48 48 49 67 50 49 51 52 52 66 53 85 54
REMARK SMILES IDX 50 55 51 56 65 58 86 59 53 60 37 61 38 62 46 63 39 64 41 65
REMARK SMILES IDX 47 66 40 67 42 68 43 69 44 70 45 71 69 72 70 73 78 74 71 75
REMARK SMILES IDX 73 76 79 77 72 78 74 79 75 80 76 81 77 82 54 83 55 84 63 85
REMARK SMILES IDX 56 86 58 87 64 88 57 89 59 90 60 91 61 92 62 93
REMARK H PARENT 84 46 52 57
REMARK Flexibility Score: inf
ROOT
ATOM      1  C   UNL A   1      36.677  20.286  24.901  1.00  0.00     0.275 C 
ENDROOT
BRANCH   1   2
ATOM      2  C   UNL A   1      35.241  20.723  25.190  1.00  0.00     0.275 C 
BRANCH   2   3
ATOM      3  O   UNL A   1      35.011  22.082  24.761  1.00  0.00    -0.459 OA
BRANCH   3   4
ATOM      4  C   UNL A   1      34.718  22.958  25.749  1.00  0.00     0.338 C 
ATOM      5  O   UNL A   1      35.184  22.966  26.878  1.00  0.00    -0.246 OA
BRANCH   4   6
ATOM      6  C   UNL A   1      33.729  23.948  25.285  1.00  0.00     0.087 C 
ATOM      7  C   UNL A   1      29.421  26.336  23.873  1.00  0.00     0.048 C 
ATOM      8  C   UNL A   1      30.766  26.757  24.389  1.00  0.00    -0.005 A 
ATOM      9  C   UNL A   1      31.032  28.123  24.617  1.00  0.00     0.054 A 
ATOM     10  C   UNL A   1      31.771  25.809  24.629  1.00  0.00     0.131 A 
ATOM     11  C   UNL A   1      32.280  28.540  25.081  1.00  0.00     0.130 A 
ATOM     12  C   UNL A   1      33.015  26.225  25.099  1.00  0.00     0.021 A 
ATOM     13  O   UNL A   1      31.478  24.498  24.362  1.00  0.00    -0.475 OA
ATOM     14  C   UNL A   1      33.270  27.584  25.312  1.00  0.00     0.058 A 
ATOM     15  C   UNL A   1      34.039  25.243  25.403  1.00  0.00     0.027 C 
ATOM     16  C   UNL A   1      32.384  23.463  24.838  1.00  0.00     0.316 C 
BRANCH  11  17
ATOM     17  O   UNL A   1      32.667  29.822  25.347  1.00  0.00    -0.406 OA
BRANCH  17  18
ATOM     18  C   UNL A   1      31.957  30.541  26.340  1.00  0.00     0.573 C 
ATOM     19  F   UNL A   1      31.420  29.703  27.253  1.00  0.00    -0.132 F 
ATOM     20  F   UNL A   1      32.763  31.425  26.968  1.00  0.00    -0.132 F 
ATOM     21  F   UNL A   1      30.954  31.228  25.755  1.00  0.00    -0.132 F 
ENDBRANCH  17  18
ENDBRANCH  11  17
BRANCH  16  22
ATOM     22  C   UNL A   1      31.682  22.658  25.943  1.00  0.00     0.430 C 
ATOM     23  F   UNL A   1      30.339  22.633  25.757  1.00  0.00    -0.167 F 
ATOM     24  F   UNL A   1      32.089  21.364  25.954  1.00  0.00    -0.167 F 
ATOM     25  F   UNL A   1      31.910  23.165  27.175  1.00  0.00    -0.167 F 
ENDBRANCH  16  22
ENDBRANCH   4   6
ENDBRANCH   3   4
ENDBRANCH   2   3
ENDBRANCH   1   2
BRANCH   1  26
ATOM     26  O   UNL A   1      37.588  21.380  25.095  1.00  0.00    -0.458 OA
BRANCH  26  27
ATOM     27  C   UNL A   1      38.726  21.069  25.757  1.00  0.00     0.338 C 
ATOM     28  O   UNL A   1      39.268  19.979  25.823  1.00  0.00    -0.246 OA
BRANCH  27  29
ATOM     29  C   UNL A   1      39.291  22.275  26.376  1.00  0.00     0.060 A 
ATOM     30  C   UNL A   1      38.694  23.508  26.127  1.00  0.00     0.016 A 
ATOM     31  C   UNL A   1      40.500  22.204  27.065  1.00  0.00     0.016 A 
ATOM     32  C   UNL A   1      39.372  24.682  26.438  1.00  0.00     0.010 A 
ATOM     33  C   UNL A   1      41.115  23.383  27.494  1.00  0.00     0.010 A 
ATOM     34  C   UNL A   1      40.583  24.636  27.143  1.00  0.00    -0.014 A 
BRANCH  34  35
ATOM     35  C   UNL A   1      41.277  25.899  27.511  1.00  0.00     0.031 A 
ATOM     36  C   UNL A   1      40.590  26.929  28.371  1.00  0.00     0.074 A 
ATOM     37  C   UNL A   1      42.534  26.118  27.073  1.00  0.00     0.049 A 
ATOM     38  N   UNL A   1      41.004  28.124  28.707  1.00  0.00    -0.248 NA
ATOM     39  C   UNL A   1      39.266  26.582  28.918  1.00  0.00     0.031 C 
ATOM     40  C   UNL A   1      43.309  25.194  26.240  1.00  0.00     0.029 A 
ATOM     41  N   UNL A   1      43.383  27.178  27.265  1.00  0.00    -0.354 N 
ATOM     42  C   UNL A   1      39.975  28.690  29.450  1.00  0.00     0.074 A 
ATOM     43  C   UNL A   1      38.915  27.710  29.523  1.00  0.00     0.031 C 
ATOM     44  C   UNL A   1      44.527  25.709  26.023  1.00  0.00     0.029 A 
ATOM     45  C   UNL A   1      44.597  27.030  26.634  1.00  0.00     0.049 A 
ATOM     46  H   UNL A   1      43.147  27.968  27.801  1.00  0.00     0.167 HD
ATOM     47  C   UNL A   1      39.926  29.911  30.032  1.00  0.00     0.034 A 
ATOM     48  C   UNL A   1      45.645  27.870  26.531  1.00  0.00     0.034 A 
ATOM     49  C   UNL A   1      41.010  30.855  30.014  1.00  0.00     0.049 A 
ATOM     50  C   UNL A   1      45.565  29.218  27.183  1.00  0.00     0.074 A 
ATOM     51  C   UNL A   1      41.068  32.100  30.612  1.00  0.00     0.029 A 
ATOM     52  N   UNL A   1      42.223  30.656  29.376  1.00  0.00    -0.354 N 
ATOM     53  N   UNL A   1      44.596  29.718  27.911  1.00  0.00    -0.248 NA
ATOM     54  C   UNL A   1      46.713  30.117  27.006  1.00  0.00     0.031 C 
ATOM     55  C   UNL A   1      42.316  32.661  30.329  1.00  0.00     0.029 A 
ATOM     56  C   UNL A   1      43.038  31.757  29.565  1.00  0.00     0.049 A 
ATOM     57  H   UNL A   1      42.470  29.850  28.866  1.00  0.00     0.167 HD
ATOM     58  C   UNL A   1      45.022  30.981  28.294  1.00  0.00     0.074 A 
ATOM     59  C   UNL A   1      46.343  31.168  27.728  1.00  0.00     0.031 C 
ATOM     60  C   UNL A   1      44.369  31.906  29.036  1.00  0.00     0.034 A 
BRANCH  47  61
ATOM     61  C   UNL A   1      38.680  30.299  30.779  1.00  0.00     0.023 A 
ATOM     62  C   UNL A   1      38.567  29.985  32.148  1.00  0.00     0.012 A 
ATOM     63  C   UNL A   1      37.680  31.073  30.160  1.00  0.00     0.148 A 
ATOM     64  C   UNL A   1      37.472  30.428  32.887  1.00  0.00     0.002 A 
ATOM     65  C   UNL A   1      36.606  31.537  30.910  1.00  0.00     0.091 A 
ATOM     66  F   UNL A   1      37.807  31.353  28.854  1.00  0.00    -0.205 F 
ATOM     67  C   UNL A   1      36.498  31.212  32.272  1.00  0.00     0.022 A 
BRANCH  65  68
ATOM     68  S   UNL A   1      35.325  32.598  30.230  1.00  0.00     0.127 S 
ATOM     69  O   UNL A   1      34.402  32.707  31.359  1.00  0.00    -0.237 OA
ATOM     70  O   UNL A   1      36.068  33.822  29.930  1.00  0.00    -0.237 OA
ATOM     71  O   UNL A   1      34.796  31.901  29.066  1.00  0.00    -0.744 OA
ENDBRANCH  65  68
ENDBRANCH  47  61
BRANCH  48  72
ATOM     72  C   UNL A   1      46.863  27.425  25.800  1.00  0.00     0.023 A 
ATOM     73  C   UNL A   1      47.744  26.522  26.423  1.00  0.00     0.012 A 
ATOM     74  C   UNL A   1      47.096  27.812  24.466  1.00  0.00     0.148 A 
ATOM     75  C   UNL A   1      48.840  26.010  25.727  1.00  0.00     0.002 A 
ATOM     76  C   UNL A   1      48.165  27.267  23.766  1.00  0.00     0.091 A 
ATOM     77  F   UNL A   1      46.241  28.676  23.899  1.00  0.00    -0.205 F 
ATOM     78  C   UNL A   1      49.043  26.371  24.397  1.00  0.00     0.022 A 
BRANCH  76  79
ATOM     79  S   UNL A   1      48.442  27.583  22.019  1.00  0.00     0.127 S 
ATOM     80  O   UNL A   1      48.654  26.232  21.502  1.00  0.00    -0.237 OA
ATOM     81  O   UNL A   1      47.178  28.204  21.624  1.00  0.00    -0.237 OA
ATOM     82  O   UNL A   1      49.597  28.466  21.953  1.00  0.00    -0.744 OA
ENDBRANCH  76  79
ENDBRANCH  48  72
BRANCH  60  83
ATOM     83  C   UNL A   1      45.057  33.211  29.312  1.00  0.00     0.023 A 
ATOM     84  C   UNL A   1      45.932  33.309  30.410  1.00  0.00     0.012 A 
ATOM     85  C   UNL A   1      44.963  34.275  28.393  1.00  0.00     0.148 A 
ATOM     86  C   UNL A   1      46.711  34.451  30.588  1.00  0.00     0.002 A 
ATOM     87  C   UNL A   1      45.767  35.394  28.558  1.00  0.00     0.091 A 
ATOM     88  F   UNL A   1      44.118  34.151  27.359  1.00  0.00    -0.205 F 
ATOM     89  C   UNL A   1      46.639  35.485  29.656  1.00  0.00     0.022 A 
BRANCH  87  90
ATOM     90  S   UNL A   1      45.807  36.742  27.372  1.00  0.00     0.127 S 
ATOM     91  O   UNL A   1      46.802  37.633  27.968  1.00  0.00    -0.237 OA
ATOM     92  O   UNL A   1      46.246  36.065  26.153  1.00  0.00    -0.237 OA
ATOM     93  O   UNL A   1      44.454  37.279  27.321  1.00  0.00    -0.744 OA
ENDBRANCH  87  90
ENDBRANCH  60  83
ENDBRANCH  34  35
ENDBRANCH  27  29
ENDBRANCH  26  27
ENDBRANCH   1  26
TORSDOF 17
ENDMDL
MODEL 2
REMARK VINA RESULT:     -12.5      1.214      1.578
REMARK SMILES Cc1cc(OC(F)(F)F)cc2c1O[C@H](C(F)(F)F)C(C(=O)OCCOC(=O)c1ccc(-c3c4nc(c(-c5cccc(S(=O)(=O)[O-])c5F)c5ccc([nH]5)c(-c5cccc(S(=O)(=O)[O-])c5F)c5nc(c(-c6cccc(S(=O)(=O)[O-])c6F)c6ccc3[nH]6)C=C5)C=C4)cc1)=C2
REMARK SMILES IDX 24 1 23 2 22 3 20 4 21 5 19 6 1 7 2 8 3 9 12 10 4 11 11 12
REMARK SMILES IDX 13 13 10 14 91 15 14 16 5 17 6 18 7 19 8 20 9 21 15 22 16 23
REMARK SMILES IDX 17 24 18 25 25 26 26 27 27 28 28 29 29 30 90 31 30 32 89 33
REMARK SMILES IDX 31 34 32 35 33 36 83 37 34 38 88 39 82 40 84 41 35 42 87 43
REMARK SMILES IDX 81 44 80 45 36 47 68 48 48 49 67 50 49 51 52 52 66 53 85 54
REMARK SMILES IDX 50 55 51 56 65 58 86 59 53 60 37 61 38 62 46 63 39 64 41 65
REMARK SMILES IDX 47 66 40 67 42 68 43 69 44 70 45 71 69 72 70 73 78 74 71 75
REMARK SMILES IDX 73 76 79 77 72 78 74 79 75 80 76 81 77 82 54 83 55 84 63 85
REMARK SMILES IDX 56 86 58 87 64 88 57 89 59 90 60 91 61 92 62 93
REMARK H PARENT 84 46 52 57
REMARK Flexibility Score: inf
ROOT
ATOM      1  C   UNL A   1      37.660  20.186  24.923  1.00  0.00     0.275 C 
ENDROOT
BRANCH   1   2
ATOM      2  C   UNL A   1      36.136  20.238  25.024  1.00  0.00     0.275 C 
BRANCH   2   3
ATOM      3  O   UNL A   1      35.709  21.189  26.022  1.00  0.00    -0.459 OA
BRANCH   3   4
ATOM      4  C   UNL A   1      34.404  21.544  25.960  1.00  0.00     0.338 C 
ATOM      5  O   UNL A   1      33.462  20.943  26.450  1.00  0.00    -0.246 OA
BRANCH   4   6
ATOM      6  C   UNL A   1      34.246  22.798  25.202  1.00  0.00     0.087 C 
ATOM      7  C   UNL A   1      33.161  26.301  21.623  1.00  0.00     0.048 C 
ATOM      8  C   UNL A   1      33.354  26.307  23.111  1.00  0.00    -0.005 A 
ATOM      9  C   UNL A   1      33.195  27.507  23.834  1.00  0.00     0.054 A 
ATOM     10  C   UNL A   1      33.712  25.134  23.792  1.00  0.00     0.131 A 
ATOM     11  C   UNL A   1      33.386  27.540  25.215  1.00  0.00     0.130 A 
ATOM     12  C   UNL A   1      33.895  25.165  25.174  1.00  0.00     0.021 A 
ATOM     13  O   UNL A   1      33.888  23.999  23.046  1.00  0.00    -0.475 OA
ATOM     14  C   UNL A   1      33.744  26.365  25.877  1.00  0.00     0.058 A 
ATOM     15  C   UNL A   1      34.208  23.944  25.890  1.00  0.00     0.027 C 
ATOM     16  C   UNL A   1      33.997  22.718  23.726  1.00  0.00     0.316 C 
BRANCH  11  17
ATOM     17  O   UNL A   1      33.260  28.627  26.033  1.00  0.00    -0.406 OA
BRANCH  17  18
ATOM     18  C   UNL A   1      31.957  29.014  26.431  1.00  0.00     0.573 C 
ATOM     19  F   UNL A   1      31.218  27.938  26.784  1.00  0.00    -0.132 F 
ATOM     20  F   UNL A   1      32.003  29.878  27.468  1.00  0.00    -0.132 F 
ATOM     21  F   UNL A   1      31.343  29.628  25.399  1.00  0.00    -0.132 F 
ENDBRANCH  17  18
ENDBRANCH  11  17
BRANCH  16  22
ATOM     22  C   UNL A   1      32.748  21.879  23.413  1.00  0.00     0.430 C 
ATOM     23  F   UNL A   1      31.733  22.173  24.263  1.00  0.00    -0.167 F 
ATOM     24  F   UNL A   1      32.282  22.125  22.164  1.00  0.00    -0.167 F 
ATOM     25  F   UNL A   1      32.981  20.551  23.505  1.00  0.00    -0.167 F 
ENDBRANCH  16  22
ENDBRANCH   4   6
ENDBRANCH   3   4
ENDBRANCH   2   3
ENDBRANCH   1   2
BRANCH   1  26
ATOM     26  O   UNL A   1      38.244  21.386  25.458  1.00  0.00    -0.458 OA
BRANCH  26  27
ATOM     27  C   UNL A   1      39.398  21.208  26.140  1.00  0.00     0.338 C 
ATOM     28  O   UNL A   1      40.053  20.184  26.231  1.00  0.00    -0.246 OA
BRANCH  27  29
ATOM     29  C   UNL A   1      39.820  22.477  26.749  1.00  0.00     0.060 A 
ATOM     30  C   UNL A   1      39.268  23.668  26.286  1.00  0.00     0.016 A 
ATOM     31  C   UNL A   1      40.877  22.496  27.657  1.00  0.00     0.016 A 
ATOM     32  C   UNL A   1      39.860  24.881  26.616  1.00  0.00     0.010 A 
ATOM     33  C   UNL A   1      41.385  23.724  28.091  1.00  0.00     0.010 A 
ATOM     34  C   UNL A   1      40.915  24.928  27.539  1.00  0.00    -0.014 A 
BRANCH  34  35
ATOM     35  C   UNL A   1      41.512  26.236  27.921  1.00  0.00     0.031 A 
ATOM     36  C   UNL A   1      40.698  27.260  28.671  1.00  0.00     0.074 A 
ATOM     37  C   UNL A   1      42.793  26.501  27.595  1.00  0.00     0.049 A 
ATOM     38  N   UNL A   1      41.023  28.484  28.998  1.00  0.00    -0.248 NA
ATOM     39  C   UNL A   1      39.346  26.867  29.104  1.00  0.00     0.031 C 
ATOM     40  C   UNL A   1      43.687  25.589  26.876  1.00  0.00     0.029 A 
ATOM     41  N   UNL A   1      43.570  27.609  27.825  1.00  0.00    -0.354 N 
ATOM     42  C   UNL A   1      39.902  29.024  29.618  1.00  0.00     0.074 A 
ATOM     43  C   UNL A   1      38.886  27.996  29.629  1.00  0.00     0.031 C 
ATOM     44  C   UNL A   1      44.895  26.156  26.755  1.00  0.00     0.029 A 
ATOM     45  C   UNL A   1      44.845  27.499  27.318  1.00  0.00     0.049 A 
ATOM     46  H   UNL A   1      43.248  28.404  28.305  1.00  0.00     0.167 HD
ATOM     47  C   UNL A   1      39.741  30.261  30.144  1.00  0.00     0.034 A 
ATOM     48  C   UNL A   1      45.858  28.386  27.281  1.00  0.00     0.034 A 
ATOM     49  C   UNL A   1      40.777  31.257  30.191  1.00  0.00     0.049 A 
ATOM     50  C   UNL A   1      45.653  29.750  27.869  1.00  0.00     0.074 A 
ATOM     51  C   UNL A   1      40.720  32.523  30.743  1.00  0.00     0.029 A 
ATOM     52  N   UNL A   1      42.054  31.095  29.679  1.00  0.00    -0.354 N 
ATOM     53  N   UNL A   1      44.598  30.226  28.482  1.00  0.00    -0.248 NA
ATOM     54  C   UNL A   1      46.771  30.699  27.766  1.00  0.00     0.031 C 
ATOM     55  C   UNL A   1      41.962  33.134  30.557  1.00  0.00     0.029 A 
ATOM     56  C   UNL A   1      42.795  32.242  29.901  1.00  0.00     0.049 A 
ATOM     57  H   UNL A   1      42.385  30.286  29.226  1.00  0.00     0.167 HD
ATOM     58  C   UNL A   1      44.926  31.522  28.854  1.00  0.00     0.074 A 
ATOM     59  C   UNL A   1      46.285  31.755  28.408  1.00  0.00     0.031 C 
ATOM     60  C   UNL A   1      44.162  32.438  29.494  1.00  0.00     0.034 A 
BRANCH  47  61
ATOM     61  C   UNL A   1      38.413  30.612  30.754  1.00  0.00     0.023 A 
ATOM     62  C   UNL A   1      38.173  30.314  32.110  1.00  0.00     0.012 A 
ATOM     63  C   UNL A   1      37.452  31.338  30.023  1.00  0.00     0.148 A 
ATOM     64  C   UNL A   1      36.993  30.726  32.727  1.00  0.00     0.002 A 
ATOM     65  C   UNL A   1      36.292  31.772  30.652  1.00  0.00     0.091 A 
ATOM     66  F   UNL A   1      37.701  31.603  28.732  1.00  0.00    -0.205 F 
ATOM     67  C   UNL A   1      36.059  31.463  32.002  1.00  0.00     0.022 A 
BRANCH  65  68
ATOM     68  S   UNL A   1      35.049  32.773  29.827  1.00  0.00     0.127 S 
ATOM     69  O   UNL A   1      34.491  31.819  28.869  1.00  0.00    -0.237 OA
ATOM     70  O   UNL A   1      34.155  33.123  30.931  1.00  0.00    -0.237 OA
ATOM     71  O   UNL A   1      35.761  33.896  29.235  1.00  0.00    -0.744 OA
ENDBRANCH  65  68
ENDBRANCH  47  61
BRANCH  48  72
ATOM     72  C   UNL A   1      47.160  27.977  26.687  1.00  0.00     0.023 A 
ATOM     73  C   UNL A   1      48.177  27.494  27.530  1.00  0.00     0.012 A 
ATOM     74  C   UNL A   1      47.356  27.971  25.292  1.00  0.00     0.148 A 
ATOM     75  C   UNL A   1      49.371  27.010  26.994  1.00  0.00     0.002 A 
ATOM     76  C   UNL A   1      48.529  27.449  24.762  1.00  0.00     0.091 A 
ATOM     77  F   UNL A   1      46.370  28.439  24.512  1.00  0.00    -0.205 F 
ATOM     78  C   UNL A   1      49.542  26.976  25.611  1.00  0.00     0.022 A 
BRANCH  76  79
ATOM     79  S   UNL A   1      48.795  27.258  22.995  1.00  0.00     0.127 S 
ATOM     80  O   UNL A   1      50.251  27.349  22.902  1.00  0.00    -0.237 OA
ATOM     81  O   UNL A   1      48.243  25.925  22.753  1.00  0.00    -0.237 OA
ATOM     82  O   UNL A   1      48.059  28.343  22.363  1.00  0.00    -0.744 OA
ENDBRANCH  76  79
ENDBRANCH  48  72
BRANCH  60  83
ATOM     83  C   UNL A   1      44.760  33.785  29.782  1.00  0.00     0.023 A 
ATOM     84  C   UNL A   1      45.513  33.966  30.957  1.00  0.00     0.012 A 
ATOM     85  C   UNL A   1      44.712  34.807  28.815  1.00  0.00     0.148 A 
ATOM     86  C   UNL A   1      46.218  35.150  31.164  1.00  0.00     0.002 A 
ATOM     87  C   UNL A   1      45.445  35.970  29.012  1.00  0.00     0.091 A 
ATOM     88  F   UNL A   1      43.983  34.604  27.708  1.00  0.00    -0.205 F 
ATOM     89  C   UNL A   1      46.195  36.144  30.187  1.00  0.00     0.022 A 
BRANCH  87  90
ATOM     90  S   UNL A   1      45.544  37.274  27.781  1.00  0.00     0.127 S 
ATOM     91  O   UNL A   1      44.146  37.689  27.674  1.00  0.00    -0.237 OA
ATOM     92  O   UNL A   1      46.422  38.245  28.433  1.00  0.00    -0.237 OA
ATOM     93  O   UNL A   1      46.095  36.659  26.582  1.00  0.00    -0.744 OA
ENDBRANCH  87  90
ENDBRANCH  60  83
ENDBRANCH  34  35
ENDBRANCH  27  29
ENDBRANCH  26  27
ENDBRANCH   1  26
TORSDOF 17
ENDMDL
MODEL 3
REMARK VINA RESULT:     -12.3      1.155      7.549
REMARK SMILES Cc1cc(OC(F)(F)F)cc2c1O[C@H](C(F)(F)F)C(C(=O)OCCOC(=O)c1ccc(-c3c4nc(c(-c5cccc(S(=O)(=O)[O-])c5F)c5ccc([nH]5)c(-c5cccc(S(=O)(=O)[O-])c5F)c5nc(c(-c6cccc(S(=O)(=O)[O-])c6F)c6ccc3[nH]6)C=C5)C=C4)cc1)=C2
REMARK SMILES IDX 24 1 23 2 22 3 20 4 21 5 19 6 1 7 2 8 3 9 12 10 4 11 11 12
REMARK SMILES IDX 13 13 10 14 91 15 14 16 5 17 6 18 7 19 8 20 9 21 15 22 16 23
REMARK SMILES IDX 17 24 18 25 25 26 26 27 27 28 28 29 29 30 90 31 30 32 89 33
REMARK SMILES IDX 31 34 32 35 33 36 83 37 34 38 88 39 82 40 84 41 35 42 87 43
REMARK SMILES IDX 81 44 80 45 36 47 68 48 48 49 67 50 49 51 52 52 66 53 85 54
REMARK SMILES IDX 50 55 51 56 65 58 86 59 53 60 37 61 38 62 46 63 39 64 41 65
REMARK SMILES IDX 47 66 40 67 42 68 43 69 44 70 45 71 69 72 70 73 78 74 71 75
REMARK SMILES IDX 73 76 79 77 72 78 74 79 75 80 76 81 77 82 54 83 55 84 63 85
REMARK SMILES IDX 56 86 58 87 64 88 57 89 59 90 60 91 61 92 62 93
REMARK H PARENT 84 46 52 57
REMARK Flexibility Score: inf
ROOT
ATOM      1  C   UNL A   1      37.710  19.726  24.995  1.00  0.00     0.275 C 
ENDROOT
BRANCH   1   2
ATOM      2  C   UNL A   1      36.261  20.209  25.051  1.00  0.00     0.275 C 
BRANCH   2   3
ATOM      3  O   UNL A   1      36.191  21.648  25.137  1.00  0.00    -0.459 OA
BRANCH   3   4
ATOM      4  C   UNL A   1      34.992  22.147  25.514  1.00  0.00     0.338 C 
ATOM      5  O   UNL A   1      34.324  21.791  26.473  1.00  0.00    -0.246 OA
BRANCH   4   6
ATOM      6  C   UNL A   1      34.566  23.218  24.596  1.00  0.00     0.087 C 
ATOM      7  C   UNL A   1      32.527  25.880  20.722  1.00  0.00     0.048 C 
ATOM      8  C   UNL A   1      32.940  26.179  22.133  1.00  0.00    -0.005 A 
ATOM      9  C   UNL A   1      32.744  27.471  22.662  1.00  0.00     0.054 A 
ATOM     10  C   UNL A   1      33.539  25.192  22.929  1.00  0.00     0.131 A 
ATOM     11  C   UNL A   1      33.135  27.777  23.966  1.00  0.00     0.130 A 
ATOM     12  C   UNL A   1      33.923  25.495  24.234  1.00  0.00     0.021 A 
ATOM     13  O   UNL A   1      33.740  23.961  22.363  1.00  0.00    -0.475 OA
ATOM     14  C   UNL A   1      33.732  26.784  24.743  1.00  0.00     0.058 A 
ATOM     15  C   UNL A   1      34.490  24.462  25.080  1.00  0.00     0.027 C 
ATOM     16  C   UNL A   1      34.110  22.844  23.219  1.00  0.00     0.316 C 
BRANCH  11  17
ATOM     17  O   UNL A   1      32.999  28.979  24.601  1.00  0.00    -0.406 OA
BRANCH  17  18
ATOM     18  C   UNL A   1      31.856  29.178  25.413  1.00  0.00     0.573 C 
ATOM     19  F   UNL A   1      31.435  30.460  25.350  1.00  0.00    -0.132 F 
ATOM     20  F   UNL A   1      30.847  28.361  25.041  1.00  0.00    -0.132 F 
ATOM     21  F   UNL A   1      32.172  28.900  26.696  1.00  0.00    -0.132 F 
ENDBRANCH  17  18
ENDBRANCH  11  17
BRANCH  16  22
ATOM     22  C   UNL A   1      32.942  21.846  23.267  1.00  0.00     0.430 C 
ATOM     23  F   UNL A   1      32.342  21.732  22.056  1.00  0.00    -0.167 F 
ATOM     24  F   UNL A   1      33.362  20.602  23.603  1.00  0.00    -0.167 F 
ATOM     25  F   UNL A   1      31.991  22.207  24.157  1.00  0.00    -0.167 F 
ENDBRANCH  16  22
ENDBRANCH   4   6
ENDBRANCH   3   4
ENDBRANCH   2   3
ENDBRANCH   1   2
BRANCH   1  26
ATOM     26  O   UNL A   1      38.618  20.829  25.152  1.00  0.00    -0.458 OA
BRANCH  26  27
ATOM     27  C   UNL A   1      39.545  20.676  26.125  1.00  0.00     0.338 C 
ATOM     28  O   UNL A   1      40.042  19.633  26.514  1.00  0.00    -0.246 OA
BRANCH  27  29
ATOM     29  C   UNL A   1      39.942  21.989  26.649  1.00  0.00     0.060 A 
ATOM     30  C   UNL A   1      39.300  23.130  26.177  1.00  0.00     0.016 A 
ATOM     31  C   UNL A   1      41.056  22.100  27.480  1.00  0.00     0.016 A 
ATOM     32  C   UNL A   1      39.851  24.384  26.415  1.00  0.00     0.010 A 
ATOM     33  C   UNL A   1      41.529  23.368  27.826  1.00  0.00     0.010 A 
ATOM     34  C   UNL A   1      40.962  24.523  27.258  1.00  0.00    -0.014 A 
BRANCH  34  35
ATOM     35  C   UNL A   1      41.515  25.874  27.544  1.00  0.00     0.031 A 
ATOM     36  C   UNL A   1      42.896  26.253  27.071  1.00  0.00     0.074 A 
ATOM     37  C   UNL A   1      40.769  26.765  28.229  1.00  0.00     0.049 A 
ATOM     38  N   UNL A   1      43.573  27.345  27.313  1.00  0.00    -0.248 NA
ATOM     39  C   UNL A   1      43.613  25.282  26.226  1.00  0.00     0.031 C 
ATOM     40  C   UNL A   1      39.416  26.521  28.734  1.00  0.00     0.029 A 
ATOM     41  N   UNL A   1      41.037  28.054  28.617  1.00  0.00    -0.354 N 
ATOM     42  C   UNL A   1      44.811  27.170  26.704  1.00  0.00     0.074 A 
ATOM     43  C   UNL A   1      44.794  25.869  26.076  1.00  0.00     0.031 C 
ATOM     44  C   UNL A   1      38.959  27.630  29.331  1.00  0.00     0.029 A 
ATOM     45  C   UNL A   1      40.010  28.639  29.321  1.00  0.00     0.049 A 
ATOM     46  H   UNL A   1      41.882  28.515  28.412  1.00  0.00     0.167 HD
ATOM     47  C   UNL A   1      45.859  28.025  26.662  1.00  0.00     0.034 A 
ATOM     48  C   UNL A   1      39.925  29.843  29.918  1.00  0.00     0.034 A 
ATOM     49  C   UNL A   1      45.846  29.345  27.230  1.00  0.00     0.049 A 
ATOM     50  C   UNL A   1      41.102  30.771  29.858  1.00  0.00     0.074 A 
ATOM     51  C   UNL A   1      46.846  30.299  27.199  1.00  0.00     0.029 A 
ATOM     52  N   UNL A   1      44.780  29.899  27.920  1.00  0.00    -0.354 N 
ATOM     53  N   UNL A   1      42.248  30.598  29.247  1.00  0.00    -0.248 NA
ATOM     54  C   UNL A   1      40.980  32.054  30.562  1.00  0.00     0.031 C 
ATOM     55  C   UNL A   1      46.389  31.430  27.879  1.00  0.00     0.029 A 
ATOM     56  C   UNL A   1      45.099  31.183  28.322  1.00  0.00     0.049 A 
ATOM     57  H   UNL A   1      43.923  29.447  28.097  1.00  0.00     0.167 HD
ATOM     58  C   UNL A   1      42.979  31.755  29.476  1.00  0.00     0.074 A 
ATOM     59  C   UNL A   1      42.142  32.629  30.273  1.00  0.00     0.031 C 
ATOM     60  C   UNL A   1      44.235  32.057  29.072  1.00  0.00     0.034 A 
BRANCH  47  61
ATOM     61  C   UNL A   1      47.107  27.592  25.943  1.00  0.00     0.023 A 
ATOM     62  C   UNL A   1      48.068  26.820  26.627  1.00  0.00     0.012 A 
ATOM     63  C   UNL A   1      47.273  27.846  24.568  1.00  0.00     0.148 A 
ATOM     64  C   UNL A   1      49.179  26.316  25.955  1.00  0.00     0.002 A 
ATOM     65  C   UNL A   1      48.367  27.315  23.897  1.00  0.00     0.091 A 
ATOM     66  F   UNL A   1      46.348  28.589  23.942  1.00  0.00    -0.205 F 
ATOM     67  C   UNL A   1      49.323  26.554  24.589  1.00  0.00     0.022 A 
BRANCH  65  68
ATOM     68  S   UNL A   1      48.621  27.515  22.129  1.00  0.00     0.127 S 
ATOM     69  O   UNL A   1      49.873  28.269  22.094  1.00  0.00    -0.237 OA
ATOM     70  O   UNL A   1      48.731  26.128  21.677  1.00  0.00    -0.237 OA
ATOM     71  O   UNL A   1      47.456  28.232  21.631  1.00  0.00    -0.744 OA
ENDBRANCH  65  68
ENDBRANCH  47  61
BRANCH  48  72
ATOM     72  C   UNL A   1      38.657  30.231  30.595  1.00  0.00     0.023 A 
ATOM     73  C   UNL A   1      38.498  29.951  31.965  1.00  0.00     0.012 A 
ATOM     74  C   UNL A   1      37.660  30.958  29.916  1.00  0.00     0.148 A 
ATOM     75  C   UNL A   1      37.364  30.391  32.649  1.00  0.00     0.002 A 
ATOM     76  C   UNL A   1      36.554  31.429  30.613  1.00  0.00     0.091 A 
ATOM     77  F   UNL A   1      37.837  31.208  28.610  1.00  0.00    -0.205 F 
ATOM     78  C   UNL A   1      36.400  31.139  31.978  1.00  0.00     0.022 A 
BRANCH  76  79
ATOM     79  S   UNL A   1      35.318  32.495  29.863  1.00  0.00     0.127 S 
ATOM     80  O   UNL A   1      34.389  32.700  30.973  1.00  0.00    -0.237 OA
ATOM     81  O   UNL A   1      36.114  33.667  29.500  1.00  0.00    -0.237 OA
ATOM     82  O   UNL A   1      34.785  31.751  28.731  1.00  0.00    -0.744 OA
ENDBRANCH  76  79
ENDBRANCH  48  72
BRANCH  60  83
ATOM     83  C   UNL A   1      44.804  33.392  29.458  1.00  0.00     0.023 A 
ATOM     84  C   UNL A   1      45.564  33.501  30.637  1.00  0.00     0.012 A 
ATOM     85  C   UNL A   1      44.722  34.484  28.572  1.00  0.00     0.148 A 
ATOM     86  C   UNL A   1      46.244  34.683  30.929  1.00  0.00     0.002 A 
ATOM     87  C   UNL A   1      45.429  35.646  28.853  1.00  0.00     0.091 A 
ATOM     88  F   UNL A   1      43.987  34.348  27.459  1.00  0.00    -0.205 F 
ATOM     89  C   UNL A   1      46.187  35.747  30.031  1.00  0.00     0.022 A 
BRANCH  87  90
ATOM     90  S   UNL A   1      45.485  37.042  27.724  1.00  0.00     0.127 S 
ATOM     91  O   UNL A   1      46.068  36.434  26.528  1.00  0.00    -0.237 OA
ATOM     92  O   UNL A   1      44.071  37.394  27.602  1.00  0.00    -0.237 OA
ATOM     93  O   UNL A   1      46.315  38.051  28.366  1.00  0.00    -0.744 OA
ENDBRANCH  87  90
ENDBRANCH  60  83
ENDBRANCH  34  35
ENDBRANCH  27  29
ENDBRANCH  26  27
ENDBRANCH   1  26
TORSDOF 17
ENDMDL
