MODEL 1
REMARK VINA RESULT:     -12.3      0.000      0.000
REMARK SMILES Cc1cc(Cl)c(C)c2c1O[C@H](C(F)(F)F)C(C(=O)OCCOC(=O)c1ccc(-c3c4nc(c(-c5cccc(S(=O)(=O)[O-])c5F)c5ccc([nH]5)c(-c5cccc(S(=O)(=O)[O-])c5F)c5nc(c(-c6cccc(S(=O)(=O)[O-])c6F)c6ccc3[nH]6)C=C5)C=C4)cc1)=C2
REMARK SMILES IDX 21 1 20 2 19 3 17 4 18 5 16 6 1 7 2 8 3 9 9 10 4 11 8 12
REMARK SMILES IDX 10 13 5 14 6 15 88 16 11 17 7 18 12 19 13 20 14 21 15 22
REMARK SMILES IDX 22 23 23 24 24 25 25 26 26 27 87 28 27 29 86 30 28 31 29 32
REMARK SMILES IDX 30 33 80 34 31 35 85 36 79 37 81 38 32 39 84 40 78 41 77 42
REMARK SMILES IDX 33 44 65 45 45 46 64 47 46 48 49 49 63 50 82 51 47 52 48 53
REMARK SMILES IDX 62 55 83 56 50 57 34 58 35 59 43 60 36 61 38 62 44 63 37 64
REMARK SMILES IDX 39 65 40 66 41 67 42 68 66 69 67 70 75 71 68 72 70 73 76 74
REMARK SMILES IDX 69 75 71 76 72 77 73 78 74 79 51 80 52 81 60 82 53 83 55 84
REMARK SMILES IDX 61 85 54 86 56 87 57 88 58 89 59 90
REMARK H PARENT 81 43 49 54
REMARK Flexibility Score: inf
ROOT
ATOM      1  C   UNL A   1      32.514  29.715  25.166  1.00  0.00     0.275 C 
ENDROOT
BRANCH   1   2
ATOM      2  C   UNL A   1      31.924  28.349  24.813  1.00  0.00     0.275 C 
BRANCH   2   3
ATOM      3  O   UNL A   1      32.735  27.277  25.340  1.00  0.00    -0.459 OA
BRANCH   3   4
ATOM      4  C   UNL A   1      32.107  26.431  26.188  1.00  0.00     0.338 C 
ATOM      5  O   UNL A   1      31.344  26.738  27.091  1.00  0.00    -0.246 OA
BRANCH   4   6
ATOM      6  C   UNL A   1      32.471  25.031  25.892  1.00  0.00     0.087 C 
ATOM      7  C   UNL A   1      32.447  20.250  24.100  1.00  0.00     0.048 C 
ATOM      8  C   UNL A   1      33.502  21.204  24.579  1.00  0.00    -0.007 A 
ATOM      9  C   UNL A   1      34.845  20.818  24.554  1.00  0.00     0.028 A 
ATOM     10  C   UNL A   1      33.167  22.467  25.083  1.00  0.00     0.131 A 
ATOM     11  C   UNL A   1      35.850  21.674  25.015  1.00  0.00     0.045 A 
ATOM     12  C   UNL A   1      34.170  23.346  25.528  1.00  0.00     0.022 A 
ATOM     13  O   UNL A   1      31.828  22.760  25.136  1.00  0.00    -0.475 OA
ATOM     14  Cl  UNL A   1      37.470  21.076  24.927  1.00  0.00    -0.084 Cl
ATOM     15  C   UNL A   1      35.536  22.950  25.511  1.00  0.00    -0.021 A 
ATOM     16  C   UNL A   1      33.758  24.674  25.970  1.00  0.00     0.027 C 
ATOM     17  C   UNL A   1      31.402  24.123  25.376  1.00  0.00     0.316 C 
ATOM     18  C   UNL A   1      36.611  23.878  26.026  1.00  0.00     0.047 C 
BRANCH  17  19
ATOM     19  C   UNL A   1      30.759  24.682  24.097  1.00  0.00     0.430 C 
ATOM     20  F   UNL A   1      30.192  23.693  23.362  1.00  0.00    -0.167 F 
ATOM     21  F   UNL A   1      29.767  25.561  24.379  1.00  0.00    -0.167 F 
ATOM     22  F   UNL A   1      31.650  25.315  23.303  1.00  0.00    -0.167 F 
ENDBRANCH  17  19
ENDBRANCH   4   6
ENDBRANCH   3   4
ENDBRANCH   2   3
ENDBRANCH   1   2
BRANCH   1  23
ATOM     23  O   UNL A   1      32.362  29.981  26.570  1.00  0.00    -0.458 OA
BRANCH  23  24
ATOM     24  C   UNL A   1      32.892  31.148  26.998  1.00  0.00     0.338 C 
ATOM     25  O   UNL A   1      32.345  32.236  27.050  1.00  0.00    -0.246 OA
BRANCH  24  26
ATOM     26  C   UNL A   1      34.246  30.911  27.518  1.00  0.00     0.060 A 
ATOM     27  C   UNL A   1      34.644  29.598  27.718  1.00  0.00     0.016 A 
ATOM     28  C   UNL A   1      35.051  31.959  27.956  1.00  0.00     0.016 A 
ATOM     29  C   UNL A   1      35.763  29.320  28.492  1.00  0.00     0.010 A 
ATOM     30  C   UNL A   1      36.265  31.670  28.595  1.00  0.00     0.010 A 
ATOM     31  C   UNL A   1      36.616  30.347  28.918  1.00  0.00    -0.014 A 
BRANCH  31  32
ATOM     32  C   UNL A   1      37.849  30.004  29.689  1.00  0.00     0.031 A 
ATOM     33  C   UNL A   1      38.942  29.162  29.074  1.00  0.00     0.074 A 
ATOM     34  C   UNL A   1      38.010  30.487  30.942  1.00  0.00     0.049 A 
ATOM     35  N   UNL A   1      40.035  28.702  29.628  1.00  0.00    -0.248 NA
ATOM     36  C   UNL A   1      38.785  28.770  27.663  1.00  0.00     0.031 C 
ATOM     37  C   UNL A   1      37.036  31.317  31.658  1.00  0.00     0.029 A 
ATOM     38  N   UNL A   1      39.051  30.375  31.833  1.00  0.00    -0.354 N 
ATOM     39  C   UNL A   1      40.655  27.916  28.663  1.00  0.00     0.074 A 
ATOM     40  C   UNL A   1      39.814  27.953  27.486  1.00  0.00     0.031 C 
ATOM     41  C   UNL A   1      37.555  31.707  32.829  1.00  0.00     0.029 A 
ATOM     42  C   UNL A   1      38.847  31.061  33.010  1.00  0.00     0.049 A 
ATOM     43  H   UNL A   1      39.866  29.854  31.647  1.00  0.00     0.167 HD
ATOM     44  C   UNL A   1      41.825  27.237  28.743  1.00  0.00     0.034 A 
ATOM     45  C   UNL A   1      39.591  31.140  34.132  1.00  0.00     0.034 A 
ATOM     46  C   UNL A   1      42.693  27.269  29.889  1.00  0.00     0.049 A 
ATOM     47  C   UNL A   1      40.883  30.375  34.195  1.00  0.00     0.074 A 
ATOM     48  C   UNL A   1      43.914  26.641  30.055  1.00  0.00     0.029 A 
ATOM     49  N   UNL A   1      42.446  27.977  31.056  1.00  0.00    -0.354 N 
ATOM     50  N   UNL A   1      41.457  29.660  33.260  1.00  0.00    -0.248 NA
ATOM     51  C   UNL A   1      41.628  30.426  35.461  1.00  0.00     0.031 C 
ATOM     52  C   UNL A   1      44.393  26.946  31.331  1.00  0.00     0.029 A 
ATOM     53  C   UNL A   1      43.489  27.796  31.947  1.00  0.00     0.049 A 
ATOM     54  H   UNL A   1      41.648  28.529  31.224  1.00  0.00     0.167 HD
ATOM     55  C   UNL A   1      42.643  29.194  33.814  1.00  0.00     0.074 A 
ATOM     56  C   UNL A   1      42.714  29.725  35.159  1.00  0.00     0.031 C 
ATOM     57  C   UNL A   1      43.574  28.381  33.261  1.00  0.00     0.034 A 
BRANCH  44  58
ATOM     58  C   UNL A   1      42.270  26.426  27.550  1.00  0.00     0.023 A 
ATOM     59  C   UNL A   1      43.087  27.017  26.565  1.00  0.00     0.012 A 
ATOM     60  C   UNL A   1      41.967  25.051  27.460  1.00  0.00     0.148 A 
ATOM     61  C   UNL A   1      43.573  26.262  25.498  1.00  0.00     0.002 A 
ATOM     62  C   UNL A   1      42.497  24.294  26.421  1.00  0.00     0.091 A 
ATOM     63  F   UNL A   1      41.178  24.509  28.399  1.00  0.00    -0.205 F 
ATOM     64  C   UNL A   1      43.290  24.900  25.433  1.00  0.00     0.022 A 
BRANCH  62  65
ATOM     65  S   UNL A   1      42.268  22.516  26.297  1.00  0.00     0.127 S 
ATOM     66  O   UNL A   1      42.902  22.050  27.530  1.00  0.00    -0.237 OA
ATOM     67  O   UNL A   1      40.810  22.394  26.280  1.00  0.00    -0.237 OA
ATOM     68  O   UNL A   1      42.929  22.107  25.066  1.00  0.00    -0.744 OA
ENDBRANCH  62  65
ENDBRANCH  44  58
BRANCH  45  69
ATOM     69  C   UNL A   1      39.136  31.997  35.267  1.00  0.00     0.023 A 
ATOM     70  C   UNL A   1      38.275  31.455  36.241  1.00  0.00     0.012 A 
ATOM     71  C   UNL A   1      39.606  33.317  35.430  1.00  0.00     0.148 A 
ATOM     72  C   UNL A   1      37.886  32.212  37.348  1.00  0.00     0.002 A 
ATOM     73  C   UNL A   1      39.272  34.039  36.569  1.00  0.00     0.091 A 
ATOM     74  F   UNL A   1      40.405  33.827  34.483  1.00  0.00    -0.205 F 
ATOM     75  C   UNL A   1      38.398  33.495  37.523  1.00  0.00     0.022 A 
BRANCH  73  76
ATOM     76  S   UNL A   1      40.014  35.630  36.953  1.00  0.00     0.127 S 
ATOM     77  O   UNL A   1      39.379  35.958  38.226  1.00  0.00    -0.237 OA
ATOM     78  O   UNL A   1      41.434  35.288  37.042  1.00  0.00    -0.237 OA
ATOM     79  O   UNL A   1      39.678  36.501  35.834  1.00  0.00    -0.744 OA
ENDBRANCH  73  76
ENDBRANCH  45  69
BRANCH  57  80
ATOM     80  C   UNL A   1      44.785  28.025  34.082  1.00  0.00     0.023 A 
ATOM     81  C   UNL A   1      45.892  28.893  34.102  1.00  0.00     0.012 A 
ATOM     82  C   UNL A   1      44.752  26.915  34.950  1.00  0.00     0.148 A 
ATOM     83  C   UNL A   1      46.955  28.660  34.973  1.00  0.00     0.002 A 
ATOM     84  C   UNL A   1      45.789  26.720  35.853  1.00  0.00     0.091 A 
ATOM     85  F   UNL A   1      43.691  26.096  34.900  1.00  0.00    -0.205 F 
ATOM     86  C   UNL A   1      46.896  27.586  35.860  1.00  0.00     0.022 A 
BRANCH  84  87
ATOM     87  S   UNL A   1      45.751  25.437  37.110  1.00  0.00     0.127 S 
ATOM     88  O   UNL A   1      47.021  25.660  37.801  1.00  0.00    -0.237 OA
ATOM     89  O   UNL A   1      44.563  25.800  37.882  1.00  0.00    -0.237 OA
ATOM     90  O   UNL A   1      45.651  24.172  36.395  1.00  0.00    -0.744 OA
ENDBRANCH  84  87
ENDBRANCH  57  80
ENDBRANCH  31  32
ENDBRANCH  24  26
ENDBRANCH  23  24
ENDBRANCH   1  23
TORSDOF 15
ENDMDL
MODEL 2
REMARK VINA RESULT:     -12.3      4.787      9.818
REMARK SMILES Cc1cc(Cl)c(C)c2c1O[C@H](C(F)(F)F)C(C(=O)OCCOC(=O)c1ccc(-c3c4nc(c(-c5cccc(S(=O)(=O)[O-])c5F)c5ccc([nH]5)c(-c5cccc(S(=O)(=O)[O-])c5F)c5nc(c(-c6cccc(S(=O)(=O)[O-])c6F)c6ccc3[nH]6)C=C5)C=C4)cc1)=C2
REMARK SMILES IDX 21 1 20 2 19 3 17 4 18 5 16 6 1 7 2 8 3 9 9 10 4 11 8 12
REMARK SMILES IDX 10 13 5 14 6 15 88 16 11 17 7 18 12 19 13 20 14 21 15 22
REMARK SMILES IDX 22 23 23 24 24 25 25 26 26 27 87 28 27 29 86 30 28 31 29 32
REMARK SMILES IDX 30 33 80 34 31 35 85 36 79 37 81 38 32 39 84 40 78 41 77 42
REMARK SMILES IDX 33 44 65 45 45 46 64 47 46 48 49 49 63 50 82 51 47 52 48 53
REMARK SMILES IDX 62 55 83 56 50 57 34 58 35 59 43 60 36 61 38 62 44 63 37 64
REMARK SMILES IDX 39 65 40 66 41 67 42 68 66 69 67 70 75 71 68 72 70 73 76 74
REMARK SMILES IDX 69 75 71 76 72 77 73 78 74 79 51 80 52 81 60 82 53 83 55 84
REMARK SMILES IDX 61 85 54 86 56 87 57 88 58 89 59 90
REMARK H PARENT 81 43 49 54
REMARK Flexibility Score: inf
ROOT
ATOM      1  C   UNL A   1      36.221  21.087  24.639  1.00  0.00     0.275 C 
ENDROOT
BRANCH   1   2
ATOM      2  C   UNL A   1      34.810  21.673  24.599  1.00  0.00     0.275 C 
BRANCH   2   3
ATOM      3  O   UNL A   1      34.840  23.116  24.645  1.00  0.00    -0.459 OA
BRANCH   3   4
ATOM      4  C   UNL A   1      34.098  23.686  25.621  1.00  0.00     0.338 C 
ATOM      5  O   UNL A   1      33.994  23.303  26.776  1.00  0.00    -0.246 OA
BRANCH   4   6
ATOM      6  C   UNL A   1      33.388  24.875  25.109  1.00  0.00     0.087 C 
ATOM      7  C   UNL A   1      30.058  27.932  22.735  1.00  0.00     0.048 C 
ATOM      8  C   UNL A   1      30.986  28.071  23.906  1.00  0.00    -0.007 A 
ATOM      9  C   UNL A   1      31.022  29.273  24.620  1.00  0.00     0.028 A 
ATOM     10  C   UNL A   1      31.845  27.031  24.282  1.00  0.00     0.131 A 
ATOM     11  C   UNL A   1      31.892  29.443  25.700  1.00  0.00     0.045 A 
ATOM     12  C   UNL A   1      32.708  27.182  25.381  1.00  0.00     0.022 A 
ATOM     13  O   UNL A   1      31.802  25.903  23.504  1.00  0.00    -0.475 OA
ATOM     14  Cl  UNL A   1      31.836  30.977  26.499  1.00  0.00    -0.084 Cl
ATOM     15  C   UNL A   1      32.752  28.407  26.102  1.00  0.00    -0.021 A 
ATOM     16  C   UNL A   1      33.521  26.033  25.765  1.00  0.00     0.027 C 
ATOM     17  C   UNL A   1      32.439  24.688  23.970  1.00  0.00     0.316 C 
ATOM     18  C   UNL A   1      33.707  28.585  27.258  1.00  0.00     0.047 C 
BRANCH  17  19
ATOM     19  C   UNL A   1      31.357  23.649  24.304  1.00  0.00     0.430 C 
ATOM     20  F   UNL A   1      31.839  22.386  24.192  1.00  0.00    -0.167 F 
ATOM     21  F   UNL A   1      30.918  23.776  25.579  1.00  0.00    -0.167 F 
ATOM     22  F   UNL A   1      30.281  23.743  23.492  1.00  0.00    -0.167 F 
ENDBRANCH  17  19
ENDBRANCH   4   6
ENDBRANCH   3   4
ENDBRANCH   2   3
ENDBRANCH   1   2
BRANCH   1  23
ATOM     23  O   UNL A   1      36.883  21.454  25.860  1.00  0.00    -0.458 OA
BRANCH  23  24
ATOM     24  C   UNL A   1      38.226  21.300  25.859  1.00  0.00     0.338 C 
ATOM     25  O   UNL A   1      38.867  20.384  25.373  1.00  0.00    -0.246 OA
BRANCH  24  26
ATOM     26  C   UNL A   1      38.857  22.486  26.455  1.00  0.00     0.060 A 
ATOM     27  C   UNL A   1      38.323  23.729  26.149  1.00  0.00     0.016 A 
ATOM     28  C   UNL A   1      40.050  22.395  27.167  1.00  0.00     0.016 A 
ATOM     29  C   UNL A   1      39.049  24.882  26.411  1.00  0.00     0.010 A 
ATOM     30  C   UNL A   1      40.698  23.570  27.572  1.00  0.00     0.010 A 
ATOM     31  C   UNL A   1      40.235  24.832  27.157  1.00  0.00    -0.014 A 
BRANCH  31  32
ATOM     32  C   UNL A   1      40.953  26.102  27.481  1.00  0.00     0.031 A 
ATOM     33  C   UNL A   1      40.315  27.155  28.356  1.00  0.00     0.074 A 
ATOM     34  C   UNL A   1      42.208  26.297  27.017  1.00  0.00     0.049 A 
ATOM     35  N   UNL A   1      40.761  28.346  28.666  1.00  0.00    -0.248 NA
ATOM     36  C   UNL A   1      39.002  26.843  28.947  1.00  0.00     0.031 C 
ATOM     37  C   UNL A   1      42.948  25.361  26.165  1.00  0.00     0.029 A 
ATOM     38  N   UNL A   1      43.099  27.327  27.208  1.00  0.00    -0.354 N 
ATOM     39  C   UNL A   1      39.761  28.946  29.424  1.00  0.00     0.074 A 
ATOM     40  C   UNL A   1      38.679  27.993  29.524  1.00  0.00     0.031 C 
ATOM     41  C   UNL A   1      44.194  25.812  25.979  1.00  0.00     0.029 A 
ATOM     42  C   UNL A   1      44.315  27.127  26.592  1.00  0.00     0.049 A 
ATOM     43  H   UNL A   1      42.886  28.131  27.735  1.00  0.00     0.167 HD
ATOM     44  C   UNL A   1      39.752  30.174  29.998  1.00  0.00     0.034 A 
ATOM     45  C   UNL A   1      45.401  27.920  26.494  1.00  0.00     0.034 A 
ATOM     46  C   UNL A   1      40.864  31.085  29.959  1.00  0.00     0.049 A 
ATOM     47  C   UNL A   1      45.362  29.277  27.137  1.00  0.00     0.074 A 
ATOM     48  C   UNL A   1      40.963  32.339  30.536  1.00  0.00     0.029 A 
ATOM     49  N   UNL A   1      42.073  30.839  29.327  1.00  0.00    -0.354 N 
ATOM     50  N   UNL A   1      44.415  29.810  27.869  1.00  0.00    -0.248 NA
ATOM     51  C   UNL A   1      46.535  30.142  26.945  1.00  0.00     0.031 C 
ATOM     52  C   UNL A   1      42.221  32.862  30.231  1.00  0.00     0.029 A 
ATOM     53  C   UNL A   1      42.921  31.920  29.495  1.00  0.00     0.049 A 
ATOM     54  H   UNL A   1      42.296  30.017  28.833  1.00  0.00     0.167 HD
ATOM     55  C   UNL A   1      44.885  31.062  28.244  1.00  0.00     0.074 A 
ATOM     56  C   UNL A   1      46.210  31.200  27.677  1.00  0.00     0.031 C 
ATOM     57  C   UNL A   1      44.261  32.017  28.975  1.00  0.00     0.034 A 
BRANCH  44  58
ATOM     58  C   UNL A   1      38.519  30.605  30.755  1.00  0.00     0.023 A 
ATOM     59  C   UNL A   1      38.440  30.391  32.146  1.00  0.00     0.012 A 
ATOM     60  C   UNL A   1      37.488  31.317  30.108  1.00  0.00     0.148 A 
ATOM     61  C   UNL A   1      37.345  30.853  32.875  1.00  0.00     0.002 A 
ATOM     62  C   UNL A   1      36.424  31.819  30.849  1.00  0.00     0.091 A 
ATOM     63  F   UNL A   1      37.574  31.501  28.782  1.00  0.00    -0.205 F 
ATOM     64  C   UNL A   1      36.345  31.578  32.230  1.00  0.00     0.022 A 
BRANCH  62  65
ATOM     65  S   UNL A   1      35.133  32.842  30.131  1.00  0.00     0.127 S 
ATOM     66  O   UNL A   1      34.563  31.939  29.131  1.00  0.00    -0.237 OA
ATOM     67  O   UNL A   1      34.268  33.098  31.282  1.00  0.00    -0.237 OA
ATOM     68  O   UNL A   1      35.800  34.019  29.595  1.00  0.00    -0.744 OA
ENDBRANCH  62  65
ENDBRANCH  44  58
BRANCH  45  69
ATOM     69  C   UNL A   1      46.617  27.430  25.779  1.00  0.00     0.023 A 
ATOM     70  C   UNL A   1      46.793  27.745  24.418  1.00  0.00     0.012 A 
ATOM     71  C   UNL A   1      47.633  26.721  26.452  1.00  0.00     0.148 A 
ATOM     72  C   UNL A   1      47.951  27.357  23.741  1.00  0.00     0.002 A 
ATOM     73  C   UNL A   1      48.813  26.400  25.792  1.00  0.00     0.091 A 
ATOM     74  F   UNL A   1      47.440  26.407  27.741  1.00  0.00    -0.205 F 
ATOM     75  C   UNL A   1      48.968  26.702  24.431  1.00  0.00     0.022 A 
BRANCH  73  76
ATOM     76  S   UNL A   1      50.235  25.704  26.644  1.00  0.00     0.127 S 
ATOM     77  O   UNL A   1      51.201  25.574  25.556  1.00  0.00    -0.237 OA
ATOM     78  O   UNL A   1      50.542  26.749  27.621  1.00  0.00    -0.237 OA
ATOM     79  O   UNL A   1      49.769  24.454  27.230  1.00  0.00    -0.744 OA
ENDBRANCH  73  76
ENDBRANCH  45  69
BRANCH  57  80
ATOM     80  C   UNL A   1      45.000  33.300  29.247  1.00  0.00     0.023 A 
ATOM     81  C   UNL A   1      45.911  33.365  30.319  1.00  0.00     0.012 A 
ATOM     82  C   UNL A   1      44.907  34.379  28.345  1.00  0.00     0.148 A 
ATOM     83  C   UNL A   1      46.716  34.489  30.492  1.00  0.00     0.002 A 
ATOM     84  C   UNL A   1      45.751  35.472  28.492  1.00  0.00     0.091 A 
ATOM     85  F   UNL A   1      44.022  34.296  27.341  1.00  0.00    -0.205 F 
ATOM     86  C   UNL A   1      46.650  35.533  29.570  1.00  0.00     0.022 A 
BRANCH  84  87
ATOM     87  S   UNL A   1      45.823  36.809  27.295  1.00  0.00     0.127 S 
ATOM     88  O   UNL A   1      46.480  37.863  28.067  1.00  0.00    -0.237 OA
ATOM     89  O   UNL A   1      46.643  36.226  26.234  1.00  0.00    -0.237 OA
ATOM     90  O   UNL A   1      44.444  37.089  26.917  1.00  0.00    -0.744 OA
ENDBRANCH  84  87
ENDBRANCH  57  80
ENDBRANCH  31  32
ENDBRANCH  24  26
ENDBRANCH  23  24
ENDBRANCH   1  23
TORSDOF 15
ENDMDL
MODEL 3
REMARK VINA RESULT:     -12.2      5.199      7.437
REMARK SMILES Cc1cc(Cl)c(C)c2c1O[C@H](C(F)(F)F)C(C(=O)OCCOC(=O)c1ccc(-c3c4nc(c(-c5cccc(S(=O)(=O)[O-])c5F)c5ccc([nH]5)c(-c5cccc(S(=O)(=O)[O-])c5F)c5nc(c(-c6cccc(S(=O)(=O)[O-])c6F)c6ccc3[nH]6)C=C5)C=C4)cc1)=C2
REMARK SMILES IDX 21 1 20 2 19 3 17 4 18 5 16 6 1 7 2 8 3 9 9 10 4 11 8 12
REMARK SMILES IDX 10 13 5 14 6 15 88 16 11 17 7 18 12 19 13 20 14 21 15 22
REMARK SMILES IDX 22 23 23 24 24 25 25 26 26 27 87 28 27 29 86 30 28 31 29 32
REMARK SMILES IDX 30 33 80 34 31 35 85 36 79 37 81 38 32 39 84 40 78 41 77 42
REMARK SMILES IDX 33 44 65 45 45 46 64 47 46 48 49 49 63 50 82 51 47 52 48 53
REMARK SMILES IDX 62 55 83 56 50 57 34 58 35 59 43 60 36 61 38 62 44 63 37 64
REMARK SMILES IDX 39 65 40 66 41 67 42 68 66 69 67 70 75 71 68 72 70 73 76 74
REMARK SMILES IDX 69 75 71 76 72 77 73 78 74 79 51 80 52 81 60 82 53 83 55 84
REMARK SMILES IDX 61 85 54 86 56 87 57 88 58 89 59 90
REMARK H PARENT 81 43 49 54
REMARK Flexibility Score: inf
ROOT
ATOM      1  C   UNL A   1      36.603  20.339  25.021  1.00  0.00     0.275 C 
ENDROOT
BRANCH   1   2
ATOM      2  C   UNL A   1      35.190  20.916  25.091  1.00  0.00     0.275 C 
BRANCH   2   3
ATOM      3  O   UNL A   1      35.207  22.357  24.990  1.00  0.00    -0.459 OA
BRANCH   3   4
ATOM      4  C   UNL A   1      34.646  23.023  26.026  1.00  0.00     0.338 C 
ATOM      5  O   UNL A   1      34.871  22.846  27.214  1.00  0.00    -0.246 OA
BRANCH   4   6
ATOM      6  C   UNL A   1      33.683  24.028  25.538  1.00  0.00     0.087 C 
ATOM      7  C   UNL A   1      29.432  26.326  23.888  1.00  0.00     0.048 C 
ATOM      8  C   UNL A   1      30.693  26.776  24.565  1.00  0.00    -0.007 A 
ATOM      9  C   UNL A   1      30.854  28.124  24.901  1.00  0.00     0.028 A 
ATOM     10  C   UNL A   1      31.732  25.878  24.839  1.00  0.00     0.131 A 
ATOM     11  C   UNL A   1      32.026  28.579  25.510  1.00  0.00     0.045 A 
ATOM     12  C   UNL A   1      32.907  26.321  25.472  1.00  0.00     0.022 A 
ATOM     13  O   UNL A   1      31.535  24.584  24.430  1.00  0.00    -0.475 OA
ATOM     14  Cl  UNL A   1      32.096  30.269  25.875  1.00  0.00    -0.084 Cl
ATOM     15  C   UNL A   1      33.075  27.693  25.806  1.00  0.00    -0.021 A 
ATOM     16  C   UNL A   1      33.918  25.320  25.797  1.00  0.00     0.027 C 
ATOM     17  C   UNL A   1      32.418  23.540  24.910  1.00  0.00     0.316 C 
ATOM     18  C   UNL A   1      34.353  28.177  26.450  1.00  0.00     0.047 C 
BRANCH  17  19
ATOM     19  C   UNL A   1      31.637  22.618  25.860  1.00  0.00     0.430 C 
ATOM     20  F   UNL A   1      32.053  21.332  25.746  1.00  0.00    -0.167 F 
ATOM     21  F   UNL A   1      31.822  22.964  27.156  1.00  0.00    -0.167 F 
ATOM     22  F   UNL A   1      30.307  22.635  25.620  1.00  0.00    -0.167 F 
ENDBRANCH  17  19
ENDBRANCH   4   6
ENDBRANCH   3   4
ENDBRANCH   2   3
ENDBRANCH   1   2
BRANCH   1  23
ATOM     23  O   UNL A   1      37.580  21.387  25.130  1.00  0.00    -0.458 OA
BRANCH  23  24
ATOM     24  C   UNL A   1      38.718  21.053  25.779  1.00  0.00     0.338 C 
ATOM     25  O   UNL A   1      39.277  19.970  25.784  1.00  0.00    -0.246 OA
BRANCH  24  26
ATOM     26  C   UNL A   1      39.282  22.244  26.428  1.00  0.00     0.060 A 
ATOM     27  C   UNL A   1      38.674  23.467  26.183  1.00  0.00     0.016 A 
ATOM     28  C   UNL A   1      40.482  22.191  27.131  1.00  0.00     0.016 A 
ATOM     29  C   UNL A   1      39.333  24.647  26.496  1.00  0.00     0.010 A 
ATOM     30  C   UNL A   1      41.062  23.382  27.589  1.00  0.00     0.010 A 
ATOM     31  C   UNL A   1      40.524  24.632  27.235  1.00  0.00    -0.014 A 
BRANCH  31  32
ATOM     32  C   UNL A   1      41.168  25.926  27.616  1.00  0.00     0.031 A 
ATOM     33  C   UNL A   1      42.570  26.260  27.164  1.00  0.00     0.074 A 
ATOM     34  C   UNL A   1      40.472  26.830  28.342  1.00  0.00     0.049 A 
ATOM     35  N   UNL A   1      43.308  27.295  27.473  1.00  0.00    -0.248 NA
ATOM     36  C   UNL A   1      43.239  25.304  26.265  1.00  0.00     0.031 C 
ATOM     37  C   UNL A   1      39.106  26.642  28.841  1.00  0.00     0.029 A 
ATOM     38  N   UNL A   1      40.797  28.095  28.771  1.00  0.00    -0.354 N 
ATOM     39  C   UNL A   1      44.542  27.083  26.869  1.00  0.00     0.074 A 
ATOM     40  C   UNL A   1      44.460  25.815  26.178  1.00  0.00     0.031 C 
ATOM     41  C   UNL A   1      38.684  27.768  29.427  1.00  0.00     0.029 A 
ATOM     42  C   UNL A   1      39.782  28.724  29.459  1.00  0.00     0.049 A 
ATOM     43  H   UNL A   1      41.673  28.512  28.603  1.00  0.00     0.167 HD
ATOM     44  C   UNL A   1      45.639  27.879  26.875  1.00  0.00     0.034 A 
ATOM     45  C   UNL A   1      39.738  29.919  30.081  1.00  0.00     0.034 A 
ATOM     46  C   UNL A   1      45.687  29.173  27.499  1.00  0.00     0.049 A 
ATOM     47  C   UNL A   1      40.970  30.779  30.075  1.00  0.00     0.074 A 
ATOM     48  C   UNL A   1      46.741  30.068  27.533  1.00  0.00     0.029 A 
ATOM     49  N   UNL A   1      44.635  29.768  28.181  1.00  0.00    -0.354 N 
ATOM     50  N   UNL A   1      42.115  30.566  29.475  1.00  0.00    -0.248 NA
ATOM     51  C   UNL A   1      40.908  32.041  30.827  1.00  0.00     0.031 C 
ATOM     52  C   UNL A   1      46.338  31.191  28.258  1.00  0.00     0.029 A 
ATOM     53  C   UNL A   1      45.019  31.013  28.644  1.00  0.00     0.049 A 
ATOM     54  H   UNL A   1      43.748  29.364  28.314  1.00  0.00     0.167 HD
ATOM     55  C   UNL A   1      42.902  31.675  29.756  1.00  0.00     0.074 A 
ATOM     56  C   UNL A   1      42.097  32.568  30.564  1.00  0.00     0.031 C 
ATOM     57  C   UNL A   1      44.185  31.917  29.395  1.00  0.00     0.034 A 
BRANCH  44  58
ATOM     58  C   UNL A   1      46.878  27.402  26.156  1.00  0.00     0.023 A 
ATOM     59  C   UNL A   1      47.742  26.481  26.782  1.00  0.00     0.012 A 
ATOM     60  C   UNL A   1      47.129  27.784  24.821  1.00  0.00     0.148 A 
ATOM     61  C   UNL A   1      48.847  25.968  26.103  1.00  0.00     0.002 A 
ATOM     62  C   UNL A   1      48.204  27.230  24.135  1.00  0.00     0.091 A 
ATOM     63  F   UNL A   1      46.304  28.670  24.245  1.00  0.00    -0.205 F 
ATOM     64  C   UNL A   1      49.070  26.332  24.778  1.00  0.00     0.022 A 
BRANCH  62  65
ATOM     65  S   UNL A   1      48.525  27.562  22.397  1.00  0.00     0.127 S 
ATOM     66  O   UNL A   1      49.777  28.316  22.468  1.00  0.00    -0.237 OA
ATOM     67  O   UNL A   1      48.658  26.213  21.847  1.00  0.00    -0.237 OA
ATOM     68  O   UNL A   1      47.376  28.311  21.909  1.00  0.00    -0.744 OA
ENDBRANCH  62  65
ENDBRANCH  44  58
BRANCH  45  69
ATOM     69  C   UNL A   1      38.474  30.371  30.735  1.00  0.00     0.023 A 
ATOM     70  C   UNL A   1      38.295  30.160  32.116  1.00  0.00     0.012 A 
ATOM     71  C   UNL A   1      37.483  31.073  30.017  1.00  0.00     0.148 A 
ATOM     72  C   UNL A   1      37.152  30.631  32.766  1.00  0.00     0.002 A 
ATOM     73  C   UNL A   1      36.383  31.599  30.683  1.00  0.00     0.091 A 
ATOM     74  F   UNL A   1      37.656  31.244  28.699  1.00  0.00    -0.205 F 
ATOM     75  C   UNL A   1      36.207  31.366  32.056  1.00  0.00     0.022 A 
BRANCH  73  76
ATOM     76  S   UNL A   1      35.204  32.694  29.881  1.00  0.00     0.127 S 
ATOM     77  O   UNL A   1      34.612  31.813  28.878  1.00  0.00    -0.237 OA
ATOM     78  O   UNL A   1      34.319  33.049  30.991  1.00  0.00    -0.237 OA
ATOM     79  O   UNL A   1      35.990  33.806  29.363  1.00  0.00    -0.744 OA
ENDBRANCH  73  76
ENDBRANCH  45  69
BRANCH  57  80
ATOM     80  C   UNL A   1      44.814  33.214  29.830  1.00  0.00     0.023 A 
ATOM     81  C   UNL A   1      45.609  33.247  30.991  1.00  0.00     0.012 A 
ATOM     82  C   UNL A   1      44.744  34.351  29.000  1.00  0.00     0.148 A 
ATOM     83  C   UNL A   1      46.324  34.396  31.324  1.00  0.00     0.002 A 
ATOM     84  C   UNL A   1      45.501  35.473  29.310  1.00  0.00     0.091 A 
ATOM     85  F   UNL A   1      43.968  34.297  27.908  1.00  0.00    -0.205 F 
ATOM     86  C   UNL A   1      46.285  35.501  30.476  1.00  0.00     0.022 A 
BRANCH  84  87
ATOM     87  S   UNL A   1      45.608  36.899  28.222  1.00  0.00     0.127 S 
ATOM     88  O   UNL A   1      44.233  37.399  28.253  1.00  0.00    -0.237 OA
ATOM     89  O   UNL A   1      46.579  37.742  28.917  1.00  0.00    -0.237 OA
ATOM     90  O   UNL A   1      46.051  36.393  26.931  1.00  0.00    -0.744 OA
ENDBRANCH  84  87
ENDBRANCH  57  80
ENDBRANCH  31  32
ENDBRANCH  24  26
ENDBRANCH  23  24
ENDBRANCH   1  23
TORSDOF 15
ENDMDL
