MODEL 1
REMARK VINA RESULT:     -12.6      0.000      0.000
REMARK SMILES CC1(C)C[C@@H]([C@H](CCNC(=O)c2ccccc2C(=O)OCCOC(=O)c2ccc(-c3c4nc(c(-c5cccc(S(=O)(=O)[O-])c5F)c5ccc([nH]5)c(-c5cccc(S(=O)(=O)[O-])c5F)c5nc(c(-c6cccc(S(=O)(=O)[O-])c6F)c6ccc3[nH]6)C=C5)C=C4)cc2)c2ccccc2)CCO1
REMARK SMILES IDX 21 1 20 2 18 3 19 4 17 5 12 6 13 7 14 8 16 9 15 10 10 11
REMARK SMILES IDX 9 12 11 14 8 15 7 16 6 17 5 18 1 19 2 20 3 21 4 22 97 23
REMARK SMILES IDX 96 24 95 25 89 26 90 27 94 28 91 29 93 30 92 31 22 32 23 33
REMARK SMILES IDX 24 34 25 35 26 36 27 37 88 38 28 39 87 40 29 41 30 42 31 43
REMARK SMILES IDX 81 44 32 45 86 46 80 47 82 48 33 49 85 50 79 51 78 52 34 54
REMARK SMILES IDX 66 55 46 56 65 57 47 58 50 59 64 60 83 61 48 62 49 63 63 65
REMARK SMILES IDX 84 66 51 67 35 68 36 69 44 70 37 71 39 72 45 73 38 74 40 75
REMARK SMILES IDX 41 76 42 77 43 78 67 79 68 80 76 81 69 82 71 83 77 84 70 85
REMARK SMILES IDX 72 86 73 87 74 88 75 89 52 90 53 91 61 92 54 93 56 94 62 95
REMARK SMILES IDX 55 96 57 97 58 98 59 99 60 100
REMARK H PARENT 9 13 82 53 50 64
REMARK Flexibility Score: inf
ROOT
ATOM      1  C   UNL A   1      35.809  20.672  25.000  1.00  0.00     0.275 C 
ENDROOT
BRANCH   1   2
ATOM      2  O   UNL A   1      35.489  21.922  25.632  1.00  0.00    -0.458 OA
BRANCH   2   3
ATOM      3  C   UNL A   1      34.874  22.822  24.832  1.00  0.00     0.339 C 
ATOM      4  O   UNL A   1      35.364  23.439  23.895  1.00  0.00    -0.246 OA
BRANCH   3   5
ATOM      5  C   UNL A   1      33.495  23.057  25.255  1.00  0.00     0.072 A 
ATOM      6  C   UNL A   1      32.413  22.736  24.433  1.00  0.00     0.054 A 
ATOM      7  C   UNL A   1      31.115  23.016  24.896  1.00  0.00     0.015 A 
ATOM      8  C   UNL A   1      30.903  23.539  26.178  1.00  0.00     0.001 A 
ATOM      9  C   UNL A   1      33.277  23.539  26.558  1.00  0.00     0.016 A 
ATOM     10  C   UNL A   1      31.985  23.786  27.014  1.00  0.00     0.001 A 
BRANCH   6  11
ATOM     11  C   UNL A   1      32.525  22.157  23.069  1.00  0.00     0.252 C 
ATOM     12  N   UNL A   1      32.840  22.905  21.957  1.00  0.00    -0.352 N 
ATOM     13  H   UNL A   1      32.960  22.384  21.130  1.00  0.00     0.163 HD
ATOM     14  O   UNL A   1      32.401  20.939  22.940  1.00  0.00    -0.269 OA
BRANCH  12  15
ATOM     15  C   UNL A   1      33.024  24.339  21.803  1.00  0.00     0.117 C 
BRANCH  15  16
ATOM     16  C   UNL A   1      31.798  25.196  22.069  1.00  0.00     0.030 C 
BRANCH  16  17
ATOM     17  C   UNL A   1      31.763  26.211  23.279  1.00  0.00     0.024 C 
BRANCH  17  18
ATOM     18  C   UNL A   1      33.158  26.825  23.763  1.00  0.00     0.002 C 
ATOM     19  C   UNL A   1      31.342  27.242  26.551  1.00  0.00     0.042 C 
ATOM     20  C   UNL A   1      32.662  27.876  26.079  1.00  0.00     0.063 C 
ATOM     21  C   UNL A   1      33.374  28.411  27.329  1.00  0.00     0.042 C 
ATOM     22  C   UNL A   1      33.468  26.828  25.290  1.00  0.00     0.039 C 
ATOM     23  O   UNL A   1      32.388  29.029  25.273  1.00  0.00    -0.376 OA
ATOM     24  C   UNL A   1      33.384  29.337  24.301  1.00  0.00     0.161 C 
ATOM     25  C   UNL A   1      33.530  28.222  23.257  1.00  0.00     0.033 C 
ENDBRANCH  17  18
BRANCH  17  26
ATOM     26  C   UNL A   1      30.489  27.075  23.119  1.00  0.00    -0.045 A 
ATOM     27  C   UNL A   1      30.418  28.276  22.413  1.00  0.00     0.004 A 
ATOM     28  C   UNL A   1      29.283  26.644  23.706  1.00  0.00     0.004 A 
ATOM     29  C   UNL A   1      29.299  29.113  22.453  1.00  0.00     0.000 A 
ATOM     30  C   UNL A   1      28.119  27.427  23.662  1.00  0.00     0.000 A 
ATOM     31  C   UNL A   1      28.144  28.689  23.082  1.00  0.00     0.000 A 
ENDBRANCH  17  26
ENDBRANCH  16  17
ENDBRANCH  15  16
ENDBRANCH  12  15
ENDBRANCH   6  11
ENDBRANCH   3   5
ENDBRANCH   2   3
ENDBRANCH   1   2
BRANCH   1  32
ATOM     32  C   UNL A   1      37.291  20.371  24.830  1.00  0.00     0.275 C 
BRANCH  32  33
ATOM     33  O   UNL A   1      38.057  21.535  25.151  1.00  0.00    -0.458 OA
BRANCH  33  34
ATOM     34  C   UNL A   1      39.166  21.245  25.861  1.00  0.00     0.338 C 
ATOM     35  O   UNL A   1      39.922  20.300  25.710  1.00  0.00    -0.246 OA
BRANCH  34  36
ATOM     36  C   UNL A   1      39.475  22.346  26.767  1.00  0.00     0.060 A 
ATOM     37  C   UNL A   1      38.966  23.592  26.420  1.00  0.00     0.016 A 
ATOM     38  C   UNL A   1      40.463  22.217  27.731  1.00  0.00     0.016 A 
ATOM     39  C   UNL A   1      39.551  24.742  26.901  1.00  0.00     0.010 A 
ATOM     40  C   UNL A   1      40.992  23.375  28.295  1.00  0.00     0.010 A 
ATOM     41  C   UNL A   1      40.591  24.640  27.821  1.00  0.00    -0.014 A 
BRANCH  41  42
ATOM     42  C   UNL A   1      41.353  25.853  28.177  1.00  0.00     0.031 A 
ATOM     43  C   UNL A   1      40.661  26.937  28.949  1.00  0.00     0.074 A 
ATOM     44  C   UNL A   1      42.646  25.956  27.826  1.00  0.00     0.049 A 
ATOM     45  N   UNL A   1      41.040  28.165  29.165  1.00  0.00    -0.248 NA
ATOM     46  C   UNL A   1      39.348  26.602  29.532  1.00  0.00     0.031 C 
ATOM     47  C   UNL A   1      43.421  24.925  27.133  1.00  0.00     0.029 A 
ATOM     48  N   UNL A   1      43.528  26.993  27.979  1.00  0.00    -0.354 N 
ATOM     49  C   UNL A   1      39.973  28.779  29.810  1.00  0.00     0.074 A 
ATOM     50  C   UNL A   1      38.940  27.782  29.975  1.00  0.00     0.031 C 
ATOM     51  C   UNL A   1      44.659  25.384  26.903  1.00  0.00     0.029 A 
ATOM     52  C   UNL A   1      44.726  26.771  27.343  1.00  0.00     0.049 A 
ATOM     53  H   UNL A   1      43.325  27.810  28.489  1.00  0.00     0.167 HD
ATOM     54  C   UNL A   1      39.872  30.067  30.211  1.00  0.00     0.034 A 
ATOM     55  C   UNL A   1      45.734  27.619  27.076  1.00  0.00     0.034 A 
ATOM     56  C   UNL A   1      40.948  31.012  30.083  1.00  0.00     0.049 A 
ATOM     57  C   UNL A   1      45.605  29.038  27.543  1.00  0.00     0.074 A 
ATOM     58  C   UNL A   1      40.995  32.329  30.500  1.00  0.00     0.029 A 
ATOM     59  N   UNL A   1      42.173  30.735  29.490  1.00  0.00    -0.354 N 
ATOM     60  N   UNL A   1      44.607  29.609  28.176  1.00  0.00    -0.248 NA
ATOM     61  C   UNL A   1      46.744  29.922  27.282  1.00  0.00     0.031 C 
ATOM     62  C   UNL A   1      42.236  32.857  30.126  1.00  0.00     0.029 A 
ATOM     63  C   UNL A   1      42.981  31.856  29.518  1.00  0.00     0.049 A 
ATOM     64  H   UNL A   1      42.428  29.865  29.106  1.00  0.00     0.167 HD
ATOM     65  C   UNL A   1      45.006  30.917  28.413  1.00  0.00     0.074 A 
ATOM     66  C   UNL A   1      46.349  31.040  27.878  1.00  0.00     0.031 C 
ATOM     67  C   UNL A   1      44.326  31.930  29.006  1.00  0.00     0.034 A 
BRANCH  54  68
ATOM     68  C   UNL A   1      38.559  30.524  30.791  1.00  0.00     0.023 A 
ATOM     69  C   UNL A   1      38.272  30.340  32.159  1.00  0.00     0.012 A 
ATOM     70  C   UNL A   1      37.606  31.161  29.970  1.00  0.00     0.148 A 
ATOM     71  C   UNL A   1      37.045  30.740  32.689  1.00  0.00     0.002 A 
ATOM     72  C   UNL A   1      36.408  31.605  30.515  1.00  0.00     0.091 A 
ATOM     73  F   UNL A   1      37.880  31.304  28.665  1.00  0.00    -0.205 F 
ATOM     74  C   UNL A   1      36.118  31.382  31.870  1.00  0.00     0.022 A 
BRANCH  72  75
ATOM     75  S   UNL A   1      35.187  32.515  29.561  1.00  0.00     0.127 S 
ATOM     76  O   UNL A   1      34.718  31.492  28.627  1.00  0.00    -0.237 OA
ATOM     77  O   UNL A   1      34.216  32.893  30.589  1.00  0.00    -0.237 OA
ATOM     78  O   UNL A   1      35.899  33.632  28.957  1.00  0.00    -0.744 OA
ENDBRANCH  72  75
ENDBRANCH  54  68
BRANCH  55  79
ATOM     79  C   UNL A   1      46.919  27.137  26.314  1.00  0.00     0.023 A 
ATOM     80  C   UNL A   1      47.012  27.396  24.936  1.00  0.00     0.012 A 
ATOM     81  C   UNL A   1      47.987  26.490  26.968  1.00  0.00     0.148 A 
ATOM     82  C   UNL A   1      48.139  27.000  24.216  1.00  0.00     0.002 A 
ATOM     83  C   UNL A   1      49.133  26.155  26.259  1.00  0.00     0.091 A 
ATOM     84  F   UNL A   1      47.874  26.245  28.282  1.00  0.00    -0.205 F 
ATOM     85  C   UNL A   1      49.204  26.394  24.878  1.00  0.00     0.022 A 
BRANCH  83  86
ATOM     86  S   UNL A   1      50.608  25.511  27.057  1.00  0.00     0.127 S 
ATOM     87  O   UNL A   1      50.942  26.590  27.983  1.00  0.00    -0.237 OA
ATOM     88  O   UNL A   1      50.100  24.292  27.687  1.00  0.00    -0.237 OA
ATOM     89  O   UNL A   1      51.567  25.278  25.986  1.00  0.00    -0.744 OA
ENDBRANCH  83  86
ENDBRANCH  55  79
BRANCH  67  90
ATOM     90  C   UNL A   1      45.050  33.240  29.146  1.00  0.00     0.023 A 
ATOM     91  C   UNL A   1      45.743  33.543  30.334  1.00  0.00     0.012 A 
ATOM     92  C   UNL A   1      45.077  34.152  28.073  1.00  0.00     0.148 A 
ATOM     93  C   UNL A   1      46.412  34.758  30.470  1.00  0.00     0.002 A 
ATOM     94  C   UNL A   1      45.794  35.334  28.194  1.00  0.00     0.091 A 
ATOM     95  F   UNL A   1      44.394  33.851  26.959  1.00  0.00    -0.205 F 
ATOM     96  C   UNL A   1      46.447  35.646  29.397  1.00  0.00     0.022 A 
BRANCH  94  97
ATOM     97  S   UNL A   1      45.980  36.483  26.829  1.00  0.00     0.127 S 
ATOM     98  O   UNL A   1      44.730  37.238  26.904  1.00  0.00    -0.237 OA
ATOM     99  O   UNL A   1      47.172  37.236  27.217  1.00  0.00    -0.237 OA
ATOM    100  O   UNL A   1      46.146  35.666  25.635  1.00  0.00    -0.744 OA
ENDBRANCH  94  97
ENDBRANCH  67  90
ENDBRANCH  41  42
ENDBRANCH  34  36
ENDBRANCH  33  34
ENDBRANCH  32  33
ENDBRANCH   1  32
TORSDOF 20
ENDMDL
MODEL 2
REMARK VINA RESULT:     -12.4      0.776      7.483
REMARK SMILES CC1(C)C[C@@H]([C@H](CCNC(=O)c2ccccc2C(=O)OCCOC(=O)c2ccc(-c3c4nc(c(-c5cccc(S(=O)(=O)[O-])c5F)c5ccc([nH]5)c(-c5cccc(S(=O)(=O)[O-])c5F)c5nc(c(-c6cccc(S(=O)(=O)[O-])c6F)c6ccc3[nH]6)C=C5)C=C4)cc2)c2ccccc2)CCO1
REMARK SMILES IDX 21 1 20 2 18 3 19 4 17 5 12 6 13 7 14 8 16 9 15 10 10 11
REMARK SMILES IDX 9 12 11 14 8 15 7 16 6 17 5 18 1 19 2 20 3 21 4 22 97 23
REMARK SMILES IDX 96 24 95 25 89 26 90 27 94 28 91 29 93 30 92 31 22 32 23 33
REMARK SMILES IDX 24 34 25 35 26 36 27 37 88 38 28 39 87 40 29 41 30 42 31 43
REMARK SMILES IDX 81 44 32 45 86 46 80 47 82 48 33 49 85 50 79 51 78 52 34 54
REMARK SMILES IDX 66 55 46 56 65 57 47 58 50 59 64 60 83 61 48 62 49 63 63 65
REMARK SMILES IDX 84 66 51 67 35 68 36 69 44 70 37 71 39 72 45 73 38 74 40 75
REMARK SMILES IDX 41 76 42 77 43 78 67 79 68 80 76 81 69 82 71 83 77 84 70 85
REMARK SMILES IDX 72 86 73 87 74 88 75 89 52 90 53 91 61 92 54 93 56 94 62 95
REMARK SMILES IDX 55 96 57 97 58 98 59 99 60 100
REMARK H PARENT 9 13 82 53 50 64
REMARK Flexibility Score: inf
ROOT
ATOM      1  C   UNL A   1      36.040  20.625  25.005  1.00  0.00     0.275 C 
ENDROOT
BRANCH   1   2
ATOM      2  O   UNL A   1      35.665  21.837  25.680  1.00  0.00    -0.458 OA
BRANCH   2   3
ATOM      3  C   UNL A   1      35.037  22.749  24.903  1.00  0.00     0.339 C 
ATOM      4  O   UNL A   1      35.512  23.383  23.970  1.00  0.00    -0.246 OA
BRANCH   3   5
ATOM      5  C   UNL A   1      33.663  22.971  25.349  1.00  0.00     0.072 A 
ATOM      6  C   UNL A   1      32.570  22.623  24.553  1.00  0.00     0.054 A 
ATOM      7  C   UNL A   1      31.277  22.894  25.036  1.00  0.00     0.015 A 
ATOM      8  C   UNL A   1      31.082  23.433  26.313  1.00  0.00     0.001 A 
ATOM      9  C   UNL A   1      33.463  23.471  26.648  1.00  0.00     0.016 A 
ATOM     10  C   UNL A   1      32.176  23.708  27.125  1.00  0.00     0.001 A 
BRANCH   6  11
ATOM     11  C   UNL A   1      32.664  22.026  23.196  1.00  0.00     0.252 C 
ATOM     12  N   UNL A   1      32.968  22.757  22.069  1.00  0.00    -0.352 N 
ATOM     13  H   UNL A   1      33.077  22.224  21.249  1.00  0.00     0.163 HD
ATOM     14  O   UNL A   1      32.535  20.806  23.085  1.00  0.00    -0.269 OA
BRANCH  12  15
ATOM     15  C   UNL A   1      33.154  24.187  21.893  1.00  0.00     0.117 C 
BRANCH  15  16
ATOM     16  C   UNL A   1      31.923  25.049  22.124  1.00  0.00     0.030 C 
BRANCH  16  17
ATOM     17  C   UNL A   1      31.843  26.039  23.352  1.00  0.00     0.024 C 
BRANCH  17  18
ATOM     18  C   UNL A   1      33.202  26.739  23.821  1.00  0.00     0.002 C 
ATOM     19  C   UNL A   1      31.349  27.159  26.584  1.00  0.00     0.042 C 
ATOM     20  C   UNL A   1      32.639  27.842  26.097  1.00  0.00     0.063 C 
ATOM     21  C   UNL A   1      33.315  28.455  27.332  1.00  0.00     0.042 C 
ATOM     22  C   UNL A   1      33.501  26.809  25.349  1.00  0.00     0.039 C 
ATOM     23  O   UNL A   1      32.313  28.951  25.250  1.00  0.00    -0.376 OA
ATOM     24  C   UNL A   1      33.298  29.276  24.273  1.00  0.00     0.161 C 
ATOM     25  C   UNL A   1      33.507  28.135  23.269  1.00  0.00     0.033 C 
ENDBRANCH  17  18
BRANCH  17  26
ATOM     26  C   UNL A   1      30.511  26.817  23.230  1.00  0.00    -0.045 A 
ATOM     27  C   UNL A   1      30.349  28.031  22.564  1.00  0.00     0.004 A 
ATOM     28  C   UNL A   1      29.343  26.284  23.812  1.00  0.00     0.004 A 
ATOM     29  C   UNL A   1      29.175  28.786  22.640  1.00  0.00     0.000 A 
ATOM     30  C   UNL A   1      28.127  26.985  23.804  1.00  0.00     0.000 A 
ATOM     31  C   UNL A   1      28.058  28.263  23.264  1.00  0.00     0.000 A 
ENDBRANCH  17  26
ENDBRANCH  16  17
ENDBRANCH  15  16
ENDBRANCH  12  15
ENDBRANCH   6  11
ENDBRANCH   3   5
ENDBRANCH   2   3
ENDBRANCH   1   2
BRANCH   1  32
ATOM     32  C   UNL A   1      37.535  20.359  24.896  1.00  0.00     0.275 C 
BRANCH  32  33
ATOM     33  O   UNL A   1      38.259  21.555  25.196  1.00  0.00    -0.458 OA
BRANCH  33  34
ATOM     34  C   UNL A   1      39.299  21.336  26.025  1.00  0.00     0.338 C 
ATOM     35  O   UNL A   1      40.049  20.375  26.044  1.00  0.00    -0.246 OA
BRANCH  34  36
ATOM     36  C   UNL A   1      39.549  22.528  26.829  1.00  0.00     0.060 A 
ATOM     37  C   UNL A   1      38.737  23.627  26.573  1.00  0.00     0.016 A 
ATOM     38  C   UNL A   1      40.713  22.652  27.573  1.00  0.00     0.016 A 
ATOM     39  C   UNL A   1      39.158  24.896  26.904  1.00  0.00     0.010 A 
ATOM     40  C   UNL A   1      41.093  23.923  27.996  1.00  0.00     0.010 A 
ATOM     41  C   UNL A   1      40.357  25.055  27.593  1.00  0.00    -0.014 A 
BRANCH  41  42
ATOM     42  C   UNL A   1      40.909  26.412  27.764  1.00  0.00     0.031 A 
ATOM     43  C   UNL A   1      42.245  26.728  27.158  1.00  0.00     0.074 A 
ATOM     44  C   UNL A   1      40.205  27.340  28.434  1.00  0.00     0.049 A 
ATOM     45  N   UNL A   1      43.025  27.750  27.372  1.00  0.00    -0.248 NA
ATOM     46  C   UNL A   1      42.792  25.743  26.206  1.00  0.00     0.031 C 
ATOM     47  C   UNL A   1      38.868  27.144  29.000  1.00  0.00     0.029 A 
ATOM     48  N   UNL A   1      40.529  28.625  28.778  1.00  0.00    -0.354 N 
ATOM     49  C   UNL A   1      44.194  27.482  26.670  1.00  0.00     0.074 A 
ATOM     50  C   UNL A   1      44.013  26.213  26.003  1.00  0.00     0.031 C 
ATOM     51  C   UNL A   1      38.491  28.261  29.636  1.00  0.00     0.029 A 
ATOM     52  C   UNL A   1      39.599  29.207  29.605  1.00  0.00     0.049 A 
ATOM     53  H   UNL A   1      41.343  29.083  28.466  1.00  0.00     0.167 HD
ATOM     54  C   UNL A   1      45.319  28.232  26.608  1.00  0.00     0.034 A 
ATOM     55  C   UNL A   1      39.667  30.341  30.323  1.00  0.00     0.034 A 
ATOM     56  C   UNL A   1      45.435  29.520  27.238  1.00  0.00     0.049 A 
ATOM     57  C   UNL A   1      40.918  31.162  30.228  1.00  0.00     0.074 A 
ATOM     58  C   UNL A   1      46.497  30.403  27.206  1.00  0.00     0.029 A 
ATOM     59  N   UNL A   1      44.447  30.107  28.018  1.00  0.00    -0.354 N 
ATOM     60  N   UNL A   1      42.012  30.920  29.543  1.00  0.00    -0.248 NA
ATOM     61  C   UNL A   1      40.939  32.419  30.981  1.00  0.00     0.031 C 
ATOM     62  C   UNL A   1      46.163  31.510  27.996  1.00  0.00     0.029 A 
ATOM     63  C   UNL A   1      44.875  31.336  28.482  1.00  0.00     0.049 A 
ATOM     64  H   UNL A   1      43.569  29.705  28.211  1.00  0.00     0.167 HD
ATOM     65  C   UNL A   1      42.846  32.007  29.762  1.00  0.00     0.074 A 
ATOM     66  C   UNL A   1      42.114  32.919  30.621  1.00  0.00     0.031 C 
ATOM     67  C   UNL A   1      44.104  32.231  29.308  1.00  0.00     0.034 A 
BRANCH  54  68
ATOM     68  C   UNL A   1      46.503  27.668  25.867  1.00  0.00     0.023 A 
ATOM     69  C   UNL A   1      46.610  27.808  24.468  1.00  0.00     0.012 A 
ATOM     70  C   UNL A   1      47.529  27.006  26.571  1.00  0.00     0.148 A 
ATOM     71  C   UNL A   1      47.694  27.262  23.779  1.00  0.00     0.002 A 
ATOM     72  C   UNL A   1      48.632  26.512  25.886  1.00  0.00     0.091 A 
ATOM     73  F   UNL A   1      47.400  26.856  27.897  1.00  0.00    -0.205 F 
ATOM     74  C   UNL A   1      48.709  26.624  24.489  1.00  0.00     0.022 A 
BRANCH  72  75
ATOM     75  S   UNL A   1      50.029  25.749  26.720  1.00  0.00     0.127 S 
ATOM     76  O   UNL A   1      49.441  24.498  27.198  1.00  0.00    -0.237 OA
ATOM     77  O   UNL A   1      50.989  25.592  25.626  1.00  0.00    -0.237 OA
ATOM     78  O   UNL A   1      50.438  26.684  27.758  1.00  0.00    -0.744 OA
ENDBRANCH  72  75
ENDBRANCH  54  68
BRANCH  55  79
ATOM     79  C   UNL A   1      38.526  30.729  31.197  1.00  0.00     0.023 A 
ATOM     80  C   UNL A   1      38.608  30.517  32.583  1.00  0.00     0.012 A 
ATOM     81  C   UNL A   1      37.392  31.377  30.664  1.00  0.00     0.148 A 
ATOM     82  C   UNL A   1      37.572  30.923  33.425  1.00  0.00     0.002 A 
ATOM     83  C   UNL A   1      36.394  31.836  31.513  1.00  0.00     0.091 A 
ATOM     84  F   UNL A   1      37.331  31.562  29.337  1.00  0.00    -0.205 F 
ATOM     85  C   UNL A   1      36.474  31.594  32.893  1.00  0.00     0.022 A 
BRANCH  83  86
ATOM     86  S   UNL A   1      35.021  32.839  30.934  1.00  0.00     0.127 S 
ATOM     87  O   UNL A   1      35.645  34.153  30.804  1.00  0.00    -0.237 OA
ATOM     88  O   UNL A   1      34.687  32.187  29.667  1.00  0.00    -0.237 OA
ATOM     89  O   UNL A   1      33.991  32.727  31.957  1.00  0.00    -0.744 OA
ENDBRANCH  83  86
ENDBRANCH  55  79
BRANCH  67  90
ATOM     90  C   UNL A   1      44.741  33.536  29.698  1.00  0.00     0.023 A 
ATOM     91  C   UNL A   1      45.582  33.606  30.826  1.00  0.00     0.012 A 
ATOM     92  C   UNL A   1      44.536  34.687  28.911  1.00  0.00     0.148 A 
ATOM     93  C   UNL A   1      46.170  34.814  31.193  1.00  0.00     0.002 A 
ATOM     94  C   UNL A   1      45.172  35.873  29.250  1.00  0.00     0.091 A 
ATOM     95  F   UNL A   1      43.715  34.602  27.854  1.00  0.00    -0.205 F 
ATOM     96  C   UNL A   1      45.975  35.943  30.399  1.00  0.00     0.022 A 
BRANCH  94  97
ATOM     97  S   UNL A   1      45.061  37.343  28.227  1.00  0.00     0.127 S 
ATOM     98  O   UNL A   1      43.616  37.557  28.172  1.00  0.00    -0.237 OA
ATOM     99  O   UNL A   1      45.795  38.328  29.021  1.00  0.00    -0.237 OA
ATOM    100  O   UNL A   1      45.692  36.999  26.960  1.00  0.00    -0.744 OA
ENDBRANCH  94  97
ENDBRANCH  67  90
ENDBRANCH  41  42
ENDBRANCH  34  36
ENDBRANCH  33  34
ENDBRANCH  32  33
ENDBRANCH   1  32
TORSDOF 20
ENDMDL
MODEL 3
REMARK VINA RESULT:     -12.1      1.103      2.472
REMARK SMILES CC1(C)C[C@@H]([C@H](CCNC(=O)c2ccccc2C(=O)OCCOC(=O)c2ccc(-c3c4nc(c(-c5cccc(S(=O)(=O)[O-])c5F)c5ccc([nH]5)c(-c5cccc(S(=O)(=O)[O-])c5F)c5nc(c(-c6cccc(S(=O)(=O)[O-])c6F)c6ccc3[nH]6)C=C5)C=C4)cc2)c2ccccc2)CCO1
REMARK SMILES IDX 21 1 20 2 18 3 19 4 17 5 12 6 13 7 14 8 16 9 15 10 10 11
REMARK SMILES IDX 9 12 11 14 8 15 7 16 6 17 5 18 1 19 2 20 3 21 4 22 97 23
REMARK SMILES IDX 96 24 95 25 89 26 90 27 94 28 91 29 93 30 92 31 22 32 23 33
REMARK SMILES IDX 24 34 25 35 26 36 27 37 88 38 28 39 87 40 29 41 30 42 31 43
REMARK SMILES IDX 81 44 32 45 86 46 80 47 82 48 33 49 85 50 79 51 78 52 34 54
REMARK SMILES IDX 66 55 46 56 65 57 47 58 50 59 64 60 83 61 48 62 49 63 63 65
REMARK SMILES IDX 84 66 51 67 35 68 36 69 44 70 37 71 39 72 45 73 38 74 40 75
REMARK SMILES IDX 41 76 42 77 43 78 67 79 68 80 76 81 69 82 71 83 77 84 70 85
REMARK SMILES IDX 72 86 73 87 74 88 75 89 52 90 53 91 61 92 54 93 56 94 62 95
REMARK SMILES IDX 55 96 57 97 58 98 59 99 60 100
REMARK H PARENT 9 13 82 53 50 64
REMARK Flexibility Score: inf
ROOT
ATOM      1  C   UNL A   1      36.011  20.190  25.355  1.00  0.00     0.275 C 
ENDROOT
BRANCH   1   2
ATOM      2  O   UNL A   1      34.896  19.840  24.520  1.00  0.00    -0.458 OA
BRANCH   2   3
ATOM      3  C   UNL A   1      33.940  20.790  24.421  1.00  0.00     0.339 C 
ATOM      4  O   UNL A   1      32.785  20.644  24.041  1.00  0.00    -0.246 OA
BRANCH   3   5
ATOM      5  C   UNL A   1      34.461  22.110  24.772  1.00  0.00     0.072 A 
ATOM      6  C   UNL A   1      34.189  22.698  26.009  1.00  0.00     0.054 A 
ATOM      7  C   UNL A   1      34.702  23.983  26.265  1.00  0.00     0.015 A 
ATOM      8  C   UNL A   1      35.523  24.631  25.334  1.00  0.00     0.001 A 
ATOM      9  C   UNL A   1      35.322  22.744  23.859  1.00  0.00     0.016 A 
ATOM     10  C   UNL A   1      35.845  24.004  24.137  1.00  0.00     0.001 A 
BRANCH   6  11
ATOM     11  C   UNL A   1      33.352  22.089  27.073  1.00  0.00     0.252 C 
ATOM     12  N   UNL A   1      31.985  22.247  27.141  1.00  0.00    -0.352 N 
ATOM     13  H   UNL A   1      31.544  21.725  27.849  1.00  0.00     0.163 HD
ATOM     14  O   UNL A   1      33.896  21.348  27.893  1.00  0.00    -0.269 OA
BRANCH  12  15
ATOM     15  C   UNL A   1      31.087  23.059  26.337  1.00  0.00     0.117 C 
BRANCH  15  16
ATOM     16  C   UNL A   1      31.175  24.561  26.558  1.00  0.00     0.030 C 
BRANCH  16  17
ATOM     17  C   UNL A   1      31.519  25.538  25.366  1.00  0.00     0.024 C 
BRANCH  17  18
ATOM     18  C   UNL A   1      30.538  25.532  24.104  1.00  0.00     0.002 C 
ATOM     19  C   UNL A   1      33.499  25.640  22.535  1.00  0.00     0.042 C 
ATOM     20  C   UNL A   1      32.071  25.955  22.058  1.00  0.00     0.063 C 
ATOM     21  C   UNL A   1      32.078  25.858  20.526  1.00  0.00     0.042 C 
ATOM     22  C   UNL A   1      31.088  24.992  22.749  1.00  0.00     0.039 C 
ATOM     23  O   UNL A   1      31.749  27.320  22.352  1.00  0.00    -0.376 OA
ATOM     24  C   UNL A   1      30.362  27.584  22.552  1.00  0.00     0.161 C 
ATOM     25  C   UNL A   1      29.805  26.836  23.770  1.00  0.00     0.033 C 
ENDBRANCH  17  18
BRANCH  17  26
ATOM     26  C   UNL A   1      32.060  26.848  25.987  1.00  0.00    -0.045 A 
ATOM     27  C   UNL A   1      31.483  27.525  27.061  1.00  0.00     0.004 A 
ATOM     28  C   UNL A   1      33.233  27.429  25.464  1.00  0.00     0.004 A 
ATOM     29  C   UNL A   1      31.898  28.798  27.465  1.00  0.00     0.000 A 
ATOM     30  C   UNL A   1      33.722  28.658  25.933  1.00  0.00     0.000 A 
ATOM     31  C   UNL A   1      33.020  29.370  26.898  1.00  0.00     0.000 A 
ENDBRANCH  17  26
ENDBRANCH  16  17
ENDBRANCH  15  16
ENDBRANCH  12  15
ENDBRANCH   6  11
ENDBRANCH   3   5
ENDBRANCH   2   3
ENDBRANCH   1   2
BRANCH   1  32
ATOM     32  C   UNL A   1      37.378  20.175  24.684  1.00  0.00     0.275 C 
BRANCH  32  33
ATOM     33  O   UNL A   1      38.107  21.349  25.051  1.00  0.00    -0.458 OA
BRANCH  33  34
ATOM     34  C   UNL A   1      39.186  21.072  25.809  1.00  0.00     0.338 C 
ATOM     35  O   UNL A   1      39.941  20.119  25.711  1.00  0.00    -0.246 OA
BRANCH  34  36
ATOM     36  C   UNL A   1      39.469  22.194  26.696  1.00  0.00     0.060 A 
ATOM     37  C   UNL A   1      38.998  23.437  26.289  1.00  0.00     0.016 A 
ATOM     38  C   UNL A   1      40.407  22.079  27.712  1.00  0.00     0.016 A 
ATOM     39  C   UNL A   1      39.578  24.592  26.764  1.00  0.00     0.010 A 
ATOM     40  C   UNL A   1      40.926  23.246  28.267  1.00  0.00     0.010 A 
ATOM     41  C   UNL A   1      40.570  24.502  27.737  1.00  0.00    -0.014 A 
BRANCH  41  42
ATOM     42  C   UNL A   1      41.333  25.714  28.095  1.00  0.00     0.031 A 
ATOM     43  C   UNL A   1      40.646  26.792  28.879  1.00  0.00     0.074 A 
ATOM     44  C   UNL A   1      42.623  25.820  27.735  1.00  0.00     0.049 A 
ATOM     45  N   UNL A   1      41.025  28.020  29.099  1.00  0.00    -0.248 NA
ATOM     46  C   UNL A   1      39.337  26.453  29.470  1.00  0.00     0.031 C 
ATOM     47  C   UNL A   1      43.394  24.794  27.029  1.00  0.00     0.029 A 
ATOM     48  N   UNL A   1      43.505  26.857  27.887  1.00  0.00    -0.354 N 
ATOM     49  C   UNL A   1      39.963  28.628  29.756  1.00  0.00     0.074 A 
ATOM     50  C   UNL A   1      38.932  27.629  29.922  1.00  0.00     0.031 C 
ATOM     51  C   UNL A   1      44.630  25.256  26.793  1.00  0.00     0.029 A 
ATOM     52  C   UNL A   1      44.699  26.640  27.241  1.00  0.00     0.049 A 
ATOM     53  H   UNL A   1      43.305  27.670  28.404  1.00  0.00     0.167 HD
ATOM     54  C   UNL A   1      39.863  29.914  30.165  1.00  0.00     0.034 A 
ATOM     55  C   UNL A   1      45.704  27.490  26.971  1.00  0.00     0.034 A 
ATOM     56  C   UNL A   1      40.938  30.861  30.035  1.00  0.00     0.049 A 
ATOM     57  C   UNL A   1      45.577  28.906  27.448  1.00  0.00     0.074 A 
ATOM     58  C   UNL A   1      40.987  32.175  30.459  1.00  0.00     0.029 A 
ATOM     59  N   UNL A   1      42.159  30.588  29.431  1.00  0.00    -0.354 N 
ATOM     60  N   UNL A   1      44.584  29.473  28.092  1.00  0.00    -0.248 NA
ATOM     61  C   UNL A   1      46.713  29.794  27.183  1.00  0.00     0.031 C 
ATOM     62  C   UNL A   1      42.225  32.707  30.079  1.00  0.00     0.029 A 
ATOM     63  C   UNL A   1      42.965  31.710  29.460  1.00  0.00     0.049 A 
ATOM     64  H   UNL A   1      42.412  29.721  29.039  1.00  0.00     0.167 HD
ATOM     65  C   UNL A   1      44.983  30.780  28.333  1.00  0.00     0.074 A 
ATOM     66  C   UNL A   1      46.322  30.907  27.789  1.00  0.00     0.031 C 
ATOM     67  C   UNL A   1      44.306  31.788  28.938  1.00  0.00     0.034 A 
BRANCH  54  68
ATOM     68  C   UNL A   1      38.554  30.367  30.758  1.00  0.00     0.023 A 
ATOM     69  C   UNL A   1      38.238  30.088  32.104  1.00  0.00     0.012 A 
ATOM     70  C   UNL A   1      37.635  31.092  29.973  1.00  0.00     0.148 A 
ATOM     71  C   UNL A   1      37.014  30.485  32.643  1.00  0.00     0.002 A 
ATOM     72  C   UNL A   1      36.442  31.531  30.532  1.00  0.00     0.091 A 
ATOM     73  F   UNL A   1      37.937  31.325  28.687  1.00  0.00    -0.205 F 
ATOM     74  C   UNL A   1      36.121  31.215  31.861  1.00  0.00     0.022 A 
BRANCH  72  75
ATOM     75  S   UNL A   1      35.266  32.547  29.631  1.00  0.00     0.127 S 
ATOM     76  O   UNL A   1      34.802  31.620  28.599  1.00  0.00    -0.237 OA
ATOM     77  O   UNL A   1      34.274  32.855  30.663  1.00  0.00    -0.237 OA
ATOM     78  O   UNL A   1      36.015  33.697  29.146  1.00  0.00    -0.744 OA
ENDBRANCH  72  75
ENDBRANCH  54  68
BRANCH  55  79
ATOM     79  C   UNL A   1      46.883  27.014  26.198  1.00  0.00     0.023 A 
ATOM     80  C   UNL A   1      46.943  27.238  24.811  1.00  0.00     0.012 A 
ATOM     81  C   UNL A   1      47.979  26.408  26.845  1.00  0.00     0.148 A 
ATOM     82  C   UNL A   1      48.064  26.848  24.078  1.00  0.00     0.002 A 
ATOM     83  C   UNL A   1      49.117  26.080  26.121  1.00  0.00     0.091 A 
ATOM     84  F   UNL A   1      47.899  26.197  28.167  1.00  0.00    -0.205 F 
ATOM     85  C   UNL A   1      49.155  26.283  24.734  1.00  0.00     0.022 A 
BRANCH  83  86
ATOM     86  S   UNL A   1      50.622  25.489  26.905  1.00  0.00     0.127 S 
ATOM     87  O   UNL A   1      50.140  24.317  27.631  1.00  0.00    -0.237 OA
ATOM     88  O   UNL A   1      51.467  25.194  25.747  1.00  0.00    -0.237 OA
ATOM     89  O   UNL A   1      51.097  26.591  27.729  1.00  0.00    -0.744 OA
ENDBRANCH  83  86
ENDBRANCH  55  79
BRANCH  67  90
ATOM     90  C   UNL A   1      45.031  33.098  29.080  1.00  0.00     0.023 A 
ATOM     91  C   UNL A   1      45.937  33.295  30.140  1.00  0.00     0.012 A 
ATOM     92  C   UNL A   1      44.840  34.119  28.129  1.00  0.00     0.148 A 
ATOM     93  C   UNL A   1      46.607  34.510  30.278  1.00  0.00     0.002 A 
ATOM     94  C   UNL A   1      45.554  35.304  28.240  1.00  0.00     0.091 A 
ATOM     95  F   UNL A   1      43.957  33.917  27.140  1.00  0.00    -0.205 F 
ATOM     96  C   UNL A   1      46.425  35.507  29.323  1.00  0.00     0.022 A 
BRANCH  94  97
ATOM     97  S   UNL A   1      45.460  36.597  27.000  1.00  0.00     0.127 S 
ATOM     98  O   UNL A   1      46.110  37.713  27.684  1.00  0.00    -0.237 OA
ATOM     99  O   UNL A   1      46.232  36.025  25.896  1.00  0.00    -0.237 OA
ATOM    100  O   UNL A   1      44.043  36.777  26.714  1.00  0.00    -0.744 OA
ENDBRANCH  94  97
ENDBRANCH  67  90
ENDBRANCH  41  42
ENDBRANCH  34  36
ENDBRANCH  33  34
ENDBRANCH  32  33
ENDBRANCH   1  32
TORSDOF 20
ENDMDL
