MODEL 1
REMARK VINA RESULT:     -12.3      0.000      0.000
REMARK SMILES C=Cc1cc(Cl)cc2c1O[C@H](C(F)(F)F)C(C(=O)OCCOC(=O)c1ccc(-c3c4nc(c(-c5cccc(S(=O)(=O)[O-])c5F)c5ccc([nH]5)c(-c5cccc(S(=O)(=O)[O-])c5F)c5nc(c(-c6cccc(S(=O)(=O)[O-])c6F)c6ccc3[nH]6)C=C5)C=C4)cc1)=C2
REMARK SMILES IDX 21 1 20 2 19 3 17 4 18 5 16 6 3 7 4 8 9 9 5 10 8 11 10 12
REMARK SMILES IDX 6 13 7 14 88 15 11 16 2 17 1 18 12 19 13 20 14 21 15 22
REMARK SMILES IDX 22 23 23 24 24 25 25 26 26 27 87 28 27 29 86 30 28 31 29 32
REMARK SMILES IDX 30 33 80 34 31 35 85 36 79 37 81 38 32 39 84 40 78 41 77 42
REMARK SMILES IDX 33 44 65 45 45 46 64 47 46 48 49 49 63 50 82 51 47 52 48 53
REMARK SMILES IDX 62 55 83 56 50 57 34 58 35 59 43 60 36 61 38 62 44 63 37 64
REMARK SMILES IDX 39 65 40 66 41 67 42 68 66 69 67 70 75 71 68 72 70 73 76 74
REMARK SMILES IDX 69 75 71 76 72 77 73 78 74 79 51 80 52 81 60 82 53 83 55 84
REMARK SMILES IDX 61 85 54 86 56 87 57 88 58 89 59 90
REMARK H PARENT 81 43 49 54
REMARK Flexibility Score: inf
ROOT
ATOM      1  C   UNL A   1      31.522  30.098  25.442  1.00  0.00     0.275 C 
ENDROOT
BRANCH   1   2
ATOM      2  C   UNL A   1      31.267  28.731  24.803  1.00  0.00     0.275 C 
BRANCH   2   3
ATOM      3  O   UNL A   1      32.219  27.742  25.254  1.00  0.00    -0.459 OA
BRANCH   3   4
ATOM      4  C   UNL A   1      31.743  26.822  26.127  1.00  0.00     0.338 C 
ATOM      5  O   UNL A   1      30.998  27.038  27.071  1.00  0.00    -0.246 OA
BRANCH   4   6
ATOM      6  C   UNL A   1      32.226  25.471  25.774  1.00  0.00     0.087 C 
ATOM      7  C   UNL A   1      33.683  21.726  24.544  1.00  0.00     0.018 A 
ATOM      8  C   UNL A   1      35.068  21.494  24.613  1.00  0.00     0.032 A 
ATOM      9  C   UNL A   1      33.174  22.966  24.974  1.00  0.00     0.135 A 
ATOM     10  C   UNL A   1      35.923  22.459  25.137  1.00  0.00     0.042 A 
ATOM     11  C   UNL A   1      34.047  23.935  25.473  1.00  0.00     0.019 A 
ATOM     12  O   UNL A   1      31.817  23.163  24.909  1.00  0.00    -0.475 OA
ATOM     13  Cl  UNL A   1      37.611  22.149  25.226  1.00  0.00    -0.084 Cl
ATOM     14  C   UNL A   1      35.420  23.677  25.573  1.00  0.00     0.032 A 
ATOM     15  C   UNL A   1      33.537  25.231  25.871  1.00  0.00     0.027 C 
ATOM     16  C   UNL A   1      31.260  24.472  25.210  1.00  0.00     0.316 C 
BRANCH   7  17
ATOM     17  C   UNL A   1      32.794  20.710  23.957  1.00  0.00     0.004 C 
ATOM     18  C   UNL A   1      32.804  19.417  24.306  1.00  0.00     0.009 C 
ENDBRANCH   7  17
BRANCH  16  19
ATOM     19  C   UNL A   1      30.588  25.016  23.938  1.00  0.00     0.430 C 
ATOM     20  F   UNL A   1      31.468  25.699  23.167  1.00  0.00    -0.167 F 
ATOM     21  F   UNL A   1      30.096  24.018  23.163  1.00  0.00    -0.167 F 
ATOM     22  F   UNL A   1      29.562  25.851  24.217  1.00  0.00    -0.167 F 
ENDBRANCH  16  19
ENDBRANCH   4   6
ENDBRANCH   3   4
ENDBRANCH   2   3
ENDBRANCH   1   2
BRANCH   1  23
ATOM     23  O   UNL A   1      32.893  30.220  25.857  1.00  0.00    -0.458 OA
BRANCH  23  24
ATOM     24  C   UNL A   1      33.130  31.169  26.792  1.00  0.00     0.338 C 
ATOM     25  O   UNL A   1      32.362  32.031  27.182  1.00  0.00    -0.246 OA
BRANCH  24  26
ATOM     26  C   UNL A   1      34.454  30.940  27.385  1.00  0.00     0.060 A 
ATOM     27  C   UNL A   1      35.273  31.988  27.787  1.00  0.00     0.016 A 
ATOM     28  C   UNL A   1      34.819  29.628  27.657  1.00  0.00     0.016 A 
ATOM     29  C   UNL A   1      36.473  31.693  28.446  1.00  0.00     0.010 A 
ATOM     30  C   UNL A   1      35.935  29.344  28.433  1.00  0.00     0.010 A 
ATOM     31  C   UNL A   1      36.806  30.369  28.805  1.00  0.00    -0.014 A 
BRANCH  31  32
ATOM     32  C   UNL A   1      38.055  30.052  29.558  1.00  0.00     0.031 A 
ATOM     33  C   UNL A   1      38.273  30.565  30.965  1.00  0.00     0.074 A 
ATOM     34  C   UNL A   1      39.028  29.335  28.957  1.00  0.00     0.049 A 
ATOM     35  N   UNL A   1      39.285  30.347  31.769  1.00  0.00    -0.248 NA
ATOM     36  C   UNL A   1      37.256  31.465  31.536  1.00  0.00     0.031 C 
ATOM     37  C   UNL A   1      39.013  28.895  27.559  1.00  0.00     0.029 A 
ATOM     38  N   UNL A   1      40.212  28.841  29.444  1.00  0.00    -0.354 N 
ATOM     39  C   UNL A   1      39.047  31.114  32.904  1.00  0.00     0.074 A 
ATOM     40  C   UNL A   1      37.820  31.841  32.675  1.00  0.00     0.031 C 
ATOM     41  C   UNL A   1      40.095  28.137  27.324  1.00  0.00     0.029 A 
ATOM     42  C   UNL A   1      40.894  28.058  28.542  1.00  0.00     0.049 A 
ATOM     43  H   UNL A   1      40.541  29.028  30.353  1.00  0.00     0.167 HD
ATOM     44  C   UNL A   1      39.751  31.172  34.059  1.00  0.00     0.034 A 
ATOM     45  C   UNL A   1      42.021  27.331  28.683  1.00  0.00     0.034 A 
ATOM     46  C   UNL A   1      40.906  30.364  34.333  1.00  0.00     0.049 A 
ATOM     47  C   UNL A   1      42.715  27.306  30.015  1.00  0.00     0.074 A 
ATOM     48  C   UNL A   1      41.612  30.253  35.518  1.00  0.00     0.029 A 
ATOM     49  N   UNL A   1      41.511  29.519  33.420  1.00  0.00    -0.354 N 
ATOM     50  N   UNL A   1      42.383  27.920  31.123  1.00  0.00    -0.248 NA
ATOM     51  C   UNL A   1      43.919  26.469  30.126  1.00  0.00     0.031 C 
ATOM     52  C   UNL A   1      42.644  29.331  35.322  1.00  0.00     0.029 A 
ATOM     53  C   UNL A   1      42.578  28.873  34.016  1.00  0.00     0.049 A 
ATOM     54  H   UNL A   1      41.226  29.395  32.487  1.00  0.00     0.167 HD
ATOM     55  C   UNL A   1      43.326  27.535  32.068  1.00  0.00     0.074 A 
ATOM     56  C   UNL A   1      44.231  26.617  31.408  1.00  0.00     0.031 C 
ATOM     57  C   UNL A   1      43.438  27.924  33.361  1.00  0.00     0.034 A 
BRANCH  44  58
ATOM     58  C   UNL A   1      39.235  32.052  35.166  1.00  0.00     0.023 A 
ATOM     59  C   UNL A   1      38.276  31.533  36.060  1.00  0.00     0.012 A 
ATOM     60  C   UNL A   1      39.761  33.341  35.384  1.00  0.00     0.148 A 
ATOM     61  C   UNL A   1      37.835  32.288  37.144  1.00  0.00     0.002 A 
ATOM     62  C   UNL A   1      39.341  34.075  36.488  1.00  0.00     0.091 A 
ATOM     63  F   UNL A   1      40.665  33.816  34.517  1.00  0.00    -0.205 F 
ATOM     64  C   UNL A   1      38.373  33.553  37.363  1.00  0.00     0.022 A 
BRANCH  62  65
ATOM     65  S   UNL A   1      40.011  35.689  36.902  1.00  0.00     0.127 S 
ATOM     66  O   UNL A   1      41.440  35.397  37.011  1.00  0.00    -0.237 OA
ATOM     67  O   UNL A   1      39.639  36.483  35.731  1.00  0.00    -0.237 OA
ATOM     68  O   UNL A   1      39.366  36.088  38.145  1.00  0.00    -0.744 OA
ENDBRANCH  62  65
ENDBRANCH  44  58
BRANCH  45  69
ATOM     69  C   UNL A   1      42.480  26.476  27.554  1.00  0.00     0.023 A 
ATOM     70  C   UNL A   1      43.419  26.997  26.642  1.00  0.00     0.012 A 
ATOM     71  C   UNL A   1      42.068  25.136  27.433  1.00  0.00     0.148 A 
ATOM     72  C   UNL A   1      43.937  26.198  25.623  1.00  0.00     0.002 A 
ATOM     73  C   UNL A   1      42.617  24.334  26.438  1.00  0.00     0.091 A 
ATOM     74  F   UNL A   1      41.174  24.666  28.313  1.00  0.00    -0.205 F 
ATOM     75  C   UNL A   1      43.545  24.866  25.527  1.00  0.00     0.022 A 
BRANCH  73  76
ATOM     76  S   UNL A   1      42.262  22.579  26.299  1.00  0.00     0.127 S 
ATOM     77  O   UNL A   1      40.801  22.568  26.315  1.00  0.00    -0.237 OA
ATOM     78  O   UNL A   1      42.867  22.253  25.007  1.00  0.00    -0.237 OA
ATOM     79  O   UNL A   1      42.905  21.952  27.445  1.00  0.00    -0.744 OA
ENDBRANCH  73  76
ENDBRANCH  45  69
BRANCH  57  80
ATOM     80  C   UNL A   1      44.574  27.369  34.172  1.00  0.00     0.023 A 
ATOM     81  C   UNL A   1      45.793  28.073  34.213  1.00  0.00     0.012 A 
ATOM     82  C   UNL A   1      44.385  26.248  35.001  1.00  0.00     0.148 A 
ATOM     83  C   UNL A   1      46.814  27.663  35.070  1.00  0.00     0.002 A 
ATOM     84  C   UNL A   1      45.394  25.866  35.876  1.00  0.00     0.091 A 
ATOM     85  F   UNL A   1      43.216  25.596  34.935  1.00  0.00    -0.205 F 
ATOM     86  C   UNL A   1      46.609  26.570  35.909  1.00  0.00     0.022 A 
BRANCH  84  87
ATOM     87  S   UNL A   1      45.199  24.522  37.052  1.00  0.00     0.127 S 
ATOM     88  O   UNL A   1      44.943  23.387  36.166  1.00  0.00    -0.237 OA
ATOM     89  O   UNL A   1      46.502  24.498  37.714  1.00  0.00    -0.237 OA
ATOM     90  O   UNL A   1      44.085  24.896  37.914  1.00  0.00    -0.744 OA
ENDBRANCH  84  87
ENDBRANCH  57  80
ENDBRANCH  31  32
ENDBRANCH  24  26
ENDBRANCH  23  24
ENDBRANCH   1  23
TORSDOF 16
ENDMDL
MODEL 2
REMARK VINA RESULT:     -12.3      1.279      1.621
REMARK SMILES C=Cc1cc(Cl)cc2c1O[C@H](C(F)(F)F)C(C(=O)OCCOC(=O)c1ccc(-c3c4nc(c(-c5cccc(S(=O)(=O)[O-])c5F)c5ccc([nH]5)c(-c5cccc(S(=O)(=O)[O-])c5F)c5nc(c(-c6cccc(S(=O)(=O)[O-])c6F)c6ccc3[nH]6)C=C5)C=C4)cc1)=C2
REMARK SMILES IDX 21 1 20 2 19 3 17 4 18 5 16 6 3 7 4 8 9 9 5 10 8 11 10 12
REMARK SMILES IDX 6 13 7 14 88 15 11 16 2 17 1 18 12 19 13 20 14 21 15 22
REMARK SMILES IDX 22 23 23 24 24 25 25 26 26 27 87 28 27 29 86 30 28 31 29 32
REMARK SMILES IDX 30 33 80 34 31 35 85 36 79 37 81 38 32 39 84 40 78 41 77 42
REMARK SMILES IDX 33 44 65 45 45 46 64 47 46 48 49 49 63 50 82 51 47 52 48 53
REMARK SMILES IDX 62 55 83 56 50 57 34 58 35 59 43 60 36 61 38 62 44 63 37 64
REMARK SMILES IDX 39 65 40 66 41 67 42 68 66 69 67 70 75 71 68 72 70 73 76 74
REMARK SMILES IDX 69 75 71 76 72 77 73 78 74 79 51 80 52 81 60 82 53 83 55 84
REMARK SMILES IDX 61 85 54 86 56 87 57 88 58 89 59 90
REMARK H PARENT 81 43 49 54
REMARK Flexibility Score: inf
ROOT
ATOM      1  C   UNL A   1      31.723  30.391  25.803  1.00  0.00     0.275 C 
ENDROOT
BRANCH   1   2
ATOM      2  C   UNL A   1      31.386  29.076  25.097  1.00  0.00     0.275 C 
BRANCH   2   3
ATOM      3  O   UNL A   1      32.292  28.016  25.474  1.00  0.00    -0.459 OA
BRANCH   3   4
ATOM      4  C   UNL A   1      31.782  27.070  26.298  1.00  0.00     0.338 C 
ATOM      5  O   UNL A   1      31.053  27.264  27.258  1.00  0.00    -0.246 OA
BRANCH   4   6
ATOM      6  C   UNL A   1      32.204  25.722  25.866  1.00  0.00     0.087 C 
ATOM      7  C   UNL A   1      33.479  21.990  24.411  1.00  0.00     0.018 A 
ATOM      8  C   UNL A   1      34.858  21.717  24.392  1.00  0.00     0.032 A 
ATOM      9  C   UNL A   1      33.031  23.225  24.917  1.00  0.00     0.135 A 
ATOM     10  C   UNL A   1      35.769  22.637  24.904  1.00  0.00     0.042 A 
ATOM     11  C   UNL A   1      33.959  24.150  25.403  1.00  0.00     0.019 A 
ATOM     12  O   UNL A   1      31.679  23.462  24.937  1.00  0.00    -0.475 OA
ATOM     13  Cl  UNL A   1      37.450  22.278  24.885  1.00  0.00    -0.084 Cl
ATOM     14  C   UNL A   1      35.327  23.850  25.414  1.00  0.00     0.032 A 
ATOM     15  C   UNL A   1      33.511  25.441  25.879  1.00  0.00     0.027 C 
ATOM     16  C   UNL A   1      31.179  24.773  25.319  1.00  0.00     0.316 C 
BRANCH   7  17
ATOM     17  C   UNL A   1      32.529  21.024  23.837  1.00  0.00     0.004 C 
ATOM     18  C   UNL A   1      32.139  21.031  22.556  1.00  0.00     0.009 C 
ENDBRANCH   7  17
BRANCH  16  19
ATOM     19  C   UNL A   1      30.453  25.385  24.110  1.00  0.00     0.430 C 
ATOM     20  F   UNL A   1      31.299  26.117  23.344  1.00  0.00    -0.167 F 
ATOM     21  F   UNL A   1      29.934  24.431  23.299  1.00  0.00    -0.167 F 
ATOM     22  F   UNL A   1      29.438  26.198  24.479  1.00  0.00    -0.167 F 
ENDBRANCH  16  19
ENDBRANCH   4   6
ENDBRANCH   3   4
ENDBRANCH   2   3
ENDBRANCH   1   2
BRANCH   1  23
ATOM     23  O   UNL A   1      33.120  30.447  26.138  1.00  0.00    -0.458 OA
BRANCH  23  24
ATOM     24  C   UNL A   1      33.456  31.384  27.054  1.00  0.00     0.338 C 
ATOM     25  O   UNL A   1      32.761  32.294  27.471  1.00  0.00    -0.246 OA
BRANCH  24  26
ATOM     26  C   UNL A   1      34.790  31.078  27.589  1.00  0.00     0.060 A 
ATOM     27  C   UNL A   1      35.711  32.074  27.888  1.00  0.00     0.016 A 
ATOM     28  C   UNL A   1      35.064  29.755  27.913  1.00  0.00     0.016 A 
ATOM     29  C   UNL A   1      36.919  31.715  28.499  1.00  0.00     0.010 A 
ATOM     30  C   UNL A   1      36.196  29.420  28.645  1.00  0.00     0.010 A 
ATOM     31  C   UNL A   1      37.166  30.388  28.914  1.00  0.00    -0.014 A 
BRANCH  31  32
ATOM     32  C   UNL A   1      38.426  30.009  29.617  1.00  0.00     0.031 A 
ATOM     33  C   UNL A   1      38.723  30.504  31.015  1.00  0.00     0.074 A 
ATOM     34  C   UNL A   1      39.338  29.248  28.977  1.00  0.00     0.049 A 
ATOM     35  N   UNL A   1      39.753  30.235  31.778  1.00  0.00    -0.248 NA
ATOM     36  C   UNL A   1      37.773  31.450  31.627  1.00  0.00     0.031 C 
ATOM     37  C   UNL A   1      39.249  28.815  27.579  1.00  0.00     0.029 A 
ATOM     38  N   UNL A   1      40.516  28.695  29.416  1.00  0.00    -0.354 N 
ATOM     39  C   UNL A   1      39.597  31.008  32.924  1.00  0.00     0.074 A 
ATOM     40  C   UNL A   1      38.399  31.794  32.744  1.00  0.00     0.031 C 
ATOM     41  C   UNL A   1      40.283  28.006  27.301  1.00  0.00     0.029 A 
ATOM     42  C   UNL A   1      41.124  27.884  28.486  1.00  0.00     0.049 A 
ATOM     43  H   UNL A   1      40.888  28.863  30.312  1.00  0.00     0.167 HD
ATOM     44  C   UNL A   1      40.347  31.027  34.050  1.00  0.00     0.034 A 
ATOM     45  C   UNL A   1      42.219  27.103  28.582  1.00  0.00     0.034 A 
ATOM     46  C   UNL A   1      41.471  30.164  34.278  1.00  0.00     0.049 A 
ATOM     47  C   UNL A   1      42.962  27.039  29.886  1.00  0.00     0.074 A 
ATOM     48  C   UNL A   1      42.216  30.013  35.434  1.00  0.00     0.029 A 
ATOM     49  N   UNL A   1      41.999  29.294  33.340  1.00  0.00    -0.354 N 
ATOM     50  N   UNL A   1      42.703  27.663  31.008  1.00  0.00    -0.248 NA
ATOM     51  C   UNL A   1      44.127  26.144  29.949  1.00  0.00     0.031 C 
ATOM     52  C   UNL A   1      43.194  29.044  35.197  1.00  0.00     0.029 A 
ATOM     53  C   UNL A   1      43.055  28.595  33.893  1.00  0.00     0.049 A 
ATOM     54  H   UNL A   1      41.672  29.188  32.418  1.00  0.00     0.167 HD
ATOM     55  C   UNL A   1      43.662  27.230  31.915  1.00  0.00     0.074 A 
ATOM     56  C   UNL A   1      44.496  26.272  31.218  1.00  0.00     0.031 C 
ATOM     57  C   UNL A   1      43.843  27.608  33.203  1.00  0.00     0.034 A 
BRANCH  44  58
ATOM     58  C   UNL A   1      39.917  31.927  35.179  1.00  0.00     0.023 A 
ATOM     59  C   UNL A   1      40.305  33.282  35.157  1.00  0.00     0.012 A 
ATOM     60  C   UNL A   1      39.057  31.467  36.196  1.00  0.00     0.148 A 
ATOM     61  C   UNL A   1      39.860  34.164  36.139  1.00  0.00     0.002 A 
ATOM     62  C   UNL A   1      38.590  32.361  37.153  1.00  0.00     0.091 A 
ATOM     63  F   UNL A   1      38.708  30.174  36.200  1.00  0.00    -0.205 F 
ATOM     64  C   UNL A   1      38.996  33.707  37.130  1.00  0.00     0.022 A 
BRANCH  62  65
ATOM     65  S   UNL A   1      37.425  31.897  38.440  1.00  0.00     0.127 S 
ATOM     66  O   UNL A   1      36.335  32.844  38.207  1.00  0.00    -0.237 OA
ATOM     67  O   UNL A   1      37.114  30.512  38.083  1.00  0.00    -0.237 OA
ATOM     68  O   UNL A   1      38.129  32.063  39.703  1.00  0.00    -0.744 OA
ENDBRANCH  62  65
ENDBRANCH  44  58
BRANCH  45  69
ATOM     69  C   UNL A   1      42.592  26.231  27.434  1.00  0.00     0.023 A 
ATOM     70  C   UNL A   1      43.487  26.725  26.466  1.00  0.00     0.012 A 
ATOM     71  C   UNL A   1      42.143  24.900  27.347  1.00  0.00     0.148 A 
ATOM     72  C   UNL A   1      43.927  25.909  25.424  1.00  0.00     0.002 A 
ATOM     73  C   UNL A   1      42.615  24.080  26.327  1.00  0.00     0.091 A 
ATOM     74  F   UNL A   1      41.291  24.456  28.280  1.00  0.00    -0.205 F 
ATOM     75  C   UNL A   1      43.500  24.585  25.360  1.00  0.00     0.022 A 
BRANCH  73  76
ATOM     76  S   UNL A   1      42.213  22.333  26.221  1.00  0.00     0.127 S 
ATOM     77  O   UNL A   1      42.948  21.930  25.025  1.00  0.00    -0.237 OA
ATOM     78  O   UNL A   1      42.758  21.825  27.480  1.00  0.00    -0.237 OA
ATOM     79  O   UNL A   1      40.763  22.265  26.117  1.00  0.00    -0.744 OA
ENDBRANCH  73  76
ENDBRANCH  45  69
BRANCH  57  80
ATOM     80  C   UNL A   1      44.981  26.996  33.968  1.00  0.00     0.023 A 
ATOM     81  C   UNL A   1      46.228  27.649  33.979  1.00  0.00     0.012 A 
ATOM     82  C   UNL A   1      44.774  25.870  34.786  1.00  0.00     0.148 A 
ATOM     83  C   UNL A   1      47.258  27.187  34.795  1.00  0.00     0.002 A 
ATOM     84  C   UNL A   1      45.795  25.435  35.622  1.00  0.00     0.091 A 
ATOM     85  F   UNL A   1      43.578  25.266  34.751  1.00  0.00    -0.205 F 
ATOM     86  C   UNL A   1      47.037  26.089  35.625  1.00  0.00     0.022 A 
BRANCH  84  87
ATOM     87  S   UNL A   1      45.583  24.082  36.785  1.00  0.00     0.127 S 
ATOM     88  O   UNL A   1      44.542  24.608  37.667  1.00  0.00    -0.237 OA
ATOM     89  O   UNL A   1      45.152  22.990  35.914  1.00  0.00    -0.237 OA
ATOM     90  O   UNL A   1      46.882  23.881  37.414  1.00  0.00    -0.744 OA
ENDBRANCH  84  87
ENDBRANCH  57  80
ENDBRANCH  31  32
ENDBRANCH  24  26
ENDBRANCH  23  24
ENDBRANCH   1  23
TORSDOF 16
ENDMDL
MODEL 3
REMARK VINA RESULT:     -12.2      4.785      9.885
REMARK SMILES C=Cc1cc(Cl)cc2c1O[C@H](C(F)(F)F)C(C(=O)OCCOC(=O)c1ccc(-c3c4nc(c(-c5cccc(S(=O)(=O)[O-])c5F)c5ccc([nH]5)c(-c5cccc(S(=O)(=O)[O-])c5F)c5nc(c(-c6cccc(S(=O)(=O)[O-])c6F)c6ccc3[nH]6)C=C5)C=C4)cc1)=C2
REMARK SMILES IDX 21 1 20 2 19 3 17 4 18 5 16 6 3 7 4 8 9 9 5 10 8 11 10 12
REMARK SMILES IDX 6 13 7 14 88 15 11 16 2 17 1 18 12 19 13 20 14 21 15 22
REMARK SMILES IDX 22 23 23 24 24 25 25 26 26 27 87 28 27 29 86 30 28 31 29 32
REMARK SMILES IDX 30 33 80 34 31 35 85 36 79 37 81 38 32 39 84 40 78 41 77 42
REMARK SMILES IDX 33 44 65 45 45 46 64 47 46 48 49 49 63 50 82 51 47 52 48 53
REMARK SMILES IDX 62 55 83 56 50 57 34 58 35 59 43 60 36 61 38 62 44 63 37 64
REMARK SMILES IDX 39 65 40 66 41 67 42 68 66 69 67 70 75 71 68 72 70 73 76 74
REMARK SMILES IDX 69 75 71 76 72 77 73 78 74 79 51 80 52 81 60 82 53 83 55 84
REMARK SMILES IDX 61 85 54 86 56 87 57 88 58 89 59 90
REMARK H PARENT 81 43 49 54
REMARK Flexibility Score: inf
ROOT
ATOM      1  C   UNL A   1      36.233  20.557  25.006  1.00  0.00     0.275 C 
ENDROOT
BRANCH   1   2
ATOM      2  C   UNL A   1      34.833  21.078  24.673  1.00  0.00     0.275 C 
BRANCH   2   3
ATOM      3  O   UNL A   1      34.737  22.509  24.847  1.00  0.00    -0.459 OA
BRANCH   3   4
ATOM      4  C   UNL A   1      34.756  23.242  23.708  1.00  0.00     0.338 C 
ATOM      5  O   UNL A   1      35.410  23.004  22.704  1.00  0.00    -0.246 OA
BRANCH   4   6
ATOM      6  C   UNL A   1      33.835  24.392  23.815  1.00  0.00     0.087 C 
ATOM      7  C   UNL A   1      31.115  27.554  24.333  1.00  0.00     0.018 A 
ATOM      8  C   UNL A   1      31.389  28.515  25.323  1.00  0.00     0.032 A 
ATOM      9  C   UNL A   1      32.026  26.501  24.128  1.00  0.00     0.135 A 
ATOM     10  C   UNL A   1      32.565  28.452  26.064  1.00  0.00     0.042 A 
ATOM     11  C   UNL A   1      33.189  26.435  24.899  1.00  0.00     0.019 A 
ATOM     12  O   UNL A   1      31.742  25.584  23.147  1.00  0.00    -0.475 OA
ATOM     13  Cl  UNL A   1      32.888  29.644  27.260  1.00  0.00    -0.084 Cl
ATOM     14  C   UNL A   1      33.470  27.420  25.855  1.00  0.00     0.032 A 
ATOM     15  C   UNL A   1      34.107  25.329  24.729  1.00  0.00     0.027 C 
ATOM     16  C   UNL A   1      32.580  24.405  22.994  1.00  0.00     0.316 C 
BRANCH   7  17
ATOM     17  C   UNL A   1      29.852  27.613  23.579  1.00  0.00     0.004 C 
ATOM     18  C   UNL A   1      28.802  26.817  23.816  1.00  0.00     0.009 C 
ENDBRANCH   7  17
BRANCH  16  19
ATOM     19  C   UNL A   1      31.722  23.162  23.281  1.00  0.00     0.430 C 
ATOM     20  F   UNL A   1      31.754  22.832  24.596  1.00  0.00    -0.167 F 
ATOM     21  F   UNL A   1      30.419  23.367  22.971  1.00  0.00    -0.167 F 
ATOM     22  F   UNL A   1      32.137  22.080  22.584  1.00  0.00    -0.167 F 
ENDBRANCH  16  19
ENDBRANCH   4   6
ENDBRANCH   3   4
ENDBRANCH   2   3
ENDBRANCH   1   2
BRANCH   1  23
ATOM     23  O   UNL A   1      37.017  21.575  25.651  1.00  0.00    -0.458 OA
BRANCH  23  24
ATOM     24  C   UNL A   1      38.320  21.265  25.841  1.00  0.00     0.338 C 
ATOM     25  O   UNL A   1      38.898  20.252  25.489  1.00  0.00    -0.246 OA
BRANCH  24  26
ATOM     26  C   UNL A   1      39.003  22.412  26.453  1.00  0.00     0.060 A 
ATOM     27  C   UNL A   1      40.180  22.269  27.177  1.00  0.00     0.016 A 
ATOM     28  C   UNL A   1      38.505  23.679  26.176  1.00  0.00     0.016 A 
ATOM     29  C   UNL A   1      40.835  23.420  27.636  1.00  0.00     0.010 A 
ATOM     30  C   UNL A   1      39.228  24.818  26.507  1.00  0.00     0.010 A 
ATOM     31  C   UNL A   1      40.385  24.710  27.282  1.00  0.00    -0.014 A 
BRANCH  31  32
ATOM     32  C   UNL A   1      41.109  25.939  27.718  1.00  0.00     0.031 A 
ATOM     33  C   UNL A   1      42.531  26.210  27.276  1.00  0.00     0.074 A 
ATOM     34  C   UNL A   1      40.503  26.803  28.560  1.00  0.00     0.049 A 
ATOM     35  N   UNL A   1      43.286  27.248  27.536  1.00  0.00    -0.248 NA
ATOM     36  C   UNL A   1      43.212  25.177  26.477  1.00  0.00     0.031 C 
ATOM     37  C   UNL A   1      39.189  26.600  29.178  1.00  0.00     0.029 A 
ATOM     38  N   UNL A   1      40.904  28.026  29.036  1.00  0.00    -0.354 N 
ATOM     39  C   UNL A   1      44.529  26.970  26.978  1.00  0.00     0.074 A 
ATOM     40  C   UNL A   1      44.449  25.647  26.404  1.00  0.00     0.031 C 
ATOM     41  C   UNL A   1      38.862  27.691  29.887  1.00  0.00     0.029 A 
ATOM     42  C   UNL A   1      39.950  28.659  29.801  1.00  0.00     0.049 A 
ATOM     43  H   UNL A   1      41.789  28.414  28.848  1.00  0.00     0.167 HD
ATOM     44  C   UNL A   1      45.626  27.760  26.898  1.00  0.00     0.034 A 
ATOM     45  C   UNL A   1      39.937  29.891  30.348  1.00  0.00     0.034 A 
ATOM     46  C   UNL A   1      45.671  29.116  27.367  1.00  0.00     0.049 A 
ATOM     47  C   UNL A   1      41.113  30.801  30.135  1.00  0.00     0.074 A 
ATOM     48  C   UNL A   1      46.689  30.041  27.216  1.00  0.00     0.029 A 
ATOM     49  N   UNL A   1      44.650  29.746  28.057  1.00  0.00    -0.354 N 
ATOM     50  N   UNL A   1      42.217  30.569  29.469  1.00  0.00    -0.248 NA
ATOM     51  C   UNL A   1      41.032  32.147  30.720  1.00  0.00     0.031 C 
ATOM     52  C   UNL A   1      46.279  31.237  27.812  1.00  0.00     0.029 A 
ATOM     53  C   UNL A   1      45.009  31.052  28.333  1.00  0.00     0.049 A 
ATOM     54  H   UNL A   1      43.798  29.327  28.313  1.00  0.00     0.167 HD
ATOM     55  C   UNL A   1      42.958  31.742  29.543  1.00  0.00     0.074 A 
ATOM     56  C   UNL A   1      42.168  32.691  30.300  1.00  0.00     0.031 C 
ATOM     57  C   UNL A   1      44.190  32.000  29.043  1.00  0.00     0.034 A 
BRANCH  44  58
ATOM     58  C   UNL A   1      46.838  27.227  26.180  1.00  0.00     0.023 A 
ATOM     59  C   UNL A   1      46.965  27.456  24.795  1.00  0.00     0.012 A 
ATOM     60  C   UNL A   1      47.886  26.597  26.879  1.00  0.00     0.148 A 
ATOM     61  C   UNL A   1      48.109  27.050  24.111  1.00  0.00     0.002 A 
ATOM     62  C   UNL A   1      49.039  26.226  26.195  1.00  0.00     0.091 A 
ATOM     63  F   UNL A   1      47.739  26.384  28.193  1.00  0.00    -0.205 F 
ATOM     64  C   UNL A   1      49.148  26.445  24.811  1.00  0.00     0.022 A 
BRANCH  62  65
ATOM     65  S   UNL A   1      50.465  25.495  27.007  1.00  0.00     0.127 S 
ATOM     66  O   UNL A   1      51.362  25.262  25.875  1.00  0.00    -0.237 OA
ATOM     67  O   UNL A   1      50.887  26.568  27.907  1.00  0.00    -0.237 OA
ATOM     68  O   UNL A   1      49.982  24.292  27.669  1.00  0.00    -0.744 OA
ENDBRANCH  62  65
ENDBRANCH  44  58
BRANCH  45  69
ATOM     69  C   UNL A   1      38.708  30.364  31.042  1.00  0.00     0.023 A 
ATOM     70  C   UNL A   1      38.618  30.222  32.440  1.00  0.00     0.012 A 
ATOM     71  C   UNL A   1      37.680  31.028  30.347  1.00  0.00     0.148 A 
ATOM     72  C   UNL A   1      37.521  30.730  33.136  1.00  0.00     0.002 A 
ATOM     73  C   UNL A   1      36.608  31.566  31.051  1.00  0.00     0.091 A 
ATOM     74  F   UNL A   1      37.790  31.148  29.017  1.00  0.00    -0.205 F 
ATOM     75  C   UNL A   1      36.522  31.410  32.444  1.00  0.00     0.022 A 
BRANCH  73  76
ATOM     76  S   UNL A   1      35.329  32.554  30.267  1.00  0.00     0.127 S 
ATOM     77  O   UNL A   1      36.076  33.742  29.862  1.00  0.00    -0.237 OA
ATOM     78  O   UNL A   1      34.911  31.684  29.168  1.00  0.00    -0.237 OA
ATOM     79  O   UNL A   1      34.315  32.771  31.288  1.00  0.00    -0.744 OA
ENDBRANCH  73  76
ENDBRANCH  45  69
BRANCH  57  80
ATOM     80  C   UNL A   1      44.784  33.358  29.283  1.00  0.00     0.023 A 
ATOM     81  C   UNL A   1      45.542  33.577  30.448  1.00  0.00     0.012 A 
ATOM     82  C   UNL A   1      44.716  34.357  28.293  1.00  0.00     0.148 A 
ATOM     83  C   UNL A   1      46.226  34.779  30.627  1.00  0.00     0.002 A 
ATOM     84  C   UNL A   1      45.427  35.538  28.464  1.00  0.00     0.091 A 
ATOM     85  F   UNL A   1      43.981  34.120  27.197  1.00  0.00    -0.205 F 
ATOM     86  C   UNL A   1      46.178  35.752  29.631  1.00  0.00     0.022 A 
BRANCH  84  87
ATOM     87  S   UNL A   1      45.494  36.818  27.205  1.00  0.00     0.127 S 
ATOM     88  O   UNL A   1      46.109  36.103  26.088  1.00  0.00    -0.237 OA
ATOM     89  O   UNL A   1      44.081  37.143  27.019  1.00  0.00    -0.237 OA
ATOM     90  O   UNL A   1      46.298  37.897  27.766  1.00  0.00    -0.744 OA
ENDBRANCH  84  87
ENDBRANCH  57  80
ENDBRANCH  31  32
ENDBRANCH  24  26
ENDBRANCH  23  24
ENDBRANCH   1  23
TORSDOF 16
ENDMDL
