MODEL 1
REMARK VINA RESULT:     -12.1      0.000      0.000
REMARK SMILES CS(=O)(=O)c1ccc(-n2nc(C(F)(F)F)cc2-c2ccc(CC(=O)OCCOC(=O)c3ccc(-c4c5nc(c(-c6cccc(S(=O)(=O)[O-])c6F)c6ccc([nH]6)c(-c6cccc(S(=O)(=O)[O-])c6F)c6nc(c(-c7cccc(S(=O)(=O)[O-])c7F)c7ccc4[nH]7)C=C6)C=C5)cc3)cc2)cc1
REMARK SMILES IDX 26 1 25 2 23 3 24 4 22 5 21 6 18 7 19 8 95 9 20 10 94 11
REMARK SMILES IDX 17 12 9 13 10 14 11 15 16 16 8 17 5 18 6 19 97 20 7 21 96 22
REMARK SMILES IDX 2 23 1 24 3 25 4 26 12 27 13 28 14 29 15 30 27 31 28 32
REMARK SMILES IDX 29 33 30 34 31 35 32 36 93 37 33 38 92 39 34 40 35 41 36 42
REMARK SMILES IDX 86 43 37 44 91 45 85 46 87 47 38 48 90 49 84 50 83 51 39 53
REMARK SMILES IDX 71 54 51 55 70 56 52 57 55 58 69 59 88 60 53 61 54 62 68 64
REMARK SMILES IDX 89 65 56 66 40 67 41 68 49 69 42 70 44 71 50 72 43 73 45 74
REMARK SMILES IDX 46 75 47 76 48 77 72 78 73 79 81 80 74 81 76 82 82 83 75 84
REMARK SMILES IDX 77 85 78 86 79 87 80 88 57 89 58 90 66 91 59 92 61 93 67 94
REMARK SMILES IDX 60 95 62 96 63 97 64 98 65 99
REMARK H PARENT 87 52 55 63
REMARK Flexibility Score: inf
ROOT
ATOM      1  C   UNL A   1      36.196  32.824  28.907  1.00  0.00     0.274 C 
ENDROOT
BRANCH   1   2
ATOM      2  O   UNL A   1      35.600  31.971  27.904  1.00  0.00    -0.462 OA
BRANCH   2   3
ATOM      3  C   UNL A   1      36.055  30.687  27.875  1.00  0.00     0.310 C 
ATOM      4  O   UNL A   1      37.228  30.383  27.673  1.00  0.00    -0.252 OA
BRANCH   3   5
ATOM      5  C   UNL A   1      34.977  29.629  27.988  1.00  0.00     0.158 C 
BRANCH   5   6
ATOM      6  C   UNL A   1      33.907  29.556  26.923  1.00  0.00    -0.037 A 
ATOM      7  C   UNL A   1      31.874  29.453  24.964  1.00  0.00     0.000 A 
ATOM      8  C   UNL A   1      31.633  30.057  26.197  1.00  0.00     0.010 A 
ATOM      9  C   UNL A   1      33.120  28.858  24.731  1.00  0.00     0.010 A 
ATOM     10  C   UNL A   1      32.633  30.079  27.168  1.00  0.00     0.005 A 
ATOM     11  C   UNL A   1      34.136  28.930  25.694  1.00  0.00     0.005 A 
BRANCH   7  12
ATOM     12  C   UNL A   1      30.828  29.443  23.947  1.00  0.00     0.075 A 
ATOM     13  N   UNL A   1      30.696  28.503  22.926  1.00  0.00    -0.233 N 
ATOM     14  N   UNL A   1      29.783  28.903  21.999  1.00  0.00    -0.163 NA
ATOM     15  C   UNL A   1      29.229  30.022  22.498  1.00  0.00     0.167 A 
ATOM     16  C   UNL A   1      29.871  30.405  23.699  1.00  0.00     0.064 A 
BRANCH  13  17
ATOM     17  C   UNL A   1      31.300  27.220  22.802  1.00  0.00     0.065 A 
ATOM     18  C   UNL A   1      32.464  24.700  22.472  1.00  0.00     0.067 A 
ATOM     19  C   UNL A   1      31.229  24.810  23.111  1.00  0.00     0.022 A 
ATOM     20  C   UNL A   1      33.125  25.839  22.000  1.00  0.00     0.022 A 
ATOM     21  C   UNL A   1      30.654  26.072  23.283  1.00  0.00     0.030 A 
ATOM     22  C   UNL A   1      32.533  27.098  22.144  1.00  0.00     0.030 A 
BRANCH  18  23
ATOM     23  S   UNL A   1      33.244  23.128  22.200  1.00  0.00     0.175 S 
ATOM     24  C   UNL A   1      32.111  21.875  22.729  1.00  0.00     0.163 C 
ATOM     25  O   UNL A   1      34.388  23.079  23.084  1.00  0.00    -0.224 OA
ATOM     26  O   UNL A   1      33.386  22.993  20.760  1.00  0.00    -0.224 OA
ENDBRANCH  18  23
ENDBRANCH  13  17
BRANCH  15  27
ATOM     27  C   UNL A   1      28.080  30.732  21.836  1.00  0.00     0.435 C 
ATOM     28  F   UNL A   1      27.800  30.274  20.590  1.00  0.00    -0.164 F 
ATOM     29  F   UNL A   1      26.935  30.628  22.567  1.00  0.00    -0.164 F 
ATOM     30  F   UNL A   1      28.321  32.068  21.713  1.00  0.00    -0.164 F 
ENDBRANCH  15  27
ENDBRANCH   7  12
ENDBRANCH   5   6
ENDBRANCH   3   5
ENDBRANCH   2   3
ENDBRANCH   1   2
BRANCH   1  31
ATOM     31  C   UNL A   1      35.669  32.580  30.322  1.00  0.00     0.275 C 
BRANCH  31  32
ATOM     32  O   UNL A   1      36.710  32.311  31.261  1.00  0.00    -0.458 OA
BRANCH  32  33
ATOM     33  C   UNL A   1      36.795  31.000  31.568  1.00  0.00     0.338 C 
ATOM     34  O   UNL A   1      36.151  30.407  32.417  1.00  0.00    -0.246 OA
BRANCH  33  35
ATOM     35  C   UNL A   1      37.924  30.366  30.898  1.00  0.00     0.060 A 
ATOM     36  C   UNL A   1      37.938  28.968  30.848  1.00  0.00     0.016 A 
ATOM     37  C   UNL A   1      39.077  31.131  30.717  1.00  0.00     0.016 A 
ATOM     38  C   UNL A   1      39.147  28.314  30.810  1.00  0.00     0.010 A 
ATOM     39  C   UNL A   1      40.285  30.478  30.674  1.00  0.00     0.010 A 
ATOM     40  C   UNL A   1      40.305  29.084  30.800  1.00  0.00    -0.014 A 
BRANCH  40  41
ATOM     41  C   UNL A   1      41.577  28.399  30.875  1.00  0.00     0.031 A 
ATOM     42  C   UNL A   1      42.113  28.256  32.247  1.00  0.00     0.074 A 
ATOM     43  C   UNL A   1      42.083  27.785  29.790  1.00  0.00     0.049 A 
ATOM     44  N   UNL A   1      43.279  28.599  32.687  1.00  0.00    -0.248 NA
ATOM     45  C   UNL A   1      41.189  27.781  33.289  1.00  0.00     0.031 C 
ATOM     46  C   UNL A   1      41.451  27.655  28.473  1.00  0.00     0.029 A 
ATOM     47  N   UNL A   1      43.170  26.968  29.702  1.00  0.00    -0.354 N 
ATOM     48  C   UNL A   1      43.304  28.179  34.014  1.00  0.00     0.074 A 
ATOM     49  C   UNL A   1      41.949  27.863  34.378  1.00  0.00     0.031 C 
ATOM     50  C   UNL A   1      41.995  26.598  27.835  1.00  0.00     0.029 A 
ATOM     51  C   UNL A   1      43.065  26.057  28.656  1.00  0.00     0.049 A 
ATOM     52  H   UNL A   1      43.943  27.018  30.310  1.00  0.00     0.167 HD
ATOM     53  C   UNL A   1      44.465  27.873  34.648  1.00  0.00     0.034 A 
ATOM     54  C   UNL A   1      43.720  24.877  28.546  1.00  0.00     0.034 A 
ATOM     55  C   UNL A   1      45.616  28.382  33.958  1.00  0.00     0.049 A 
ATOM     56  C   UNL A   1      44.876  24.912  29.473  1.00  0.00     0.074 A 
ATOM     57  C   UNL A   1      46.042  29.636  33.568  1.00  0.00     0.029 A 
ATOM     58  N   UNL A   1      46.375  27.482  33.252  1.00  0.00    -0.354 N 
ATOM     59  N   UNL A   1      45.918  25.678  29.304  1.00  0.00    -0.248 NA
ATOM     60  C   UNL A   1      44.703  24.389  30.820  1.00  0.00     0.031 C 
ATOM     61  C   UNL A   1      46.713  29.430  32.330  1.00  0.00     0.029 A 
ATOM     62  C   UNL A   1      46.681  28.062  32.049  1.00  0.00     0.049 A 
ATOM     63  H   UNL A   1      46.647  26.586  33.553  1.00  0.00     0.167 HD
ATOM     64  C   UNL A   1      46.255  26.095  30.586  1.00  0.00     0.074 A 
ATOM     65  C   UNL A   1      45.571  25.164  31.479  1.00  0.00     0.031 C 
ATOM     66  C   UNL A   1      46.800  27.331  30.805  1.00  0.00     0.034 A 
BRANCH  53  67
ATOM     67  C   UNL A   1      44.584  26.819  35.717  1.00  0.00     0.023 A 
ATOM     68  C   UNL A   1      44.066  25.539  35.433  1.00  0.00     0.012 A 
ATOM     69  C   UNL A   1      44.938  27.090  37.058  1.00  0.00     0.148 A 
ATOM     70  C   UNL A   1      43.884  24.586  36.441  1.00  0.00     0.002 A 
ATOM     71  C   UNL A   1      44.845  26.110  38.037  1.00  0.00     0.091 A 
ATOM     72  F   UNL A   1      45.235  28.339  37.436  1.00  0.00    -0.205 F 
ATOM     73  C   UNL A   1      44.290  24.864  37.740  1.00  0.00     0.022 A 
BRANCH  71  74
ATOM     74  S   UNL A   1      45.438  26.415  39.704  1.00  0.00     0.127 S 
ATOM     75  O   UNL A   1      44.509  27.442  40.165  1.00  0.00    -0.237 OA
ATOM     76  O   UNL A   1      45.275  25.104  40.332  1.00  0.00    -0.237 OA
ATOM     77  O   UNL A   1      46.828  26.823  39.538  1.00  0.00    -0.744 OA
ENDBRANCH  71  74
ENDBRANCH  53  67
BRANCH  54  78
ATOM     78  C   UNL A   1      43.293  23.644  27.847  1.00  0.00     0.023 A 
ATOM     79  C   UNL A   1      41.972  23.182  27.997  1.00  0.00     0.012 A 
ATOM     80  C   UNL A   1      44.105  23.026  26.868  1.00  0.00     0.148 A 
ATOM     81  C   UNL A   1      41.475  22.146  27.198  1.00  0.00     0.002 A 
ATOM     82  C   UNL A   1      43.616  21.978  26.094  1.00  0.00     0.091 A 
ATOM     83  F   UNL A   1      45.325  23.525  26.624  1.00  0.00    -0.205 F 
ATOM     84  C   UNL A   1      42.296  21.541  26.250  1.00  0.00     0.022 A 
BRANCH  82  85
ATOM     85  S   UNL A   1      44.631  21.156  24.857  1.00  0.00     0.127 S 
ATOM     86  O   UNL A   1      43.968  19.857  24.726  1.00  0.00    -0.237 OA
ATOM     87  O   UNL A   1      44.480  22.039  23.704  1.00  0.00    -0.237 OA
ATOM     88  O   UNL A   1      45.970  21.084  25.429  1.00  0.00    -0.744 OA
ENDBRANCH  82  85
ENDBRANCH  54  78
BRANCH  66  89
ATOM     89  C   UNL A   1      47.257  28.133  29.608  1.00  0.00     0.023 A 
ATOM     90  C   UNL A   1      48.538  27.952  29.043  1.00  0.00     0.012 A 
ATOM     91  C   UNL A   1      46.325  28.930  28.921  1.00  0.00     0.148 A 
ATOM     92  C   UNL A   1      48.895  28.575  27.847  1.00  0.00     0.002 A 
ATOM     93  C   UNL A   1      46.666  29.507  27.701  1.00  0.00     0.091 A 
ATOM     94  F   UNL A   1      45.105  29.088  29.456  1.00  0.00    -0.205 F 
ATOM     95  C   UNL A   1      47.954  29.342  27.167  1.00  0.00     0.022 A 
BRANCH  93  96
ATOM     96  S   UNL A   1      45.450  30.378  26.709  1.00  0.00     0.127 S 
ATOM     97  O   UNL A   1      44.472  29.330  26.428  1.00  0.00    -0.237 OA
ATOM     98  O   UNL A   1      44.981  31.423  27.623  1.00  0.00    -0.237 OA
ATOM     99  O   UNL A   1      46.179  30.890  25.555  1.00  0.00    -0.744 OA
ENDBRANCH  93  96
ENDBRANCH  66  89
ENDBRANCH  40  41
ENDBRANCH  33  35
ENDBRANCH  32  33
ENDBRANCH  31  32
ENDBRANCH   1  31
TORSDOF 19
ENDMDL
MODEL 2
REMARK VINA RESULT:     -11.8      5.095      9.884
REMARK SMILES CS(=O)(=O)c1ccc(-n2nc(C(F)(F)F)cc2-c2ccc(CC(=O)OCCOC(=O)c3ccc(-c4c5nc(c(-c6cccc(S(=O)(=O)[O-])c6F)c6ccc([nH]6)c(-c6cccc(S(=O)(=O)[O-])c6F)c6nc(c(-c7cccc(S(=O)(=O)[O-])c7F)c7ccc4[nH]7)C=C6)C=C5)cc3)cc2)cc1
REMARK SMILES IDX 26 1 25 2 23 3 24 4 22 5 21 6 18 7 19 8 95 9 20 10 94 11
REMARK SMILES IDX 17 12 9 13 10 14 11 15 16 16 8 17 5 18 6 19 97 20 7 21 96 22
REMARK SMILES IDX 2 23 1 24 3 25 4 26 12 27 13 28 14 29 15 30 27 31 28 32
REMARK SMILES IDX 29 33 30 34 31 35 32 36 93 37 33 38 92 39 34 40 35 41 36 42
REMARK SMILES IDX 86 43 37 44 91 45 85 46 87 47 38 48 90 49 84 50 83 51 39 53
REMARK SMILES IDX 71 54 51 55 70 56 52 57 55 58 69 59 88 60 53 61 54 62 68 64
REMARK SMILES IDX 89 65 56 66 40 67 41 68 49 69 42 70 44 71 50 72 43 73 45 74
REMARK SMILES IDX 46 75 47 76 48 77 72 78 73 79 81 80 74 81 76 82 82 83 75 84
REMARK SMILES IDX 77 85 78 86 79 87 80 88 57 89 58 90 66 91 59 92 61 93 67 94
REMARK SMILES IDX 60 95 62 96 63 97 64 98 65 99
REMARK H PARENT 87 52 55 63
REMARK Flexibility Score: inf
ROOT
ATOM      1  C   UNL A   1      32.603  29.211  25.801  1.00  0.00     0.274 C 
ENDROOT
BRANCH   1   2
ATOM      2  O   UNL A   1      31.957  28.919  24.542  1.00  0.00    -0.462 OA
BRANCH   2   3
ATOM      3  C   UNL A   1      31.966  27.611  24.162  1.00  0.00     0.310 C 
ATOM      4  O   UNL A   1      30.955  26.917  24.078  1.00  0.00    -0.252 OA
BRANCH   3   5
ATOM      5  C   UNL A   1      33.345  27.016  23.964  1.00  0.00     0.158 C 
BRANCH   5   6
ATOM      6  C   UNL A   1      33.528  25.524  24.121  1.00  0.00    -0.037 A 
ATOM      7  C   UNL A   1      33.851  22.739  24.468  1.00  0.00     0.000 A 
ATOM      8  C   UNL A   1      33.513  23.548  25.551  1.00  0.00     0.010 A 
ATOM      9  C   UNL A   1      34.074  23.333  23.220  1.00  0.00     0.010 A 
ATOM     10  C   UNL A   1      33.383  24.925  25.377  1.00  0.00     0.005 A 
ATOM     11  C   UNL A   1      33.891  24.711  23.043  1.00  0.00     0.005 A 
BRANCH   7  12
ATOM     12  C   UNL A   1      33.975  21.297  24.653  1.00  0.00     0.075 A 
ATOM     13  N   UNL A   1      35.169  20.599  24.828  1.00  0.00    -0.233 N 
ATOM     14  N   UNL A   1      34.979  19.256  24.720  1.00  0.00    -0.163 NA
ATOM     15  C   UNL A   1      33.649  19.087  24.622  1.00  0.00     0.167 A 
ATOM     16  C   UNL A   1      32.990  20.336  24.551  1.00  0.00     0.064 A 
BRANCH  13  17
ATOM     17  C   UNL A   1      36.458  21.095  25.172  1.00  0.00     0.065 A 
ATOM     18  C   UNL A   1      38.987  22.021  25.922  1.00  0.00     0.067 A 
ATOM     19  C   UNL A   1      37.877  22.851  26.074  1.00  0.00     0.022 A 
ATOM     20  C   UNL A   1      38.845  20.733  25.393  1.00  0.00     0.022 A 
ATOM     21  C   UNL A   1      36.615  22.389  25.690  1.00  0.00     0.030 A 
ATOM     22  C   UNL A   1      37.578  20.261  25.040  1.00  0.00     0.030 A 
BRANCH  18  23
ATOM     23  S   UNL A   1      40.617  22.532  26.407  1.00  0.00     0.175 S 
ATOM     24  C   UNL A   1      40.925  21.864  28.017  1.00  0.00     0.163 C 
ATOM     25  O   UNL A   1      40.574  23.973  26.537  1.00  0.00    -0.224 OA
ATOM     26  O   UNL A   1      41.534  21.875  25.491  1.00  0.00    -0.224 OA
ENDBRANCH  18  23
ENDBRANCH  13  17
BRANCH  15  27
ATOM     27  C   UNL A   1      32.994  17.733  24.600  1.00  0.00     0.435 C 
ATOM     28  F   UNL A   1      33.869  16.706  24.448  1.00  0.00    -0.164 F 
ATOM     29  F   UNL A   1      32.290  17.494  25.742  1.00  0.00    -0.164 F 
ATOM     30  F   UNL A   1      32.094  17.627  23.581  1.00  0.00    -0.164 F 
ENDBRANCH  15  27
ENDBRANCH   7  12
ENDBRANCH   5   6
ENDBRANCH   3   5
ENDBRANCH   2   3
ENDBRANCH   1   2
BRANCH   1  31
ATOM     31  C   UNL A   1      32.238  30.578  26.383  1.00  0.00     0.275 C 
BRANCH  31  32
ATOM     32  O   UNL A   1      33.023  30.920  27.525  1.00  0.00    -0.458 OA
BRANCH  32  33
ATOM     33  C   UNL A   1      33.027  32.248  27.762  1.00  0.00     0.338 C 
ATOM     34  O   UNL A   1      32.248  33.072  27.313  1.00  0.00    -0.246 OA
BRANCH  33  35
ATOM     35  C   UNL A   1      34.227  32.658  28.481  1.00  0.00     0.060 A 
ATOM     36  C   UNL A   1      35.246  33.262  27.737  1.00  0.00     0.016 A 
ATOM     37  C   UNL A   1      34.456  32.082  29.731  1.00  0.00     0.016 A 
ATOM     38  C   UNL A   1      36.549  33.121  28.153  1.00  0.00     0.010 A 
ATOM     39  C   UNL A   1      35.758  31.946  30.150  1.00  0.00     0.010 A 
ATOM     40  C   UNL A   1      36.788  32.397  29.317  1.00  0.00    -0.014 A 
BRANCH  40  41
ATOM     41  C   UNL A   1      38.162  32.152  29.694  1.00  0.00     0.031 A 
ATOM     42  C   UNL A   1      38.617  30.761  29.468  1.00  0.00     0.074 A 
ATOM     43  C   UNL A   1      38.971  33.175  30.021  1.00  0.00     0.049 A 
ATOM     44  N   UNL A   1      39.173  29.957  30.313  1.00  0.00    -0.248 NA
ATOM     45  C   UNL A   1      38.303  30.148  28.168  1.00  0.00     0.031 C 
ATOM     46  C   UNL A   1      38.645  34.604  29.985  1.00  0.00     0.029 A 
ATOM     47  N   UNL A   1      40.315  33.162  30.247  1.00  0.00    -0.354 N 
ATOM     48  C   UNL A   1      39.474  28.812  29.581  1.00  0.00     0.074 A 
ATOM     49  C   UNL A   1      38.756  28.909  28.339  1.00  0.00     0.031 C 
ATOM     50  C   UNL A   1      39.793  35.307  29.889  1.00  0.00     0.029 A 
ATOM     51  C   UNL A   1      40.913  34.384  29.957  1.00  0.00     0.049 A 
ATOM     52  H   UNL A   1      40.806  32.376  30.578  1.00  0.00     0.167 HD
ATOM     53  C   UNL A   1      40.491  27.982  29.931  1.00  0.00     0.034 A 
ATOM     54  C   UNL A   1      42.219  34.593  29.666  1.00  0.00     0.034 A 
ATOM     55  C   UNL A   1      40.932  28.198  31.280  1.00  0.00     0.049 A 
ATOM     56  C   UNL A   1      42.982  33.410  30.130  1.00  0.00     0.074 A 
ATOM     57  C   UNL A   1      40.331  28.148  32.522  1.00  0.00     0.029 A 
ATOM     58  N   UNL A   1      42.117  28.869  31.454  1.00  0.00    -0.354 N 
ATOM     59  N   UNL A   1      43.156  33.107  31.386  1.00  0.00    -0.248 NA
ATOM     60  C   UNL A   1      43.219  32.324  29.191  1.00  0.00     0.031 C 
ATOM     61  C   UNL A   1      40.963  29.174  33.279  1.00  0.00     0.029 A 
ATOM     62  C   UNL A   1      41.930  29.772  32.467  1.00  0.00     0.049 A 
ATOM     63  H   UNL A   1      42.947  28.729  30.944  1.00  0.00     0.167 HD
ATOM     64  C   UNL A   1      43.071  31.721  31.425  1.00  0.00     0.074 A 
ATOM     65  C   UNL A   1      43.254  31.292  30.041  1.00  0.00     0.031 C 
ATOM     66  C   UNL A   1      42.556  31.075  32.515  1.00  0.00     0.034 A 
BRANCH  53  67
ATOM     67  C   UNL A   1      41.316  27.204  28.942  1.00  0.00     0.023 A 
ATOM     68  C   UNL A   1      41.718  25.903  29.305  1.00  0.00     0.012 A 
ATOM     69  C   UNL A   1      41.924  27.774  27.800  1.00  0.00     0.148 A 
ATOM     70  C   UNL A   1      42.699  25.214  28.583  1.00  0.00     0.002 A 
ATOM     71  C   UNL A   1      42.827  27.050  27.032  1.00  0.00     0.091 A 
ATOM     72  F   UNL A   1      41.749  29.071  27.521  1.00  0.00    -0.205 F 
ATOM     73  C   UNL A   1      43.241  25.780  27.436  1.00  0.00     0.022 A 
BRANCH  71  74
ATOM     74  S   UNL A   1      43.481  27.725  25.502  1.00  0.00     0.127 S 
ATOM     75  O   UNL A   1      44.366  28.774  25.995  1.00  0.00    -0.237 OA
ATOM     76  O   UNL A   1      44.157  26.565  24.920  1.00  0.00    -0.237 OA
ATOM     77  O   UNL A   1      42.307  28.163  24.754  1.00  0.00    -0.744 OA
ENDBRANCH  71  74
ENDBRANCH  53  67
BRANCH  54  78
ATOM     78  C   UNL A   1      42.820  35.654  28.827  1.00  0.00     0.023 A 
ATOM     79  C   UNL A   1      42.542  35.691  27.448  1.00  0.00     0.012 A 
ATOM     80  C   UNL A   1      43.499  36.757  29.397  1.00  0.00     0.148 A 
ATOM     81  C   UNL A   1      42.922  36.787  26.665  1.00  0.00     0.002 A 
ATOM     82  C   UNL A   1      43.899  37.832  28.610  1.00  0.00     0.091 A 
ATOM     83  F   UNL A   1      43.670  36.800  30.725  1.00  0.00    -0.205 F 
ATOM     84  C   UNL A   1      43.603  37.855  27.243  1.00  0.00     0.022 A 
BRANCH  82  85
ATOM     85  S   UNL A   1      44.784  39.238  29.301  1.00  0.00     0.127 S 
ATOM     86  O   UNL A   1      43.691  40.087  29.778  1.00  0.00    -0.237 OA
ATOM     87  O   UNL A   1      45.576  38.611  30.354  1.00  0.00    -0.237 OA
ATOM     88  O   UNL A   1      45.541  39.811  28.194  1.00  0.00    -0.744 OA
ENDBRANCH  82  85
ENDBRANCH  54  78
BRANCH  66  89
ATOM     89  C   UNL A   1      42.314  31.880  33.773  1.00  0.00     0.023 A 
ATOM     90  C   UNL A   1      43.350  32.140  34.694  1.00  0.00     0.012 A 
ATOM     91  C   UNL A   1      41.087  32.547  33.933  1.00  0.00     0.148 A 
ATOM     92  C   UNL A   1      43.162  33.014  35.766  1.00  0.00     0.002 A 
ATOM     93  C   UNL A   1      40.919  33.459  34.971  1.00  0.00     0.091 A 
ATOM     94  F   UNL A   1      40.109  32.306  33.046  1.00  0.00    -0.205 F 
ATOM     95  C   UNL A   1      41.950  33.685  35.897  1.00  0.00     0.022 A 
BRANCH  93  96
ATOM     96  S   UNL A   1      39.438  34.462  35.101  1.00  0.00     0.127 S 
ATOM     97  O   UNL A   1      39.267  34.941  33.732  1.00  0.00    -0.237 OA
ATOM     98  O   UNL A   1      38.431  33.492  35.538  1.00  0.00    -0.237 OA
ATOM     99  O   UNL A   1      39.741  35.484  36.096  1.00  0.00    -0.744 OA
ENDBRANCH  93  96
ENDBRANCH  66  89
ENDBRANCH  40  41
ENDBRANCH  33  35
ENDBRANCH  32  33
ENDBRANCH  31  32
ENDBRANCH   1  31
TORSDOF 19
ENDMDL
MODEL 3
REMARK VINA RESULT:     -11.8      4.466      6.372
REMARK SMILES CS(=O)(=O)c1ccc(-n2nc(C(F)(F)F)cc2-c2ccc(CC(=O)OCCOC(=O)c3ccc(-c4c5nc(c(-c6cccc(S(=O)(=O)[O-])c6F)c6ccc([nH]6)c(-c6cccc(S(=O)(=O)[O-])c6F)c6nc(c(-c7cccc(S(=O)(=O)[O-])c7F)c7ccc4[nH]7)C=C6)C=C5)cc3)cc2)cc1
REMARK SMILES IDX 26 1 25 2 23 3 24 4 22 5 21 6 18 7 19 8 95 9 20 10 94 11
REMARK SMILES IDX 17 12 9 13 10 14 11 15 16 16 8 17 5 18 6 19 97 20 7 21 96 22
REMARK SMILES IDX 2 23 1 24 3 25 4 26 12 27 13 28 14 29 15 30 27 31 28 32
REMARK SMILES IDX 29 33 30 34 31 35 32 36 93 37 33 38 92 39 34 40 35 41 36 42
REMARK SMILES IDX 86 43 37 44 91 45 85 46 87 47 38 48 90 49 84 50 83 51 39 53
REMARK SMILES IDX 71 54 51 55 70 56 52 57 55 58 69 59 88 60 53 61 54 62 68 64
REMARK SMILES IDX 89 65 56 66 40 67 41 68 49 69 42 70 44 71 50 72 43 73 45 74
REMARK SMILES IDX 46 75 47 76 48 77 72 78 73 79 81 80 74 81 76 82 82 83 75 84
REMARK SMILES IDX 77 85 78 86 79 87 80 88 57 89 58 90 66 91 59 92 61 93 67 94
REMARK SMILES IDX 60 95 62 96 63 97 64 98 65 99
REMARK H PARENT 87 52 55 63
REMARK Flexibility Score: inf
ROOT
ATOM      1  C   UNL A   1      31.490  27.720  26.993  1.00  0.00     0.274 C 
ENDROOT
BRANCH   1   2
ATOM      2  O   UNL A   1      31.076  27.521  25.623  1.00  0.00    -0.462 OA
BRANCH   2   3
ATOM      3  C   UNL A   1      30.614  26.276  25.320  1.00  0.00     0.310 C 
ATOM      4  O   UNL A   1      29.733  25.702  25.955  1.00  0.00    -0.252 OA
BRANCH   3   5
ATOM      5  C   UNL A   1      31.357  25.578  24.200  1.00  0.00     0.158 C 
BRANCH   5   6
ATOM      6  C   UNL A   1      32.711  24.969  24.487  1.00  0.00    -0.037 A 
ATOM      7  C   UNL A   1      35.226  23.827  25.080  1.00  0.00     0.000 A 
ATOM      8  C   UNL A   1      34.329  24.123  26.105  1.00  0.00     0.010 A 
ATOM      9  C   UNL A   1      34.881  24.148  23.762  1.00  0.00     0.010 A 
ATOM     10  C   UNL A   1      33.101  24.712  25.806  1.00  0.00     0.005 A 
ATOM     11  C   UNL A   1      33.624  24.693  23.466  1.00  0.00     0.005 A 
BRANCH   7  12
ATOM     12  C   UNL A   1      36.505  23.200  25.396  1.00  0.00     0.075 A 
ATOM     13  N   UNL A   1      36.721  21.833  25.561  1.00  0.00    -0.233 N 
ATOM     14  N   UNL A   1      37.949  21.586  26.094  1.00  0.00    -0.163 NA
ATOM     15  C   UNL A   1      38.571  22.777  26.135  1.00  0.00     0.167 A 
ATOM     16  C   UNL A   1      37.695  23.813  25.732  1.00  0.00     0.064 A 
BRANCH  13  17
ATOM     17  C   UNL A   1      35.895  20.739  25.177  1.00  0.00     0.065 A 
ATOM     18  C   UNL A   1      34.252  18.579  24.506  1.00  0.00     0.067 A 
ATOM     19  C   UNL A   1      35.636  18.410  24.534  1.00  0.00     0.022 A 
ATOM     20  C   UNL A   1      33.682  19.822  24.806  1.00  0.00     0.022 A 
ATOM     21  C   UNL A   1      36.455  19.493  24.861  1.00  0.00     0.030 A 
ATOM     22  C   UNL A   1      34.502  20.896  25.164  1.00  0.00     0.030 A 
BRANCH  18  23
ATOM     23  S   UNL A   1      33.148  17.243  24.120  1.00  0.00     0.175 S 
ATOM     24  C   UNL A   1      33.632  15.854  25.106  1.00  0.00     0.163 C 
ATOM     25  O   UNL A   1      33.389  16.897  22.736  1.00  0.00    -0.224 OA
ATOM     26  O   UNL A   1      31.836  17.658  24.586  1.00  0.00    -0.224 OA
ENDBRANCH  18  23
ENDBRANCH  13  17
BRANCH  15  27
ATOM     27  C   UNL A   1      40.007  22.939  26.553  1.00  0.00     0.435 C 
ATOM     28  F   UNL A   1      40.451  24.219  26.497  1.00  0.00    -0.164 F 
ATOM     29  F   UNL A   1      40.213  22.498  27.826  1.00  0.00    -0.164 F 
ATOM     30  F   UNL A   1      40.843  22.204  25.766  1.00  0.00    -0.164 F 
ENDBRANCH  15  27
ENDBRANCH   7  12
ENDBRANCH   5   6
ENDBRANCH   3   5
ENDBRANCH   2   3
ENDBRANCH   1   2
BRANCH   1  31
ATOM     31  C   UNL A   1      32.131  29.085  27.256  1.00  0.00     0.275 C 
BRANCH  31  32
ATOM     32  O   UNL A   1      33.487  28.984  27.689  1.00  0.00    -0.458 OA
BRANCH  32  33
ATOM     33  C   UNL A   1      34.033  30.193  27.941  1.00  0.00     0.338 C 
ATOM     34  O   UNL A   1      33.435  31.223  28.200  1.00  0.00    -0.246 OA
BRANCH  33  35
ATOM     35  C   UNL A   1      35.464  30.200  27.665  1.00  0.00     0.060 A 
ATOM     36  C   UNL A   1      36.138  28.976  27.738  1.00  0.00     0.016 A 
ATOM     37  C   UNL A   1      36.129  31.423  27.746  1.00  0.00     0.016 A 
ATOM     38  C   UNL A   1      37.466  28.965  28.091  1.00  0.00     0.010 A 
ATOM     39  C   UNL A   1      37.459  31.413  28.093  1.00  0.00     0.010 A 
ATOM     40  C   UNL A   1      38.086  30.186  28.337  1.00  0.00    -0.014 A 
BRANCH  40  41
ATOM     41  C   UNL A   1      39.450  30.171  28.817  1.00  0.00     0.031 A 
ATOM     42  C   UNL A   1      39.628  30.755  30.166  1.00  0.00     0.074 A 
ATOM     43  C   UNL A   1      40.399  29.491  28.149  1.00  0.00     0.049 A 
ATOM     44  N   UNL A   1      40.448  31.684  30.531  1.00  0.00    -0.248 NA
ATOM     45  C   UNL A   1      38.687  30.332  31.216  1.00  0.00     0.031 C 
ATOM     46  C   UNL A   1      40.214  28.658  26.956  1.00  0.00     0.029 A 
ATOM     47  N   UNL A   1      41.684  29.232  28.521  1.00  0.00    -0.354 N 
ATOM     48  C   UNL A   1      40.272  31.804  31.907  1.00  0.00     0.074 A 
ATOM     49  C   UNL A   1      39.063  31.099  32.237  1.00  0.00     0.031 C 
ATOM     50  C   UNL A   1      41.234  27.778  26.881  1.00  0.00     0.029 A 
ATOM     51  C   UNL A   1      42.173  28.059  27.954  1.00  0.00     0.049 A 
ATOM     52  H   UNL A   1      42.206  29.809  29.123  1.00  0.00     0.167 HD
ATOM     53  C   UNL A   1      41.261  32.256  32.720  1.00  0.00     0.034 A 
ATOM     54  C   UNL A   1      43.199  27.307  28.418  1.00  0.00     0.034 A 
ATOM     55  C   UNL A   1      42.303  32.925  31.995  1.00  0.00     0.049 A 
ATOM     56  C   UNL A   1      43.990  28.144  29.350  1.00  0.00     0.074 A 
ATOM     57  C   UNL A   1      42.357  34.020  31.154  1.00  0.00     0.029 A 
ATOM     58  N   UNL A   1      43.480  32.244  31.813  1.00  0.00    -0.354 N 
ATOM     59  N   UNL A   1      44.711  29.164  28.975  1.00  0.00    -0.248 NA
ATOM     60  C   UNL A   1      43.666  28.102  30.769  1.00  0.00     0.031 C 
ATOM     61  C   UNL A   1      43.354  33.697  30.191  1.00  0.00     0.029 A 
ATOM     62  C   UNL A   1      43.869  32.439  30.514  1.00  0.00     0.049 A 
ATOM     63  H   UNL A   1      43.956  31.711  32.490  1.00  0.00     0.167 HD
ATOM     64  C   UNL A   1      44.539  30.102  29.986  1.00  0.00     0.074 A 
ATOM     65  C   UNL A   1      44.011  29.346  31.118  1.00  0.00     0.031 C 
ATOM     66  C   UNL A   1      44.549  31.443  29.714  1.00  0.00     0.034 A 
BRANCH  53  67
ATOM     67  C   UNL A   1      41.453  31.795  34.140  1.00  0.00     0.023 A 
ATOM     68  C   UNL A   1      41.520  32.782  35.145  1.00  0.00     0.012 A 
ATOM     69  C   UNL A   1      41.826  30.480  34.500  1.00  0.00     0.148 A 
ATOM     70  C   UNL A   1      41.963  32.479  36.437  1.00  0.00     0.002 A 
ATOM     71  C   UNL A   1      42.174  30.165  35.807  1.00  0.00     0.091 A 
ATOM     72  F   UNL A   1      41.988  29.545  33.557  1.00  0.00    -0.205 F 
ATOM     73  C   UNL A   1      42.273  31.167  36.774  1.00  0.00     0.022 A 
BRANCH  71  74
ATOM     74  S   UNL A   1      42.500  28.466  36.288  1.00  0.00     0.127 S 
ATOM     75  O   UNL A   1      43.435  28.646  37.394  1.00  0.00    -0.237 OA
ATOM     76  O   UNL A   1      41.168  27.995  36.671  1.00  0.00    -0.237 OA
ATOM     77  O   UNL A   1      43.029  27.831  35.087  1.00  0.00    -0.744 OA
ENDBRANCH  71  74
ENDBRANCH  53  67
BRANCH  54  78
ATOM     78  C   UNL A   1      43.418  25.850  28.268  1.00  0.00     0.023 A 
ATOM     79  C   UNL A   1      42.739  24.954  29.114  1.00  0.00     0.012 A 
ATOM     80  C   UNL A   1      44.129  25.315  27.168  1.00  0.00     0.148 A 
ATOM     81  C   UNL A   1      42.761  23.576  28.872  1.00  0.00     0.002 A 
ATOM     82  C   UNL A   1      44.172  23.942  26.947  1.00  0.00     0.091 A 
ATOM     83  F   UNL A   1      44.685  26.154  26.282  1.00  0.00    -0.205 F 
ATOM     84  C   UNL A   1      43.480  23.069  27.792  1.00  0.00     0.022 A 
BRANCH  82  85
ATOM     85  S   UNL A   1      45.086  23.230  25.571  1.00  0.00     0.127 S 
ATOM     86  O   UNL A   1      46.470  23.325  26.037  1.00  0.00    -0.237 OA
ATOM     87  O   UNL A   1      44.550  21.873  25.520  1.00  0.00    -0.237 OA
ATOM     88  O   UNL A   1      44.788  24.073  24.419  1.00  0.00    -0.744 OA
ENDBRANCH  82  85
ENDBRANCH  54  78
BRANCH  66  89
ATOM     89  C   UNL A   1      44.996  31.890  28.341  1.00  0.00     0.023 A 
ATOM     90  C   UNL A   1      44.067  32.215  27.331  1.00  0.00     0.012 A 
ATOM     91  C   UNL A   1      46.355  32.177  28.123  1.00  0.00     0.148 A 
ATOM     92  C   UNL A   1      44.480  32.779  26.122  1.00  0.00     0.002 A 
ATOM     93  C   UNL A   1      46.758  32.789  26.940  1.00  0.00     0.091 A 
ATOM     94  F   UNL A   1      47.234  31.878  29.092  1.00  0.00    -0.205 F 
ATOM     95  C   UNL A   1      45.824  33.079  25.931  1.00  0.00     0.022 A 
BRANCH  93  96
ATOM     96  S   UNL A   1      48.450  33.335  26.701  1.00  0.00     0.127 S 
ATOM     97  O   UNL A   1      49.180  32.071  26.653  1.00  0.00    -0.237 OA
ATOM     98  O   UNL A   1      48.379  34.049  25.423  1.00  0.00    -0.237 OA
ATOM     99  O   UNL A   1      48.749  34.197  27.838  1.00  0.00    -0.744 OA
ENDBRANCH  93  96
ENDBRANCH  66  89
ENDBRANCH  40  41
ENDBRANCH  33  35
ENDBRANCH  32  33
ENDBRANCH  31  32
ENDBRANCH   1  31
TORSDOF 19
ENDMDL
