MODEL 1
REMARK VINA RESULT:     -11.8      0.000      0.000
REMARK SMILES Cc1ccc([C@H](Nc2ccc(Cl)c(Br)c2)C(=O)OCCOC(=O)c2ccc(-c3c4nc(c(-c5cccc(S(=O)(=O)[O-])c5F)c5ccc([nH]5)c(-c5cccc(S(=O)(=O)[O-])c5F)c5nc(c(-c6cccc(S(=O)(=O)[O-])c6F)c6ccc3[nH]6)C=C5)C=C4)cc2)s1
REMARK SMILES IDX 20 1 19 2 18 3 16 4 17 5 6 6 5 7 1 8 2 9 3 10 87 11 4 12
REMARK SMILES IDX 7 13 8 15 9 16 15 17 10 18 13 19 11 20 14 21 12 22 21 23
REMARK SMILES IDX 22 24 23 25 24 26 25 27 86 28 26 29 85 30 27 31 28 32 29 33
REMARK SMILES IDX 79 34 30 35 84 36 78 37 80 38 31 39 83 40 77 41 76 42 32 44
REMARK SMILES IDX 64 45 44 46 63 47 45 48 48 49 62 50 81 51 46 52 47 53 61 55
REMARK SMILES IDX 82 56 49 57 33 58 34 59 42 60 35 61 37 62 43 63 36 64 38 65
REMARK SMILES IDX 39 66 40 67 41 68 65 69 66 70 74 71 67 72 69 73 75 74 68 75
REMARK SMILES IDX 70 76 71 77 72 78 73 79 50 80 51 81 59 82 52 83 54 84 60 85
REMARK SMILES IDX 53 86 55 87 56 88 57 89 58 90
REMARK H PARENT 7 14 80 43 48 54
REMARK Flexibility Score: inf
ROOT
ATOM      1  C   UNL A   1      31.857  30.890  26.685  1.00  0.00     0.275 C 
ENDROOT
BRANCH   1   2
ATOM      2  C   UNL A   1      31.293  30.385  25.354  1.00  0.00     0.274 C 
BRANCH   2   3
ATOM      3  O   UNL A   1      31.108  28.957  25.336  1.00  0.00    -0.460 OA
BRANCH   3   4
ATOM      4  C   UNL A   1      31.533  28.307  24.215  1.00  0.00     0.334 C 
ATOM      5  O   UNL A   1      32.669  28.431  23.760  1.00  0.00    -0.249 OA
BRANCH   4   6
ATOM      6  C   UNL A   1      30.430  27.491  23.497  1.00  0.00     0.231 C 
BRANCH   6   7
ATOM      7  C   UNL A   1      29.427  28.497  22.950  1.00  0.00     0.038 A 
ATOM      8  C   UNL A   1      28.150  31.621  20.940  1.00  0.00     0.056 C 
ATOM      9  C   UNL A   1      28.384  30.403  21.767  1.00  0.00     0.002 A 
ATOM     10  C   UNL A   1      27.470  29.690  22.510  1.00  0.00     0.015 A 
ATOM     11  S   UNL A   1      29.954  29.735  21.884  1.00  0.00    -0.143 S 
ATOM     12  C   UNL A   1      28.065  28.581  23.173  1.00  0.00     0.018 A 
ENDBRANCH   6   7
BRANCH   6  13
ATOM     13  N   UNL A   1      29.755  26.441  24.306  1.00  0.00    -0.368 N 
ATOM     14  H   UNL A   1      28.800  26.510  24.533  1.00  0.00     0.161 HD
BRANCH  13  15
ATOM     15  C   UNL A   1      30.522  25.354  24.731  1.00  0.00     0.036 A 
ATOM     16  C   UNL A   1      30.944  25.286  26.060  1.00  0.00     0.027 A 
ATOM     17  C   UNL A   1      30.898  24.329  23.855  1.00  0.00     0.043 A 
ATOM     18  C   UNL A   1      31.771  24.249  26.500  1.00  0.00     0.024 A 
ATOM     19  C   UNL A   1      31.712  23.275  24.296  1.00  0.00     0.038 A 
ATOM     20  C   UNL A   1      32.166  23.244  25.617  1.00  0.00     0.055 A 
ATOM     21  Br  UNL A   1      32.149  21.919  23.038  1.00  0.00    -0.049 Br
ATOM     22  Cl  UNL A   1      33.205  22.008  26.231  1.00  0.00    -0.083 Cl
ENDBRANCH  13  15
ENDBRANCH   6  13
ENDBRANCH   4   6
ENDBRANCH   3   4
ENDBRANCH   2   3
ENDBRANCH   1   2
BRANCH   1  23
ATOM     23  O   UNL A   1      33.295  30.831  26.726  1.00  0.00    -0.458 OA
BRANCH  23  24
ATOM     24  C   UNL A   1      33.884  31.796  27.464  1.00  0.00     0.338 C 
ATOM     25  O   UNL A   1      33.429  32.897  27.734  1.00  0.00    -0.246 OA
BRANCH  24  26
ATOM     26  C   UNL A   1      35.159  31.335  28.008  1.00  0.00     0.060 A 
ATOM     27  C   UNL A   1      36.234  32.217  28.108  1.00  0.00     0.016 A 
ATOM     28  C   UNL A   1      35.231  30.038  28.527  1.00  0.00     0.016 A 
ATOM     29  C   UNL A   1      37.407  31.781  28.719  1.00  0.00     0.010 A 
ATOM     30  C   UNL A   1      36.400  29.607  29.141  1.00  0.00     0.010 A 
ATOM     31  C   UNL A   1      37.495  30.475  29.230  1.00  0.00    -0.014 A 
BRANCH  31  32
ATOM     32  C   UNL A   1      38.750  30.022  29.860  1.00  0.00     0.031 A 
ATOM     33  C   UNL A   1      39.115  30.515  31.227  1.00  0.00     0.074 A 
ATOM     34  C   UNL A   1      39.550  29.173  29.191  1.00  0.00     0.049 A 
ATOM     35  N   UNL A   1      40.092  30.126  32.001  1.00  0.00    -0.248 NA
ATOM     36  C   UNL A   1      38.283  31.586  31.799  1.00  0.00     0.031 C 
ATOM     37  C   UNL A   1      39.326  28.711  27.819  1.00  0.00     0.029 A 
ATOM     38  N   UNL A   1      40.710  28.551  29.570  1.00  0.00    -0.354 N 
ATOM     39  C   UNL A   1      39.998  30.906  33.145  1.00  0.00     0.074 A 
ATOM     40  C   UNL A   1      38.887  31.810  32.959  1.00  0.00     0.031 C 
ATOM     41  C   UNL A   1      40.312  27.866  27.477  1.00  0.00     0.029 A 
ATOM     42  C   UNL A   1      41.228  27.721  28.605  1.00  0.00     0.049 A 
ATOM     43  H   UNL A   1      41.132  28.686  30.449  1.00  0.00     0.167 HD
ATOM     44  C   UNL A   1      40.755  30.843  34.264  1.00  0.00     0.034 A 
ATOM     45  C   UNL A   1      42.304  26.912  28.643  1.00  0.00     0.034 A 
ATOM     46  C   UNL A   1      41.830  29.909  34.446  1.00  0.00     0.049 A 
ATOM     47  C   UNL A   1      43.083  26.805  29.924  1.00  0.00     0.074 A 
ATOM     48  C   UNL A   1      42.604  29.699  35.573  1.00  0.00     0.029 A 
ATOM     49  N   UNL A   1      42.286  29.034  33.472  1.00  0.00    -0.354 N 
ATOM     50  N   UNL A   1      42.876  27.422  31.063  1.00  0.00    -0.248 NA
ATOM     51  C   UNL A   1      44.214  25.867  29.945  1.00  0.00     0.031 C 
ATOM     52  C   UNL A   1      43.532  28.695  35.278  1.00  0.00     0.029 A 
ATOM     53  C   UNL A   1      43.333  28.283  33.969  1.00  0.00     0.049 A 
ATOM     54  H   UNL A   1      41.919  28.960  32.561  1.00  0.00     0.167 HD
ATOM     55  C   UNL A   1      43.837  26.938  31.940  1.00  0.00     0.074 A 
ATOM     56  C   UNL A   1      44.617  25.961  31.207  1.00  0.00     0.031 C 
ATOM     57  C   UNL A   1      44.063  27.285  33.230  1.00  0.00     0.034 A 
BRANCH  44  58
ATOM     58  C   UNL A   1      40.400  31.747  35.408  1.00  0.00     0.023 A 
ATOM     59  C   UNL A   1      41.154  32.921  35.605  1.00  0.00     0.012 A 
ATOM     60  C   UNL A   1      39.282  31.492  36.223  1.00  0.00     0.148 A 
ATOM     61  C   UNL A   1      40.807  33.827  36.606  1.00  0.00     0.002 A 
ATOM     62  C   UNL A   1      38.926  32.412  37.202  1.00  0.00     0.091 A 
ATOM     63  F   UNL A   1      38.589  30.362  36.020  1.00  0.00    -0.205 F 
ATOM     64  C   UNL A   1      39.689  33.576  37.397  1.00  0.00     0.022 A 
BRANCH  62  65
ATOM     65  S   UNL A   1      37.481  32.213  38.251  1.00  0.00     0.127 S 
ATOM     66  O   UNL A   1      37.290  30.764  38.221  1.00  0.00    -0.237 OA
ATOM     67  O   UNL A   1      37.959  32.740  39.529  1.00  0.00    -0.237 OA
ATOM     68  O   UNL A   1      36.417  32.985  37.625  1.00  0.00    -0.744 OA
ENDBRANCH  62  65
ENDBRANCH  44  58
BRANCH  45  69
ATOM     69  C   UNL A   1      42.622  26.070  27.459  1.00  0.00     0.023 A 
ATOM     70  C   UNL A   1      43.456  26.587  26.450  1.00  0.00     0.012 A 
ATOM     71  C   UNL A   1      42.178  24.736  27.372  1.00  0.00     0.148 A 
ATOM     72  C   UNL A   1      43.838  25.791  25.369  1.00  0.00     0.002 A 
ATOM     73  C   UNL A   1      42.592  23.938  26.312  1.00  0.00     0.091 A 
ATOM     74  F   UNL A   1      41.379  24.270  28.342  1.00  0.00    -0.205 F 
ATOM     75  C   UNL A   1      43.416  24.466  25.305  1.00  0.00     0.022 A 
BRANCH  73  76
ATOM     76  S   UNL A   1      42.184  22.192  26.196  1.00  0.00     0.127 S 
ATOM     77  O   UNL A   1      42.909  21.795  24.992  1.00  0.00    -0.237 OA
ATOM     78  O   UNL A   1      42.735  21.669  27.447  1.00  0.00    -0.237 OA
ATOM     79  O   UNL A   1      40.731  22.132  26.105  1.00  0.00    -0.744 OA
ENDBRANCH  73  76
ENDBRANCH  45  69
BRANCH  57  80
ATOM     80  C   UNL A   1      45.203  26.620  33.948  1.00  0.00     0.023 A 
ATOM     81  C   UNL A   1      46.471  27.228  33.923  1.00  0.00     0.012 A 
ATOM     82  C   UNL A   1      44.981  25.493  34.763  1.00  0.00     0.148 A 
ATOM     83  C   UNL A   1      47.510  26.722  34.701  1.00  0.00     0.002 A 
ATOM     84  C   UNL A   1      46.012  25.015  35.562  1.00  0.00     0.091 A 
ATOM     85  F   UNL A   1      43.764  24.931  34.759  1.00  0.00    -0.205 F 
ATOM     86  C   UNL A   1      47.277  25.626  35.530  1.00  0.00     0.022 A 
BRANCH  84  87
ATOM     87  S   UNL A   1      45.788  23.663  36.722  1.00  0.00     0.127 S 
ATOM     88  O   UNL A   1      47.152  23.453  37.203  1.00  0.00    -0.237 OA
ATOM     89  O   UNL A   1      44.876  24.247  37.706  1.00  0.00    -0.237 OA
ATOM     90  O   UNL A   1      45.224  22.559  35.954  1.00  0.00    -0.744 OA
ENDBRANCH  84  87
ENDBRANCH  57  80
ENDBRANCH  31  32
ENDBRANCH  24  26
ENDBRANCH  23  24
ENDBRANCH   1  23
TORSDOF 17
ENDMDL
MODEL 2
REMARK VINA RESULT:     -11.7      2.360      3.608
REMARK SMILES Cc1ccc([C@H](Nc2ccc(Cl)c(Br)c2)C(=O)OCCOC(=O)c2ccc(-c3c4nc(c(-c5cccc(S(=O)(=O)[O-])c5F)c5ccc([nH]5)c(-c5cccc(S(=O)(=O)[O-])c5F)c5nc(c(-c6cccc(S(=O)(=O)[O-])c6F)c6ccc3[nH]6)C=C5)C=C4)cc2)s1
REMARK SMILES IDX 20 1 19 2 18 3 16 4 17 5 6 6 5 7 1 8 2 9 3 10 87 11 4 12
REMARK SMILES IDX 7 13 8 15 9 16 15 17 10 18 13 19 11 20 14 21 12 22 21 23
REMARK SMILES IDX 22 24 23 25 24 26 25 27 86 28 26 29 85 30 27 31 28 32 29 33
REMARK SMILES IDX 79 34 30 35 84 36 78 37 80 38 31 39 83 40 77 41 76 42 32 44
REMARK SMILES IDX 64 45 44 46 63 47 45 48 48 49 62 50 81 51 46 52 47 53 61 55
REMARK SMILES IDX 82 56 49 57 33 58 34 59 42 60 35 61 37 62 43 63 36 64 38 65
REMARK SMILES IDX 39 66 40 67 41 68 65 69 66 70 74 71 67 72 69 73 75 74 68 75
REMARK SMILES IDX 70 76 71 77 72 78 73 79 50 80 51 81 59 82 52 83 54 84 60 85
REMARK SMILES IDX 53 86 55 87 56 88 57 89 58 90
REMARK H PARENT 7 14 80 43 48 54
REMARK Flexibility Score: inf
ROOT
ATOM      1  C   UNL A   1      31.813  29.569  26.658  1.00  0.00     0.275 C 
ENDROOT
BRANCH   1   2
ATOM      2  C   UNL A   1      31.825  28.123  26.154  1.00  0.00     0.274 C 
BRANCH   2   3
ATOM      3  O   UNL A   1      33.159  27.611  25.972  1.00  0.00    -0.460 OA
BRANCH   3   4
ATOM      4  C   UNL A   1      33.465  27.155  24.723  1.00  0.00     0.334 C 
ATOM      5  O   UNL A   1      34.092  27.823  23.903  1.00  0.00    -0.249 OA
BRANCH   4   6
ATOM      6  C   UNL A   1      32.854  25.773  24.384  1.00  0.00     0.231 C 
BRANCH   6   7
ATOM      7  C   UNL A   1      34.018  24.805  24.234  1.00  0.00     0.038 A 
ATOM      8  C   UNL A   1      37.223  22.791  25.286  1.00  0.00     0.056 C 
ATOM      9  C   UNL A   1      36.033  23.432  24.658  1.00  0.00     0.002 A 
ATOM     10  C   UNL A   1      35.576  23.298  23.365  1.00  0.00     0.015 A 
ATOM     11  S   UNL A   1      35.051  24.496  25.569  1.00  0.00    -0.143 S 
ATOM     12  C   UNL A   1      34.404  24.070  23.127  1.00  0.00     0.018 A 
ENDBRANCH   6   7
BRANCH   6  13
ATOM     13  N   UNL A   1      31.953  25.722  23.203  1.00  0.00    -0.368 N 
ATOM     14  H   UNL A   1      32.178  25.177  22.415  1.00  0.00     0.161 HD
BRANCH  13  15
ATOM     15  C   UNL A   1      30.776  26.473  23.248  1.00  0.00     0.036 A 
ATOM     16  C   UNL A   1      29.650  25.952  23.888  1.00  0.00     0.027 A 
ATOM     17  C   UNL A   1      30.684  27.736  22.653  1.00  0.00     0.043 A 
ATOM     18  C   UNL A   1      28.438  26.647  23.891  1.00  0.00     0.024 A 
ATOM     19  C   UNL A   1      29.474  28.448  22.668  1.00  0.00     0.038 A 
ATOM     20  C   UNL A   1      28.343  27.894  23.272  1.00  0.00     0.055 A 
ATOM     21  Br  UNL A   1      29.456  30.165  21.855  1.00  0.00    -0.049 Br
ATOM     22  Cl  UNL A   1      26.805  28.681  23.300  1.00  0.00    -0.083 Cl
ENDBRANCH  13  15
ENDBRANCH   6  13
ENDBRANCH   4   6
ENDBRANCH   3   4
ENDBRANCH   2   3
ENDBRANCH   1   2
BRANCH   1  23
ATOM     23  O   UNL A   1      32.964  30.311  26.215  1.00  0.00    -0.458 OA
BRANCH  23  24
ATOM     24  C   UNL A   1      33.320  31.340  27.013  1.00  0.00     0.338 C 
ATOM     25  O   UNL A   1      32.719  32.391  27.173  1.00  0.00    -0.246 OA
BRANCH  24  26
ATOM     26  C   UNL A   1      34.525  31.020  27.776  1.00  0.00     0.060 A 
ATOM     27  C   UNL A   1      34.749  29.715  28.211  1.00  0.00     0.016 A 
ATOM     28  C   UNL A   1      35.487  32.021  27.952  1.00  0.00     0.016 A 
ATOM     29  C   UNL A   1      35.948  29.415  28.851  1.00  0.00     0.010 A 
ATOM     30  C   UNL A   1      36.685  31.719  28.586  1.00  0.00     0.010 A 
ATOM     31  C   UNL A   1      36.915  30.417  29.046  1.00  0.00    -0.014 A 
BRANCH  31  32
ATOM     32  C   UNL A   1      38.175  30.089  29.740  1.00  0.00     0.031 A 
ATOM     33  C   UNL A   1      38.430  30.629  31.114  1.00  0.00     0.074 A 
ATOM     34  C   UNL A   1      39.080  29.309  29.121  1.00  0.00     0.049 A 
ATOM     35  N   UNL A   1      39.401  30.341  31.937  1.00  0.00    -0.248 NA
ATOM     36  C   UNL A   1      37.478  31.626  31.630  1.00  0.00     0.031 C 
ATOM     37  C   UNL A   1      38.963  28.812  27.749  1.00  0.00     0.029 A 
ATOM     38  N   UNL A   1      40.272  28.801  29.562  1.00  0.00    -0.354 N 
ATOM     39  C   UNL A   1      39.184  31.122  33.064  1.00  0.00     0.074 A 
ATOM     40  C   UNL A   1      38.004  31.918  32.812  1.00  0.00     0.031 C 
ATOM     41  C   UNL A   1      40.036  28.057  27.465  1.00  0.00     0.029 A 
ATOM     42  C   UNL A   1      40.908  28.009  28.635  1.00  0.00     0.049 A 
ATOM     43  H   UNL A   1      40.639  28.984  30.457  1.00  0.00     0.167 HD
ATOM     44  C   UNL A   1      39.891  31.142  34.216  1.00  0.00     0.034 A 
ATOM     45  C   UNL A   1      42.050  27.303  28.735  1.00  0.00     0.034 A 
ATOM     46  C   UNL A   1      41.037  30.313  34.462  1.00  0.00     0.049 A 
ATOM     47  C   UNL A   1      42.775  27.284  30.051  1.00  0.00     0.074 A 
ATOM     48  C   UNL A   1      41.773  30.188  35.625  1.00  0.00     0.029 A 
ATOM     49  N   UNL A   1      41.615  29.472  33.524  1.00  0.00    -0.354 N 
ATOM     50  N   UNL A   1      42.460  27.892  31.170  1.00  0.00    -0.248 NA
ATOM     51  C   UNL A   1      43.985  26.453  30.139  1.00  0.00     0.031 C 
ATOM     52  C   UNL A   1      42.801  29.271  35.389  1.00  0.00     0.029 A 
ATOM     53  C   UNL A   1      42.702  28.826  34.080  1.00  0.00     0.049 A 
ATOM     54  H   UNL A   1      41.299  29.354  32.598  1.00  0.00     0.167 HD
ATOM     55  C   UNL A   1      43.420  27.509  32.097  1.00  0.00     0.074 A 
ATOM     56  C   UNL A   1      44.319  26.599  31.415  1.00  0.00     0.031 C 
ATOM     57  C   UNL A   1      43.553  27.890  33.390  1.00  0.00     0.034 A 
BRANCH  44  58
ATOM     58  C   UNL A   1      39.402  32.024  35.328  1.00  0.00     0.023 A 
ATOM     59  C   UNL A   1      38.493  31.494  36.265  1.00  0.00     0.012 A 
ATOM     60  C   UNL A   1      39.900  33.328  35.501  1.00  0.00     0.148 A 
ATOM     61  C   UNL A   1      38.077  32.254  37.357  1.00  0.00     0.002 A 
ATOM     62  C   UNL A   1      39.501  34.071  36.606  1.00  0.00     0.091 A 
ATOM     63  F   UNL A   1      40.755  33.811  34.588  1.00  0.00    -0.205 F 
ATOM     64  C   UNL A   1      38.587  33.537  37.532  1.00  0.00     0.022 A 
BRANCH  62  65
ATOM     65  S   UNL A   1      40.127  35.718  36.954  1.00  0.00     0.127 S 
ATOM     66  O   UNL A   1      39.640  36.470  35.798  1.00  0.00    -0.237 OA
ATOM     67  O   UNL A   1      39.458  36.037  38.215  1.00  0.00    -0.237 OA
ATOM     68  O   UNL A   1      41.575  35.593  37.039  1.00  0.00    -0.744 OA
ENDBRANCH  62  65
ENDBRANCH  44  58
BRANCH  45  69
ATOM     69  C   UNL A   1      42.499  26.480  27.581  1.00  0.00     0.023 A 
ATOM     70  C   UNL A   1      43.403  27.029  26.652  1.00  0.00     0.012 A 
ATOM     71  C   UNL A   1      42.105  25.134  27.448  1.00  0.00     0.148 A 
ATOM     72  C   UNL A   1      43.905  26.253  25.606  1.00  0.00     0.002 A 
ATOM     73  C   UNL A   1      42.636  24.357  26.425  1.00  0.00     0.091 A 
ATOM     74  F   UNL A   1      41.237  24.638  28.340  1.00  0.00    -0.205 F 
ATOM     75  C   UNL A   1      43.530  24.916  25.498  1.00  0.00     0.022 A 
BRANCH  73  76
ATOM     76  S   UNL A   1      42.293  22.600  26.265  1.00  0.00     0.127 S 
ATOM     77  O   UNL A   1      42.987  22.273  25.021  1.00  0.00    -0.237 OA
ATOM     78  O   UNL A   1      42.913  22.060  27.475  1.00  0.00    -0.237 OA
ATOM     79  O   UNL A   1      40.842  22.484  26.227  1.00  0.00    -0.744 OA
ENDBRANCH  73  76
ENDBRANCH  45  69
BRANCH  57  80
ATOM     80  C   UNL A   1      44.714  27.341  34.170  1.00  0.00     0.023 A 
ATOM     81  C   UNL A   1      45.906  28.085  34.230  1.00  0.00     0.012 A 
ATOM     82  C   UNL A   1      44.570  26.182  34.956  1.00  0.00     0.148 A 
ATOM     83  C   UNL A   1      46.946  27.682  35.066  1.00  0.00     0.002 A 
ATOM     84  C   UNL A   1      45.597  25.805  35.811  1.00  0.00     0.091 A 
ATOM     85  F   UNL A   1      43.425  25.490  34.869  1.00  0.00    -0.205 F 
ATOM     86  C   UNL A   1      46.786  26.552  35.865  1.00  0.00     0.022 A 
BRANCH  84  87
ATOM     87  S   UNL A   1      45.454  24.415  36.939  1.00  0.00     0.127 S 
ATOM     88  O   UNL A   1      44.361  24.848  37.808  1.00  0.00    -0.237 OA
ATOM     89  O   UNL A   1      45.118  23.316  36.035  1.00  0.00    -0.237 OA
ATOM     90  O   UNL A   1      46.752  24.288  37.591  1.00  0.00    -0.744 OA
ENDBRANCH  84  87
ENDBRANCH  57  80
ENDBRANCH  31  32
ENDBRANCH  24  26
ENDBRANCH  23  24
ENDBRANCH   1  23
TORSDOF 17
ENDMDL
MODEL 3
REMARK VINA RESULT:     -11.6      5.352     10.382
REMARK SMILES Cc1ccc([C@H](Nc2ccc(Cl)c(Br)c2)C(=O)OCCOC(=O)c2ccc(-c3c4nc(c(-c5cccc(S(=O)(=O)[O-])c5F)c5ccc([nH]5)c(-c5cccc(S(=O)(=O)[O-])c5F)c5nc(c(-c6cccc(S(=O)(=O)[O-])c6F)c6ccc3[nH]6)C=C5)C=C4)cc2)s1
REMARK SMILES IDX 20 1 19 2 18 3 16 4 17 5 6 6 5 7 1 8 2 9 3 10 87 11 4 12
REMARK SMILES IDX 7 13 8 15 9 16 15 17 10 18 13 19 11 20 14 21 12 22 21 23
REMARK SMILES IDX 22 24 23 25 24 26 25 27 86 28 26 29 85 30 27 31 28 32 29 33
REMARK SMILES IDX 79 34 30 35 84 36 78 37 80 38 31 39 83 40 77 41 76 42 32 44
REMARK SMILES IDX 64 45 44 46 63 47 45 48 48 49 62 50 81 51 46 52 47 53 61 55
REMARK SMILES IDX 82 56 49 57 33 58 34 59 42 60 35 61 37 62 43 63 36 64 38 65
REMARK SMILES IDX 39 66 40 67 41 68 65 69 66 70 74 71 67 72 69 73 75 74 68 75
REMARK SMILES IDX 70 76 71 77 72 78 73 79 50 80 51 81 59 82 52 83 54 84 60 85
REMARK SMILES IDX 53 86 55 87 56 88 57 89 58 90
REMARK H PARENT 7 14 80 43 48 54
REMARK Flexibility Score: inf
ROOT
ATOM      1  C   UNL A   1      37.208  21.476  24.609  1.00  0.00     0.275 C 
ENDROOT
BRANCH   1   2
ATOM      2  C   UNL A   1      36.474  22.661  23.975  1.00  0.00     0.274 C 
BRANCH   2   3
ATOM      3  O   UNL A   1      35.060  22.426  23.833  1.00  0.00    -0.460 OA
BRANCH   3   4
ATOM      4  C   UNL A   1      34.350  23.389  23.179  1.00  0.00     0.334 C 
ATOM      5  O   UNL A   1      34.139  23.358  21.968  1.00  0.00    -0.249 OA
BRANCH   4   6
ATOM      6  C   UNL A   1      33.935  24.586  24.069  1.00  0.00     0.231 C 
BRANCH   6   7
ATOM      7  C   UNL A   1      33.051  24.025  25.173  1.00  0.00     0.038 A 
ATOM      8  C   UNL A   1      29.775  22.657  26.857  1.00  0.00     0.056 C 
ATOM      9  C   UNL A   1      31.127  23.135  26.451  1.00  0.00     0.002 A 
ATOM     10  C   UNL A   1      32.253  23.269  27.233  1.00  0.00     0.015 A 
ATOM     11  S   UNL A   1      31.419  23.612  24.835  1.00  0.00    -0.143 S 
ATOM     12  C   UNL A   1      33.366  23.759  26.493  1.00  0.00     0.018 A 
ENDBRANCH   6   7
BRANCH   6  13
ATOM     13  N   UNL A   1      33.276  25.725  23.376  1.00  0.00    -0.368 N 
ATOM     14  H   UNL A   1      33.076  25.687  22.413  1.00  0.00     0.161 HD
BRANCH  13  15
ATOM     15  C   UNL A   1      32.950  26.849  24.137  1.00  0.00     0.036 A 
ATOM     16  C   UNL A   1      31.727  27.491  23.931  1.00  0.00     0.027 A 
ATOM     17  C   UNL A   1      33.825  27.369  25.098  1.00  0.00     0.043 A 
ATOM     18  C   UNL A   1      31.400  28.658  24.625  1.00  0.00     0.024 A 
ATOM     19  C   UNL A   1      33.495  28.532  25.812  1.00  0.00     0.038 A 
ATOM     20  C   UNL A   1      32.287  29.189  25.562  1.00  0.00     0.055 A 
ATOM     21  Br  UNL A   1      34.738  29.145  27.112  1.00  0.00    -0.049 Br
ATOM     22  Cl  UNL A   1      31.821  30.646  26.364  1.00  0.00    -0.083 Cl
ENDBRANCH  13  15
ENDBRANCH   6  13
ENDBRANCH   4   6
ENDBRANCH   3   4
ENDBRANCH   2   3
ENDBRANCH   1   2
BRANCH   1  23
ATOM     23  O   UNL A   1      37.656  21.764  25.946  1.00  0.00    -0.458 OA
BRANCH  23  24
ATOM     24  C   UNL A   1      38.986  21.634  26.142  1.00  0.00     0.338 C 
ATOM     25  O   UNL A   1      39.682  20.674  25.851  1.00  0.00    -0.246 OA
BRANCH  24  26
ATOM     26  C   UNL A   1      39.558  22.860  26.693  1.00  0.00     0.060 A 
ATOM     27  C   UNL A   1      40.558  22.790  27.661  1.00  0.00     0.016 A 
ATOM     28  C   UNL A   1      39.162  24.084  26.143  1.00  0.00     0.016 A 
ATOM     29  C   UNL A   1      41.154  23.969  28.099  1.00  0.00     0.010 A 
ATOM     30  C   UNL A   1      39.762  25.259  26.577  1.00  0.00     0.010 A 
ATOM     31  C   UNL A   1      40.753  25.206  27.565  1.00  0.00    -0.014 A 
BRANCH  31  32
ATOM     32  C   UNL A   1      41.383  26.449  28.050  1.00  0.00     0.031 A 
ATOM     33  C   UNL A   1      42.808  26.747  27.698  1.00  0.00     0.074 A 
ATOM     34  C   UNL A   1      40.663  27.295  28.809  1.00  0.00     0.049 A 
ATOM     35  N   UNL A   1      43.489  27.841  27.905  1.00  0.00    -0.248 NA
ATOM     36  C   UNL A   1      43.573  25.678  27.032  1.00  0.00     0.031 C 
ATOM     37  C   UNL A   1      39.300  27.047  29.282  1.00  0.00     0.029 A 
ATOM     38  N   UNL A   1      40.976  28.528  29.315  1.00  0.00    -0.354 N 
ATOM     39  C   UNL A   1      44.760  27.595  27.405  1.00  0.00     0.074 A 
ATOM     40  C   UNL A   1      44.769  26.239  26.906  1.00  0.00     0.031 C 
ATOM     41  C   UNL A   1      38.888  28.105  29.999  1.00  0.00     0.029 A 
ATOM     42  C   UNL A   1      39.952  29.104  30.028  1.00  0.00     0.049 A 
ATOM     43  H   UNL A   1      41.851  28.960  29.182  1.00  0.00     0.167 HD
ATOM     44  C   UNL A   1      45.811  28.442  27.339  1.00  0.00     0.034 A 
ATOM     45  C   UNL A   1      39.875  30.316  30.610  1.00  0.00     0.034 A 
ATOM     46  C   UNL A   1      45.769  29.800  27.803  1.00  0.00     0.049 A 
ATOM     47  C   UNL A   1      41.030  31.266  30.457  1.00  0.00     0.074 A 
ATOM     48  C   UNL A   1      46.747  30.772  27.704  1.00  0.00     0.029 A 
ATOM     49  N   UNL A   1      44.692  30.374  28.460  1.00  0.00    -0.354 N 
ATOM     50  N   UNL A   1      42.165  31.082  29.825  1.00  0.00    -0.248 NA
ATOM     51  C   UNL A   1      40.884  32.601  31.054  1.00  0.00     0.031 C 
ATOM     52  C   UNL A   1      46.261  31.937  28.305  1.00  0.00     0.029 A 
ATOM     53  C   UNL A   1      44.981  31.688  28.776  1.00  0.00     0.049 A 
ATOM     54  H   UNL A   1      43.847  29.914  28.671  1.00  0.00     0.167 HD
ATOM     55  C   UNL A   1      42.862  32.277  29.936  1.00  0.00     0.074 A 
ATOM     56  C   UNL A   1      42.014  33.188  30.678  1.00  0.00     0.031 C 
ATOM     57  C   UNL A   1      44.099  32.586  29.478  1.00  0.00     0.034 A 
BRANCH  44  58
ATOM     58  C   UNL A   1      47.065  27.959  26.672  1.00  0.00     0.023 A 
ATOM     59  C   UNL A   1      48.092  27.415  27.468  1.00  0.00     0.012 A 
ATOM     60  C   UNL A   1      47.196  27.958  25.270  1.00  0.00     0.148 A 
ATOM     61  C   UNL A   1      49.238  26.882  26.881  1.00  0.00     0.002 A 
ATOM     62  C   UNL A   1      48.330  27.402  24.690  1.00  0.00     0.091 A 
ATOM     63  F   UNL A   1      46.208  28.492  24.538  1.00  0.00    -0.205 F 
ATOM     64  C   UNL A   1      49.353  26.869  25.493  1.00  0.00     0.022 A 
BRANCH  62  65
ATOM     65  S   UNL A   1      48.564  27.291  22.913  1.00  0.00     0.127 S 
ATOM     66  O   UNL A   1      48.307  25.872  22.668  1.00  0.00    -0.237 OA
ATOM     67  O   UNL A   1      47.529  28.195  22.412  1.00  0.00    -0.237 OA
ATOM     68  O   UNL A   1      49.933  27.719  22.657  1.00  0.00    -0.744 OA
ENDBRANCH  62  65
ENDBRANCH  44  58
BRANCH  45  69
ATOM     69  C   UNL A   1      38.614  30.718  31.289  1.00  0.00     0.023 A 
ATOM     70  C   UNL A   1      38.501  30.558  32.683  1.00  0.00     0.012 A 
ATOM     71  C   UNL A   1      37.567  31.335  30.577  1.00  0.00     0.148 A 
ATOM     72  C   UNL A   1      37.363  31.002  33.358  1.00  0.00     0.002 A 
ATOM     73  C   UNL A   1      36.452  31.807  31.260  1.00  0.00     0.091 A 
ATOM     74  F   UNL A   1      37.696  31.467  29.250  1.00  0.00    -0.205 F 
ATOM     75  C   UNL A   1      36.345  31.635  32.649  1.00  0.00     0.022 A 
BRANCH  73  76
ATOM     76  S   UNL A   1      35.137  32.724  30.450  1.00  0.00     0.127 S 
ATOM     77  O   UNL A   1      34.165  32.869  31.532  1.00  0.00    -0.237 OA
ATOM     78  O   UNL A   1      35.821  33.960  30.069  1.00  0.00    -0.237 OA
ATOM     79  O   UNL A   1      34.713  31.898  29.328  1.00  0.00    -0.744 OA
ENDBRANCH  73  76
ENDBRANCH  45  69
BRANCH  57  80
ATOM     80  C   UNL A   1      44.634  33.960  29.765  1.00  0.00     0.023 A 
ATOM     81  C   UNL A   1      45.374  34.171  30.942  1.00  0.00     0.012 A 
ATOM     82  C   UNL A   1      44.535  34.986  28.805  1.00  0.00     0.148 A 
ATOM     83  C   UNL A   1      46.011  35.390  31.164  1.00  0.00     0.002 A 
ATOM     84  C   UNL A   1      45.201  36.186  29.018  1.00  0.00     0.091 A 
ATOM     85  F   UNL A   1      43.815  34.757  27.697  1.00  0.00    -0.205 F 
ATOM     86  C   UNL A   1      45.936  36.390  30.197  1.00  0.00     0.022 A 
BRANCH  84  87
ATOM     87  S   UNL A   1      45.233  37.502  27.797  1.00  0.00     0.127 S 
ATOM     88  O   UNL A   1      43.817  37.850  27.696  1.00  0.00    -0.237 OA
ATOM     89  O   UNL A   1      46.065  38.512  28.452  1.00  0.00    -0.237 OA
ATOM     90  O   UNL A   1      45.817  36.924  26.593  1.00  0.00    -0.744 OA
ENDBRANCH  84  87
ENDBRANCH  57  80
ENDBRANCH  31  32
ENDBRANCH  24  26
ENDBRANCH  23  24
ENDBRANCH   1  23
TORSDOF 17
ENDMDL
