MODEL 1
REMARK VINA RESULT:     -10.9      0.000      0.000
REMARK SMILES O=C(OCCOC(=O)[C@H]1CCCN1S(=O)(=O)c1cccc([N+](=O)[O-])c1)c1ccc(-c2c3nc(c(-c4cccc(S(=O)(=O)[O-])c4F)c4ccc([nH]4)c(-c4cccc(S(=O)(=O)[O-])c4F)c4nc(c(-c5cccc(S(=O)(=O)[O-])c5F)c5ccc2[nH]5)C=C4)C=C3)cc1
REMARK SMILES IDX 4 1 3 2 2 3 1 4 26 5 27 6 88 7 28 8 87 9 29 10 30 11 31 12
REMARK SMILES IDX 81 13 32 14 86 15 80 16 82 17 33 18 85 19 79 20 78 21 34 23
REMARK SMILES IDX 66 24 46 25 65 26 47 27 50 28 64 29 83 30 48 31 49 32 63 34
REMARK SMILES IDX 84 35 51 36 35 37 36 38 44 39 37 40 39 41 45 42 38 43 40 44
REMARK SMILES IDX 41 45 42 46 43 47 67 48 68 49 76 50 69 51 71 52 77 53 70 54
REMARK SMILES IDX 72 55 73 56 74 57 75 58 52 59 53 60 61 61 54 62 56 63 62 64
REMARK SMILES IDX 55 65 57 66 58 67 59 68 60 69 5 70 6 71 7 72 8 73 9 74 10 75
REMARK SMILES IDX 13 76 11 77 12 78 14 79 15 80 16 81 17 82 18 83 25 84 19 85
REMARK SMILES IDX 21 86 20 87 22 88 23 89 24 90
REMARK H PARENT 82 22 50 33
REMARK Flexibility Score: inf
ROOT
ATOM      1  C   UNL A   1      33.366  33.612  27.951  1.00  0.00     0.275 C 
ENDROOT
BRANCH   1   2
ATOM      2  O   UNL A   1      33.954  32.443  28.536  1.00  0.00    -0.458 OA
BRANCH   2   3
ATOM      3  C   UNL A   1      34.570  31.400  27.935  1.00  0.00     0.338 C 
ATOM      4  O   UNL A   1      33.947  30.764  27.087  1.00  0.00    -0.246 OA
BRANCH   3   5
ATOM      5  C   UNL A   1      35.927  30.897  28.332  1.00  0.00     0.060 A 
ATOM      6  C   UNL A   1      37.165  31.521  28.120  1.00  0.00     0.016 A 
ATOM      7  C   UNL A   1      35.927  29.683  29.026  1.00  0.00     0.016 A 
ATOM      8  C   UNL A   1      38.351  31.012  28.675  1.00  0.00     0.010 A 
ATOM      9  C   UNL A   1      37.105  29.178  29.566  1.00  0.00     0.010 A 
ATOM     10  C   UNL A   1      38.323  29.834  29.409  1.00  0.00    -0.014 A 
BRANCH  10  11
ATOM     11  C   UNL A   1      39.539  29.165  29.925  1.00  0.00     0.031 A 
ATOM     12  C   UNL A   1      40.218  29.766  31.129  1.00  0.00     0.074 A 
ATOM     13  C   UNL A   1      40.110  28.164  29.230  1.00  0.00     0.049 A 
ATOM     14  N   UNL A   1      41.369  29.471  31.669  1.00  0.00    -0.248 NA
ATOM     15  C   UNL A   1      39.539  30.915  31.755  1.00  0.00     0.031 C 
ATOM     16  C   UNL A   1      39.627  27.627  27.956  1.00  0.00     0.029 A 
ATOM     17  N   UNL A   1      41.247  27.443  29.482  1.00  0.00    -0.354 N 
ATOM     18  C   UNL A   1      41.594  30.454  32.629  1.00  0.00     0.074 A 
ATOM     19  C   UNL A   1      40.481  31.372  32.564  1.00  0.00     0.031 C 
ATOM     20  C   UNL A   1      40.456  26.650  27.546  1.00  0.00     0.029 A 
ATOM     21  C   UNL A   1      41.523  26.488  28.529  1.00  0.00     0.049 A 
ATOM     22  H   UNL A   1      41.815  27.593  30.271  1.00  0.00     0.167 HD
ATOM     23  C   UNL A   1      42.613  30.554  33.518  1.00  0.00     0.034 A 
ATOM     24  C   UNL A   1      42.510  25.572  28.491  1.00  0.00     0.034 A 
ATOM     25  C   UNL A   1      43.629  29.542  33.636  1.00  0.00     0.049 A 
ATOM     26  C   UNL A   1      43.465  25.524  29.658  1.00  0.00     0.074 A 
ATOM     27  C   UNL A   1      44.631  29.421  34.580  1.00  0.00     0.029 A 
ATOM     28  N   UNL A   1      43.735  28.445  32.793  1.00  0.00    -0.354 N 
ATOM     29  N   UNL A   1      43.581  26.364  30.661  1.00  0.00    -0.248 NA
ATOM     30  C   UNL A   1      44.373  24.372  29.734  1.00  0.00     0.031 C 
ATOM     31  C   UNL A   1      45.319  28.227  34.328  1.00  0.00     0.029 A 
ATOM     32  C   UNL A   1      44.739  27.605  33.233  1.00  0.00     0.049 A 
ATOM     33  H   UNL A   1      43.176  28.289  31.998  1.00  0.00     0.167 HD
ATOM     34  C   UNL A   1      44.546  25.827  31.503  1.00  0.00     0.074 A 
ATOM     35  C   UNL A   1      44.956  24.568  30.909  1.00  0.00     0.031 C 
ATOM     36  C   UNL A   1      45.068  26.330  32.649  1.00  0.00     0.034 A 
BRANCH  23  37
ATOM     37  C   UNL A   1      42.606  31.716  34.486  1.00  0.00     0.023 A 
ATOM     38  C   UNL A   1      42.928  33.010  34.020  1.00  0.00     0.012 A 
ATOM     39  C   UNL A   1      42.247  31.552  35.840  1.00  0.00     0.148 A 
ATOM     40  C   UNL A   1      42.973  34.099  34.890  1.00  0.00     0.002 A 
ATOM     41  C   UNL A   1      42.228  32.657  36.689  1.00  0.00     0.091 A 
ATOM     42  F   UNL A   1      41.938  30.324  36.278  1.00  0.00    -0.205 F 
ATOM     43  C   UNL A   1      42.616  33.923  36.221  1.00  0.00     0.022 A 
BRANCH  41  44
ATOM     44  S   UNL A   1      41.660  32.578  38.392  1.00  0.00     0.127 S 
ATOM     45  O   UNL A   1      42.518  31.533  38.948  1.00  0.00    -0.237 OA
ATOM     46  O   UNL A   1      41.959  33.927  38.875  1.00  0.00    -0.237 OA
ATOM     47  O   UNL A   1      40.242  32.255  38.334  1.00  0.00    -0.744 OA
ENDBRANCH  41  44
ENDBRANCH  23  37
BRANCH  24  48
ATOM     48  C   UNL A   1      42.546  24.538  27.415  1.00  0.00     0.023 A 
ATOM     49  C   UNL A   1      43.245  24.817  26.221  1.00  0.00     0.012 A 
ATOM     50  C   UNL A   1      41.929  23.282  27.563  1.00  0.00     0.148 A 
ATOM     51  C   UNL A   1      43.284  23.890  25.178  1.00  0.00     0.002 A 
ATOM     52  C   UNL A   1      42.015  22.342  26.539  1.00  0.00     0.091 A 
ATOM     53  F   UNL A   1      41.270  23.028  28.702  1.00  0.00    -0.205 F 
ATOM     54  C   UNL A   1      42.674  22.651  25.339  1.00  0.00     0.022 A 
BRANCH  52  55
ATOM     55  S   UNL A   1      41.377  20.669  26.704  1.00  0.00     0.127 S 
ATOM     56  O   UNL A   1      39.940  20.905  26.806  1.00  0.00    -0.237 OA
ATOM     57  O   UNL A   1      41.813  20.052  25.450  1.00  0.00    -0.237 OA
ATOM     58  O   UNL A   1      42.021  20.124  27.891  1.00  0.00    -0.744 OA
ENDBRANCH  52  55
ENDBRANCH  24  48
BRANCH  36  59
ATOM     59  C   UNL A   1      46.100  25.499  33.360  1.00  0.00     0.023 A 
ATOM     60  C   UNL A   1      47.469  25.723  33.116  1.00  0.00     0.012 A 
ATOM     61  C   UNL A   1      45.710  24.546  34.320  1.00  0.00     0.148 A 
ATOM     62  C   UNL A   1      48.436  24.981  33.790  1.00  0.00     0.002 A 
ATOM     63  C   UNL A   1      46.681  23.847  35.024  1.00  0.00     0.091 A 
ATOM     64  F   UNL A   1      44.400  24.337  34.522  1.00  0.00    -0.205 F 
ATOM     65  C   UNL A   1      48.042  24.052  34.751  1.00  0.00     0.022 A 
BRANCH  63  66
ATOM     66  S   UNL A   1      46.269  22.702  36.345  1.00  0.00     0.127 S 
ATOM     67  O   UNL A   1      45.613  23.583  37.310  1.00  0.00    -0.237 OA
ATOM     68  O   UNL A   1      45.372  21.761  35.672  1.00  0.00    -0.237 OA
ATOM     69  O   UNL A   1      47.531  22.122  36.783  1.00  0.00    -0.744 OA
ENDBRANCH  63  66
ENDBRANCH  36  59
ENDBRANCH  10  11
ENDBRANCH   3   5
ENDBRANCH   2   3
ENDBRANCH   1   2
BRANCH   1  70
ATOM     70  C   UNL A   1      33.427  34.878  28.813  1.00  0.00     0.274 C 
BRANCH  70  71
ATOM     71  O   UNL A   1      32.512  34.894  29.926  1.00  0.00    -0.461 OA
BRANCH  71  72
ATOM     72  C   UNL A   1      32.961  35.502  31.072  1.00  0.00     0.324 C 
ATOM     73  O   UNL A   1      32.297  36.316  31.701  1.00  0.00    -0.250 OA
BRANCH  72  74
ATOM     74  C   UNL A   1      34.417  35.086  31.397  1.00  0.00     0.183 C 
ATOM     75  C   UNL A   1      34.867  35.899  32.607  1.00  0.00     0.034 C 
ATOM     76  N   UNL A   1      34.505  33.647  31.866  1.00  0.00    -0.184 NA
ATOM     77  C   UNL A   1      34.266  35.147  33.783  1.00  0.00     0.019 C 
ATOM     78  C   UNL A   1      34.043  33.714  33.302  1.00  0.00     0.103 C 
BRANCH  76  79
ATOM     79  S   UNL A   1      36.022  32.836  31.730  1.00  0.00     0.244 S 
ATOM     80  O   UNL A   1      35.754  31.417  31.653  1.00  0.00    -0.207 OA
ATOM     81  O   UNL A   1      36.779  33.510  30.694  1.00  0.00    -0.207 OA
BRANCH  79  82
ATOM     82  C   UNL A   1      36.964  33.113  33.225  1.00  0.00     0.089 A 
ATOM     83  C   UNL A   1      37.798  34.239  33.309  1.00  0.00     0.022 A 
ATOM     84  C   UNL A   1      37.076  32.099  34.182  1.00  0.00     0.107 A 
ATOM     85  C   UNL A   1      38.696  34.383  34.378  1.00  0.00     0.008 A 
ATOM     86  C   UNL A   1      37.929  32.297  35.280  1.00  0.00     0.270 A 
ATOM     87  C   UNL A   1      38.746  33.424  35.386  1.00  0.00     0.086 A 
BRANCH  86  88
ATOM     88  N   UNL A   1      37.897  31.364  36.396  1.00  0.00     0.062 N 
ATOM     89  O   UNL A   1      38.458  30.278  36.243  1.00  0.00    -0.258 OA
ATOM     90  O   UNL A   1      37.252  31.726  37.392  1.00  0.00    -0.258 OA
ENDBRANCH  86  88
ENDBRANCH  79  82
ENDBRANCH  76  79
ENDBRANCH  72  74
ENDBRANCH  71  72
ENDBRANCH  70  71
ENDBRANCH   1  70
TORSDOF 17
ENDMDL
MODEL 2
REMARK VINA RESULT:     -10.4      4.221      7.266
REMARK SMILES O=C(OCCOC(=O)[C@H]1CCCN1S(=O)(=O)c1cccc([N+](=O)[O-])c1)c1ccc(-c2c3nc(c(-c4cccc(S(=O)(=O)[O-])c4F)c4ccc([nH]4)c(-c4cccc(S(=O)(=O)[O-])c4F)c4nc(c(-c5cccc(S(=O)(=O)[O-])c5F)c5ccc2[nH]5)C=C4)C=C3)cc1
REMARK SMILES IDX 4 1 3 2 2 3 1 4 26 5 27 6 88 7 28 8 87 9 29 10 30 11 31 12
REMARK SMILES IDX 81 13 32 14 86 15 80 16 82 17 33 18 85 19 79 20 78 21 34 23
REMARK SMILES IDX 66 24 46 25 65 26 47 27 50 28 64 29 83 30 48 31 49 32 63 34
REMARK SMILES IDX 84 35 51 36 35 37 36 38 44 39 37 40 39 41 45 42 38 43 40 44
REMARK SMILES IDX 41 45 42 46 43 47 67 48 68 49 76 50 69 51 71 52 77 53 70 54
REMARK SMILES IDX 72 55 73 56 74 57 75 58 52 59 53 60 61 61 54 62 56 63 62 64
REMARK SMILES IDX 55 65 57 66 58 67 59 68 60 69 5 70 6 71 7 72 8 73 9 74 10 75
REMARK SMILES IDX 13 76 11 77 12 78 14 79 15 80 16 81 17 82 18 83 25 84 19 85
REMARK SMILES IDX 21 86 20 87 22 88 23 89 24 90
REMARK H PARENT 82 22 50 33
REMARK Flexibility Score: inf
ROOT
ATOM      1  C   UNL A   1      31.496  30.445  25.402  1.00  0.00     0.275 C 
ENDROOT
BRANCH   1   2
ATOM      2  O   UNL A   1      32.785  30.412  26.031  1.00  0.00    -0.458 OA
BRANCH   2   3
ATOM      3  C   UNL A   1      33.295  31.224  26.984  1.00  0.00     0.338 C 
ATOM      4  O   UNL A   1      32.683  32.254  27.261  1.00  0.00    -0.246 OA
BRANCH   3   5
ATOM      5  C   UNL A   1      34.629  31.003  27.636  1.00  0.00     0.060 A 
ATOM      6  C   UNL A   1      35.616  31.962  27.907  1.00  0.00     0.016 A 
ATOM      7  C   UNL A   1      34.875  29.688  28.046  1.00  0.00     0.016 A 
ATOM      8  C   UNL A   1      36.760  31.648  28.658  1.00  0.00     0.010 A 
ATOM      9  C   UNL A   1      36.014  29.380  28.782  1.00  0.00     0.010 A 
ATOM     10  C   UNL A   1      36.962  30.348  29.106  1.00  0.00    -0.014 A 
BRANCH  10  11
ATOM     11  C   UNL A   1      38.193  29.905  29.796  1.00  0.00     0.031 A 
ATOM     12  C   UNL A   1      38.436  30.406  31.198  1.00  0.00     0.074 A 
ATOM     13  C   UNL A   1      39.142  29.225  29.126  1.00  0.00     0.049 A 
ATOM     14  N   UNL A   1      39.498  30.298  31.947  1.00  0.00    -0.248 NA
ATOM     15  C   UNL A   1      37.358  31.213  31.797  1.00  0.00     0.031 C 
ATOM     16  C   UNL A   1      39.079  28.846  27.712  1.00  0.00     0.029 A 
ATOM     17  N   UNL A   1      40.365  28.765  29.537  1.00  0.00    -0.354 N 
ATOM     18  C   UNL A   1      39.254  31.101  33.059  1.00  0.00     0.074 A 
ATOM     19  C   UNL A   1      37.964  31.718  32.860  1.00  0.00     0.031 C 
ATOM     20  C   UNL A   1      40.209  28.197  27.380  1.00  0.00     0.029 A 
ATOM     21  C   UNL A   1      41.071  28.108  28.554  1.00  0.00     0.049 A 
ATOM     22  H   UNL A   1      40.707  28.891  30.451  1.00  0.00     0.167 HD
ATOM     23  C   UNL A   1      40.016  31.268  34.168  1.00  0.00     0.034 A 
ATOM     24  C   UNL A   1      42.262  27.482  28.624  1.00  0.00     0.034 A 
ATOM     25  C   UNL A   1      41.231  30.528  34.382  1.00  0.00     0.049 A 
ATOM     26  C   UNL A   1      42.951  27.440  29.966  1.00  0.00     0.074 A 
ATOM     27  C   UNL A   1      42.028  30.471  35.509  1.00  0.00     0.029 A 
ATOM     28  N   UNL A   1      41.796  29.674  33.446  1.00  0.00    -0.354 N 
ATOM     29  N   UNL A   1      42.636  28.072  31.073  1.00  0.00    -0.248 NA
ATOM     30  C   UNL A   1      44.111  26.549  30.096  1.00  0.00     0.031 C 
ATOM     31  C   UNL A   1      43.055  29.551  35.266  1.00  0.00     0.029 A 
ATOM     32  C   UNL A   1      42.890  29.031  33.991  1.00  0.00     0.049 A 
ATOM     33  H   UNL A   1      41.466  29.545  32.528  1.00  0.00     0.167 HD
ATOM     34  C   UNL A   1      43.533  27.630  32.037  1.00  0.00     0.074 A 
ATOM     35  C   UNL A   1      44.382  26.647  31.390  1.00  0.00     0.031 C 
ATOM     36  C   UNL A   1      43.666  28.012  33.332  1.00  0.00     0.034 A 
BRANCH  23  37
ATOM     37  C   UNL A   1      39.502  32.184  35.256  1.00  0.00     0.023 A 
ATOM     38  C   UNL A   1      38.539  31.704  36.172  1.00  0.00     0.012 A 
ATOM     39  C   UNL A   1      39.986  33.499  35.410  1.00  0.00     0.148 A 
ATOM     40  C   UNL A   1      38.010  32.530  37.162  1.00  0.00     0.002 A 
ATOM     41  C   UNL A   1      39.503  34.298  36.444  1.00  0.00     0.091 A 
ATOM     42  F   UNL A   1      40.902  33.952  34.543  1.00  0.00    -0.205 F 
ATOM     43  C   UNL A   1      38.498  33.824  37.302  1.00  0.00     0.022 A 
BRANCH  41  44
ATOM     44  S   UNL A   1      40.149  35.937  36.805  1.00  0.00     0.127 S 
ATOM     45  O   UNL A   1      39.732  36.691  35.625  1.00  0.00    -0.237 OA
ATOM     46  O   UNL A   1      39.428  36.283  38.031  1.00  0.00    -0.237 OA
ATOM     47  O   UNL A   1      41.587  35.780  36.970  1.00  0.00    -0.744 OA
ENDBRANCH  41  44
ENDBRANCH  23  37
BRANCH  24  48
ATOM     48  C   UNL A   1      42.788  26.717  27.456  1.00  0.00     0.023 A 
ATOM     49  C   UNL A   1      43.646  27.366  26.543  1.00  0.00     0.012 A 
ATOM     50  C   UNL A   1      42.479  25.360  27.250  1.00  0.00     0.148 A 
ATOM     51  C   UNL A   1      44.141  26.697  25.422  1.00  0.00     0.002 A 
ATOM     52  C   UNL A   1      43.018  24.683  26.158  1.00  0.00     0.091 A 
ATOM     53  F   UNL A   1      41.666  24.753  28.126  1.00  0.00    -0.205 F 
ATOM     54  C   UNL A   1      43.833  25.355  25.234  1.00  0.00     0.022 A 
BRANCH  52  55
ATOM     55  S   UNL A   1      42.788  22.919  25.902  1.00  0.00     0.127 S 
ATOM     56  O   UNL A   1      43.173  22.766  24.502  1.00  0.00    -0.237 OA
ATOM     57  O   UNL A   1      43.730  22.347  26.866  1.00  0.00    -0.237 OA
ATOM     58  O   UNL A   1      41.389  22.661  26.212  1.00  0.00    -0.744 OA
ENDBRANCH  52  55
ENDBRANCH  24  48
BRANCH  36  59
ATOM     59  C   UNL A   1      44.732  27.332  34.145  1.00  0.00     0.023 A 
ATOM     60  C   UNL A   1      46.021  27.896  34.222  1.00  0.00     0.012 A 
ATOM     61  C   UNL A   1      44.433  26.174  34.888  1.00  0.00     0.148 A 
ATOM     62  C   UNL A   1      47.009  27.293  34.995  1.00  0.00     0.002 A 
ATOM     63  C   UNL A   1      45.409  25.608  35.696  1.00  0.00     0.091 A 
ATOM     64  F   UNL A   1      43.205  25.644  34.784  1.00  0.00    -0.205 F 
ATOM     65  C   UNL A   1      46.700  26.157  35.741  1.00  0.00     0.022 A 
BRANCH  63  66
ATOM     66  S   UNL A   1      45.074  24.202  36.762  1.00  0.00     0.127 S 
ATOM     67  O   UNL A   1      44.032  24.734  37.638  1.00  0.00    -0.237 OA
ATOM     68  O   UNL A   1      44.611  23.192  35.809  1.00  0.00    -0.237 OA
ATOM     69  O   UNL A   1      46.337  23.881  37.414  1.00  0.00    -0.744 OA
ENDBRANCH  63  66
ENDBRANCH  36  59
ENDBRANCH  10  11
ENDBRANCH   3   5
ENDBRANCH   2   3
ENDBRANCH   1   2
BRANCH   1  70
ATOM     70  C   UNL A   1      31.129  29.195  24.595  1.00  0.00     0.274 C 
BRANCH  70  71
ATOM     71  O   UNL A   1      31.250  27.954  25.316  1.00  0.00    -0.461 OA
BRANCH  71  72
ATOM     72  C   UNL A   1      30.991  26.810  24.603  1.00  0.00     0.324 C 
ATOM     73  O   UNL A   1      29.862  26.363  24.444  1.00  0.00    -0.250 OA
BRANCH  72  74
ATOM     74  C   UNL A   1      32.300  26.141  24.114  1.00  0.00     0.183 C 
ATOM     75  C   UNL A   1      33.342  26.315  25.215  1.00  0.00     0.034 C 
ATOM     76  N   UNL A   1      32.153  24.639  23.979  1.00  0.00    -0.184 NA
ATOM     77  C   UNL A   1      33.006  25.207  26.200  1.00  0.00     0.019 C 
ATOM     78  C   UNL A   1      32.252  24.143  25.401  1.00  0.00     0.103 C 
BRANCH  76  79
ATOM     79  S   UNL A   1      33.250  23.802  22.943  1.00  0.00     0.244 S 
ATOM     80  O   UNL A   1      32.479  23.220  21.868  1.00  0.00    -0.207 OA
ATOM     81  O   UNL A   1      34.354  24.700  22.669  1.00  0.00    -0.207 OA
BRANCH  79  82
ATOM     82  C   UNL A   1      33.989  22.451  23.852  1.00  0.00     0.089 A 
ATOM     83  C   UNL A   1      35.336  22.539  24.237  1.00  0.00     0.022 A 
ATOM     84  C   UNL A   1      33.325  21.223  23.947  1.00  0.00     0.107 A 
ATOM     85  C   UNL A   1      36.000  21.425  24.772  1.00  0.00     0.008 A 
ATOM     86  C   UNL A   1      33.986  20.141  24.551  1.00  0.00     0.270 A 
ATOM     87  C   UNL A   1      35.318  20.225  24.959  1.00  0.00     0.086 A 
BRANCH  86  88
ATOM     88  N   UNL A   1      33.247  18.927  24.864  1.00  0.00     0.062 N 
ATOM     89  O   UNL A   1      32.060  19.050  25.172  1.00  0.00    -0.258 OA
ATOM     90  O   UNL A   1      33.898  17.871  24.847  1.00  0.00    -0.258 OA
ENDBRANCH  86  88
ENDBRANCH  79  82
ENDBRANCH  76  79
ENDBRANCH  72  74
ENDBRANCH  71  72
ENDBRANCH  70  71
ENDBRANCH   1  70
TORSDOF 17
ENDMDL
MODEL 3
REMARK VINA RESULT:     -10.2      5.845     11.523
REMARK SMILES O=C(OCCOC(=O)[C@H]1CCCN1S(=O)(=O)c1cccc([N+](=O)[O-])c1)c1ccc(-c2c3nc(c(-c4cccc(S(=O)(=O)[O-])c4F)c4ccc([nH]4)c(-c4cccc(S(=O)(=O)[O-])c4F)c4nc(c(-c5cccc(S(=O)(=O)[O-])c5F)c5ccc2[nH]5)C=C4)C=C3)cc1
REMARK SMILES IDX 4 1 3 2 2 3 1 4 26 5 27 6 88 7 28 8 87 9 29 10 30 11 31 12
REMARK SMILES IDX 81 13 32 14 86 15 80 16 82 17 33 18 85 19 79 20 78 21 34 23
REMARK SMILES IDX 66 24 46 25 65 26 47 27 50 28 64 29 83 30 48 31 49 32 63 34
REMARK SMILES IDX 84 35 51 36 35 37 36 38 44 39 37 40 39 41 45 42 38 43 40 44
REMARK SMILES IDX 41 45 42 46 43 47 67 48 68 49 76 50 69 51 71 52 77 53 70 54
REMARK SMILES IDX 72 55 73 56 74 57 75 58 52 59 53 60 61 61 54 62 56 63 62 64
REMARK SMILES IDX 55 65 57 66 58 67 59 68 60 69 5 70 6 71 7 72 8 73 9 74 10 75
REMARK SMILES IDX 13 76 11 77 12 78 14 79 15 80 16 81 17 82 18 83 25 84 19 85
REMARK SMILES IDX 21 86 20 87 22 88 23 89 24 90
REMARK H PARENT 82 22 50 33
REMARK Flexibility Score: inf
ROOT
ATOM      1  C   UNL A   1      36.578  21.625  24.521  1.00  0.00     0.275 C 
ENDROOT
BRANCH   1   2
ATOM      2  O   UNL A   1      37.310  21.441  25.740  1.00  0.00    -0.458 OA
BRANCH   2   3
ATOM      3  C   UNL A   1      38.645  21.475  25.953  1.00  0.00     0.338 C 
ATOM      4  O   UNL A   1      39.293  20.449  25.757  1.00  0.00    -0.246 OA
BRANCH   3   5
ATOM      5  C   UNL A   1      39.363  22.658  26.533  1.00  0.00     0.060 A 
ATOM      6  C   UNL A   1      40.437  22.646  27.435  1.00  0.00     0.016 A 
ATOM      7  C   UNL A   1      38.918  23.902  26.075  1.00  0.00     0.016 A 
ATOM      8  C   UNL A   1      41.117  23.825  27.786  1.00  0.00     0.010 A 
ATOM      9  C   UNL A   1      39.589  25.068  26.432  1.00  0.00     0.010 A 
ATOM     10  C   UNL A   1      40.695  25.046  27.277  1.00  0.00    -0.014 A 
BRANCH  10  11
ATOM     11  C   UNL A   1      41.276  26.345  27.688  1.00  0.00     0.031 A 
ATOM     12  C   UNL A   1      42.703  26.635  27.297  1.00  0.00     0.074 A 
ATOM     13  C   UNL A   1      40.606  27.153  28.530  1.00  0.00     0.049 A 
ATOM     14  N   UNL A   1      43.483  27.613  27.666  1.00  0.00    -0.248 NA
ATOM     15  C   UNL A   1      43.361  25.633  26.439  1.00  0.00     0.031 C 
ATOM     16  C   UNL A   1      39.288  26.876  29.108  1.00  0.00     0.029 A 
ATOM     17  N   UNL A   1      40.961  28.357  29.078  1.00  0.00    -0.354 N 
ATOM     18  C   UNL A   1      44.744  27.293  27.167  1.00  0.00     0.074 A 
ATOM     19  C   UNL A   1      44.626  26.013  26.510  1.00  0.00     0.031 C 
ATOM     20  C   UNL A   1      38.941  27.893  29.919  1.00  0.00     0.029 A 
ATOM     21  C   UNL A   1      40.005  28.892  29.912  1.00  0.00     0.049 A 
ATOM     22  H   UNL A   1      41.820  28.799  28.892  1.00  0.00     0.167 HD
ATOM     23  C   UNL A   1      45.884  28.025  27.212  1.00  0.00     0.034 A 
ATOM     24  C   UNL A   1      39.994  30.073  30.560  1.00  0.00     0.034 A 
ATOM     25  C   UNL A   1      45.921  29.355  27.759  1.00  0.00     0.049 A 
ATOM     26  C   UNL A   1      41.168  30.997  30.349  1.00  0.00     0.074 A 
ATOM     27  C   UNL A   1      46.951  30.276  27.740  1.00  0.00     0.029 A 
ATOM     28  N   UNL A   1      44.846  29.965  28.391  1.00  0.00    -0.354 N 
ATOM     29  N   UNL A   1      42.304  30.757  29.738  1.00  0.00    -0.248 NA
ATOM     30  C   UNL A   1      41.036  32.373  30.847  1.00  0.00     0.031 C 
ATOM     31  C   UNL A   1      46.483  31.458  28.328  1.00  0.00     0.029 A 
ATOM     32  C   UNL A   1      45.161  31.273  28.703  1.00  0.00     0.049 A 
ATOM     33  H   UNL A   1      43.986  29.530  28.586  1.00  0.00     0.167 HD
ATOM     34  C   UNL A   1      43.007  31.955  29.746  1.00  0.00     0.074 A 
ATOM     35  C   UNL A   1      42.149  32.930  30.392  1.00  0.00     0.031 C 
ATOM     36  C   UNL A   1      44.254  32.227  29.287  1.00  0.00     0.034 A 
BRANCH  23  37
ATOM     37  C   UNL A   1      47.125  27.455  26.559  1.00  0.00     0.023 A 
ATOM     38  C   UNL A   1      47.387  27.737  25.201  1.00  0.00     0.012 A 
ATOM     39  C   UNL A   1      48.053  26.678  27.282  1.00  0.00     0.148 A 
ATOM     40  C   UNL A   1      48.497  27.196  24.553  1.00  0.00     0.002 A 
ATOM     41  C   UNL A   1      49.196  26.197  26.647  1.00  0.00     0.091 A 
ATOM     42  F   UNL A   1      47.804  26.415  28.573  1.00  0.00    -0.205 F 
ATOM     43  C   UNL A   1      49.404  26.433  25.279  1.00  0.00     0.022 A 
BRANCH  41  44
ATOM     44  S   UNL A   1      50.501  25.312  27.509  1.00  0.00     0.127 S 
ATOM     45  O   UNL A   1      51.439  25.026  26.425  1.00  0.00    -0.237 OA
ATOM     46  O   UNL A   1      50.968  26.317  28.465  1.00  0.00    -0.237 OA
ATOM     47  O   UNL A   1      49.872  24.146  28.114  1.00  0.00    -0.744 OA
ENDBRANCH  41  44
ENDBRANCH  23  37
BRANCH  24  48
ATOM     48  C   UNL A   1      38.786  30.513  31.318  1.00  0.00     0.023 A 
ATOM     49  C   UNL A   1      38.724  30.272  32.708  1.00  0.00     0.012 A 
ATOM     50  C   UNL A   1      37.716  31.184  30.697  1.00  0.00     0.148 A 
ATOM     51  C   UNL A   1      37.603  30.643  33.452  1.00  0.00     0.002 A 
ATOM     52  C   UNL A   1      36.623  31.598  31.455  1.00  0.00     0.091 A 
ATOM     53  F   UNL A   1      37.787  31.410  29.378  1.00  0.00    -0.205 F 
ATOM     54  C   UNL A   1      36.556  31.311  32.827  1.00  0.00     0.022 A 
BRANCH  52  55
ATOM     55  S   UNL A   1      35.286  32.583  30.768  1.00  0.00     0.127 S 
ATOM     56  O   UNL A   1      34.339  32.621  31.879  1.00  0.00    -0.237 OA
ATOM     57  O   UNL A   1      35.957  33.853  30.487  1.00  0.00    -0.237 OA
ATOM     58  O   UNL A   1      34.846  31.865  29.579  1.00  0.00    -0.744 OA
ENDBRANCH  52  55
ENDBRANCH  24  48
BRANCH  36  59
ATOM     59  C   UNL A   1      44.743  33.643  29.420  1.00  0.00     0.023 A 
ATOM     60  C   UNL A   1      45.536  34.008  30.525  1.00  0.00     0.012 A 
ATOM     61  C   UNL A   1      44.475  34.589  28.413  1.00  0.00     0.148 A 
ATOM     62  C   UNL A   1      46.021  35.308  30.646  1.00  0.00     0.002 A 
ATOM     63  C   UNL A   1      45.004  35.868  28.515  1.00  0.00     0.091 A 
ATOM     64  F   UNL A   1      43.701  34.223  27.379  1.00  0.00    -0.205 F 
ATOM     65  C   UNL A   1      45.766  36.233  29.636  1.00  0.00     0.022 A 
BRANCH  63  66
ATOM     66  S   UNL A   1      44.806  37.094  27.218  1.00  0.00     0.127 S 
ATOM     67  O   UNL A   1      45.913  36.764  26.323  1.00  0.00    -0.237 OA
ATOM     68  O   UNL A   1      43.479  36.775  26.689  1.00  0.00    -0.237 OA
ATOM     69  O   UNL A   1      44.896  38.391  27.875  1.00  0.00    -0.744 OA
ENDBRANCH  63  66
ENDBRANCH  36  59
ENDBRANCH  10  11
ENDBRANCH   3   5
ENDBRANCH   2   3
ENDBRANCH   1   2
BRANCH   1  70
ATOM     70  C   UNL A   1      35.058  21.742  24.680  1.00  0.00     0.274 C 
BRANCH  70  71
ATOM     71  O   UNL A   1      34.516  23.037  24.354  1.00  0.00    -0.461 OA
BRANCH  71  72
ATOM     72  C   UNL A   1      33.300  23.041  23.719  1.00  0.00     0.324 C 
ATOM     73  O   UNL A   1      32.976  22.202  22.887  1.00  0.00    -0.250 OA
BRANCH  72  74
ATOM     74  C   UNL A   1      32.453  24.272  24.130  1.00  0.00     0.183 C 
ATOM     75  C   UNL A   1      30.990  23.839  24.138  1.00  0.00     0.034 C 
ATOM     76  N   UNL A   1      32.722  24.693  25.561  1.00  0.00    -0.184 NA
ATOM     77  C   UNL A   1      30.835  23.139  25.478  1.00  0.00     0.019 C 
ATOM     78  C   UNL A   1      31.941  23.693  26.378  1.00  0.00     0.103 C 
BRANCH  76  79
ATOM     79  S   UNL A   1      32.344  26.313  26.020  1.00  0.00     0.244 S 
ATOM     80  O   UNL A   1      31.207  26.261  26.910  1.00  0.00    -0.207 OA
ATOM     81  O   UNL A   1      33.583  26.945  26.427  1.00  0.00    -0.207 OA
BRANCH  79  82
ATOM     82  C   UNL A   1      31.834  27.222  24.567  1.00  0.00     0.089 A 
ATOM     83  C   UNL A   1      32.813  27.802  23.744  1.00  0.00     0.022 A 
ATOM     84  C   UNL A   1      30.492  27.577  24.396  1.00  0.00     0.107 A 
ATOM     85  C   UNL A   1      32.448  28.684  22.714  1.00  0.00     0.008 A 
ATOM     86  C   UNL A   1      30.143  28.404  23.316  1.00  0.00     0.270 A 
ATOM     87  C   UNL A   1      31.106  28.968  22.477  1.00  0.00     0.086 A 
BRANCH  86  88
ATOM     88  N   UNL A   1      28.741  28.605  22.984  1.00  0.00     0.062 N 
ATOM     89  O   UNL A   1      27.958  27.692  23.255  1.00  0.00    -0.258 OA
ATOM     90  O   UNL A   1      28.462  29.665  22.402  1.00  0.00    -0.258 OA
ENDBRANCH  86  88
ENDBRANCH  79  82
ENDBRANCH  76  79
ENDBRANCH  72  74
ENDBRANCH  71  72
ENDBRANCH  70  71
ENDBRANCH   1  70
TORSDOF 17
ENDMDL
