MODEL 1
REMARK VINA RESULT:     -11.9      0.000      0.000
REMARK SMILES CC[C@@H]1CCC[C@@](Cc2cccc(O)c2)(C(=O)OCCOC(=O)c2ccc(-c3c4nc(c(-c5cccc(S(=O)(=O)[O-])c5F)c5ccc([nH]5)c(-c5cccc(S(=O)(=O)[O-])c5F)c5nc(c(-c6cccc(S(=O)(=O)[O-])c6F)c6ccc3[nH]6)C=C5)C=C4)cc2)C1
REMARK SMILES IDX 19 1 18 2 16 3 17 4 7 5 3 6 4 7 87 8 5 9 6 10 2 11 1 12 8 13
REMARK SMILES IDX 9 14 10 15 15 16 11 17 13 18 12 19 14 20 20 22 21 23 22 24
REMARK SMILES IDX 23 25 24 26 25 27 86 28 26 29 85 30 27 31 28 32 29 33 79 34
REMARK SMILES IDX 30 35 84 36 78 37 80 38 31 39 83 40 77 41 76 42 32 44 64 45
REMARK SMILES IDX 44 46 63 47 45 48 48 49 62 50 81 51 46 52 47 53 61 55 82 56
REMARK SMILES IDX 49 57 33 58 34 59 42 60 35 61 37 62 43 63 36 64 38 65 39 66
REMARK SMILES IDX 40 67 41 68 65 69 66 70 74 71 67 72 69 73 75 74 68 75 70 76
REMARK SMILES IDX 71 77 72 78 73 79 50 80 51 81 59 82 52 83 54 84 60 85 53 86
REMARK SMILES IDX 55 87 56 88 57 89 58 90
REMARK H PARENT 14 21 80 43 48 54
REMARK Flexibility Score: inf
ROOT
ATOM      1  C   UNL A   1      33.256  29.525  25.551  1.00  0.00     0.274 C 
ENDROOT
BRANCH   1   2
ATOM      2  O   UNL A   1      32.818  29.227  24.209  1.00  0.00    -0.462 OA
BRANCH   2   3
ATOM      3  C   UNL A   1      32.870  27.919  23.840  1.00  0.00     0.312 C 
ATOM      4  O   UNL A   1      33.902  27.341  23.511  1.00  0.00    -0.252 OA
BRANCH   3   5
ATOM      5  C   UNL A   1      31.485  27.263  23.730  1.00  0.00     0.072 C 
ATOM      6  C   UNL A   1      32.039  24.910  24.705  1.00  0.00    -0.010 C 
ATOM      7  C   UNL A   1      31.060  25.160  25.853  1.00  0.00     0.003 C 
ATOM      8  C   UNL A   1      31.661  25.741  23.464  1.00  0.00     0.022 C 
ATOM      9  C   UNL A   1      30.983  26.642  26.182  1.00  0.00     0.001 C 
ATOM     10  C   UNL A   1      30.576  27.467  24.965  1.00  0.00     0.019 C 
BRANCH   6  11
ATOM     11  C   UNL A   1      32.120  23.418  24.328  1.00  0.00     0.000 C 
ATOM     12  C   UNL A   1      31.404  22.506  25.314  1.00  0.00     0.004 C 
ENDBRANCH   6  11
BRANCH   5  13
ATOM     13  C   UNL A   1      30.838  27.899  22.453  1.00  0.00     0.054 C 
BRANCH  13  14
ATOM     14  C   UNL A   1      29.630  28.774  22.714  1.00  0.00    -0.043 A 
ATOM     15  C   UNL A   1      29.765  30.154  22.924  1.00  0.00     0.004 A 
ATOM     16  C   UNL A   1      28.356  28.199  22.799  1.00  0.00     0.049 A 
ATOM     17  C   UNL A   1      28.657  30.930  23.270  1.00  0.00     0.004 A 
ATOM     18  C   UNL A   1      27.255  28.982  23.129  1.00  0.00     0.115 A 
ATOM     19  C   UNL A   1      27.398  30.343  23.379  1.00  0.00     0.046 A 
BRANCH  18  20
ATOM     20  O   UNL A   1      26.043  28.366  23.210  1.00  0.00    -0.508 OA
ATOM     21  H   UNL A   1      25.672  28.169  24.049  1.00  0.00     0.293 HD
ENDBRANCH  18  20
ENDBRANCH  13  14
ENDBRANCH   5  13
ENDBRANCH   3   5
ENDBRANCH   2   3
ENDBRANCH   1   2
BRANCH   1  22
ATOM     22  C   UNL A   1      32.422  30.643  26.163  1.00  0.00     0.275 C 
BRANCH  22  23
ATOM     23  O   UNL A   1      32.836  30.847  27.521  1.00  0.00    -0.458 OA
BRANCH  23  24
ATOM     24  C   UNL A   1      33.713  31.854  27.720  1.00  0.00     0.338 C 
ATOM     25  O   UNL A   1      33.479  33.053  27.640  1.00  0.00    -0.246 OA
BRANCH  24  26
ATOM     26  C   UNL A   1      35.042  31.316  28.073  1.00  0.00     0.060 A 
ATOM     27  C   UNL A   1      35.202  29.978  28.438  1.00  0.00     0.016 A 
ATOM     28  C   UNL A   1      36.122  32.194  28.166  1.00  0.00     0.016 A 
ATOM     29  C   UNL A   1      36.395  29.555  29.020  1.00  0.00     0.010 A 
ATOM     30  C   UNL A   1      37.349  31.739  28.656  1.00  0.00     0.010 A 
ATOM     31  C   UNL A   1      37.483  30.432  29.152  1.00  0.00    -0.014 A 
BRANCH  31  32
ATOM     32  C   UNL A   1      38.726  30.010  29.859  1.00  0.00     0.031 A 
ATOM     33  C   UNL A   1      39.649  28.988  29.236  1.00  0.00     0.074 A 
ATOM     34  C   UNL A   1      39.049  30.545  31.053  1.00  0.00     0.049 A 
ATOM     35  N   UNL A   1      40.705  28.408  29.748  1.00  0.00    -0.248 NA
ATOM     36  C   UNL A   1      39.350  28.564  27.857  1.00  0.00     0.031 C 
ATOM     37  C   UNL A   1      38.274  31.565  31.760  1.00  0.00     0.029 A 
ATOM     38  N   UNL A   1      40.111  30.298  31.891  1.00  0.00    -0.354 N 
ATOM     39  C   UNL A   1      41.169  27.530  28.775  1.00  0.00     0.074 A 
ATOM     40  C   UNL A   1      40.282  27.647  27.640  1.00  0.00     0.031 C 
ATOM     41  C   UNL A   1      38.893  31.873  32.908  1.00  0.00     0.029 A 
ATOM     42  C   UNL A   1      40.058  31.010  33.066  1.00  0.00     0.049 A 
ATOM     43  H   UNL A   1      40.838  29.672  31.670  1.00  0.00     0.167 HD
ATOM     44  C   UNL A   1      42.245  26.708  28.811  1.00  0.00     0.034 A 
ATOM     45  C   UNL A   1      40.825  30.946  34.174  1.00  0.00     0.034 A 
ATOM     46  C   UNL A   1      43.155  26.608  29.919  1.00  0.00     0.049 A 
ATOM     47  C   UNL A   1      41.963  29.967  34.224  1.00  0.00     0.074 A 
ATOM     48  C   UNL A   1      44.281  25.811  30.039  1.00  0.00     0.029 A 
ATOM     49  N   UNL A   1      43.046  27.328  31.098  1.00  0.00    -0.354 N 
ATOM     50  N   UNL A   1      42.406  29.170  33.282  1.00  0.00    -0.248 NA
ATOM     51  C   UNL A   1      42.705  29.873  35.490  1.00  0.00     0.031 C 
ATOM     52  C   UNL A   1      44.847  26.043  31.297  1.00  0.00     0.029 A 
ATOM     53  C   UNL A   1      44.075  26.984  31.957  1.00  0.00     0.049 A 
ATOM     54  H   UNL A   1      42.342  27.986  31.294  1.00  0.00     0.167 HD
ATOM     55  C   UNL A   1      43.479  28.485  33.837  1.00  0.00     0.074 A 
ATOM     56  C   UNL A   1      43.640  28.982  35.189  1.00  0.00     0.031 C 
ATOM     57  C   UNL A   1      44.245  27.512  33.286  1.00  0.00     0.034 A 
BRANCH  44  58
ATOM     58  C   UNL A   1      42.521  25.869  27.594  1.00  0.00     0.023 A 
ATOM     59  C   UNL A   1      43.260  26.422  26.529  1.00  0.00     0.012 A 
ATOM     60  C   UNL A   1      42.101  24.527  27.524  1.00  0.00     0.148 A 
ATOM     61  C   UNL A   1      43.568  25.654  25.408  1.00  0.00     0.002 A 
ATOM     62  C   UNL A   1      42.436  23.759  26.413  1.00  0.00     0.091 A 
ATOM     63  F   UNL A   1      41.371  24.031  28.533  1.00  0.00    -0.205 F 
ATOM     64  C   UNL A   1      43.165  24.322  25.353  1.00  0.00     0.022 A 
BRANCH  62  65
ATOM     65  S   UNL A   1      42.002  22.021  26.286  1.00  0.00     0.127 S 
ATOM     66  O   UNL A   1      42.831  21.590  25.161  1.00  0.00    -0.237 OA
ATOM     67  O   UNL A   1      42.422  21.497  27.586  1.00  0.00    -0.237 OA
ATOM     68  O   UNL A   1      40.564  21.988  26.061  1.00  0.00    -0.744 OA
ENDBRANCH  62  65
ENDBRANCH  44  58
BRANCH  45  69
ATOM     69  C   UNL A   1      40.520  31.842  35.324  1.00  0.00     0.023 A 
ATOM     70  C   UNL A   1      41.255  33.029  35.494  1.00  0.00     0.012 A 
ATOM     71  C   UNL A   1      39.448  31.568  36.198  1.00  0.00     0.148 A 
ATOM     72  C   UNL A   1      40.924  33.928  36.511  1.00  0.00     0.002 A 
ATOM     73  C   UNL A   1      39.080  32.500  37.159  1.00  0.00     0.091 A 
ATOM     74  F   UNL A   1      38.784  30.412  36.052  1.00  0.00    -0.205 F 
ATOM     75  C   UNL A   1      39.824  33.676  37.327  1.00  0.00     0.022 A 
BRANCH  73  76
ATOM     76  S   UNL A   1      37.563  32.307  38.104  1.00  0.00     0.127 S 
ATOM     77  O   UNL A   1      37.918  32.923  39.379  1.00  0.00    -0.237 OA
ATOM     78  O   UNL A   1      36.594  33.060  37.305  1.00  0.00    -0.237 OA
ATOM     79  O   UNL A   1      37.319  30.870  38.125  1.00  0.00    -0.744 OA
ENDBRANCH  73  76
ENDBRANCH  45  69
BRANCH  57  80
ATOM     80  C   UNL A   1      45.321  26.907  34.145  1.00  0.00     0.023 A 
ATOM     81  C   UNL A   1      46.588  27.521  34.190  1.00  0.00     0.012 A 
ATOM     82  C   UNL A   1      45.065  25.782  34.952  1.00  0.00     0.148 A 
ATOM     83  C   UNL A   1      47.593  27.011  35.012  1.00  0.00     0.002 A 
ATOM     84  C   UNL A   1      46.060  25.301  35.794  1.00  0.00     0.091 A 
ATOM     85  F   UNL A   1      43.861  25.196  34.875  1.00  0.00    -0.205 F 
ATOM     86  C   UNL A   1      47.326  25.909  35.821  1.00  0.00     0.022 A 
BRANCH  84  87
ATOM     87  S   UNL A   1      45.763  23.934  36.923  1.00  0.00     0.127 S 
ATOM     88  O   UNL A   1      47.092  23.721  37.491  1.00  0.00    -0.237 OA
ATOM     89  O   UNL A   1      44.784  24.495  37.854  1.00  0.00    -0.237 OA
ATOM     90  O   UNL A   1      45.246  22.853  36.093  1.00  0.00    -0.744 OA
ENDBRANCH  84  87
ENDBRANCH  57  80
ENDBRANCH  31  32
ENDBRANCH  24  26
ENDBRANCH  23  24
ENDBRANCH  22  23
ENDBRANCH   1  22
TORSDOF 18
ENDMDL
MODEL 2
REMARK VINA RESULT:     -11.9      5.454     10.660
REMARK SMILES CC[C@@H]1CCC[C@@](Cc2cccc(O)c2)(C(=O)OCCOC(=O)c2ccc(-c3c4nc(c(-c5cccc(S(=O)(=O)[O-])c5F)c5ccc([nH]5)c(-c5cccc(S(=O)(=O)[O-])c5F)c5nc(c(-c6cccc(S(=O)(=O)[O-])c6F)c6ccc3[nH]6)C=C5)C=C4)cc2)C1
REMARK SMILES IDX 19 1 18 2 16 3 17 4 7 5 3 6 4 7 87 8 5 9 6 10 2 11 1 12 8 13
REMARK SMILES IDX 9 14 10 15 15 16 11 17 13 18 12 19 14 20 20 22 21 23 22 24
REMARK SMILES IDX 23 25 24 26 25 27 86 28 26 29 85 30 27 31 28 32 29 33 79 34
REMARK SMILES IDX 30 35 84 36 78 37 80 38 31 39 83 40 77 41 76 42 32 44 64 45
REMARK SMILES IDX 44 46 63 47 45 48 48 49 62 50 81 51 46 52 47 53 61 55 82 56
REMARK SMILES IDX 49 57 33 58 34 59 42 60 35 61 37 62 43 63 36 64 38 65 39 66
REMARK SMILES IDX 40 67 41 68 65 69 66 70 74 71 67 72 69 73 75 74 68 75 70 76
REMARK SMILES IDX 71 77 72 78 73 79 50 80 51 81 59 82 52 83 54 84 60 85 53 86
REMARK SMILES IDX 55 87 56 88 57 89 58 90
REMARK H PARENT 14 21 80 43 48 54
REMARK Flexibility Score: inf
ROOT
ATOM      1  C   UNL A   1      36.477  20.292  24.997  1.00  0.00     0.274 C 
ENDROOT
BRANCH   1   2
ATOM      2  O   UNL A   1      35.517  21.266  24.538  1.00  0.00    -0.462 OA
BRANCH   2   3
ATOM      3  C   UNL A   1      34.646  21.733  25.473  1.00  0.00     0.312 C 
ATOM      4  O   UNL A   1      34.808  21.606  26.683  1.00  0.00    -0.252 OA
BRANCH   3   5
ATOM      5  C   UNL A   1      33.358  22.310  24.868  1.00  0.00     0.072 C 
ATOM      6  C   UNL A   1      33.845  24.855  25.155  1.00  0.00    -0.010 C 
ATOM      7  C   UNL A   1      33.809  25.028  23.636  1.00  0.00     0.003 C 
ATOM      8  C   UNL A   1      33.005  23.640  25.594  1.00  0.00     0.022 C 
ATOM      9  C   UNL A   1      34.267  23.758  22.938  1.00  0.00     0.001 C 
ATOM     10  C   UNL A   1      33.417  22.558  23.342  1.00  0.00     0.019 C 
BRANCH   6  11
ATOM     11  C   UNL A   1      33.359  26.118  25.893  1.00  0.00     0.000 C 
ATOM     12  C   UNL A   1      33.614  27.404  25.121  1.00  0.00     0.004 C 
ENDBRANCH   6  11
BRANCH   5  13
ATOM     13  C   UNL A   1      32.244  21.266  25.219  1.00  0.00     0.054 C 
BRANCH  13  14
ATOM     14  C   UNL A   1      32.456  19.883  24.640  1.00  0.00    -0.043 A 
ATOM     15  C   UNL A   1      32.968  18.838  25.423  1.00  0.00     0.004 A 
ATOM     16  C   UNL A   1      32.187  19.644  23.286  1.00  0.00     0.049 A 
ATOM     17  C   UNL A   1      33.259  17.599  24.849  1.00  0.00     0.004 A 
ATOM     18  C   UNL A   1      32.467  18.403  22.726  1.00  0.00     0.115 A 
ATOM     19  C   UNL A   1      33.014  17.380  23.495  1.00  0.00     0.046 A 
BRANCH  18  20
ATOM     20  O   UNL A   1      32.197  18.231  21.402  1.00  0.00    -0.508 OA
ATOM     21  H   UNL A   1      31.421  18.600  21.029  1.00  0.00     0.293 HD
ENDBRANCH  18  20
ENDBRANCH  13  14
ENDBRANCH   5  13
ENDBRANCH   3   5
ENDBRANCH   2   3
ENDBRANCH   1   2
BRANCH   1  22
ATOM     22  C   UNL A   1      37.898  20.825  24.877  1.00  0.00     0.275 C 
BRANCH  22  23
ATOM     23  O   UNL A   1      38.309  21.359  26.144  1.00  0.00    -0.458 OA
BRANCH  23  24
ATOM     24  C   UNL A   1      39.641  21.457  26.333  1.00  0.00     0.338 C 
ATOM     25  O   UNL A   1      40.485  20.621  26.035  1.00  0.00    -0.246 OA
BRANCH  24  26
ATOM     26  C   UNL A   1      39.978  22.752  26.958  1.00  0.00     0.060 A 
ATOM     27  C   UNL A   1      39.402  23.940  26.506  1.00  0.00     0.016 A 
ATOM     28  C   UNL A   1      40.983  22.794  27.925  1.00  0.00     0.016 A 
ATOM     29  C   UNL A   1      39.923  25.166  26.916  1.00  0.00     0.010 A 
ATOM     30  C   UNL A   1      41.432  24.024  28.410  1.00  0.00     0.010 A 
ATOM     31  C   UNL A   1      40.956  25.227  27.865  1.00  0.00    -0.014 A 
BRANCH  31  32
ATOM     32  C   UNL A   1      41.579  26.530  28.235  1.00  0.00     0.031 A 
ATOM     33  C   UNL A   1      40.763  27.594  28.932  1.00  0.00     0.074 A 
ATOM     34  C   UNL A   1      42.878  26.768  27.967  1.00  0.00     0.049 A 
ATOM     35  N   UNL A   1      41.091  28.828  29.224  1.00  0.00    -0.248 NA
ATOM     36  C   UNL A   1      39.403  27.227  29.363  1.00  0.00     0.031 C 
ATOM     37  C   UNL A   1      43.797  25.824  27.331  1.00  0.00     0.029 A 
ATOM     38  N   UNL A   1      43.651  27.884  28.188  1.00  0.00    -0.354 N 
ATOM     39  C   UNL A   1      39.974  29.389  29.831  1.00  0.00     0.074 A 
ATOM     40  C   UNL A   1      38.954  28.366  29.868  1.00  0.00     0.031 C 
ATOM     41  C   UNL A   1      45.009  26.387  27.232  1.00  0.00     0.029 A 
ATOM     42  C   UNL A   1      44.936  27.762  27.712  1.00  0.00     0.049 A 
ATOM     43  H   UNL A   1      43.317  28.691  28.643  1.00  0.00     0.167 HD
ATOM     44  C   UNL A   1      39.810  30.637  30.329  1.00  0.00     0.034 A 
ATOM     45  C   UNL A   1      45.933  28.665  27.619  1.00  0.00     0.034 A 
ATOM     46  C   UNL A   1      40.828  31.652  30.331  1.00  0.00     0.049 A 
ATOM     47  C   UNL A   1      45.701  30.068  28.102  1.00  0.00     0.074 A 
ATOM     48  C   UNL A   1      40.755  32.943  30.826  1.00  0.00     0.029 A 
ATOM     49  N   UNL A   1      42.103  31.493  29.814  1.00  0.00    -0.354 N 
ATOM     50  N   UNL A   1      44.650  30.568  28.704  1.00  0.00    -0.248 NA
ATOM     51  C   UNL A   1      46.790  31.033  27.890  1.00  0.00     0.031 C 
ATOM     52  C   UNL A   1      41.986  33.567  30.598  1.00  0.00     0.029 A 
ATOM     53  C   UNL A   1      42.823  32.664  29.965  1.00  0.00     0.049 A 
ATOM     54  H   UNL A   1      42.445  30.668  29.402  1.00  0.00     0.167 HD
ATOM     55  C   UNL A   1      44.950  31.903  28.947  1.00  0.00     0.074 A 
ATOM     56  C   UNL A   1      46.295  32.126  28.455  1.00  0.00     0.031 C 
ATOM     57  C   UNL A   1      44.172  32.864  29.503  1.00  0.00     0.034 A 
BRANCH  44  58
ATOM     58  C   UNL A   1      38.482  30.969  30.952  1.00  0.00     0.023 A 
ATOM     59  C   UNL A   1      38.263  30.668  32.311  1.00  0.00     0.012 A 
ATOM     60  C   UNL A   1      37.475  31.624  30.216  1.00  0.00     0.148 A 
ATOM     61  C   UNL A   1      37.058  31.004  32.926  1.00  0.00     0.002 A 
ATOM     62  C   UNL A   1      36.286  31.980  30.844  1.00  0.00     0.091 A 
ATOM     63  F   UNL A   1      37.691  31.871  28.916  1.00  0.00    -0.205 F 
ATOM     64  C   UNL A   1      36.074  31.667  32.196  1.00  0.00     0.022 A 
BRANCH  62  65
ATOM     65  S   UNL A   1      34.988  32.883  29.992  1.00  0.00     0.127 S 
ATOM     66  O   UNL A   1      34.089  33.220  31.094  1.00  0.00    -0.237 OA
ATOM     67  O   UNL A   1      35.716  34.022  29.430  1.00  0.00    -0.237 OA
ATOM     68  O   UNL A   1      34.453  31.962  28.998  1.00  0.00    -0.744 OA
ENDBRANCH  62  65
ENDBRANCH  44  58
BRANCH  45  69
ATOM     69  C   UNL A   1      47.239  28.251  27.033  1.00  0.00     0.023 A 
ATOM     70  C   UNL A   1      48.307  27.914  27.885  1.00  0.00     0.012 A 
ATOM     71  C   UNL A   1      47.399  28.104  25.641  1.00  0.00     0.148 A 
ATOM     72  C   UNL A   1      49.509  27.435  27.358  1.00  0.00     0.002 A 
ATOM     73  C   UNL A   1      48.570  27.558  25.130  1.00  0.00     0.091 A 
ATOM     74  F   UNL A   1      46.389  28.471  24.838  1.00  0.00    -0.205 F 
ATOM     75  C   UNL A   1      49.633  27.235  25.985  1.00  0.00     0.022 A 
BRANCH  73  76
ATOM     76  S   UNL A   1      48.704  27.110  23.395  1.00  0.00     0.127 S 
ATOM     77  O   UNL A   1      47.890  25.900  23.329  1.00  0.00    -0.237 OA
ATOM     78  O   UNL A   1      48.130  28.276  22.721  1.00  0.00    -0.237 OA
ATOM     79  O   UNL A   1      50.133  26.941  23.164  1.00  0.00    -0.744 OA
ENDBRANCH  73  76
ENDBRANCH  45  69
BRANCH  57  80
ATOM     80  C   UNL A   1      44.746  34.250  29.600  1.00  0.00     0.023 A 
ATOM     81  C   UNL A   1      45.441  34.625  30.767  1.00  0.00     0.012 A 
ATOM     82  C   UNL A   1      44.658  35.153  28.524  1.00  0.00     0.148 A 
ATOM     83  C   UNL A   1      46.024  35.887  30.868  1.00  0.00     0.002 A 
ATOM     84  C   UNL A   1      45.272  36.397  28.620  1.00  0.00     0.091 A 
ATOM     85  F   UNL A   1      43.970  34.788  27.432  1.00  0.00    -0.205 F 
ATOM     86  C   UNL A   1      45.949  36.768  29.793  1.00  0.00     0.022 A 
BRANCH  84  87
ATOM     87  S   UNL A   1      45.283  37.553  27.243  1.00  0.00     0.127 S 
ATOM     88  O   UNL A   1      46.075  36.830  26.252  1.00  0.00    -0.237 OA
ATOM     89  O   UNL A   1      43.862  37.676  26.917  1.00  0.00    -0.237 OA
ATOM     90  O   UNL A   1      45.883  38.773  27.768  1.00  0.00    -0.744 OA
ENDBRANCH  84  87
ENDBRANCH  57  80
ENDBRANCH  31  32
ENDBRANCH  24  26
ENDBRANCH  23  24
ENDBRANCH  22  23
ENDBRANCH   1  22
TORSDOF 18
ENDMDL
MODEL 3
REMARK VINA RESULT:     -11.7      5.569      8.513
REMARK SMILES CC[C@@H]1CCC[C@@](Cc2cccc(O)c2)(C(=O)OCCOC(=O)c2ccc(-c3c4nc(c(-c5cccc(S(=O)(=O)[O-])c5F)c5ccc([nH]5)c(-c5cccc(S(=O)(=O)[O-])c5F)c5nc(c(-c6cccc(S(=O)(=O)[O-])c6F)c6ccc3[nH]6)C=C5)C=C4)cc2)C1
REMARK SMILES IDX 19 1 18 2 16 3 17 4 7 5 3 6 4 7 87 8 5 9 6 10 2 11 1 12 8 13
REMARK SMILES IDX 9 14 10 15 15 16 11 17 13 18 12 19 14 20 20 22 21 23 22 24
REMARK SMILES IDX 23 25 24 26 25 27 86 28 26 29 85 30 27 31 28 32 29 33 79 34
REMARK SMILES IDX 30 35 84 36 78 37 80 38 31 39 83 40 77 41 76 42 32 44 64 45
REMARK SMILES IDX 44 46 63 47 45 48 48 49 62 50 81 51 46 52 47 53 61 55 82 56
REMARK SMILES IDX 49 57 33 58 34 59 42 60 35 61 37 62 43 63 36 64 38 65 39 66
REMARK SMILES IDX 40 67 41 68 65 69 66 70 74 71 67 72 69 73 75 74 68 75 70 76
REMARK SMILES IDX 71 77 72 78 73 79 50 80 51 81 59 82 52 83 54 84 60 85 53 86
REMARK SMILES IDX 55 87 56 88 57 89 58 90
REMARK H PARENT 14 21 80 43 48 54
REMARK Flexibility Score: inf
ROOT
ATOM      1  C   UNL A   1      36.158  19.815  24.999  1.00  0.00     0.274 C 
ENDROOT
BRANCH   1   2
ATOM      2  O   UNL A   1      35.593  21.105  24.687  1.00  0.00    -0.462 OA
BRANCH   2   3
ATOM      3  C   UNL A   1      34.676  21.585  25.569  1.00  0.00     0.312 C 
ATOM      4  O   UNL A   1      34.761  21.452  26.786  1.00  0.00    -0.252 OA
BRANCH   3   5
ATOM      5  C   UNL A   1      33.437  22.187  24.888  1.00  0.00     0.072 C 
ATOM      6  C   UNL A   1      33.936  24.721  25.238  1.00  0.00    -0.010 C 
ATOM      7  C   UNL A   1      34.002  24.913  23.722  1.00  0.00     0.003 C 
ATOM      8  C   UNL A   1      33.055  23.513  25.606  1.00  0.00     0.022 C 
ATOM      9  C   UNL A   1      34.489  23.645  23.039  1.00  0.00     0.001 C 
ATOM     10  C   UNL A   1      33.599  22.451  23.372  1.00  0.00     0.019 C 
BRANCH   6  11
ATOM     11  C   UNL A   1      33.420  25.982  25.958  1.00  0.00     0.000 C 
ATOM     12  C   UNL A   1      32.903  27.052  25.008  1.00  0.00     0.004 C 
ENDBRANCH   6  11
BRANCH   5  13
ATOM     13  C   UNL A   1      32.290  21.154  25.152  1.00  0.00     0.054 C 
BRANCH  13  14
ATOM     14  C   UNL A   1      32.572  19.745  24.674  1.00  0.00    -0.043 A 
ATOM     15  C   UNL A   1      32.519  19.417  23.311  1.00  0.00     0.004 A 
ATOM     16  C   UNL A   1      32.840  18.732  25.603  1.00  0.00     0.049 A 
ATOM     17  C   UNL A   1      32.673  18.094  22.894  1.00  0.00     0.004 A 
ATOM     18  C   UNL A   1      33.008  17.419  25.177  1.00  0.00     0.115 A 
ATOM     19  C   UNL A   1      32.913  17.088  23.829  1.00  0.00     0.046 A 
BRANCH  18  20
ATOM     20  O   UNL A   1      33.254  16.473  26.126  1.00  0.00    -0.508 OA
ATOM     21  H   UNL A   1      32.611  15.817  26.312  1.00  0.00     0.293 HD
ENDBRANCH  18  20
ENDBRANCH  13  14
ENDBRANCH   5  13
ENDBRANCH   3   5
ENDBRANCH   2   3
ENDBRANCH   1   2
BRANCH   1  22
ATOM     22  C   UNL A   1      37.678  19.849  24.921  1.00  0.00     0.275 C 
BRANCH  22  23
ATOM     23  O   UNL A   1      38.150  21.083  25.480  1.00  0.00    -0.458 OA
BRANCH  23  24
ATOM     24  C   UNL A   1      39.335  21.018  26.124  1.00  0.00     0.338 C 
ATOM     25  O   UNL A   1      40.036  20.024  26.266  1.00  0.00    -0.246 OA
BRANCH  24  26
ATOM     26  C   UNL A   1      39.707  22.346  26.651  1.00  0.00     0.060 A 
ATOM     27  C   UNL A   1      39.066  23.502  26.204  1.00  0.00     0.016 A 
ATOM     28  C   UNL A   1      40.803  22.449  27.509  1.00  0.00     0.016 A 
ATOM     29  C   UNL A   1      39.601  24.754  26.503  1.00  0.00     0.010 A 
ATOM     30  C   UNL A   1      41.274  23.708  27.889  1.00  0.00     0.010 A 
ATOM     31  C   UNL A   1      40.722  24.876  27.338  1.00  0.00    -0.014 A 
BRANCH  31  32
ATOM     32  C   UNL A   1      41.353  26.205  27.583  1.00  0.00     0.031 A 
ATOM     33  C   UNL A   1      42.753  26.488  27.090  1.00  0.00     0.074 A 
ATOM     34  C   UNL A   1      40.677  27.174  28.231  1.00  0.00     0.049 A 
ATOM     35  N   UNL A   1      43.512  27.532  27.309  1.00  0.00    -0.248 NA
ATOM     36  C   UNL A   1      43.385  25.467  26.236  1.00  0.00     0.031 C 
ATOM     37  C   UNL A   1      39.308  27.059  28.733  1.00  0.00     0.029 A 
ATOM     38  N   UNL A   1      41.054  28.448  28.588  1.00  0.00    -0.354 N 
ATOM     39  C   UNL A   1      44.713  27.277  26.658  1.00  0.00     0.074 A 
ATOM     40  C   UNL A   1      44.590  25.980  26.034  1.00  0.00     0.031 C 
ATOM     41  C   UNL A   1      38.951  28.213  29.312  1.00  0.00     0.029 A 
ATOM     42  C   UNL A   1      40.093  29.122  29.305  1.00  0.00     0.049 A 
ATOM     43  H   UNL A   1      41.926  28.838  28.353  1.00  0.00     0.167 HD
ATOM     44  C   UNL A   1      45.818  28.056  26.570  1.00  0.00     0.034 A 
ATOM     45  C   UNL A   1      40.133  30.314  29.935  1.00  0.00     0.034 A 
ATOM     46  C   UNL A   1      45.940  29.363  27.156  1.00  0.00     0.049 A 
ATOM     47  C   UNL A   1      41.398  31.123  29.895  1.00  0.00     0.074 A 
ATOM     48  C   UNL A   1      47.018  30.230  27.107  1.00  0.00     0.029 A 
ATOM     49  N   UNL A   1      44.952  29.992  27.895  1.00  0.00    -0.354 N 
ATOM     50  N   UNL A   1      42.510  30.880  29.245  1.00  0.00    -0.248 NA
ATOM     51  C   UNL A   1      41.416  32.368  30.677  1.00  0.00     0.031 C 
ATOM     52  C   UNL A   1      46.684  31.381  27.828  1.00  0.00     0.029 A 
ATOM     53  C   UNL A   1      45.399  31.231  28.321  1.00  0.00     0.049 A 
ATOM     54  H   UNL A   1      44.064  29.614  28.088  1.00  0.00     0.167 HD
ATOM     55  C   UNL A   1      43.359  31.942  29.534  1.00  0.00     0.074 A 
ATOM     56  C   UNL A   1      42.620  32.846  30.394  1.00  0.00     0.031 C 
ATOM     57  C   UNL A   1      44.642  32.137  29.146  1.00  0.00     0.034 A 
BRANCH  44  58
ATOM     58  C   UNL A   1      46.981  27.527  25.777  1.00  0.00     0.023 A 
ATOM     59  C   UNL A   1      47.883  26.634  26.389  1.00  0.00     0.012 A 
ATOM     60  C   UNL A   1      47.152  27.866  24.421  1.00  0.00     0.148 A 
ATOM     61  C   UNL A   1      48.945  26.094  25.665  1.00  0.00     0.002 A 
ATOM     62  C   UNL A   1      48.199  27.303  23.698  1.00  0.00     0.091 A 
ATOM     63  F   UNL A   1      46.302  28.744  23.869  1.00  0.00    -0.205 F 
ATOM     64  C   UNL A   1      49.097  26.421  24.319  1.00  0.00     0.022 A 
BRANCH  62  65
ATOM     65  S   UNL A   1      48.436  27.628  21.948  1.00  0.00     0.127 S 
ATOM     66  O   UNL A   1      49.577  28.541  21.968  1.00  0.00    -0.237 OA
ATOM     67  O   UNL A   1      48.732  26.296  21.419  1.00  0.00    -0.237 OA
ATOM     68  O   UNL A   1      47.180  28.195  21.478  1.00  0.00    -0.744 OA
ENDBRANCH  62  65
ENDBRANCH  44  58
BRANCH  45  69
ATOM     69  C   UNL A   1      38.926  30.795  30.662  1.00  0.00     0.023 A 
ATOM     70  C   UNL A   1      38.831  30.608  32.053  1.00  0.00     0.012 A 
ATOM     71  C   UNL A   1      37.913  31.515  29.997  1.00  0.00     0.148 A 
ATOM     72  C   UNL A   1      37.751  31.133  32.767  1.00  0.00     0.002 A 
ATOM     73  C   UNL A   1      36.882  32.096  30.724  1.00  0.00     0.091 A 
ATOM     74  F   UNL A   1      37.993  31.648  28.664  1.00  0.00    -0.205 F 
ATOM     75  C   UNL A   1      36.790  31.896  32.108  1.00  0.00     0.022 A 
BRANCH  73  76
ATOM     76  S   UNL A   1      35.730  33.238  29.949  1.00  0.00     0.127 S 
ATOM     77  O   UNL A   1      34.998  33.760  31.098  1.00  0.00    -0.237 OA
ATOM     78  O   UNL A   1      36.625  34.198  29.300  1.00  0.00    -0.237 OA
ATOM     79  O   UNL A   1      34.968  32.420  29.013  1.00  0.00    -0.744 OA
ENDBRANCH  73  76
ENDBRANCH  45  69
BRANCH  57  80
ATOM     80  C   UNL A   1      45.341  33.367  29.654  1.00  0.00     0.023 A 
ATOM     81  C   UNL A   1      46.089  33.288  30.846  1.00  0.00     0.012 A 
ATOM     82  C   UNL A   1      45.319  34.573  28.929  1.00  0.00     0.148 A 
ATOM     83  C   UNL A   1      46.786  34.398  31.319  1.00  0.00     0.002 A 
ATOM     84  C   UNL A   1      46.045  35.665  29.388  1.00  0.00     0.091 A 
ATOM     85  F   UNL A   1      44.581  34.636  27.810  1.00  0.00    -0.205 F 
ATOM     86  C   UNL A   1      46.774  35.582  30.586  1.00  0.00     0.022 A 
BRANCH  84  87
ATOM     87  S   UNL A   1      46.138  37.198  28.455  1.00  0.00     0.127 S 
ATOM     88  O   UNL A   1      44.730  37.573  28.352  1.00  0.00    -0.237 OA
ATOM     89  O   UNL A   1      46.936  38.058  29.330  1.00  0.00    -0.237 OA
ATOM     90  O   UNL A   1      46.796  36.848  27.202  1.00  0.00    -0.744 OA
ENDBRANCH  84  87
ENDBRANCH  57  80
ENDBRANCH  31  32
ENDBRANCH  24  26
ENDBRANCH  23  24
ENDBRANCH  22  23
ENDBRANCH   1  22
TORSDOF 18
ENDMDL
