MODEL 1
REMARK VINA RESULT:     -10.9      0.000      0.000
REMARK SMILES CC[NH2+][C@]1(C(=O)OCCOC(=O)c2ccc(-c3c4nc(c(-c5cccc(S(=O)(=O)[O-])c5F)c5ccc([nH]5)c(-c5cccc(S(=O)(=O)[O-])c5F)c5nc(c(-c6cccc(S(=O)(=O)[O-])c6F)c6ccc3[nH]6)C=C5)C=C4)cc2)CCC[C@H]1CCOC1CCC1
REMARK SMILES IDX 8 1 7 2 5 3 6 4 4 5 76 6 79 7 77 8 78 9 3 10 2 13 1 14 80 15
REMARK SMILES IDX 81 16 82 17 83 18 84 19 86 20 85 21 9 22 10 23 11 24 12 25
REMARK SMILES IDX 13 26 14 27 75 28 15 29 74 30 16 31 17 32 18 33 68 34 19 35
REMARK SMILES IDX 73 36 67 37 69 38 20 39 72 40 66 41 65 42 21 44 53 45 33 46
REMARK SMILES IDX 52 47 34 48 37 49 51 50 70 51 35 52 36 53 50 55 71 56 38 57
REMARK SMILES IDX 22 58 23 59 31 60 24 61 26 62 32 63 25 64 27 65 28 66 29 67
REMARK SMILES IDX 30 68 54 69 55 70 63 71 56 72 58 73 64 74 57 75 59 76 60 77
REMARK SMILES IDX 61 78 62 79 39 80 40 81 48 82 41 83 43 84 49 85 42 86 44 87
REMARK SMILES IDX 45 88 46 89 47 90
REMARK H PARENT 3 11 3 12 69 43 37 54
REMARK Flexibility Score: inf
ROOT
ATOM      1  C   UNL A   1      32.865  29.717  25.007  1.00  0.00     0.274 C 
ENDROOT
BRANCH   1   2
ATOM      2  O   UNL A   1      33.207  28.353  25.349  1.00  0.00    -0.457 OA
BRANCH   2   3
ATOM      3  C   UNL A   1      33.184  27.525  24.269  1.00  0.00     0.368 C 
ATOM      4  O   UNL A   1      33.933  27.686  23.322  1.00  0.00    -0.245 OA
BRANCH   3   5
ATOM      5  C   UNL A   1      32.285  26.278  24.401  1.00  0.00     0.197 C 
ATOM      6  C   UNL A   1      31.593  26.096  25.753  1.00  0.00     0.081 C 
ATOM      7  C   UNL A   1      31.046  26.436  23.435  1.00  0.00     0.065 C 
ATOM      8  C   UNL A   1      30.372  25.215  25.463  1.00  0.00     0.008 C 
ATOM      9  C   UNL A   1      30.053  25.378  23.975  1.00  0.00     0.011 C 
BRANCH   5  10
ATOM     10  N   UNL A   1      33.210  25.157  24.117  1.00  0.00    -0.332 N 
ATOM     11  H   UNL A   1      32.623  24.323  24.087  1.00  0.00     0.347 HD
ATOM     12  H   UNL A   1      33.680  25.516  23.287  1.00  0.00     0.347 HD
BRANCH  10  13
ATOM     13  C   UNL A   1      34.351  24.794  24.924  1.00  0.00     0.257 C 
ATOM     14  C   UNL A   1      33.875  24.048  26.171  1.00  0.00     0.071 C 
ENDBRANCH  10  13
ENDBRANCH   5  10
BRANCH   7  15
ATOM     15  C   UNL A   1      30.246  27.791  23.451  1.00  0.00     0.039 C 
BRANCH  15  16
ATOM     16  C   UNL A   1      30.442  28.905  22.412  1.00  0.00     0.161 C 
BRANCH  16  17
ATOM     17  O   UNL A   1      29.282  29.149  21.635  1.00  0.00    -0.378 OA
BRANCH  17  18
ATOM     18  C   UNL A   1      28.424  30.242  22.009  1.00  0.00     0.118 C 
ATOM     19  C   UNL A   1      27.371  29.875  23.069  1.00  0.00     0.032 C 
ATOM     20  C   UNL A   1      28.942  31.300  23.027  1.00  0.00     0.032 C 
ATOM     21  C   UNL A   1      27.524  31.310  23.616  1.00  0.00     0.005 C 
ENDBRANCH  17  18
ENDBRANCH  16  17
ENDBRANCH  15  16
ENDBRANCH   7  15
ENDBRANCH   3   5
ENDBRANCH   2   3
ENDBRANCH   1   2
BRANCH   1  22
ATOM     22  C   UNL A   1      31.996  30.455  26.049  1.00  0.00     0.275 C 
BRANCH  22  23
ATOM     23  O   UNL A   1      32.607  30.610  27.351  1.00  0.00    -0.458 OA
BRANCH  23  24
ATOM     24  C   UNL A   1      33.406  31.698  27.494  1.00  0.00     0.338 C 
ATOM     25  O   UNL A   1      33.036  32.865  27.423  1.00  0.00    -0.246 OA
BRANCH  24  26
ATOM     26  C   UNL A   1      34.790  31.317  27.875  1.00  0.00     0.060 A 
ATOM     27  C   UNL A   1      35.065  29.960  28.064  1.00  0.00     0.016 A 
ATOM     28  C   UNL A   1      35.789  32.248  28.155  1.00  0.00     0.016 A 
ATOM     29  C   UNL A   1      36.277  29.516  28.580  1.00  0.00     0.010 A 
ATOM     30  C   UNL A   1      37.030  31.805  28.656  1.00  0.00     0.010 A 
ATOM     31  C   UNL A   1      37.269  30.437  28.905  1.00  0.00    -0.014 A 
BRANCH  31  32
ATOM     32  C   UNL A   1      38.475  29.943  29.627  1.00  0.00     0.031 A 
ATOM     33  C   UNL A   1      38.669  30.342  31.051  1.00  0.00     0.074 A 
ATOM     34  C   UNL A   1      39.346  29.089  29.055  1.00  0.00     0.049 A 
ATOM     35  N   UNL A   1      39.616  29.993  31.878  1.00  0.00    -0.248 NA
ATOM     36  C   UNL A   1      37.675  31.267  31.614  1.00  0.00     0.031 C 
ATOM     37  C   UNL A   1      39.252  28.646  27.679  1.00  0.00     0.029 A 
ATOM     38  N   UNL A   1      40.465  28.448  29.520  1.00  0.00    -0.354 N 
ATOM     39  C   UNL A   1      39.361  30.690  33.047  1.00  0.00     0.074 A 
ATOM     40  C   UNL A   1      38.182  31.497  32.814  1.00  0.00     0.031 C 
ATOM     41  C   UNL A   1      40.253  27.805  27.389  1.00  0.00     0.029 A 
ATOM     42  C   UNL A   1      41.099  27.681  28.565  1.00  0.00     0.049 A 
ATOM     43  H   UNL A   1      40.787  28.528  30.448  1.00  0.00     0.167 HD
ATOM     44  C   UNL A   1      40.046  30.656  34.212  1.00  0.00     0.034 A 
ATOM     45  C   UNL A   1      42.247  26.978  28.617  1.00  0.00     0.034 A 
ATOM     46  C   UNL A   1      41.227  29.865  34.420  1.00  0.00     0.049 A 
ATOM     47  C   UNL A   1      42.993  26.954  29.919  1.00  0.00     0.074 A 
ATOM     48  C   UNL A   1      42.000  29.753  35.560  1.00  0.00     0.029 A 
ATOM     49  N   UNL A   1      41.822  29.065  33.452  1.00  0.00    -0.354 N 
ATOM     50  N   UNL A   1      42.689  27.552  31.046  1.00  0.00    -0.248 NA
ATOM     51  C   UNL A   1      44.217  26.145  29.975  1.00  0.00     0.031 C 
ATOM     52  C   UNL A   1      43.083  28.916  35.269  1.00  0.00     0.029 A 
ATOM     53  C   UNL A   1      42.959  28.463  33.964  1.00  0.00     0.049 A 
ATOM     54  H   UNL A   1      41.484  28.943  32.535  1.00  0.00     0.167 HD
ATOM     55  C   UNL A   1      43.666  27.176  31.955  1.00  0.00     0.074 A 
ATOM     56  C   UNL A   1      44.562  26.277  31.250  1.00  0.00     0.031 C 
ATOM     57  C   UNL A   1      43.814  27.547  33.250  1.00  0.00     0.034 A 
BRANCH  44  58
ATOM     58  C   UNL A   1      39.525  31.542  35.308  1.00  0.00     0.023 A 
ATOM     59  C   UNL A   1      38.498  31.082  36.159  1.00  0.00     0.012 A 
ATOM     60  C   UNL A   1      39.987  32.865  35.433  1.00  0.00     0.148 A 
ATOM     61  C   UNL A   1      37.886  31.947  37.065  1.00  0.00     0.002 A 
ATOM     62  C   UNL A   1      39.407  33.707  36.374  1.00  0.00     0.091 A 
ATOM     63  F   UNL A   1      40.944  33.291  34.598  1.00  0.00    -0.205 F 
ATOM     64  C   UNL A   1      38.344  33.258  37.173  1.00  0.00     0.022 A 
BRANCH  62  65
ATOM     65  S   UNL A   1      39.967  35.392  36.633  1.00  0.00     0.127 S 
ATOM     66  O   UNL A   1      39.372  36.080  35.488  1.00  0.00    -0.237 OA
ATOM     67  O   UNL A   1      39.360  35.720  37.923  1.00  0.00    -0.237 OA
ATOM     68  O   UNL A   1      41.422  35.336  36.644  1.00  0.00    -0.744 OA
ENDBRANCH  62  65
ENDBRANCH  44  58
BRANCH  45  69
ATOM     69  C   UNL A   1      42.741  26.241  27.414  1.00  0.00     0.023 A 
ATOM     70  C   UNL A   1      43.584  26.886  26.489  1.00  0.00     0.012 A 
ATOM     71  C   UNL A   1      42.403  24.889  27.201  1.00  0.00     0.148 A 
ATOM     72  C   UNL A   1      44.061  26.209  25.363  1.00  0.00     0.002 A 
ATOM     73  C   UNL A   1      42.924  24.204  26.107  1.00  0.00     0.091 A 
ATOM     74  F   UNL A   1      41.590  24.293  28.084  1.00  0.00    -0.205 F 
ATOM     75  C   UNL A   1      43.739  24.866  25.178  1.00  0.00     0.022 A 
BRANCH  73  76
ATOM     76  S   UNL A   1      42.660  22.445  25.850  1.00  0.00     0.127 S 
ATOM     77  O   UNL A   1      43.327  22.227  24.568  1.00  0.00    -0.237 OA
ATOM     78  O   UNL A   1      43.345  21.866  27.006  1.00  0.00    -0.237 OA
ATOM     79  O   UNL A   1      41.215  22.256  25.847  1.00  0.00    -0.744 OA
ENDBRANCH  73  76
ENDBRANCH  45  69
BRANCH  57  80
ATOM     80  C   UNL A   1      44.965  26.944  34.006  1.00  0.00     0.023 A 
ATOM     81  C   UNL A   1      46.239  27.545  33.968  1.00  0.00     0.012 A 
ATOM     82  C   UNL A   1      44.757  25.809  34.814  1.00  0.00     0.148 A 
ATOM     83  C   UNL A   1      47.296  27.005  34.697  1.00  0.00     0.002 A 
ATOM     84  C   UNL A   1      45.800  25.312  35.583  1.00  0.00     0.091 A 
ATOM     85  F   UNL A   1      43.544  25.236  34.813  1.00  0.00    -0.205 F 
ATOM     86  C   UNL A   1      47.074  25.898  35.515  1.00  0.00     0.022 A 
BRANCH  84  87
ATOM     87  S   UNL A   1      45.568  23.964  36.746  1.00  0.00     0.127 S 
ATOM     88  O   UNL A   1      46.929  23.761  37.241  1.00  0.00    -0.237 OA
ATOM     89  O   UNL A   1      44.644  24.549  37.718  1.00  0.00    -0.237 OA
ATOM     90  O   UNL A   1      45.010  22.861  35.975  1.00  0.00    -0.744 OA
ENDBRANCH  84  87
ENDBRANCH  57  80
ENDBRANCH  31  32
ENDBRANCH  24  26
ENDBRANCH  23  24
ENDBRANCH  22  23
ENDBRANCH   1  22
TORSDOF 20
ENDMDL
MODEL 2
REMARK VINA RESULT:     -10.2      1.773      2.048
REMARK SMILES CC[NH2+][C@]1(C(=O)OCCOC(=O)c2ccc(-c3c4nc(c(-c5cccc(S(=O)(=O)[O-])c5F)c5ccc([nH]5)c(-c5cccc(S(=O)(=O)[O-])c5F)c5nc(c(-c6cccc(S(=O)(=O)[O-])c6F)c6ccc3[nH]6)C=C5)C=C4)cc2)CCC[C@H]1CCOC1CCC1
REMARK SMILES IDX 8 1 7 2 5 3 6 4 4 5 76 6 79 7 77 8 78 9 3 10 2 13 1 14 80 15
REMARK SMILES IDX 81 16 82 17 83 18 84 19 86 20 85 21 9 22 10 23 11 24 12 25
REMARK SMILES IDX 13 26 14 27 75 28 15 29 74 30 16 31 17 32 18 33 68 34 19 35
REMARK SMILES IDX 73 36 67 37 69 38 20 39 72 40 66 41 65 42 21 44 53 45 33 46
REMARK SMILES IDX 52 47 34 48 37 49 51 50 70 51 35 52 36 53 50 55 71 56 38 57
REMARK SMILES IDX 22 58 23 59 31 60 24 61 26 62 32 63 25 64 27 65 28 66 29 67
REMARK SMILES IDX 30 68 54 69 55 70 63 71 56 72 58 73 64 74 57 75 59 76 60 77
REMARK SMILES IDX 61 78 62 79 39 80 40 81 48 82 41 83 43 84 49 85 42 86 44 87
REMARK SMILES IDX 45 88 46 89 47 90
REMARK H PARENT 3 11 3 12 69 43 37 54
REMARK Flexibility Score: inf
ROOT
ATOM      1  C   UNL A   1      31.977  29.843  25.286  1.00  0.00     0.274 C 
ENDROOT
BRANCH   1   2
ATOM      2  O   UNL A   1      32.868  28.744  24.979  1.00  0.00    -0.457 OA
BRANCH   2   3
ATOM      3  C   UNL A   1      32.572  28.152  23.790  1.00  0.00     0.368 C 
ATOM      4  O   UNL A   1      32.871  28.665  22.727  1.00  0.00    -0.245 OA
BRANCH   3   5
ATOM      5  C   UNL A   1      32.003  26.720  23.880  1.00  0.00     0.197 C 
ATOM      6  C   UNL A   1      31.595  26.251  25.277  1.00  0.00     0.081 C 
ATOM      7  C   UNL A   1      30.621  26.669  23.117  1.00  0.00     0.065 C 
ATOM      8  C   UNL A   1      30.568  25.137  25.043  1.00  0.00     0.008 C 
ATOM      9  C   UNL A   1      29.986  25.360  23.645  1.00  0.00     0.011 C 
BRANCH   5  10
ATOM     10  N   UNL A   1      33.094  25.883  23.331  1.00  0.00    -0.332 N 
ATOM     11  H   UNL A   1      33.898  26.506  23.249  1.00  0.00     0.347 HD
ATOM     12  H   UNL A   1      33.079  25.107  23.992  1.00  0.00     0.347 HD
BRANCH  10  13
ATOM     13  C   UNL A   1      33.042  25.158  22.083  1.00  0.00     0.257 C 
ATOM     14  C   UNL A   1      33.133  23.657  22.364  1.00  0.00     0.071 C 
ENDBRANCH  10  13
ENDBRANCH   5  10
BRANCH   7  15
ATOM     15  C   UNL A   1      29.555  27.788  23.417  1.00  0.00     0.039 C 
BRANCH  15  16
ATOM     16  C   UNL A   1      29.385  29.050  22.558  1.00  0.00     0.161 C 
BRANCH  16  17
ATOM     17  O   UNL A   1      28.032  29.449  22.420  1.00  0.00    -0.378 OA
BRANCH  17  18
ATOM     18  C   UNL A   1      27.722  30.853  22.473  1.00  0.00     0.118 C 
ATOM     19  C   UNL A   1      28.578  31.643  23.478  1.00  0.00     0.032 C 
ATOM     20  C   UNL A   1      28.301  31.799  21.381  1.00  0.00     0.032 C 
ATOM     21  C   UNL A   1      28.504  32.834  22.497  1.00  0.00     0.005 C 
ENDBRANCH  17  18
ENDBRANCH  16  17
ENDBRANCH  15  16
ENDBRANCH   7  15
ENDBRANCH   3   5
ENDBRANCH   2   3
ENDBRANCH   1   2
BRANCH   1  22
ATOM     22  C   UNL A   1      32.374  30.682  26.520  1.00  0.00     0.275 C 
BRANCH  22  23
ATOM     23  O   UNL A   1      33.711  30.440  27.017  1.00  0.00    -0.458 OA
BRANCH  23  24
ATOM     24  C   UNL A   1      34.253  31.447  27.748  1.00  0.00     0.338 C 
ATOM     25  O   UNL A   1      33.682  32.488  28.056  1.00  0.00    -0.246 OA
BRANCH  24  26
ATOM     26  C   UNL A   1      35.605  31.095  28.252  1.00  0.00     0.060 A 
ATOM     27  C   UNL A   1      35.808  29.795  28.719  1.00  0.00     0.016 A 
ATOM     28  C   UNL A   1      36.637  32.022  28.379  1.00  0.00     0.016 A 
ATOM     29  C   UNL A   1      36.982  29.414  29.361  1.00  0.00     0.010 A 
ATOM     30  C   UNL A   1      37.841  31.640  29.008  1.00  0.00     0.010 A 
ATOM     31  C   UNL A   1      38.006  30.341  29.535  1.00  0.00    -0.014 A 
BRANCH  31  32
ATOM     32  C   UNL A   1      39.164  29.955  30.388  1.00  0.00     0.031 A 
ATOM     33  C   UNL A   1      39.246  30.502  31.773  1.00  0.00     0.074 A 
ATOM     34  C   UNL A   1      40.089  29.068  29.972  1.00  0.00     0.049 A 
ATOM     35  N   UNL A   1      40.135  30.263  32.696  1.00  0.00    -0.248 NA
ATOM     36  C   UNL A   1      38.197  31.454  32.164  1.00  0.00     0.031 C 
ATOM     37  C   UNL A   1      40.104  28.484  28.646  1.00  0.00     0.029 A 
ATOM     38  N   UNL A   1      41.183  28.507  30.579  1.00  0.00    -0.354 N 
ATOM     39  C   UNL A   1      39.783  31.070  33.765  1.00  0.00     0.074 A 
ATOM     40  C   UNL A   1      38.611  31.819  33.367  1.00  0.00     0.031 C 
ATOM     41  C   UNL A   1      41.139  27.643  28.517  1.00  0.00     0.029 A 
ATOM     42  C   UNL A   1      41.899  27.662  29.757  1.00  0.00     0.049 A 
ATOM     43  H   UNL A   1      41.434  28.690  31.514  1.00  0.00     0.167 HD
ATOM     44  C   UNL A   1      40.382  31.173  34.974  1.00  0.00     0.034 A 
ATOM     45  C   UNL A   1      43.052  26.997  29.963  1.00  0.00     0.034 A 
ATOM     46  C   UNL A   1      41.558  30.437  35.346  1.00  0.00     0.049 A 
ATOM     47  C   UNL A   1      43.700  27.125  31.310  1.00  0.00     0.074 A 
ATOM     48  C   UNL A   1      42.247  30.463  36.544  1.00  0.00     0.029 A 
ATOM     49  N   UNL A   1      42.236  29.558  34.512  1.00  0.00    -0.354 N 
ATOM     50  N   UNL A   1      43.304  27.828  32.344  1.00  0.00    -0.248 NA
ATOM     51  C   UNL A   1      44.931  26.358  31.537  1.00  0.00     0.031 C 
ATOM     52  C   UNL A   1      43.363  29.627  36.420  1.00  0.00     0.029 A 
ATOM     53  C   UNL A   1      43.343  29.040  35.163  1.00  0.00     0.049 A 
ATOM     54  H   UNL A   1      41.968  29.334  33.591  1.00  0.00     0.167 HD
ATOM     55  C   UNL A   1      44.219  27.571  33.354  1.00  0.00     0.074 A 
ATOM     56  C   UNL A   1      45.179  26.628  32.812  1.00  0.00     0.031 C 
ATOM     57  C   UNL A   1      44.265  28.078  34.611  1.00  0.00     0.034 A 
BRANCH  44  58
ATOM     58  C   UNL A   1      39.767  32.153  35.932  1.00  0.00     0.023 A 
ATOM     59  C   UNL A   1      38.657  31.772  36.717  1.00  0.00     0.012 A 
ATOM     60  C   UNL A   1      40.227  33.482  35.984  1.00  0.00     0.148 A 
ATOM     61  C   UNL A   1      37.969  32.715  37.479  1.00  0.00     0.002 A 
ATOM     62  C   UNL A   1      39.568  34.404  36.787  1.00  0.00     0.091 A 
ATOM     63  F   UNL A   1      41.265  33.831  35.212  1.00  0.00    -0.205 F 
ATOM     64  C   UNL A   1      38.427  34.030  37.515  1.00  0.00     0.022 A 
BRANCH  62  65
ATOM     65  S   UNL A   1      40.116  36.105  36.949  1.00  0.00     0.127 S 
ATOM     66  O   UNL A   1      39.806  36.643  35.626  1.00  0.00    -0.237 OA
ATOM     67  O   UNL A   1      39.258  36.600  38.025  1.00  0.00    -0.237 OA
ATOM     68  O   UNL A   1      41.532  36.041  37.284  1.00  0.00    -0.744 OA
ENDBRANCH  62  65
ENDBRANCH  44  58
BRANCH  45  69
ATOM     69  C   UNL A   1      43.645  26.153  28.882  1.00  0.00     0.023 A 
ATOM     70  C   UNL A   1      43.335  24.781  28.809  1.00  0.00     0.012 A 
ATOM     71  C   UNL A   1      44.492  26.713  27.904  1.00  0.00     0.148 A 
ATOM     72  C   UNL A   1      43.875  23.979  27.798  1.00  0.00     0.002 A 
ATOM     73  C   UNL A   1      44.983  25.922  26.870  1.00  0.00     0.091 A 
ATOM     74  F   UNL A   1      44.787  28.017  27.995  1.00  0.00    -0.205 F 
ATOM     75  C   UNL A   1      44.689  24.552  26.825  1.00  0.00     0.022 A 
BRANCH  73  76
ATOM     76  S   UNL A   1      45.944  26.594  25.507  1.00  0.00     0.127 S 
ATOM     77  O   UNL A   1      46.097  25.425  24.645  1.00  0.00    -0.237 OA
ATOM     78  O   UNL A   1      45.047  27.628  24.989  1.00  0.00    -0.237 OA
ATOM     79  O   UNL A   1      47.173  27.102  26.101  1.00  0.00    -0.744 OA
ENDBRANCH  73  76
ENDBRANCH  45  69
BRANCH  57  80
ATOM     80  C   UNL A   1      45.367  27.584  35.506  1.00  0.00     0.023 A 
ATOM     81  C   UNL A   1      46.621  28.226  35.515  1.00  0.00     0.012 A 
ATOM     82  C   UNL A   1      45.128  26.516  36.393  1.00  0.00     0.148 A 
ATOM     83  C   UNL A   1      47.631  27.790  36.370  1.00  0.00     0.002 A 
ATOM     84  C   UNL A   1      46.119  26.125  37.282  1.00  0.00     0.091 A 
ATOM     85  F   UNL A   1      43.937  25.901  36.347  1.00  0.00    -0.205 F 
ATOM     86  C   UNL A   1      47.376  26.750  37.263  1.00  0.00     0.022 A 
BRANCH  84  87
ATOM     87  S   UNL A   1      45.833  24.875  38.538  1.00  0.00     0.127 S 
ATOM     88  O   UNL A   1      47.151  24.773  39.163  1.00  0.00    -0.237 OA
ATOM     89  O   UNL A   1      44.808  25.503  39.372  1.00  0.00    -0.237 OA
ATOM     90  O   UNL A   1      45.384  23.686  37.825  1.00  0.00    -0.744 OA
ENDBRANCH  84  87
ENDBRANCH  57  80
ENDBRANCH  31  32
ENDBRANCH  24  26
ENDBRANCH  23  24
ENDBRANCH  22  23
ENDBRANCH   1  22
TORSDOF 20
ENDMDL
MODEL 3
REMARK VINA RESULT:     -10.0      1.937      2.289
REMARK SMILES CC[NH2+][C@]1(C(=O)OCCOC(=O)c2ccc(-c3c4nc(c(-c5cccc(S(=O)(=O)[O-])c5F)c5ccc([nH]5)c(-c5cccc(S(=O)(=O)[O-])c5F)c5nc(c(-c6cccc(S(=O)(=O)[O-])c6F)c6ccc3[nH]6)C=C5)C=C4)cc2)CCC[C@H]1CCOC1CCC1
REMARK SMILES IDX 8 1 7 2 5 3 6 4 4 5 76 6 79 7 77 8 78 9 3 10 2 13 1 14 80 15
REMARK SMILES IDX 81 16 82 17 83 18 84 19 86 20 85 21 9 22 10 23 11 24 12 25
REMARK SMILES IDX 13 26 14 27 75 28 15 29 74 30 16 31 17 32 18 33 68 34 19 35
REMARK SMILES IDX 73 36 67 37 69 38 20 39 72 40 66 41 65 42 21 44 53 45 33 46
REMARK SMILES IDX 52 47 34 48 37 49 51 50 70 51 35 52 36 53 50 55 71 56 38 57
REMARK SMILES IDX 22 58 23 59 31 60 24 61 26 62 32 63 25 64 27 65 28 66 29 67
REMARK SMILES IDX 30 68 54 69 55 70 63 71 56 72 58 73 64 74 57 75 59 76 60 77
REMARK SMILES IDX 61 78 62 79 39 80 40 81 48 82 41 83 43 84 49 85 42 86 44 87
REMARK SMILES IDX 45 88 46 89 47 90
REMARK H PARENT 3 11 3 12 69 43 37 54
REMARK Flexibility Score: inf
ROOT
ATOM      1  C   UNL A   1      33.501  28.972  25.466  1.00  0.00     0.274 C 
ENDROOT
BRANCH   1   2
ATOM      2  O   UNL A   1      32.837  27.688  25.415  1.00  0.00    -0.457 OA
BRANCH   2   3
ATOM      3  C   UNL A   1      32.994  27.068  24.214  1.00  0.00     0.368 C 
ATOM      4  O   UNL A   1      33.621  27.583  23.305  1.00  0.00    -0.245 OA
BRANCH   3   5
ATOM      5  C   UNL A   1      32.488  25.612  24.141  1.00  0.00     0.197 C 
ATOM      6  C   UNL A   1      32.008  25.006  25.460  1.00  0.00     0.081 C 
ATOM      7  C   UNL A   1      31.164  25.573  23.279  1.00  0.00     0.065 C 
ATOM      8  C   UNL A   1      31.052  23.877  25.059  1.00  0.00     0.008 C 
ATOM      9  C   UNL A   1      30.557  24.197  23.647  1.00  0.00     0.011 C 
BRANCH   5  10
ATOM     10  N   UNL A   1      33.652  24.872  23.603  1.00  0.00    -0.332 N 
ATOM     11  H   UNL A   1      34.246  25.578  23.171  1.00  0.00     0.347 HD
ATOM     12  H   UNL A   1      33.942  24.360  24.436  1.00  0.00     0.347 HD
BRANCH  10  13
ATOM     13  C   UNL A   1      33.583  23.791  22.648  1.00  0.00     0.257 C 
ATOM     14  C   UNL A   1      33.880  22.468  23.356  1.00  0.00     0.071 C 
ENDBRANCH  10  13
ENDBRANCH   5  10
BRANCH   7  15
ATOM     15  C   UNL A   1      30.030  26.617  23.594  1.00  0.00     0.039 C 
BRANCH  15  16
ATOM     16  C   UNL A   1      29.799  27.894  22.773  1.00  0.00     0.161 C 
BRANCH  16  17
ATOM     17  O   UNL A   1      29.745  29.064  23.570  1.00  0.00    -0.378 OA
BRANCH  17  18
ATOM     18  C   UNL A   1      29.111  30.236  23.026  1.00  0.00     0.118 C 
ATOM     19  C   UNL A   1      27.574  30.195  23.081  1.00  0.00     0.032 C 
ATOM     20  C   UNL A   1      29.014  31.521  23.899  1.00  0.00     0.032 C 
ATOM     21  C   UNL A   1      27.611  31.722  23.305  1.00  0.00     0.005 C 
ENDBRANCH  17  18
ENDBRANCH  16  17
ENDBRANCH  15  16
ENDBRANCH   7  15
ENDBRANCH   3   5
ENDBRANCH   2   3
ENDBRANCH   1   2
BRANCH   1  22
ATOM     22  C   UNL A   1      32.604  30.158  25.885  1.00  0.00     0.275 C 
BRANCH  22  23
ATOM     23  O   UNL A   1      32.690  30.522  27.282  1.00  0.00    -0.458 OA
BRANCH  23  24
ATOM     24  C   UNL A   1      33.465  31.602  27.555  1.00  0.00     0.338 C 
ATOM     25  O   UNL A   1      33.073  32.764  27.606  1.00  0.00    -0.246 OA
BRANCH  24  26
ATOM     26  C   UNL A   1      34.851  31.208  27.915  1.00  0.00     0.060 A 
ATOM     27  C   UNL A   1      35.071  29.887  28.310  1.00  0.00     0.016 A 
ATOM     28  C   UNL A   1      35.910  32.112  27.979  1.00  0.00     0.016 A 
ATOM     29  C   UNL A   1      36.292  29.461  28.823  1.00  0.00     0.010 A 
ATOM     30  C   UNL A   1      37.159  31.685  28.477  1.00  0.00     0.010 A 
ATOM     31  C   UNL A   1      37.347  30.363  28.935  1.00  0.00    -0.014 A 
BRANCH  31  32
ATOM     32  C   UNL A   1      38.571  29.923  29.659  1.00  0.00     0.031 A 
ATOM     33  C   UNL A   1      38.797  30.417  31.048  1.00  0.00     0.074 A 
ATOM     34  C   UNL A   1      39.433  29.036  29.125  1.00  0.00     0.049 A 
ATOM     35  N   UNL A   1      39.765  30.128  31.873  1.00  0.00    -0.248 NA
ATOM     36  C   UNL A   1      37.811  31.374  31.571  1.00  0.00     0.031 C 
ATOM     37  C   UNL A   1      39.309  28.501  27.784  1.00  0.00     0.029 A 
ATOM     38  N   UNL A   1      40.567  28.431  29.605  1.00  0.00    -0.354 N 
ATOM     39  C   UNL A   1      39.534  30.900  32.999  1.00  0.00     0.074 A 
ATOM     40  C   UNL A   1      38.346  31.685  32.741  1.00  0.00     0.031 C 
ATOM     41  C   UNL A   1      40.307  27.647  27.527  1.00  0.00     0.029 A 
ATOM     42  C   UNL A   1      41.182  27.604  28.688  1.00  0.00     0.049 A 
ATOM     43  H   UNL A   1      40.909  28.575  30.517  1.00  0.00     0.167 HD
ATOM     44  C   UNL A   1      40.247  30.947  34.147  1.00  0.00     0.034 A 
ATOM     45  C   UNL A   1      42.335  26.910  28.760  1.00  0.00     0.034 A 
ATOM     46  C   UNL A   1      41.436  30.176  34.379  1.00  0.00     0.049 A 
ATOM     47  C   UNL A   1      43.111  26.976  30.042  1.00  0.00     0.074 A 
ATOM     48  C   UNL A   1      42.236  30.144  35.506  1.00  0.00     0.029 A 
ATOM     49  N   UNL A   1      42.012  29.315  33.453  1.00  0.00    -0.354 N 
ATOM     50  N   UNL A   1      42.830  27.648  31.133  1.00  0.00    -0.248 NA
ATOM     51  C   UNL A   1      44.340  26.178  30.123  1.00  0.00     0.031 C 
ATOM     52  C   UNL A   1      43.317  29.292  35.246  1.00  0.00     0.029 A 
ATOM     53  C   UNL A   1      43.164  28.753  33.977  1.00  0.00     0.049 A 
ATOM     54  H   UNL A   1      41.653  29.131  32.555  1.00  0.00     0.167 HD
ATOM     55  C   UNL A   1      43.831  27.337  32.042  1.00  0.00     0.074 A 
ATOM     56  C   UNL A   1      44.714  26.396  31.377  1.00  0.00     0.031 C 
ATOM     57  C   UNL A   1      44.007  27.795  33.305  1.00  0.00     0.034 A 
BRANCH  44  58
ATOM     58  C   UNL A   1      39.747  31.903  35.193  1.00  0.00     0.023 A 
ATOM     59  C   UNL A   1      40.225  33.231  35.222  1.00  0.00     0.012 A 
ATOM     60  C   UNL A   1      38.878  31.459  36.206  1.00  0.00     0.148 A 
ATOM     61  C   UNL A   1      39.907  34.077  36.283  1.00  0.00     0.002 A 
ATOM     62  C   UNL A   1      38.523  32.324  37.233  1.00  0.00     0.091 A 
ATOM     63  F   UNL A   1      38.456  30.187  36.176  1.00  0.00    -0.205 F 
ATOM     64  C   UNL A   1      39.053  33.624  37.286  1.00  0.00     0.022 A 
BRANCH  62  65
ATOM     65  S   UNL A   1      37.383  31.856  38.537  1.00  0.00     0.127 S 
ATOM     66  O   UNL A   1      37.102  30.462  38.196  1.00  0.00    -0.237 OA
ATOM     67  O   UNL A   1      38.201  32.037  39.736  1.00  0.00    -0.237 OA
ATOM     68  O   UNL A   1      36.253  32.768  38.430  1.00  0.00    -0.744 OA
ENDBRANCH  62  65
ENDBRANCH  44  58
BRANCH  45  69
ATOM     69  C   UNL A   1      42.803  26.096  27.598  1.00  0.00     0.023 A 
ATOM     70  C   UNL A   1      43.728  26.639  26.684  1.00  0.00     0.012 A 
ATOM     71  C   UNL A   1      42.360  24.771  27.412  1.00  0.00     0.148 A 
ATOM     72  C   UNL A   1      44.183  25.888  25.596  1.00  0.00     0.002 A 
ATOM     73  C   UNL A   1      42.857  24.010  26.359  1.00  0.00     0.091 A 
ATOM     74  F   UNL A   1      41.472  24.273  28.284  1.00  0.00    -0.205 F 
ATOM     75  C   UNL A   1      43.755  24.572  25.440  1.00  0.00     0.022 A 
BRANCH  73  76
ATOM     76  S   UNL A   1      42.455  22.271  26.144  1.00  0.00     0.127 S 
ATOM     77  O   UNL A   1      42.926  21.698  27.403  1.00  0.00    -0.237 OA
ATOM     78  O   UNL A   1      41.000  22.315  25.994  1.00  0.00    -0.237 OA
ATOM     79  O   UNL A   1      43.173  21.842  24.952  1.00  0.00    -0.744 OA
ENDBRANCH  73  76
ENDBRANCH  45  69
BRANCH  57  80
ATOM     80  C   UNL A   1      45.179  27.247  34.073  1.00  0.00     0.023 A 
ATOM     81  C   UNL A   1      45.040  26.081  34.851  1.00  0.00     0.012 A 
ATOM     82  C   UNL A   1      46.441  27.861  33.962  1.00  0.00     0.148 A 
ATOM     83  C   UNL A   1      46.134  25.554  35.534  1.00  0.00     0.002 A 
ATOM     84  C   UNL A   1      47.538  27.298  34.597  1.00  0.00     0.091 A 
ATOM     85  F   UNL A   1      46.543  28.987  33.239  1.00  0.00    -0.205 F 
ATOM     86  C   UNL A   1      47.385  26.153  35.396  1.00  0.00     0.022 A 
BRANCH  84  87
ATOM     87  S   UNL A   1      49.200  27.940  34.378  1.00  0.00     0.127 S 
ATOM     88  O   UNL A   1      49.984  27.028  35.211  1.00  0.00    -0.237 OA
ATOM     89  O   UNL A   1      49.406  27.783  32.938  1.00  0.00    -0.237 OA
ATOM     90  O   UNL A   1      49.158  29.324  34.833  1.00  0.00    -0.744 OA
ENDBRANCH  84  87
ENDBRANCH  57  80
ENDBRANCH  31  32
ENDBRANCH  24  26
ENDBRANCH  23  24
ENDBRANCH  22  23
ENDBRANCH   1  22
TORSDOF 20
ENDMDL
