MODEL 1
REMARK VINA RESULT:      -9.9      0.000      0.000
REMARK SMILES C#CCOc1ccccc1/C=C(\C#N)C(=O)OCCOC(=O)c1ccc(-c2c3nc(c(-c4cccc(S(=O)(=O)[O-])c4F)c4ccc([nH]4)c(-c4cccc(S(=O)(=O)[O-])c4F)c4nc(c(-c5cccc(S(=O)(=O)[O-])c5F)c5ccc2[nH]5)C=C4)C=C3)cc1
REMARK SMILES IDX 18 1 17 2 15 3 16 4 12 5 11 6 10 7 5 8 6 9 7 10 9 11 8 12
REMARK SMILES IDX 4 13 3 14 2 15 1 16 13 17 14 18 19 19 20 20 21 21 22 22
REMARK SMILES IDX 23 23 24 24 85 25 25 26 84 27 26 28 27 29 28 30 78 31 29 32
REMARK SMILES IDX 83 33 77 34 79 35 30 36 82 37 76 38 75 39 31 41 63 42 43 43
REMARK SMILES IDX 62 44 44 45 47 46 61 47 80 48 45 49 46 50 60 52 81 53 48 54
REMARK SMILES IDX 32 55 33 56 41 57 34 58 36 59 42 60 35 61 37 62 38 63 39 64
REMARK SMILES IDX 40 65 64 66 65 67 73 68 66 69 68 70 74 71 67 72 69 73 70 74
REMARK SMILES IDX 71 75 72 76 49 77 50 78 58 79 51 80 53 81 59 82 52 83 54 84
REMARK SMILES IDX 55 85 56 86 57 87
REMARK H PARENT 79 40 47 51
REMARK Flexibility Score: inf
ROOT
ATOM      1  C   UNL A   1      33.208  35.120  28.759  1.00  0.00     0.275 C 
ENDROOT
BRANCH   1   2
ATOM      2  O   UNL A   1      32.743  34.850  30.098  1.00  0.00    -0.458 OA
BRANCH   2   3
ATOM      3  C   UNL A   1      32.886  35.856  31.004  1.00  0.00     0.349 C 
ATOM      4  O   UNL A   1      32.088  36.748  31.237  1.00  0.00    -0.245 OA
BRANCH   3   5
ATOM      5  C   UNL A   1      34.196  35.629  31.744  1.00  0.00     0.138 C 
ATOM      6  C   UNL A   1      34.441  34.433  32.452  1.00  0.00     0.039 C 
BRANCH   6   7
ATOM      7  C   UNL A   1      35.634  34.098  33.345  1.00  0.00     0.018 A 
ATOM      8  C   UNL A   1      36.927  33.727  32.878  1.00  0.00     0.128 A 
ATOM      9  C   UNL A   1      37.966  33.414  33.773  1.00  0.00     0.047 A 
ATOM     10  C   UNL A   1      37.766  33.471  35.146  1.00  0.00     0.004 A 
ATOM     11  C   UNL A   1      35.460  34.071  34.744  1.00  0.00     0.012 A 
ATOM     12  C   UNL A   1      36.508  33.791  35.630  1.00  0.00     0.001 A 
BRANCH   8  13
ATOM     13  O   UNL A   1      37.269  33.473  31.566  1.00  0.00    -0.480 OA
BRANCH  13  14
ATOM     14  C   UNL A   1      38.111  34.473  30.972  1.00  0.00     0.318 C 
BRANCH  14  15
ATOM     15  C   UNL A   1      39.364  33.707  30.578  1.00  0.00    -0.065 C 
ATOM     16  C   UNL A   1      40.438  33.050  30.240  1.00  0.00     0.007 C 
ENDBRANCH  14  15
ENDBRANCH  13  14
ENDBRANCH   8  13
ENDBRANCH   6   7
BRANCH   5  17
ATOM     17  C   UNL A   1      34.050  36.553  32.942  1.00  0.00     0.107 C 
ATOM     18  N   UNL A   1      33.929  37.319  33.936  1.00  0.00    -0.192 NA
ENDBRANCH   5  17
ENDBRANCH   3   5
ENDBRANCH   2   3
ENDBRANCH   1   2
BRANCH   1  19
ATOM     19  C   UNL A   1      33.061  33.845  27.919  1.00  0.00     0.275 C 
BRANCH  19  20
ATOM     20  O   UNL A   1      34.254  33.039  28.054  1.00  0.00    -0.458 OA
BRANCH  20  21
ATOM     21  C   UNL A   1      34.149  31.713  27.765  1.00  0.00     0.338 C 
ATOM     22  O   UNL A   1      33.128  31.145  27.408  1.00  0.00    -0.246 OA
BRANCH  21  23
ATOM     23  C   UNL A   1      35.488  31.046  27.806  1.00  0.00     0.060 A 
ATOM     24  C   UNL A   1      35.618  29.686  27.577  1.00  0.00     0.016 A 
ATOM     25  C   UNL A   1      36.611  31.734  28.268  1.00  0.00     0.016 A 
ATOM     26  C   UNL A   1      36.725  29.000  28.103  1.00  0.00     0.010 A 
ATOM     27  C   UNL A   1      37.799  31.040  28.593  1.00  0.00     0.010 A 
ATOM     28  C   UNL A   1      37.854  29.634  28.641  1.00  0.00    -0.014 A 
BRANCH  28  29
ATOM     29  C   UNL A   1      39.015  28.886  29.301  1.00  0.00     0.031 A 
ATOM     30  C   UNL A   1      39.507  29.287  30.696  1.00  0.00     0.074 A 
ATOM     31  C   UNL A   1      39.641  27.796  28.783  1.00  0.00     0.049 A 
ATOM     32  N   UNL A   1      40.688  29.131  31.244  1.00  0.00    -0.248 NA
ATOM     33  C   UNL A   1      38.542  29.953  31.588  1.00  0.00     0.031 C 
ATOM     34  C   UNL A   1      39.297  27.076  27.560  1.00  0.00     0.029 A 
ATOM     35  N   UNL A   1      40.739  27.089  29.253  1.00  0.00    -0.354 N 
ATOM     36  C   UNL A   1      40.657  29.828  32.451  1.00  0.00     0.074 A 
ATOM     37  C   UNL A   1      39.316  30.356  32.586  1.00  0.00     0.031 C 
ATOM     38  C   UNL A   1      40.082  26.003  27.420  1.00  0.00     0.029 A 
ATOM     39  C   UNL A   1      41.145  26.081  28.403  1.00  0.00     0.049 A 
ATOM     40  H   UNL A   1      41.182  27.287  30.109  1.00  0.00     0.167 HD
ATOM     41  C   UNL A   1      41.650  30.022  33.358  1.00  0.00     0.034 A 
ATOM     42  C   UNL A   1      42.289  25.372  28.302  1.00  0.00     0.034 A 
ATOM     43  C   UNL A   1      42.920  29.337  33.333  1.00  0.00     0.049 A 
ATOM     44  C   UNL A   1      43.418  25.637  29.247  1.00  0.00     0.074 A 
ATOM     45  C   UNL A   1      43.969  29.433  34.235  1.00  0.00     0.029 A 
ATOM     46  N   UNL A   1      43.298  28.397  32.390  1.00  0.00    -0.354 N 
ATOM     47  N   UNL A   1      43.449  26.427  30.288  1.00  0.00    -0.248 NA
ATOM     48  C   UNL A   1      44.676  24.923  28.990  1.00  0.00     0.031 C 
ATOM     49  C   UNL A   1      44.989  28.566  33.823  1.00  0.00     0.029 A 
ATOM     50  C   UNL A   1      44.562  27.909  32.682  1.00  0.00     0.049 A 
ATOM     51  H   UNL A   1      42.748  28.115  31.624  1.00  0.00     0.167 HD
ATOM     52  C   UNL A   1      44.722  26.290  30.827  1.00  0.00     0.074 A 
ATOM     53  C   UNL A   1      45.426  25.326  30.007  1.00  0.00     0.031 C 
ATOM     54  C   UNL A   1      45.257  26.922  31.900  1.00  0.00     0.034 A 
BRANCH  41  55
ATOM     55  C   UNL A   1      41.435  31.040  34.456  1.00  0.00     0.023 A 
ATOM     56  C   UNL A   1      40.948  30.664  35.721  1.00  0.00     0.012 A 
ATOM     57  C   UNL A   1      41.800  32.388  34.235  1.00  0.00     0.148 A 
ATOM     58  C   UNL A   1      40.787  31.616  36.732  1.00  0.00     0.002 A 
ATOM     59  C   UNL A   1      41.687  33.319  35.262  1.00  0.00     0.091 A 
ATOM     60  F   UNL A   1      42.250  32.739  33.021  1.00  0.00    -0.205 F 
ATOM     61  C   UNL A   1      41.166  32.937  36.507  1.00  0.00     0.022 A 
BRANCH  59  62
ATOM     62  S   UNL A   1      42.250  35.017  35.084  1.00  0.00     0.127 S 
ATOM     63  O   UNL A   1      43.683  34.832  34.870  1.00  0.00    -0.237 OA
ATOM     64  O   UNL A   1      41.513  35.468  33.902  1.00  0.00    -0.237 OA
ATOM     65  O   UNL A   1      41.876  35.691  36.319  1.00  0.00    -0.744 OA
ENDBRANCH  59  62
ENDBRANCH  41  55
BRANCH  42  66
ATOM     66  C   UNL A   1      42.446  24.395  27.181  1.00  0.00     0.023 A 
ATOM     67  C   UNL A   1      43.243  24.730  26.071  1.00  0.00     0.012 A 
ATOM     68  C   UNL A   1      41.879  23.104  27.256  1.00  0.00     0.148 A 
ATOM     69  C   UNL A   1      43.482  23.792  25.064  1.00  0.00     0.002 A 
ATOM     70  C   UNL A   1      42.190  22.152  26.294  1.00  0.00     0.091 A 
ATOM     71  F   UNL A   1      41.090  22.817  28.301  1.00  0.00    -0.205 F 
ATOM     72  C   UNL A   1      42.978  22.499  25.188  1.00  0.00     0.022 A 
BRANCH  70  73
ATOM     73  S   UNL A   1      41.745  20.421  26.483  1.00  0.00     0.127 S 
ATOM     74  O   UNL A   1      42.451  19.806  25.362  1.00  0.00    -0.237 OA
ATOM     75  O   UNL A   1      42.295  20.113  27.804  1.00  0.00    -0.237 OA
ATOM     76  O   UNL A   1      40.291  20.379  26.416  1.00  0.00    -0.744 OA
ENDBRANCH  70  73
ENDBRANCH  42  66
BRANCH  54  77
ATOM     77  C   UNL A   1      46.663  26.553  32.290  1.00  0.00     0.023 A 
ATOM     78  C   UNL A   1      47.752  27.270  31.759  1.00  0.00     0.012 A 
ATOM     79  C   UNL A   1      46.902  25.511  33.208  1.00  0.00     0.148 A 
ATOM     80  C   UNL A   1      49.061  26.931  32.105  1.00  0.00     0.002 A 
ATOM     81  C   UNL A   1      48.205  25.209  33.584  1.00  0.00     0.091 A 
ATOM     82  F   UNL A   1      45.852  24.826  33.684  1.00  0.00    -0.205 F 
ATOM     83  C   UNL A   1      49.286  25.909  33.023  1.00  0.00     0.022 A 
BRANCH  81  84
ATOM     84  S   UNL A   1      48.587  23.964  34.820  1.00  0.00     0.127 S 
ATOM     85  O   UNL A   1      50.015  23.747  34.595  1.00  0.00    -0.237 OA
ATOM     86  O   UNL A   1      48.264  24.658  36.068  1.00  0.00    -0.237 OA
ATOM     87  O   UNL A   1      47.728  22.825  34.523  1.00  0.00    -0.744 OA
ENDBRANCH  81  84
ENDBRANCH  54  77
ENDBRANCH  28  29
ENDBRANCH  21  23
ENDBRANCH  20  21
ENDBRANCH  19  20
ENDBRANCH   1  19
TORSDOF 19
ENDMDL
MODEL 2
REMARK VINA RESULT:      -9.9      3.779     10.511
REMARK SMILES C#CCOc1ccccc1/C=C(\C#N)C(=O)OCCOC(=O)c1ccc(-c2c3nc(c(-c4cccc(S(=O)(=O)[O-])c4F)c4ccc([nH]4)c(-c4cccc(S(=O)(=O)[O-])c4F)c4nc(c(-c5cccc(S(=O)(=O)[O-])c5F)c5ccc2[nH]5)C=C4)C=C3)cc1
REMARK SMILES IDX 18 1 17 2 15 3 16 4 12 5 11 6 10 7 5 8 6 9 7 10 9 11 8 12
REMARK SMILES IDX 4 13 3 14 2 15 1 16 13 17 14 18 19 19 20 20 21 21 22 22
REMARK SMILES IDX 23 23 24 24 85 25 25 26 84 27 26 28 27 29 28 30 78 31 29 32
REMARK SMILES IDX 83 33 77 34 79 35 30 36 82 37 76 38 75 39 31 41 63 42 43 43
REMARK SMILES IDX 62 44 44 45 47 46 61 47 80 48 45 49 46 50 60 52 81 53 48 54
REMARK SMILES IDX 32 55 33 56 41 57 34 58 36 59 42 60 35 61 37 62 38 63 39 64
REMARK SMILES IDX 40 65 64 66 65 67 73 68 66 69 68 70 74 71 67 72 69 73 70 74
REMARK SMILES IDX 71 75 72 76 49 77 50 78 58 79 51 80 53 81 59 82 52 83 54 84
REMARK SMILES IDX 55 85 56 86 57 87
REMARK H PARENT 79 40 47 51
REMARK Flexibility Score: inf
ROOT
ATOM      1  C   UNL A   1      32.421  28.047  25.045  1.00  0.00     0.275 C 
ENDROOT
BRANCH   1   2
ATOM      2  O   UNL A   1      31.623  26.924  24.618  1.00  0.00    -0.458 OA
BRANCH   2   3
ATOM      3  C   UNL A   1      32.184  26.098  23.692  1.00  0.00     0.349 C 
ATOM      4  O   UNL A   1      31.889  26.017  22.511  1.00  0.00    -0.245 OA
BRANCH   3   5
ATOM      5  C   UNL A   1      33.313  25.339  24.373  1.00  0.00     0.138 C 
ATOM      6  C   UNL A   1      33.911  24.213  23.768  1.00  0.00     0.039 C 
BRANCH   6   7
ATOM      7  C   UNL A   1      34.955  23.271  24.364  1.00  0.00     0.018 A 
ATOM      8  C   UNL A   1      34.833  21.854  24.435  1.00  0.00     0.128 A 
ATOM      9  C   UNL A   1      35.835  21.062  25.022  1.00  0.00     0.047 A 
ATOM     10  C   UNL A   1      36.988  21.639  25.539  1.00  0.00     0.004 A 
ATOM     11  C   UNL A   1      36.107  23.815  24.968  1.00  0.00     0.012 A 
ATOM     12  C   UNL A   1      37.118  23.018  25.520  1.00  0.00     0.001 A 
BRANCH   8  13
ATOM     13  O   UNL A   1      33.707  21.125  24.114  1.00  0.00    -0.480 OA
BRANCH  13  14
ATOM     14  C   UNL A   1      33.505  19.962  24.933  1.00  0.00     0.318 C 
BRANCH  14  15
ATOM     15  C   UNL A   1      32.972  18.921  23.962  1.00  0.00    -0.065 C 
ATOM     16  C   UNL A   1      32.515  18.028  23.129  1.00  0.00     0.007 C 
ENDBRANCH  14  15
ENDBRANCH  13  14
ENDBRANCH   8  13
ENDBRANCH   6   7
BRANCH   5  17
ATOM     17  C   UNL A   1      32.580  24.611  25.489  1.00  0.00     0.107 C 
ATOM     18  N   UNL A   1      31.973  24.007  26.414  1.00  0.00    -0.192 NA
ENDBRANCH   5  17
ENDBRANCH   3   5
ENDBRANCH   2   3
ENDBRANCH   1   2
BRANCH   1  19
ATOM     19  C   UNL A   1      31.500  29.092  25.686  1.00  0.00     0.275 C 
BRANCH  19  20
ATOM     20  O   UNL A   1      32.036  29.482  26.971  1.00  0.00    -0.458 OA
BRANCH  20  21
ATOM     21  C   UNL A   1      32.596  30.720  27.065  1.00  0.00     0.338 C 
ATOM     22  O   UNL A   1      31.980  31.775  27.099  1.00  0.00    -0.246 OA
BRANCH  21  23
ATOM     23  C   UNL A   1      34.076  30.627  27.265  1.00  0.00     0.060 A 
ATOM     24  C   UNL A   1      34.711  29.399  27.361  1.00  0.00     0.016 A 
ATOM     25  C   UNL A   1      34.826  31.766  27.556  1.00  0.00     0.016 A 
ATOM     26  C   UNL A   1      35.938  29.307  28.036  1.00  0.00     0.010 A 
ATOM     27  C   UNL A   1      36.151  31.654  28.038  1.00  0.00     0.010 A 
ATOM     28  C   UNL A   1      36.708  30.417  28.414  1.00  0.00    -0.014 A 
BRANCH  28  29
ATOM     29  C   UNL A   1      37.996  30.319  29.235  1.00  0.00     0.031 A 
ATOM     30  C   UNL A   1      39.203  29.540  28.700  1.00  0.00     0.074 A 
ATOM     31  C   UNL A   1      38.219  30.944  30.420  1.00  0.00     0.049 A 
ATOM     32  N   UNL A   1      40.177  28.954  29.353  1.00  0.00    -0.248 NA
ATOM     33  C   UNL A   1      39.325  29.403  27.238  1.00  0.00     0.031 C 
ATOM     34  C   UNL A   1      37.336  31.884  31.106  1.00  0.00     0.029 A 
ATOM     35  N   UNL A   1      39.307  30.870  31.279  1.00  0.00    -0.354 N 
ATOM     36  C   UNL A   1      40.912  28.240  28.407  1.00  0.00     0.074 A 
ATOM     37  C   UNL A   1      40.307  28.520  27.122  1.00  0.00     0.031 C 
ATOM     38  C   UNL A   1      37.932  32.360  32.204  1.00  0.00     0.029 A 
ATOM     39  C   UNL A   1      39.137  31.590  32.443  1.00  0.00     0.049 A 
ATOM     40  H   UNL A   1      40.121  30.354  31.076  1.00  0.00     0.167 HD
ATOM     41  C   UNL A   1      41.982  27.422  28.587  1.00  0.00     0.034 A 
ATOM     42  C   UNL A   1      39.763  31.565  33.638  1.00  0.00     0.034 A 
ATOM     43  C   UNL A   1      42.712  27.299  29.825  1.00  0.00     0.049 A 
ATOM     44  C   UNL A   1      40.890  30.608  33.870  1.00  0.00     0.074 A 
ATOM     45  C   UNL A   1      43.836  26.532  30.089  1.00  0.00     0.029 A 
ATOM     46  N   UNL A   1      42.426  27.990  30.989  1.00  0.00    -0.354 N 
ATOM     47  N   UNL A   1      41.473  29.805  33.020  1.00  0.00    -0.248 NA
ATOM     48  C   UNL A   1      41.432  30.544  35.234  1.00  0.00     0.031 C 
ATOM     49  C   UNL A   1      44.215  26.744  31.421  1.00  0.00     0.029 A 
ATOM     50  C   UNL A   1      43.345  27.666  31.976  1.00  0.00     0.049 A 
ATOM     51  H   UNL A   1      41.679  28.621  31.101  1.00  0.00     0.167 HD
ATOM     52  C   UNL A   1      42.469  29.154  33.738  1.00  0.00     0.074 A 
ATOM     53  C   UNL A   1      42.420  29.672  35.090  1.00  0.00     0.031 C 
ATOM     54  C   UNL A   1      43.333  28.203  33.310  1.00  0.00     0.034 A 
BRANCH  41  55
ATOM     55  C   UNL A   1      42.431  26.558  27.429  1.00  0.00     0.023 A 
ATOM     56  C   UNL A   1      43.337  27.034  26.465  1.00  0.00     0.012 A 
ATOM     57  C   UNL A   1      41.990  25.217  27.352  1.00  0.00     0.148 A 
ATOM     58  C   UNL A   1      43.765  26.208  25.422  1.00  0.00     0.002 A 
ATOM     59  C   UNL A   1      42.461  24.385  26.341  1.00  0.00     0.091 A 
ATOM     60  F   UNL A   1      41.114  24.777  28.268  1.00  0.00    -0.205 F 
ATOM     61  C   UNL A   1      43.336  24.884  25.367  1.00  0.00     0.022 A 
BRANCH  59  62
ATOM     62  S   UNL A   1      42.037  22.640  26.261  1.00  0.00     0.127 S 
ATOM     63  O   UNL A   1      42.607  22.256  24.972  1.00  0.00    -0.237 OA
ATOM     64  O   UNL A   1      42.741  22.093  27.423  1.00  0.00    -0.237 OA
ATOM     65  O   UNL A   1      40.585  22.579  26.354  1.00  0.00    -0.744 OA
ENDBRANCH  59  62
ENDBRANCH  41  55
BRANCH  42  66
ATOM     66  C   UNL A   1      39.257  32.429  34.748  1.00  0.00     0.023 A 
ATOM     67  C   UNL A   1      38.365  31.896  35.696  1.00  0.00     0.012 A 
ATOM     68  C   UNL A   1      39.726  33.751  34.912  1.00  0.00     0.148 A 
ATOM     69  C   UNL A   1      37.962  32.659  36.794  1.00  0.00     0.002 A 
ATOM     70  C   UNL A   1      39.387  34.472  36.050  1.00  0.00     0.091 A 
ATOM     71  F   UNL A   1      40.543  34.256  33.976  1.00  0.00    -0.205 F 
ATOM     72  C   UNL A   1      38.491  33.934  36.984  1.00  0.00     0.022 A 
BRANCH  70  73
ATOM     73  S   UNL A   1      40.176  36.033  36.463  1.00  0.00     0.127 S 
ATOM     74  O   UNL A   1      39.510  36.383  37.714  1.00  0.00    -0.237 OA
ATOM     75  O   UNL A   1      41.578  35.633  36.600  1.00  0.00    -0.237 OA
ATOM     76  O   UNL A   1      39.914  36.918  35.336  1.00  0.00    -0.744 OA
ENDBRANCH  70  73
ENDBRANCH  42  66
BRANCH  54  77
ATOM     77  C   UNL A   1      44.344  27.690  34.301  1.00  0.00     0.023 A 
ATOM     78  C   UNL A   1      45.530  28.414  34.535  1.00  0.00     0.012 A 
ATOM     79  C   UNL A   1      44.105  26.504  35.021  1.00  0.00     0.148 A 
ATOM     80  C   UNL A   1      46.479  27.945  35.443  1.00  0.00     0.002 A 
ATOM     81  C   UNL A   1      45.033  26.066  35.958  1.00  0.00     0.091 A 
ATOM     82  F   UNL A   1      42.980  25.818  34.767  1.00  0.00    -0.205 F 
ATOM     83  C   UNL A   1      46.227  26.778  36.160  1.00  0.00     0.022 A 
BRANCH  81  84
ATOM     84  S   UNL A   1      44.756  24.620  36.986  1.00  0.00     0.127 S 
ATOM     85  O   UNL A   1      46.054  24.466  37.641  1.00  0.00    -0.237 OA
ATOM     86  O   UNL A   1      43.677  25.069  37.867  1.00  0.00    -0.237 OA
ATOM     87  O   UNL A   1      44.384  23.545  36.075  1.00  0.00    -0.744 OA
ENDBRANCH  81  84
ENDBRANCH  54  77
ENDBRANCH  28  29
ENDBRANCH  21  23
ENDBRANCH  20  21
ENDBRANCH  19  20
ENDBRANCH   1  19
TORSDOF 19
ENDMDL
MODEL 3
REMARK VINA RESULT:      -9.8      4.901      9.004
REMARK SMILES C#CCOc1ccccc1/C=C(\C#N)C(=O)OCCOC(=O)c1ccc(-c2c3nc(c(-c4cccc(S(=O)(=O)[O-])c4F)c4ccc([nH]4)c(-c4cccc(S(=O)(=O)[O-])c4F)c4nc(c(-c5cccc(S(=O)(=O)[O-])c5F)c5ccc2[nH]5)C=C4)C=C3)cc1
REMARK SMILES IDX 18 1 17 2 15 3 16 4 12 5 11 6 10 7 5 8 6 9 7 10 9 11 8 12
REMARK SMILES IDX 4 13 3 14 2 15 1 16 13 17 14 18 19 19 20 20 21 21 22 22
REMARK SMILES IDX 23 23 24 24 85 25 25 26 84 27 26 28 27 29 28 30 78 31 29 32
REMARK SMILES IDX 83 33 77 34 79 35 30 36 82 37 76 38 75 39 31 41 63 42 43 43
REMARK SMILES IDX 62 44 44 45 47 46 61 47 80 48 45 49 46 50 60 52 81 53 48 54
REMARK SMILES IDX 32 55 33 56 41 57 34 58 36 59 42 60 35 61 37 62 38 63 39 64
REMARK SMILES IDX 40 65 64 66 65 67 73 68 66 69 68 70 74 71 67 72 69 73 70 74
REMARK SMILES IDX 71 75 72 76 49 77 50 78 58 79 51 80 53 81 59 82 52 83 54 84
REMARK SMILES IDX 55 85 56 86 57 87
REMARK H PARENT 79 40 47 51
REMARK Flexibility Score: inf
ROOT
ATOM      1  C   UNL A   1      34.790  23.124  23.495  1.00  0.00     0.275 C 
ENDROOT
BRANCH   1   2
ATOM      2  O   UNL A   1      34.939  24.172  24.475  1.00  0.00    -0.458 OA
BRANCH   2   3
ATOM      3  C   UNL A   1      34.004  24.215  25.464  1.00  0.00     0.349 C 
ATOM      4  O   UNL A   1      33.845  23.397  26.355  1.00  0.00    -0.245 OA
BRANCH   3   5
ATOM      5  C   UNL A   1      33.233  25.518  25.314  1.00  0.00     0.138 C 
ATOM      6  C   UNL A   1      33.665  26.704  25.945  1.00  0.00     0.039 C 
BRANCH   6   7
ATOM      7  C   UNL A   1      32.948  28.051  26.004  1.00  0.00     0.018 A 
ATOM      8  C   UNL A   1      32.055  28.547  25.012  1.00  0.00     0.128 A 
ATOM      9  C   UNL A   1      31.453  29.811  25.136  1.00  0.00     0.047 A 
ATOM     10  C   UNL A   1      31.701  30.614  26.242  1.00  0.00     0.004 A 
ATOM     11  C   UNL A   1      33.226  28.932  27.070  1.00  0.00     0.012 A 
ATOM     12  C   UNL A   1      32.596  30.177  27.204  1.00  0.00     0.001 A 
BRANCH   8  13
ATOM     13  O   UNL A   1      31.806  27.964  23.787  1.00  0.00    -0.480 OA
BRANCH  13  14
ATOM     14  C   UNL A   1      30.469  27.461  23.634  1.00  0.00     0.318 C 
BRANCH  14  15
ATOM     15  C   UNL A   1      29.764  28.542  22.832  1.00  0.00    -0.065 C 
ATOM     16  C   UNL A   1      29.158  29.470  22.143  1.00  0.00     0.007 C 
ENDBRANCH  14  15
ENDBRANCH  13  14
ENDBRANCH   8  13
ENDBRANCH   6   7
BRANCH   5  17
ATOM     17  C   UNL A   1      32.004  25.262  26.173  1.00  0.00     0.107 C 
ATOM     18  N   UNL A   1      30.987  25.048  26.885  1.00  0.00    -0.192 NA
ENDBRANCH   5  17
ENDBRANCH   3   5
ENDBRANCH   2   3
ENDBRANCH   1   2
BRANCH   1  19
ATOM     19  C   UNL A   1      35.585  21.898  23.959  1.00  0.00     0.275 C 
BRANCH  19  20
ATOM     20  O   UNL A   1      36.986  22.243  24.062  1.00  0.00    -0.458 OA
BRANCH  20  21
ATOM     21  C   UNL A   1      37.733  21.559  24.971  1.00  0.00     0.338 C 
ATOM     22  O   UNL A   1      37.996  20.367  24.920  1.00  0.00    -0.246 OA
BRANCH  21  23
ATOM     23  C   UNL A   1      38.321  22.486  25.990  1.00  0.00     0.060 A 
ATOM     24  C   UNL A   1      37.832  23.771  26.157  1.00  0.00     0.016 A 
ATOM     25  C   UNL A   1      39.501  22.151  26.657  1.00  0.00     0.016 A 
ATOM     26  C   UNL A   1      38.666  24.762  26.700  1.00  0.00     0.010 A 
ATOM     27  C   UNL A   1      40.220  23.128  27.383  1.00  0.00     0.010 A 
ATOM     28  C   UNL A   1      39.893  24.495  27.324  1.00  0.00    -0.014 A 
BRANCH  28  29
ATOM     29  C   UNL A   1      40.844  25.584  27.827  1.00  0.00     0.031 A 
ATOM     30  C   UNL A   1      40.351  26.660  28.800  1.00  0.00     0.074 A 
ATOM     31  C   UNL A   1      42.171  25.657  27.543  1.00  0.00     0.049 A 
ATOM     32  N   UNL A   1      40.798  27.878  28.999  1.00  0.00    -0.248 NA
ATOM     33  C   UNL A   1      39.204  26.321  29.659  1.00  0.00     0.031 C 
ATOM     34  C   UNL A   1      42.969  24.695  26.787  1.00  0.00     0.029 A 
ATOM     35  N   UNL A   1      43.105  26.627  27.880  1.00  0.00    -0.354 N 
ATOM     36  C   UNL A   1      39.890  28.495  29.857  1.00  0.00     0.074 A 
ATOM     37  C   UNL A   1      38.898  27.495  30.194  1.00  0.00     0.031 C 
ATOM     38  C   UNL A   1      44.255  25.060  26.790  1.00  0.00     0.029 A 
ATOM     39  C   UNL A   1      44.352  26.400  27.335  1.00  0.00     0.049 A 
ATOM     40  H   UNL A   1      42.897  27.401  28.452  1.00  0.00     0.167 HD
ATOM     41  C   UNL A   1      39.873  29.774  30.316  1.00  0.00     0.034 A 
ATOM     42  C   UNL A   1      45.429  27.190  27.147  1.00  0.00     0.034 A 
ATOM     43  C   UNL A   1      40.956  30.712  30.152  1.00  0.00     0.049 A 
ATOM     44  C   UNL A   1      45.388  28.623  27.577  1.00  0.00     0.074 A 
ATOM     45  C   UNL A   1      41.050  32.013  30.622  1.00  0.00     0.029 A 
ATOM     46  N   UNL A   1      42.152  30.440  29.509  1.00  0.00    -0.354 N 
ATOM     47  N   UNL A   1      44.455  29.256  28.237  1.00  0.00    -0.248 NA
ATOM     48  C   UNL A   1      46.546  29.454  27.217  1.00  0.00     0.031 C 
ATOM     49  C   UNL A   1      42.293  32.533  30.244  1.00  0.00     0.029 A 
ATOM     50  C   UNL A   1      42.986  31.546  29.565  1.00  0.00     0.049 A 
ATOM     51  H   UNL A   1      42.378  29.585  29.077  1.00  0.00     0.167 HD
ATOM     52  C   UNL A   1      44.919  30.555  28.395  1.00  0.00     0.074 A 
ATOM     53  C   UNL A   1      46.227  30.613  27.775  1.00  0.00     0.031 C 
ATOM     54  C   UNL A   1      44.303  31.605  28.989  1.00  0.00     0.034 A 
BRANCH  41  55
ATOM     55  C   UNL A   1      38.631  30.269  31.024  1.00  0.00     0.023 A 
ATOM     56  C   UNL A   1      38.451  30.085  32.407  1.00  0.00     0.012 A 
ATOM     57  C   UNL A   1      37.662  30.999  30.298  1.00  0.00     0.148 A 
ATOM     58  C   UNL A   1      37.311  30.579  33.048  1.00  0.00     0.002 A 
ATOM     59  C   UNL A   1      36.556  31.533  30.952  1.00  0.00     0.091 A 
ATOM     60  F   UNL A   1      37.835  31.156  28.977  1.00  0.00    -0.205 F 
ATOM     61  C   UNL A   1      36.372  31.311  32.324  1.00  0.00     0.022 A 
BRANCH  59  62
ATOM     62  S   UNL A   1      35.356  32.573  30.111  1.00  0.00     0.127 S 
ATOM     63  O   UNL A   1      34.908  31.696  29.032  1.00  0.00    -0.237 OA
ATOM     64  O   UNL A   1      34.357  32.808  31.157  1.00  0.00    -0.237 OA
ATOM     65  O   UNL A   1      36.084  33.765  29.698  1.00  0.00    -0.744 OA
ENDBRANCH  59  62
ENDBRANCH  41  55
BRANCH  42  66
ATOM     66  C   UNL A   1      46.618  26.646  26.421  1.00  0.00     0.023 A 
ATOM     67  C   UNL A   1      46.702  26.777  25.023  1.00  0.00     0.012 A 
ATOM     68  C   UNL A   1      47.702  26.078  27.125  1.00  0.00     0.148 A 
ATOM     69  C   UNL A   1      47.849  26.364  24.343  1.00  0.00     0.002 A 
ATOM     70  C   UNL A   1      48.871  25.748  26.452  1.00  0.00     0.091 A 
ATOM     71  F   UNL A   1      47.587  25.923  28.452  1.00  0.00    -0.205 F 
ATOM     72  C   UNL A   1      48.941  25.875  25.058  1.00  0.00     0.022 A 
BRANCH  70  73
ATOM     73  S   UNL A   1      50.380  25.300  27.318  1.00  0.00     0.127 S 
ATOM     74  O   UNL A   1      50.602  26.471  28.161  1.00  0.00    -0.237 OA
ATOM     75  O   UNL A   1      49.967  24.092  28.035  1.00  0.00    -0.237 OA
ATOM     76  O   UNL A   1      51.376  25.067  26.281  1.00  0.00    -0.744 OA
ENDBRANCH  70  73
ENDBRANCH  42  66
BRANCH  54  77
ATOM     77  C   UNL A   1      45.059  32.905  29.052  1.00  0.00     0.023 A 
ATOM     78  C   UNL A   1      45.908  33.174  30.144  1.00  0.00     0.012 A 
ATOM     79  C   UNL A   1      44.949  33.850  28.014  1.00  0.00     0.148 A 
ATOM     80  C   UNL A   1      46.605  34.380  30.220  1.00  0.00     0.002 A 
ATOM     81  C   UNL A   1      45.682  35.029  28.072  1.00  0.00     0.091 A 
ATOM     82  F   UNL A   1      44.118  33.585  26.994  1.00  0.00    -0.205 F 
ATOM     83  C   UNL A   1      46.500  35.301  29.181  1.00  0.00     0.022 A 
BRANCH  81  84
ATOM     84  S   UNL A   1      45.673  36.236  26.743  1.00  0.00     0.127 S 
ATOM     85  O   UNL A   1      46.764  37.125  27.139  1.00  0.00    -0.237 OA
ATOM     86  O   UNL A   1      45.955  35.408  25.570  1.00  0.00    -0.237 OA
ATOM     87  O   UNL A   1      44.344  36.835  26.754  1.00  0.00    -0.744 OA
ENDBRANCH  81  84
ENDBRANCH  54  77
ENDBRANCH  28  29
ENDBRANCH  21  23
ENDBRANCH  20  21
ENDBRANCH  19  20
ENDBRANCH   1  19
TORSDOF 19
ENDMDL
