MODEL 1
REMARK VINA RESULT:     -12.2      0.000      0.000
REMARK SMILES O=C(OCCOC(=O)[C@H]1CC=CC[C@@H]1C(=O)Nc1ccccc1C(=O)NCc1ccco1)c1ccc(-c2c3nc(c(-c4cccc(S(=O)(=O)[O-])c4F)c4ccc([nH]4)c(-c4cccc(S(=O)(=O)[O-])c4F)c4nc(c(-c5cccc(S(=O)(=O)[O-])c5F)c5ccc2[nH]5)C=C4)C=C3)cc1
REMARK SMILES IDX 5 1 4 2 3 3 2 4 1 5 33 6 34 7 95 8 35 9 94 10 36 11 37 12
REMARK SMILES IDX 38 13 88 14 39 15 93 16 87 17 89 18 40 19 92 20 86 21 85 22
REMARK SMILES IDX 41 24 73 25 53 26 72 27 54 28 57 29 71 30 90 31 55 32 56 33
REMARK SMILES IDX 70 35 91 36 58 37 42 38 43 39 51 40 44 41 46 42 52 43 45 44
REMARK SMILES IDX 47 45 48 46 49 47 50 48 74 49 75 50 83 51 76 52 78 53 84 54
REMARK SMILES IDX 77 55 79 56 80 57 81 58 82 59 59 60 60 61 68 62 61 63 63 64
REMARK SMILES IDX 69 65 62 66 64 67 65 68 66 69 67 70 6 71 7 72 8 73 9 74
REMARK SMILES IDX 10 75 14 76 11 77 13 78 12 79 15 80 16 81 17 82 18 84 19 85
REMARK SMILES IDX 23 86 20 87 22 88 21 89 24 90 25 91 26 92 27 94 28 95 29 96
REMARK SMILES IDX 32 97 30 98 31 99
REMARK H PARENT 89 23 57 34 17 83 26 93
REMARK Flexibility Score: inf
ROOT
ATOM      1  C   UNL A   1      33.661  29.047  25.549  1.00  0.00     0.274 C 
ENDROOT
BRANCH   1   2
ATOM      2  C   UNL A   1      33.076  29.431  26.910  1.00  0.00     0.275 C 
BRANCH   2   3
ATOM      3  O   UNL A   1      33.372  30.769  27.316  1.00  0.00    -0.458 OA
BRANCH   3   4
ATOM      4  C   UNL A   1      34.441  31.226  28.004  1.00  0.00     0.338 C 
ATOM      5  O   UNL A   1      34.362  32.367  28.462  1.00  0.00    -0.246 OA
BRANCH   4   6
ATOM      6  C   UNL A   1      35.730  30.469  28.218  1.00  0.00     0.060 A 
ATOM      7  C   UNL A   1      36.866  30.387  27.402  1.00  0.00     0.016 A 
ATOM      8  C   UNL A   1      35.803  29.801  29.439  1.00  0.00     0.016 A 
ATOM      9  C   UNL A   1      38.041  29.703  27.815  1.00  0.00     0.010 A 
ATOM     10  C   UNL A   1      37.005  29.245  29.891  1.00  0.00     0.010 A 
ATOM     11  C   UNL A   1      38.149  29.141  29.088  1.00  0.00    -0.014 A 
BRANCH  11  12
ATOM     12  C   UNL A   1      39.380  28.458  29.643  1.00  0.00     0.031 A 
ATOM     13  C   UNL A   1      40.191  29.169  30.724  1.00  0.00     0.074 A 
ATOM     14  C   UNL A   1      39.922  27.342  29.092  1.00  0.00     0.049 A 
ATOM     15  N   UNL A   1      41.395  28.911  31.173  1.00  0.00    -0.248 NA
ATOM     16  C   UNL A   1      39.609  30.394  31.309  1.00  0.00     0.031 C 
ATOM     17  C   UNL A   1      39.401  26.587  27.946  1.00  0.00     0.029 A 
ATOM     18  N   UNL A   1      41.118  26.701  29.363  1.00  0.00    -0.354 N 
ATOM     19  C   UNL A   1      41.710  29.971  32.017  1.00  0.00     0.074 A 
ATOM     20  C   UNL A   1      40.673  30.959  31.856  1.00  0.00     0.031 C 
ATOM     21  C   UNL A   1      40.311  25.682  27.545  1.00  0.00     0.029 A 
ATOM     22  C   UNL A   1      41.458  25.733  28.440  1.00  0.00     0.049 A 
ATOM     23  H   UNL A   1      41.676  26.917  30.145  1.00  0.00     0.167 HD
ATOM     24  C   UNL A   1      42.670  30.066  32.969  1.00  0.00     0.034 A 
ATOM     25  C   UNL A   1      42.561  24.962  28.326  1.00  0.00     0.034 A 
ATOM     26  C   UNL A   1      43.574  28.998  33.270  1.00  0.00     0.049 A 
ATOM     27  C   UNL A   1      43.581  24.995  29.433  1.00  0.00     0.074 A 
ATOM     28  C   UNL A   1      44.388  28.836  34.374  1.00  0.00     0.029 A 
ATOM     29  N   UNL A   1      43.755  27.891  32.463  1.00  0.00    -0.354 N 
ATOM     30  N   UNL A   1      43.677  25.831  30.437  1.00  0.00    -0.248 NA
ATOM     31  C   UNL A   1      44.577  23.912  29.462  1.00  0.00     0.031 C 
ATOM     32  C   UNL A   1      45.074  27.626  34.228  1.00  0.00     0.029 A 
ATOM     33  C   UNL A   1      44.674  27.037  33.039  1.00  0.00     0.049 A 
ATOM     34  H   UNL A   1      43.298  27.734  31.605  1.00  0.00     0.167 HD
ATOM     35  C   UNL A   1      44.669  25.319  31.264  1.00  0.00     0.074 A 
ATOM     36  C   UNL A   1      45.169  24.119  30.631  1.00  0.00     0.031 C 
ATOM     37  C   UNL A   1      45.108  25.798  32.453  1.00  0.00     0.034 A 
BRANCH  24  38
ATOM     38  C   UNL A   1      42.646  31.275  33.873  1.00  0.00     0.023 A 
ATOM     39  C   UNL A   1      43.269  32.469  33.441  1.00  0.00     0.012 A 
ATOM     40  C   UNL A   1      41.991  31.259  35.118  1.00  0.00     0.148 A 
ATOM     41  C   UNL A   1      43.322  33.591  34.262  1.00  0.00     0.002 A 
ATOM     42  C   UNL A   1      41.989  32.407  35.905  1.00  0.00     0.091 A 
ATOM     43  F   UNL A   1      41.398  30.124  35.515  1.00  0.00    -0.205 F 
ATOM     44  C   UNL A   1      42.675  33.562  35.491  1.00  0.00     0.022 A 
BRANCH  42  45
ATOM     45  S   UNL A   1      41.095  32.525  37.457  1.00  0.00     0.127 S 
ATOM     46  O   UNL A   1      41.895  31.662  38.326  1.00  0.00    -0.237 OA
ATOM     47  O   UNL A   1      41.196  33.953  37.757  1.00  0.00    -0.237 OA
ATOM     48  O   UNL A   1      39.746  32.052  37.182  1.00  0.00    -0.744 OA
ENDBRANCH  42  45
ENDBRANCH  24  38
BRANCH  25  49
ATOM     49  C   UNL A   1      42.684  23.963  27.224  1.00  0.00     0.023 A 
ATOM     50  C   UNL A   1      43.339  24.337  26.033  1.00  0.00     0.012 A 
ATOM     51  C   UNL A   1      42.148  22.666  27.332  1.00  0.00     0.148 A 
ATOM     52  C   UNL A   1      43.409  23.462  24.949  1.00  0.00     0.002 A 
ATOM     53  C   UNL A   1      42.254  21.783  26.259  1.00  0.00     0.091 A 
ATOM     54  F   UNL A   1      41.537  22.322  28.475  1.00  0.00    -0.205 F 
ATOM     55  C   UNL A   1      42.867  22.186  25.061  1.00  0.00     0.022 A 
BRANCH  53  56
ATOM     56  S   UNL A   1      41.681  20.081  26.345  1.00  0.00     0.127 S 
ATOM     57  O   UNL A   1      42.140  19.676  27.671  1.00  0.00    -0.237 OA
ATOM     58  O   UNL A   1      40.232  20.243  26.215  1.00  0.00    -0.237 OA
ATOM     59  O   UNL A   1      42.308  19.404  25.217  1.00  0.00    -0.744 OA
ENDBRANCH  53  56
ENDBRANCH  25  49
BRANCH  37  60
ATOM     60  C   UNL A   1      46.119  24.997  33.221  1.00  0.00     0.023 A 
ATOM     61  C   UNL A   1      47.484  25.322  33.140  1.00  0.00     0.012 A 
ATOM     62  C   UNL A   1      45.690  24.006  34.127  1.00  0.00     0.148 A 
ATOM     63  C   UNL A   1      48.413  24.664  33.944  1.00  0.00     0.002 A 
ATOM     64  C   UNL A   1      46.613  23.393  34.963  1.00  0.00     0.091 A 
ATOM     65  F   UNL A   1      44.385  23.699  34.170  1.00  0.00    -0.205 F 
ATOM     66  C   UNL A   1      47.976  23.713  34.866  1.00  0.00     0.022 A 
BRANCH  64  67
ATOM     67  S   UNL A   1      46.122  22.248  36.257  1.00  0.00     0.127 S 
ATOM     68  O   UNL A   1      45.299  23.105  37.114  1.00  0.00    -0.237 OA
ATOM     69  O   UNL A   1      45.370  21.239  35.505  1.00  0.00    -0.237 OA
ATOM     70  O   UNL A   1      47.350  21.763  36.859  1.00  0.00    -0.744 OA
ENDBRANCH  64  67
ENDBRANCH  37  60
ENDBRANCH  11  12
ENDBRANCH   4   6
ENDBRANCH   3   4
ENDBRANCH   2   3
ENDBRANCH   1   2
BRANCH   1  71
ATOM     71  O   UNL A   1      32.832  28.119  24.825  1.00  0.00    -0.462 OA
BRANCH  71  72
ATOM     72  C   UNL A   1      32.035  28.671  23.871  1.00  0.00     0.310 C 
ATOM     73  O   UNL A   1      32.446  28.990  22.757  1.00  0.00    -0.252 OA
BRANCH  72  74
ATOM     74  C   UNL A   1      30.544  28.779  24.233  1.00  0.00     0.116 C 
ATOM     75  C   UNL A   1      30.237  30.291  24.299  1.00  0.00     0.043 C 
ATOM     76  C   UNL A   1      29.583  27.929  23.385  1.00  0.00     0.097 C 
ATOM     77  C   UNL A   1      29.121  30.819  23.463  1.00  0.00    -0.030 C 
ATOM     78  C   UNL A   1      28.318  28.573  22.812  1.00  0.00     0.041 C 
ATOM     79  C   UNL A   1      28.262  30.051  22.796  1.00  0.00    -0.030 C 
BRANCH  76  80
ATOM     80  C   UNL A   1      29.206  26.547  23.905  1.00  0.00     0.228 C 
ATOM     81  O   UNL A   1      28.089  26.433  24.412  1.00  0.00    -0.274 OA
ATOM     82  N   UNL A   1      29.937  25.412  23.900  1.00  0.00    -0.325 N 
ATOM     83  H   UNL A   1      29.429  24.613  24.172  1.00  0.00     0.169 HD
BRANCH  82  84
ATOM     84  C   UNL A   1      31.267  25.146  23.585  1.00  0.00     0.054 A 
ATOM     85  C   UNL A   1      31.548  25.238  22.211  1.00  0.00     0.027 A 
ATOM     86  C   UNL A   1      32.309  24.936  24.490  1.00  0.00     0.063 A 
ATOM     87  C   UNL A   1      32.854  25.420  21.770  1.00  0.00     0.002 A 
ATOM     88  C   UNL A   1      33.618  25.199  24.040  1.00  0.00     0.016 A 
ATOM     89  C   UNL A   1      33.883  25.480  22.698  1.00  0.00     0.001 A 
BRANCH  86  90
ATOM     90  C   UNL A   1      32.223  24.346  25.862  1.00  0.00     0.253 C 
ATOM     91  O   UNL A   1      31.557  24.950  26.709  1.00  0.00    -0.269 OA
ATOM     92  N   UNL A   1      32.900  23.221  26.273  1.00  0.00    -0.345 N 
ATOM     93  H   UNL A   1      32.812  23.035  27.237  1.00  0.00     0.164 HD
BRANCH  92  94
ATOM     94  C   UNL A   1      33.720  22.253  25.564  1.00  0.00     0.191 C 
BRANCH  94  95
ATOM     95  C   UNL A   1      35.176  22.502  25.765  1.00  0.00     0.122 A 
ATOM     96  C   UNL A   1      35.882  23.664  26.008  1.00  0.00     0.047 A 
ATOM     97  O   UNL A   1      36.048  21.467  25.553  1.00  0.00    -0.467 OA
ATOM     98  C   UNL A   1      37.254  23.329  25.926  1.00  0.00     0.042 A 
ATOM     99  C   UNL A   1      37.303  21.983  25.647  1.00  0.00     0.195 A 
ENDBRANCH  94  95
ENDBRANCH  92  94
ENDBRANCH  86  90
ENDBRANCH  82  84
ENDBRANCH  76  80
ENDBRANCH  72  74
ENDBRANCH  71  72
ENDBRANCH   1  71
TORSDOF 19
ENDMDL
MODEL 2
REMARK VINA RESULT:     -12.2      2.255      3.166
REMARK SMILES O=C(OCCOC(=O)[C@H]1CC=CC[C@@H]1C(=O)Nc1ccccc1C(=O)NCc1ccco1)c1ccc(-c2c3nc(c(-c4cccc(S(=O)(=O)[O-])c4F)c4ccc([nH]4)c(-c4cccc(S(=O)(=O)[O-])c4F)c4nc(c(-c5cccc(S(=O)(=O)[O-])c5F)c5ccc2[nH]5)C=C4)C=C3)cc1
REMARK SMILES IDX 5 1 4 2 3 3 2 4 1 5 33 6 34 7 95 8 35 9 94 10 36 11 37 12
REMARK SMILES IDX 38 13 88 14 39 15 93 16 87 17 89 18 40 19 92 20 86 21 85 22
REMARK SMILES IDX 41 24 73 25 53 26 72 27 54 28 57 29 71 30 90 31 55 32 56 33
REMARK SMILES IDX 70 35 91 36 58 37 42 38 43 39 51 40 44 41 46 42 52 43 45 44
REMARK SMILES IDX 47 45 48 46 49 47 50 48 74 49 75 50 83 51 76 52 78 53 84 54
REMARK SMILES IDX 77 55 79 56 80 57 81 58 82 59 59 60 60 61 68 62 61 63 63 64
REMARK SMILES IDX 69 65 62 66 64 67 65 68 66 69 67 70 6 71 7 72 8 73 9 74
REMARK SMILES IDX 10 75 14 76 11 77 13 78 12 79 15 80 16 81 17 82 18 84 19 85
REMARK SMILES IDX 23 86 20 87 22 88 21 89 24 90 25 91 26 92 27 94 28 95 29 96
REMARK SMILES IDX 32 97 30 98 31 99
REMARK H PARENT 89 23 57 34 17 83 26 93
REMARK Flexibility Score: inf
ROOT
ATOM      1  C   UNL A   1      32.122  28.524  27.534  1.00  0.00     0.274 C 
ENDROOT
BRANCH   1   2
ATOM      2  C   UNL A   1      31.781  29.934  27.043  1.00  0.00     0.275 C 
BRANCH   2   3
ATOM      3  O   UNL A   1      32.920  30.718  26.684  1.00  0.00    -0.458 OA
BRANCH   3   4
ATOM      4  C   UNL A   1      33.695  31.493  27.475  1.00  0.00     0.338 C 
ATOM      5  O   UNL A   1      33.229  32.581  27.817  1.00  0.00    -0.246 OA
BRANCH   4   6
ATOM      6  C   UNL A   1      35.092  31.150  27.933  1.00  0.00     0.060 A 
ATOM      7  C   UNL A   1      36.230  31.963  28.024  1.00  0.00     0.016 A 
ATOM      8  C   UNL A   1      35.240  29.837  28.379  1.00  0.00     0.016 A 
ATOM      9  C   UNL A   1      37.448  31.491  28.582  1.00  0.00     0.010 A 
ATOM     10  C   UNL A   1      36.399  29.423  29.045  1.00  0.00     0.010 A 
ATOM     11  C   UNL A   1      37.552  30.214  29.137  1.00  0.00    -0.014 A 
BRANCH  11  12
ATOM     12  C   UNL A   1      38.781  29.650  29.815  1.00  0.00     0.031 A 
ATOM     13  C   UNL A   1      39.223  30.245  31.150  1.00  0.00     0.074 A 
ATOM     14  C   UNL A   1      39.633  28.784  29.208  1.00  0.00     0.049 A 
ATOM     15  N   UNL A   1      40.355  30.107  31.794  1.00  0.00    -0.248 NA
ATOM     16  C   UNL A   1      38.304  31.201  31.800  1.00  0.00     0.031 C 
ATOM     17  C   UNL A   1      39.491  28.210  27.864  1.00  0.00     0.029 A 
ATOM     18  N   UNL A   1      40.870  28.314  29.613  1.00  0.00    -0.354 N 
ATOM     19  C   UNL A   1      40.289  31.004  32.856  1.00  0.00     0.074 A 
ATOM     20  C   UNL A   1      39.113  31.811  32.650  1.00  0.00     0.031 C 
ATOM     21  C   UNL A   1      40.626  27.579  27.516  1.00  0.00     0.029 A 
ATOM     22  C   UNL A   1      41.562  27.636  28.631  1.00  0.00     0.049 A 
ATOM     23  H   UNL A   1      41.224  28.453  30.521  1.00  0.00     0.167 HD
ATOM     24  C   UNL A   1      41.025  31.058  33.992  1.00  0.00     0.034 A 
ATOM     25  C   UNL A   1      42.804  27.106  28.622  1.00  0.00     0.034 A 
ATOM     26  C   UNL A   1      42.065  30.121  34.290  1.00  0.00     0.049 A 
ATOM     27  C   UNL A   1      43.583  27.078  29.911  1.00  0.00     0.074 A 
ATOM     28  C   UNL A   1      42.688  29.872  35.497  1.00  0.00     0.029 A 
ATOM     29  N   UNL A   1      42.613  29.257  33.361  1.00  0.00    -0.354 N 
ATOM     30  N   UNL A   1      43.324  27.687  31.041  1.00  0.00    -0.248 NA
ATOM     31  C   UNL A   1      44.763  26.200  29.964  1.00  0.00     0.031 C 
ATOM     32  C   UNL A   1      43.626  28.855  35.294  1.00  0.00     0.029 A 
ATOM     33  C   UNL A   1      43.574  28.470  33.964  1.00  0.00     0.049 A 
ATOM     34  H   UNL A   1      42.356  29.209  32.412  1.00  0.00     0.167 HD
ATOM     35  C   UNL A   1      44.240  27.190  31.960  1.00  0.00     0.074 A 
ATOM     36  C   UNL A   1      45.084  26.253  31.250  1.00  0.00     0.031 C 
ATOM     37  C   UNL A   1      44.353  27.475  33.279  1.00  0.00     0.034 A 
BRANCH  24  38
ATOM     38  C   UNL A   1      40.589  32.028  35.066  1.00  0.00     0.023 A 
ATOM     39  C   UNL A   1      41.313  33.230  35.240  1.00  0.00     0.012 A 
ATOM     40  C   UNL A   1      39.465  31.784  35.874  1.00  0.00     0.148 A 
ATOM     41  C   UNL A   1      40.985  34.128  36.252  1.00  0.00     0.002 A 
ATOM     42  C   UNL A   1      39.102  32.719  36.839  1.00  0.00     0.091 A 
ATOM     43  F   UNL A   1      38.782  30.644  35.697  1.00  0.00    -0.205 F 
ATOM     44  C   UNL A   1      39.874  33.874  37.047  1.00  0.00     0.022 A 
BRANCH  42  45
ATOM     45  S   UNL A   1      37.626  32.557  37.848  1.00  0.00     0.127 S 
ATOM     46  O   UNL A   1      36.603  33.124  36.970  1.00  0.00    -0.237 OA
ATOM     47  O   UNL A   1      37.539  31.108  38.029  1.00  0.00    -0.237 OA
ATOM     48  O   UNL A   1      37.886  33.311  39.066  1.00  0.00    -0.744 OA
ENDBRANCH  42  45
ENDBRANCH  24  38
BRANCH  25  49
ATOM     49  C   UNL A   1      43.325  26.398  27.417  1.00  0.00     0.023 A 
ATOM     50  C   UNL A   1      44.181  27.089  26.536  1.00  0.00     0.012 A 
ATOM     51  C   UNL A   1      42.971  25.067  27.124  1.00  0.00     0.148 A 
ATOM     52  C   UNL A   1      44.629  26.492  25.357  1.00  0.00     0.002 A 
ATOM     53  C   UNL A   1      43.452  24.463  25.964  1.00  0.00     0.091 A 
ATOM     54  F   UNL A   1      42.163  24.420  27.977  1.00  0.00    -0.205 F 
ATOM     55  C   UNL A   1      44.265  25.180  25.071  1.00  0.00     0.022 A 
BRANCH  53  56
ATOM     56  S   UNL A   1      43.125  22.742  25.561  1.00  0.00     0.127 S 
ATOM     57  O   UNL A   1      43.536  22.677  24.162  1.00  0.00    -0.237 OA
ATOM     58  O   UNL A   1      44.005  22.040  26.497  1.00  0.00    -0.237 OA
ATOM     59  O   UNL A   1      41.703  22.548  25.820  1.00  0.00    -0.744 OA
ENDBRANCH  53  56
ENDBRANCH  25  49
BRANCH  37  60
ATOM     60  C   UNL A   1      45.359  26.715  34.095  1.00  0.00     0.023 A 
ATOM     61  C   UNL A   1      46.667  27.209  34.240  1.00  0.00     0.012 A 
ATOM     62  C   UNL A   1      44.956  25.578  34.826  1.00  0.00     0.148 A 
ATOM     63  C   UNL A   1      47.567  26.575  35.094  1.00  0.00     0.002 A 
ATOM     64  C   UNL A   1      45.841  24.985  35.715  1.00  0.00     0.091 A 
ATOM     65  F   UNL A   1      43.710  25.115  34.653  1.00  0.00    -0.205 F 
ATOM     66  C   UNL A   1      47.150  25.476  35.844  1.00  0.00     0.022 A 
BRANCH  64  67
ATOM     67  S   UNL A   1      45.350  23.643  36.804  1.00  0.00     0.127 S 
ATOM     68  O   UNL A   1      46.635  23.250  37.387  1.00  0.00    -0.237 OA
ATOM     69  O   UNL A   1      44.443  24.320  37.736  1.00  0.00    -0.237 OA
ATOM     70  O   UNL A   1      44.719  22.646  35.961  1.00  0.00    -0.744 OA
ENDBRANCH  64  67
ENDBRANCH  37  60
ENDBRANCH  11  12
ENDBRANCH   4   6
ENDBRANCH   3   4
ENDBRANCH   2   3
ENDBRANCH   1   2
BRANCH   1  71
ATOM     71  O   UNL A   1      32.552  27.651  26.473  1.00  0.00    -0.462 OA
BRANCH  71  72
ATOM     72  C   UNL A   1      31.575  26.891  25.910  1.00  0.00     0.310 C 
ATOM     73  O   UNL A   1      30.685  26.351  26.565  1.00  0.00    -0.252 OA
BRANCH  72  74
ATOM     74  C   UNL A   1      31.584  26.831  24.374  1.00  0.00     0.116 C 
ATOM     75  C   UNL A   1      31.721  28.294  23.898  1.00  0.00     0.043 C 
ATOM     76  C   UNL A   1      32.559  25.820  23.746  1.00  0.00     0.097 C 
ATOM     77  C   UNL A   1      32.838  28.629  22.969  1.00  0.00    -0.030 C 
ATOM     78  C   UNL A   1      33.467  26.267  22.597  1.00  0.00     0.041 C 
ATOM     79  C   UNL A   1      33.621  27.723  22.387  1.00  0.00    -0.030 C 
BRANCH  76  80
ATOM     80  C   UNL A   1      32.027  24.433  23.405  1.00  0.00     0.228 C 
ATOM     81  O   UNL A   1      30.855  24.367  23.031  1.00  0.00    -0.274 OA
ATOM     82  N   UNL A   1      32.662  23.244  23.468  1.00  0.00    -0.325 N 
ATOM     83  H   UNL A   1      32.152  22.501  23.071  1.00  0.00     0.169 HD
BRANCH  82  84
ATOM     84  C   UNL A   1      33.898  22.859  23.983  1.00  0.00     0.054 A 
ATOM     85  C   UNL A   1      34.971  23.108  23.110  1.00  0.00     0.027 A 
ATOM     86  C   UNL A   1      34.152  22.391  25.273  1.00  0.00     0.063 A 
ATOM     87  C   UNL A   1      36.271  23.184  23.597  1.00  0.00     0.002 A 
ATOM     88  C   UNL A   1      35.461  22.547  25.770  1.00  0.00     0.016 A 
ATOM     89  C   UNL A   1      36.504  22.981  24.949  1.00  0.00     0.001 A 
BRANCH  86  90
ATOM     90  C   UNL A   1      33.227  21.628  26.167  1.00  0.00     0.253 C 
ATOM     91  O   UNL A   1      33.101  22.015  27.333  1.00  0.00    -0.269 OA
ATOM     92  N   UNL A   1      32.569  20.474  25.809  1.00  0.00    -0.345 N 
ATOM     93  H   UNL A   1      32.086  20.045  26.553  1.00  0.00     0.164 HD
BRANCH  92  94
ATOM     94  C   UNL A   1      32.446  19.764  24.546  1.00  0.00     0.191 C 
BRANCH  94  95
ATOM     95  C   UNL A   1      32.898  18.348  24.657  1.00  0.00     0.122 A 
ATOM     96  C   UNL A   1      33.400  17.471  23.715  1.00  0.00     0.047 A 
ATOM     97  O   UNL A   1      32.682  17.686  25.837  1.00  0.00    -0.467 OA
ATOM     98  C   UNL A   1      33.484  16.206  24.344  1.00  0.00     0.042 A 
ATOM     99  C   UNL A   1      33.036  16.389  25.631  1.00  0.00     0.195 A 
ENDBRANCH  94  95
ENDBRANCH  92  94
ENDBRANCH  86  90
ENDBRANCH  82  84
ENDBRANCH  76  80
ENDBRANCH  72  74
ENDBRANCH  71  72
ENDBRANCH   1  71
TORSDOF 19
ENDMDL
MODEL 3
REMARK VINA RESULT:     -12.1      3.174      8.180
REMARK SMILES O=C(OCCOC(=O)[C@H]1CC=CC[C@@H]1C(=O)Nc1ccccc1C(=O)NCc1ccco1)c1ccc(-c2c3nc(c(-c4cccc(S(=O)(=O)[O-])c4F)c4ccc([nH]4)c(-c4cccc(S(=O)(=O)[O-])c4F)c4nc(c(-c5cccc(S(=O)(=O)[O-])c5F)c5ccc2[nH]5)C=C4)C=C3)cc1
REMARK SMILES IDX 5 1 4 2 3 3 2 4 1 5 33 6 34 7 95 8 35 9 94 10 36 11 37 12
REMARK SMILES IDX 38 13 88 14 39 15 93 16 87 17 89 18 40 19 92 20 86 21 85 22
REMARK SMILES IDX 41 24 73 25 53 26 72 27 54 28 57 29 71 30 90 31 55 32 56 33
REMARK SMILES IDX 70 35 91 36 58 37 42 38 43 39 51 40 44 41 46 42 52 43 45 44
REMARK SMILES IDX 47 45 48 46 49 47 50 48 74 49 75 50 83 51 76 52 78 53 84 54
REMARK SMILES IDX 77 55 79 56 80 57 81 58 82 59 59 60 60 61 68 62 61 63 63 64
REMARK SMILES IDX 69 65 62 66 64 67 65 68 66 69 67 70 6 71 7 72 8 73 9 74
REMARK SMILES IDX 10 75 14 76 11 77 13 78 12 79 15 80 16 81 17 82 18 84 19 85
REMARK SMILES IDX 23 86 20 87 22 88 21 89 24 90 25 91 26 92 27 94 28 95 29 96
REMARK SMILES IDX 32 97 30 98 31 99
REMARK H PARENT 89 23 57 34 17 83 26 93
REMARK Flexibility Score: inf
ROOT
ATOM      1  C   UNL A   1      32.133  30.622  26.896  1.00  0.00     0.274 C 
ENDROOT
BRANCH   1   2
ATOM      2  C   UNL A   1      31.495  32.013  26.880  1.00  0.00     0.275 C 
BRANCH   2   3
ATOM      3  O   UNL A   1      32.437  33.087  26.847  1.00  0.00    -0.458 OA
BRANCH   3   4
ATOM      4  C   UNL A   1      33.051  33.704  27.881  1.00  0.00     0.338 C 
ATOM      5  O   UNL A   1      32.471  34.674  28.373  1.00  0.00    -0.246 OA
BRANCH   4   6
ATOM      6  C   UNL A   1      34.399  33.327  28.446  1.00  0.00     0.060 A 
ATOM      7  C   UNL A   1      35.634  33.978  28.327  1.00  0.00     0.016 A 
ATOM      8  C   UNL A   1      34.381  32.188  29.250  1.00  0.00     0.016 A 
ATOM      9  C   UNL A   1      36.790  33.530  29.021  1.00  0.00     0.010 A 
ATOM     10  C   UNL A   1      35.487  31.833  30.030  1.00  0.00     0.010 A 
ATOM     11  C   UNL A   1      36.735  32.461  29.918  1.00  0.00    -0.014 A 
BRANCH  11  12
ATOM     12  C   UNL A   1      37.892  31.958  30.754  1.00  0.00     0.031 A 
ATOM     13  C   UNL A   1      38.686  30.752  30.259  1.00  0.00     0.074 A 
ATOM     14  C   UNL A   1      38.135  32.387  32.019  1.00  0.00     0.049 A 
ATOM     15  N   UNL A   1      39.544  29.996  30.898  1.00  0.00    -0.248 NA
ATOM     16  C   UNL A   1      38.407  30.274  28.889  1.00  0.00     0.031 C 
ATOM     17  C   UNL A   1      37.395  33.420  32.753  1.00  0.00     0.029 A 
ATOM     18  N   UNL A   1      39.027  31.917  32.967  1.00  0.00    -0.354 N 
ATOM     19  C   UNL A   1      39.828  28.944  30.032  1.00  0.00     0.074 A 
ATOM     20  C   UNL A   1      38.908  29.051  28.927  1.00  0.00     0.031 C 
ATOM     21  C   UNL A   1      37.772  33.421  34.044  1.00  0.00     0.029 A 
ATOM     22  C   UNL A   1      38.832  32.439  34.229  1.00  0.00     0.049 A 
ATOM     23  H   UNL A   1      39.737  31.267  32.758  1.00  0.00     0.167 HD
ATOM     24  C   UNL A   1      40.857  28.062  30.046  1.00  0.00     0.034 A 
ATOM     25  C   UNL A   1      39.440  32.173  35.405  1.00  0.00     0.034 A 
ATOM     26  C   UNL A   1      41.890  28.089  31.036  1.00  0.00     0.049 A 
ATOM     27  C   UNL A   1      40.646  31.271  35.404  1.00  0.00     0.074 A 
ATOM     28  C   UNL A   1      43.122  27.467  31.020  1.00  0.00     0.029 A 
ATOM     29  N   UNL A   1      41.809  28.807  32.215  1.00  0.00    -0.354 N 
ATOM     30  N   UNL A   1      41.102  30.510  34.441  1.00  0.00    -0.248 NA
ATOM     31  C   UNL A   1      41.489  31.274  36.611  1.00  0.00     0.031 C 
ATOM     32  C   UNL A   1      43.789  27.805  32.203  1.00  0.00     0.029 A 
ATOM     33  C   UNL A   1      42.970  28.643  32.943  1.00  0.00     0.049 A 
ATOM     34  H   UNL A   1      41.039  29.353  32.494  1.00  0.00     0.167 HD
ATOM     35  C   UNL A   1      42.329  30.030  34.883  1.00  0.00     0.074 A 
ATOM     36  C   UNL A   1      42.533  30.557  36.215  1.00  0.00     0.031 C 
ATOM     37  C   UNL A   1      43.212  29.238  34.229  1.00  0.00     0.034 A 
BRANCH  24  38
ATOM     38  C   UNL A   1      41.016  27.150  28.853  1.00  0.00     0.023 A 
ATOM     39  C   UNL A   1      40.234  25.973  28.780  1.00  0.00     0.012 A 
ATOM     40  C   UNL A   1      41.893  27.453  27.797  1.00  0.00     0.148 A 
ATOM     41  C   UNL A   1      40.386  25.073  27.730  1.00  0.00     0.002 A 
ATOM     42  C   UNL A   1      41.990  26.582  26.717  1.00  0.00     0.091 A 
ATOM     43  F   UNL A   1      42.624  28.574  27.874  1.00  0.00    -0.205 F 
ATOM     44  C   UNL A   1      41.259  25.382  26.694  1.00  0.00     0.022 A 
BRANCH  42  45
ATOM     45  S   UNL A   1      42.997  26.928  25.271  1.00  0.00     0.127 S 
ATOM     46  O   UNL A   1      42.798  25.716  24.475  1.00  0.00    -0.237 OA
ATOM     47  O   UNL A   1      42.351  28.124  24.730  1.00  0.00    -0.237 OA
ATOM     48  O   UNL A   1      44.351  27.133  25.763  1.00  0.00    -0.744 OA
ENDBRANCH  42  45
ENDBRANCH  24  38
BRANCH  25  49
ATOM     49  C   UNL A   1      39.048  32.897  36.649  1.00  0.00     0.023 A 
ATOM     50  C   UNL A   1      39.560  34.190  36.878  1.00  0.00     0.012 A 
ATOM     51  C   UNL A   1      38.198  32.317  37.611  1.00  0.00     0.148 A 
ATOM     52  C   UNL A   1      39.282  34.871  38.064  1.00  0.00     0.002 A 
ATOM     53  C   UNL A   1      37.894  33.018  38.776  1.00  0.00     0.091 A 
ATOM     54  F   UNL A   1      37.712  31.090  37.374  1.00  0.00    -0.205 F 
ATOM     55  C   UNL A   1      38.450  34.286  39.012  1.00  0.00     0.022 A 
BRANCH  53  56
ATOM     56  S   UNL A   1      36.746  32.392  40.010  1.00  0.00     0.127 S 
ATOM     57  O   UNL A   1      36.763  33.460  41.005  1.00  0.00    -0.237 OA
ATOM     58  O   UNL A   1      35.505  32.282  39.242  1.00  0.00    -0.237 OA
ATOM     59  O   UNL A   1      37.298  31.112  40.437  1.00  0.00    -0.744 OA
ENDBRANCH  53  56
ENDBRANCH  25  49
BRANCH  37  60
ATOM     60  C   UNL A   1      44.534  28.947  34.878  1.00  0.00     0.023 A 
ATOM     61  C   UNL A   1      45.608  29.842  34.722  1.00  0.00     0.012 A 
ATOM     62  C   UNL A   1      44.661  27.850  35.754  1.00  0.00     0.148 A 
ATOM     63  C   UNL A   1      46.797  29.641  35.421  1.00  0.00     0.002 A 
ATOM     64  C   UNL A   1      45.828  27.688  36.488  1.00  0.00     0.091 A 
ATOM     65  F   UNL A   1      43.630  27.000  35.868  1.00  0.00    -0.205 F 
ATOM     66  C   UNL A   1      46.900  28.577  36.316  1.00  0.00     0.022 A 
BRANCH  64  67
ATOM     67  S   UNL A   1      46.000  26.417  37.745  1.00  0.00     0.127 S 
ATOM     68  O   UNL A   1      45.965  25.195  36.937  1.00  0.00    -0.237 OA
ATOM     69  O   UNL A   1      47.314  26.728  38.318  1.00  0.00    -0.237 OA
ATOM     70  O   UNL A   1      44.886  26.592  38.657  1.00  0.00    -0.744 OA
ENDBRANCH  64  67
ENDBRANCH  37  60
ENDBRANCH  11  12
ENDBRANCH   4   6
ENDBRANCH   3   4
ENDBRANCH   2   3
ENDBRANCH   1   2
BRANCH   1  71
ATOM     71  O   UNL A   1      33.060  30.419  25.813  1.00  0.00    -0.462 OA
BRANCH  71  72
ATOM     72  C   UNL A   1      32.618  29.616  24.809  1.00  0.00     0.310 C 
ATOM     73  O   UNL A   1      33.297  29.346  23.820  1.00  0.00    -0.252 OA
BRANCH  72  74
ATOM     74  C   UNL A   1      31.240  28.972  25.033  1.00  0.00     0.116 C 
ATOM     75  C   UNL A   1      30.284  29.671  24.042  1.00  0.00     0.043 C 
ATOM     76  C   UNL A   1      31.209  27.434  25.033  1.00  0.00     0.097 C 
ATOM     77  C   UNL A   1      29.500  28.820  23.102  1.00  0.00    -0.030 C 
ATOM     78  C   UNL A   1      30.147  26.704  24.205  1.00  0.00     0.041 C 
ATOM     79  C   UNL A   1      29.439  27.492  23.174  1.00  0.00    -0.030 C 
BRANCH  76  80
ATOM     80  C   UNL A   1      31.326  26.718  26.374  1.00  0.00     0.228 C 
ATOM     81  O   UNL A   1      30.710  27.213  27.320  1.00  0.00    -0.274 OA
ATOM     82  N   UNL A   1      32.028  25.607  26.682  1.00  0.00    -0.325 N 
ATOM     83  H   UNL A   1      31.842  25.259  27.585  1.00  0.00     0.169 HD
BRANCH  82  84
ATOM     84  C   UNL A   1      32.963  24.855  25.976  1.00  0.00     0.054 A 
ATOM     85  C   UNL A   1      33.616  25.578  24.964  1.00  0.00     0.027 A 
ATOM     86  C   UNL A   1      33.369  23.550  26.265  1.00  0.00     0.063 A 
ATOM     87  C   UNL A   1      34.834  25.137  24.458  1.00  0.00     0.002 A 
ATOM     88  C   UNL A   1      34.640  23.153  25.803  1.00  0.00     0.016 A 
ATOM     89  C   UNL A   1      35.385  23.959  24.940  1.00  0.00     0.001 A 
BRANCH  86  90
ATOM     90  C   UNL A   1      32.567  22.465  26.911  1.00  0.00     0.253 C 
ATOM     91  O   UNL A   1      32.336  22.562  28.120  1.00  0.00    -0.269 OA
ATOM     92  N   UNL A   1      32.139  21.324  26.273  1.00  0.00    -0.345 N 
ATOM     93  H   UNL A   1      31.717  20.668  26.875  1.00  0.00     0.164 HD
BRANCH  92  94
ATOM     94  C   UNL A   1      32.188  20.897  24.884  1.00  0.00     0.191 C 
BRANCH  94  95
ATOM     95  C   UNL A   1      32.515  19.449  24.757  1.00  0.00     0.122 A 
ATOM     96  C   UNL A   1      32.737  18.653  23.650  1.00  0.00     0.047 A 
ATOM     97  O   UNL A   1      32.475  18.671  25.884  1.00  0.00    -0.467 OA
ATOM     98  C   UNL A   1      32.822  17.321  24.118  1.00  0.00     0.042 A 
ATOM     99  C   UNL A   1      32.655  17.384  25.481  1.00  0.00     0.195 A 
ENDBRANCH  94  95
ENDBRANCH  92  94
ENDBRANCH  86  90
ENDBRANCH  82  84
ENDBRANCH  76  80
ENDBRANCH  72  74
ENDBRANCH  71  72
ENDBRANCH   1  71
TORSDOF 19
ENDMDL
