MODEL 1
REMARK VINA RESULT:     -12.8      0.000      0.000
REMARK SMILES C=CCN1C(=O)/C(=C/c2ccccn2)S/C1=[NH+]\c1ccc(C(=O)OCCOC(=O)c2ccc(-c3c4nc(c(-c5cccc(S(=O)(=O)[O-])c5F)c5ccc([nH]5)c(-c5cccc(S(=O)(=O)[O-])c5F)c5nc(c(-c6cccc(S(=O)(=O)[O-])c6F)c6ccc3[nH]6)C=C5)C=C4)cc2)cc1
REMARK SMILES IDX 25 1 24 2 22 3 23 4 21 5 18 6 19 7 94 8 20 9 93 10 17 11
REMARK SMILES IDX 4 12 5 13 16 14 6 15 7 16 15 17 8 18 3 20 2 21 1 22 9 23
REMARK SMILES IDX 10 24 14 25 11 26 13 27 12 28 26 29 27 30 28 31 29 32 30 33
REMARK SMILES IDX 31 34 92 35 32 36 91 37 33 38 34 39 35 40 85 41 36 42 90 43
REMARK SMILES IDX 84 44 86 45 37 46 89 47 83 48 82 49 38 51 70 52 50 53 69 54
REMARK SMILES IDX 51 55 54 56 68 57 87 58 52 59 53 60 67 62 88 63 55 64 39 65
REMARK SMILES IDX 40 66 48 67 41 68 43 69 49 70 42 71 44 72 45 73 46 74 47 75
REMARK SMILES IDX 71 76 72 77 80 78 73 79 75 80 81 81 74 82 76 83 77 84 78 85
REMARK SMILES IDX 79 86 56 87 57 88 65 89 58 90 60 91 66 92 59 93 61 94 62 95
REMARK SMILES IDX 63 96 64 97
REMARK H PARENT 17 19 86 50 54 61
REMARK Flexibility Score: inf
ROOT
ATOM      1  C   UNL A   1      42.740  20.478  26.245  1.00  0.00     0.275 C 
ENDROOT
BRANCH   1   2
ATOM      2  O   UNL A   1      41.368  20.609  25.811  1.00  0.00    -0.458 OA
BRANCH   2   3
ATOM      3  C   UNL A   1      40.506  21.075  26.752  1.00  0.00     0.338 C 
ATOM      4  O   UNL A   1      40.651  21.010  27.958  1.00  0.00    -0.246 OA
BRANCH   3   5
ATOM      5  C   UNL A   1      39.347  21.764  26.132  1.00  0.00     0.060 A 
ATOM      6  C   UNL A   1      37.043  23.084  25.221  1.00  0.00     0.125 A 
ATOM      7  C   UNL A   1      37.923  23.733  26.078  1.00  0.00     0.052 A 
ATOM      8  C   UNL A   1      37.359  21.796  24.759  1.00  0.00     0.052 A 
ATOM      9  C   UNL A   1      39.041  23.062  26.561  1.00  0.00     0.020 A 
ATOM     10  C   UNL A   1      38.508  21.133  25.212  1.00  0.00     0.020 A 
BRANCH   6  11
ATOM     11  N   UNL A   1      35.835  23.724  24.908  1.00  0.00    -0.234 N 
ATOM     12  N   UNL A   1      33.506  23.574  24.671  1.00  0.00    -0.182 N 
ATOM     13  C   UNL A   1      32.542  22.659  24.296  1.00  0.00     0.349 C 
ATOM     14  C   UNL A   1      34.738  23.038  24.943  1.00  0.00     0.324 C 
ATOM     15  O   UNL A   1      31.474  22.894  23.744  1.00  0.00    -0.240 OA
ATOM     16  C   UNL A   1      33.016  21.272  24.573  1.00  0.00     0.111 C 
ATOM     17  S   UNL A   1      34.579  21.324  25.271  1.00  0.00     0.007 SA
ATOM     18  C   UNL A   1      32.321  20.183  24.219  1.00  0.00     0.052 C 
ATOM     19  H   UNL A   1      35.821  24.678  24.667  1.00  0.00     0.313 HD
BRANCH  12  20
ATOM     20  C   UNL A   1      33.324  25.012  24.547  1.00  0.00     0.275 C 
BRANCH  20  21
ATOM     21  C   UNL A   1      32.855  25.622  25.839  1.00  0.00     0.011 C 
ATOM     22  C   UNL A   1      33.092  26.875  26.250  1.00  0.00     0.008 C 
ENDBRANCH  20  21
ENDBRANCH  12  20
BRANCH  18  23
ATOM     23  C   UNL A   1      32.773  18.801  24.379  1.00  0.00     0.064 A 
ATOM     24  C   UNL A   1      33.471  18.125  23.382  1.00  0.00     0.028 A 
ATOM     25  N   UNL A   1      32.468  18.239  25.571  1.00  0.00    -0.257 NA
ATOM     26  C   UNL A   1      33.829  16.798  23.598  1.00  0.00     0.004 A 
ATOM     27  C   UNL A   1      32.826  16.948  25.750  1.00  0.00     0.111 A 
ATOM     28  C   UNL A   1      33.495  16.192  24.803  1.00  0.00     0.020 A 
ENDBRANCH  18  23
ENDBRANCH   6  11
ENDBRANCH   3   5
ENDBRANCH   2   3
ENDBRANCH   1   2
BRANCH   1  29
ATOM     29  C   UNL A   1      43.685  21.337  25.402  1.00  0.00     0.275 C 
BRANCH  29  30
ATOM     30  O   UNL A   1      42.991  22.462  24.833  1.00  0.00    -0.458 OA
BRANCH  30  31
ATOM     31  C   UNL A   1      43.648  23.640  24.926  1.00  0.00     0.338 C 
ATOM     32  O   UNL A   1      44.640  23.985  24.304  1.00  0.00    -0.246 OA
BRANCH  31  33
ATOM     33  C   UNL A   1      42.946  24.550  25.840  1.00  0.00     0.060 A 
ATOM     34  C   UNL A   1      43.112  25.914  25.641  1.00  0.00     0.016 A 
ATOM     35  C   UNL A   1      42.320  24.086  26.992  1.00  0.00     0.016 A 
ATOM     36  C   UNL A   1      42.805  26.814  26.654  1.00  0.00     0.010 A 
ATOM     37  C   UNL A   1      41.872  25.009  27.947  1.00  0.00     0.010 A 
ATOM     38  C   UNL A   1      42.155  26.383  27.817  1.00  0.00    -0.014 A 
BRANCH  38  39
ATOM     39  C   UNL A   1      41.780  27.364  28.880  1.00  0.00     0.031 A 
ATOM     40  C   UNL A   1      42.651  27.549  30.101  1.00  0.00     0.074 A 
ATOM     41  C   UNL A   1      40.644  28.087  28.765  1.00  0.00     0.049 A 
ATOM     42  N   UNL A   1      42.402  28.211  31.202  1.00  0.00    -0.248 NA
ATOM     43  C   UNL A   1      43.967  26.887  30.092  1.00  0.00     0.031 C 
ATOM     44  C   UNL A   1      39.710  28.026  27.637  1.00  0.00     0.029 A 
ATOM     45  N   UNL A   1      40.070  29.005  29.613  1.00  0.00    -0.354 N 
ATOM     46  C   UNL A   1      43.485  27.979  32.044  1.00  0.00     0.074 A 
ATOM     47  C   UNL A   1      44.399  27.121  31.323  1.00  0.00     0.031 C 
ATOM     48  C   UNL A   1      38.701  28.881  27.848  1.00  0.00     0.029 A 
ATOM     49  C   UNL A   1      38.853  29.472  29.170  1.00  0.00     0.049 A 
ATOM     50  H   UNL A   1      40.488  29.299  30.455  1.00  0.00     0.167 HD
ATOM     51  C   UNL A   1      43.699  28.441  33.301  1.00  0.00     0.034 A 
ATOM     52  C   UNL A   1      37.924  30.238  29.774  1.00  0.00     0.034 A 
ATOM     53  C   UNL A   1      42.817  29.347  33.989  1.00  0.00     0.049 A 
ATOM     54  C   UNL A   1      38.181  30.727  31.169  1.00  0.00     0.074 A 
ATOM     55  C   UNL A   1      42.972  29.915  35.241  1.00  0.00     0.029 A 
ATOM     56  N   UNL A   1      41.614  29.818  33.485  1.00  0.00    -0.354 N 
ATOM     57  N   UNL A   1      39.232  30.536  31.928  1.00  0.00    -0.248 NA
ATOM     58  C   UNL A   1      37.132  31.547  31.787  1.00  0.00     0.031 C 
ATOM     59  C   UNL A   1      41.847  30.702  35.510  1.00  0.00     0.029 A 
ATOM     60  C   UNL A   1      41.011  30.659  34.407  1.00  0.00     0.049 A 
ATOM     61  H   UNL A   1      41.243  29.590  32.603  1.00  0.00     0.167 HD
ATOM     62  C   UNL A   1      38.984  31.235  33.102  1.00  0.00     0.074 A 
ATOM     63  C   UNL A   1      37.694  31.875  32.942  1.00  0.00     0.031 C 
ATOM     64  C   UNL A   1      39.748  31.327  34.217  1.00  0.00     0.034 A 
BRANCH  51  65
ATOM     65  C   UNL A   1      44.942  27.980  34.023  1.00  0.00     0.023 A 
ATOM     66  C   UNL A   1      44.910  26.821  34.824  1.00  0.00     0.012 A 
ATOM     67  C   UNL A   1      46.165  28.665  33.854  1.00  0.00     0.148 A 
ATOM     68  C   UNL A   1      46.060  26.373  35.475  1.00  0.00     0.002 A 
ATOM     69  C   UNL A   1      47.316  28.185  34.466  1.00  0.00     0.091 A 
ATOM     70  F   UNL A   1      46.176  29.774  33.100  1.00  0.00    -0.205 F 
ATOM     71  C   UNL A   1      47.264  27.048  35.288  1.00  0.00     0.022 A 
BRANCH  69  72
ATOM     72  S   UNL A   1      48.931  28.935  34.219  1.00  0.00     0.127 S 
ATOM     73  O   UNL A   1      48.668  30.328  34.579  1.00  0.00    -0.237 OA
ATOM     74  O   UNL A   1      49.758  28.205  35.180  1.00  0.00    -0.237 OA
ATOM     75  O   UNL A   1      49.274  28.705  32.823  1.00  0.00    -0.744 OA
ENDBRANCH  69  72
ENDBRANCH  51  65
BRANCH  52  76
ATOM     76  C   UNL A   1      36.658  30.575  29.060  1.00  0.00     0.023 A 
ATOM     77  C   UNL A   1      35.838  29.541  28.574  1.00  0.00     0.012 A 
ATOM     78  C   UNL A   1      36.247  31.913  28.893  1.00  0.00     0.148 A 
ATOM     79  C   UNL A   1      34.644  29.831  27.913  1.00  0.00     0.002 A 
ATOM     80  C   UNL A   1      35.027  32.193  28.292  1.00  0.00     0.091 A 
ATOM     81  F   UNL A   1      37.050  32.886  29.348  1.00  0.00    -0.205 F 
ATOM     82  C   UNL A   1      34.232  31.155  27.783  1.00  0.00     0.022 A 
BRANCH  80  83
ATOM     83  S   UNL A   1      34.351  33.856  28.213  1.00  0.00     0.127 S 
ATOM     84  O   UNL A   1      35.230  34.490  27.233  1.00  0.00    -0.237 OA
ATOM     85  O   UNL A   1      32.987  33.605  27.748  1.00  0.00    -0.237 OA
ATOM     86  O   UNL A   1      34.435  34.380  29.570  1.00  0.00    -0.744 OA
ENDBRANCH  80  83
ENDBRANCH  52  76
BRANCH  64  87
ATOM     87  C   UNL A   1      39.237  32.191  35.338  1.00  0.00     0.023 A 
ATOM     88  C   UNL A   1      38.289  31.681  36.247  1.00  0.00     0.012 A 
ATOM     89  C   UNL A   1      39.744  33.493  35.524  1.00  0.00     0.148 A 
ATOM     90  C   UNL A   1      37.827  32.466  37.304  1.00  0.00     0.002 A 
ATOM     91  C   UNL A   1      39.320  34.250  36.609  1.00  0.00     0.091 A 
ATOM     92  F   UNL A   1      40.631  33.966  34.636  1.00  0.00    -0.205 F 
ATOM     93  C   UNL A   1      38.351  33.744  37.491  1.00  0.00     0.022 A 
BRANCH  91  94
ATOM     94  S   UNL A   1      40.009  35.864  36.986  1.00  0.00     0.127 S 
ATOM     95  O   UNL A   1      41.428  35.551  37.148  1.00  0.00    -0.237 OA
ATOM     96  O   UNL A   1      39.686  36.627  35.781  1.00  0.00    -0.237 OA
ATOM     97  O   UNL A   1      39.332  36.320  38.193  1.00  0.00    -0.744 OA
ENDBRANCH  91  94
ENDBRANCH  64  87
ENDBRANCH  38  39
ENDBRANCH  31  33
ENDBRANCH  30  31
ENDBRANCH  29  30
ENDBRANCH   1  29
TORSDOF 18
ENDMDL
MODEL 2
REMARK VINA RESULT:     -12.4      5.517      7.404
REMARK SMILES C=CCN1C(=O)/C(=C/c2ccccn2)S/C1=[NH+]\c1ccc(C(=O)OCCOC(=O)c2ccc(-c3c4nc(c(-c5cccc(S(=O)(=O)[O-])c5F)c5ccc([nH]5)c(-c5cccc(S(=O)(=O)[O-])c5F)c5nc(c(-c6cccc(S(=O)(=O)[O-])c6F)c6ccc3[nH]6)C=C5)C=C4)cc2)cc1
REMARK SMILES IDX 25 1 24 2 22 3 23 4 21 5 18 6 19 7 94 8 20 9 93 10 17 11
REMARK SMILES IDX 4 12 5 13 16 14 6 15 7 16 15 17 8 18 3 20 2 21 1 22 9 23
REMARK SMILES IDX 10 24 14 25 11 26 13 27 12 28 26 29 27 30 28 31 29 32 30 33
REMARK SMILES IDX 31 34 92 35 32 36 91 37 33 38 34 39 35 40 85 41 36 42 90 43
REMARK SMILES IDX 84 44 86 45 37 46 89 47 83 48 82 49 38 51 70 52 50 53 69 54
REMARK SMILES IDX 51 55 54 56 68 57 87 58 52 59 53 60 67 62 88 63 55 64 39 65
REMARK SMILES IDX 40 66 48 67 41 68 43 69 49 70 42 71 44 72 45 73 46 74 47 75
REMARK SMILES IDX 71 76 72 77 80 78 73 79 75 80 81 81 74 82 76 83 77 84 78 85
REMARK SMILES IDX 79 86 56 87 57 88 65 89 58 90 60 91 66 92 59 93 61 94 62 95
REMARK SMILES IDX 63 96 64 97
REMARK H PARENT 17 19 86 50 54 61
REMARK Flexibility Score: inf
ROOT
ATOM      1  C   UNL A   1      42.100  19.515  27.201  1.00  0.00     0.275 C 
ENDROOT
BRANCH   1   2
ATOM      2  O   UNL A   1      40.867  20.178  26.848  1.00  0.00    -0.458 OA
BRANCH   2   3
ATOM      3  C   UNL A   1      40.955  21.526  26.700  1.00  0.00     0.338 C 
ATOM      4  O   UNL A   1      41.974  22.189  26.733  1.00  0.00    -0.246 OA
BRANCH   3   5
ATOM      5  C   UNL A   1      39.629  22.129  26.415  1.00  0.00     0.060 A 
ATOM      6  C   UNL A   1      37.194  23.262  25.600  1.00  0.00     0.125 A 
ATOM      7  C   UNL A   1      37.520  21.966  25.219  1.00  0.00     0.052 A 
ATOM      8  C   UNL A   1      38.058  23.964  26.456  1.00  0.00     0.052 A 
ATOM      9  C   UNL A   1      38.745  21.423  25.588  1.00  0.00     0.020 A 
ATOM     10  C   UNL A   1      39.276  23.402  26.865  1.00  0.00     0.020 A 
BRANCH   6  11
ATOM     11  N   UNL A   1      36.040  23.840  25.051  1.00  0.00    -0.234 N 
ATOM     12  N   UNL A   1      33.769  23.618  24.505  1.00  0.00    -0.182 N 
ATOM     13  C   UNL A   1      32.874  22.648  24.099  1.00  0.00     0.349 C 
ATOM     14  C   UNL A   1      34.953  23.139  25.005  1.00  0.00     0.324 C 
ATOM     15  O   UNL A   1      31.894  22.801  23.379  1.00  0.00    -0.240 OA
ATOM     16  C   UNL A   1      33.309  21.309  24.590  1.00  0.00     0.111 C 
ATOM     17  S   UNL A   1      34.757  21.468  25.492  1.00  0.00     0.007 SA
ATOM     18  C   UNL A   1      32.678  20.175  24.263  1.00  0.00     0.052 C 
ATOM     19  H   UNL A   1      36.056  24.762  24.708  1.00  0.00     0.313 HD
BRANCH  12  20
ATOM     20  C   UNL A   1      33.600  25.030  24.200  1.00  0.00     0.275 C 
BRANCH  20  21
ATOM     21  C   UNL A   1      33.743  25.298  22.727  1.00  0.00     0.011 C 
ATOM     22  C   UNL A   1      33.245  26.352  22.067  1.00  0.00     0.008 C 
ENDBRANCH  20  21
ENDBRANCH  12  20
BRANCH  18  23
ATOM     23  C   UNL A   1      33.109  18.827  24.634  1.00  0.00     0.064 A 
ATOM     24  C   UNL A   1      34.300  18.272  24.174  1.00  0.00     0.028 A 
ATOM     25  N   UNL A   1      32.266  18.171  25.463  1.00  0.00    -0.257 NA
ATOM     26  C   UNL A   1      34.617  16.968  24.543  1.00  0.00     0.004 A 
ATOM     27  C   UNL A   1      32.598  16.905  25.800  1.00  0.00     0.111 A 
ATOM     28  C   UNL A   1      33.747  16.265  25.367  1.00  0.00     0.020 A 
ENDBRANCH  18  23
ENDBRANCH   6  11
ENDBRANCH   3   5
ENDBRANCH   2   3
ENDBRANCH   1   2
BRANCH   1  29
ATOM     29  C   UNL A   1      42.618  18.639  26.059  1.00  0.00     0.275 C 
BRANCH  29  30
ATOM     30  O   UNL A   1      42.967  19.436  24.913  1.00  0.00    -0.458 OA
BRANCH  30  31
ATOM     31  C   UNL A   1      44.289  19.483  24.635  1.00  0.00     0.338 C 
ATOM     32  O   UNL A   1      44.999  18.565  24.255  1.00  0.00    -0.246 OA
BRANCH  31  33
ATOM     33  C   UNL A   1      44.792  20.858  24.757  1.00  0.00     0.060 A 
ATOM     34  C   UNL A   1      45.341  21.235  25.975  1.00  0.00     0.016 A 
ATOM     35  C   UNL A   1      44.535  21.816  23.783  1.00  0.00     0.016 A 
ATOM     36  C   UNL A   1      45.488  22.579  26.293  1.00  0.00     0.010 A 
ATOM     37  C   UNL A   1      44.828  23.160  24.051  1.00  0.00     0.010 A 
ATOM     38  C   UNL A   1      45.258  23.568  25.329  1.00  0.00    -0.014 A 
BRANCH  38  39
ATOM     39  C   UNL A   1      45.470  25.011  25.662  1.00  0.00     0.031 A 
ATOM     40  C   UNL A   1      46.851  25.620  25.601  1.00  0.00     0.074 A 
ATOM     41  C   UNL A   1      44.425  25.780  26.036  1.00  0.00     0.049 A 
ATOM     42  N   UNL A   1      47.256  26.791  26.023  1.00  0.00    -0.248 NA
ATOM     43  C   UNL A   1      47.920  24.801  25.006  1.00  0.00     0.031 C 
ATOM     44  C   UNL A   1      43.031  25.334  26.127  1.00  0.00     0.029 A 
ATOM     45  N   UNL A   1      44.369  27.098  26.425  1.00  0.00    -0.354 N 
ATOM     46  C   UNL A   1      48.633  26.816  25.823  1.00  0.00     0.074 A 
ATOM     47  C   UNL A   1      48.993  25.545  25.233  1.00  0.00     0.031 C 
ATOM     48  C   UNL A   1      42.260  26.357  26.519  1.00  0.00     0.029 A 
ATOM     49  C   UNL A   1      43.111  27.502  26.812  1.00  0.00     0.049 A 
ATOM     50  H   UNL A   1      45.153  27.694  26.429  1.00  0.00     0.167 HD
ATOM     51  C   UNL A   1      49.515  27.807  26.101  1.00  0.00     0.034 A 
ATOM     52  C   UNL A   1      42.685  28.638  27.396  1.00  0.00     0.034 A 
ATOM     53  C   UNL A   1      49.143  29.094  26.629  1.00  0.00     0.049 A 
ATOM     54  C   UNL A   1      43.683  29.715  27.704  1.00  0.00     0.074 A 
ATOM     55  C   UNL A   1      49.954  30.183  26.894  1.00  0.00     0.029 A 
ATOM     56  N   UNL A   1      47.851  29.468  26.971  1.00  0.00    -0.354 N 
ATOM     57  N   UNL A   1      44.971  29.737  27.463  1.00  0.00    -0.248 NA
ATOM     58  C   UNL A   1      43.170  30.928  28.353  1.00  0.00     0.031 C 
ATOM     59  C   UNL A   1      49.160  31.203  27.429  1.00  0.00     0.029 A 
ATOM     60  C   UNL A   1      47.847  30.764  27.457  1.00  0.00     0.049 A 
ATOM     61  H   UNL A   1      47.056  28.895  26.881  1.00  0.00     0.167 HD
ATOM     62  C   UNL A   1      45.418  30.976  27.903  1.00  0.00     0.074 A 
ATOM     63  C   UNL A   1      44.257  31.686  28.403  1.00  0.00     0.031 C 
ATOM     64  C   UNL A   1      46.677  31.476  27.907  1.00  0.00     0.034 A 
BRANCH  51  65
ATOM     65  C   UNL A   1      50.980  27.548  25.840  1.00  0.00     0.023 A 
ATOM     66  C   UNL A   1      51.835  27.178  26.897  1.00  0.00     0.012 A 
ATOM     67  C   UNL A   1      51.495  27.609  24.528  1.00  0.00     0.148 A 
ATOM     68  C   UNL A   1      53.184  26.911  26.661  1.00  0.00     0.002 A 
ATOM     69  C   UNL A   1      52.828  27.295  24.293  1.00  0.00     0.091 A 
ATOM     70  F   UNL A   1      50.672  27.977  23.536  1.00  0.00    -0.205 F 
ATOM     71  C   UNL A   1      53.678  26.959  25.360  1.00  0.00     0.022 A 
BRANCH  69  72
ATOM     72  S   UNL A   1      53.538  27.246  22.643  1.00  0.00     0.127 S 
ATOM     73  O   UNL A   1      53.409  28.642  22.225  1.00  0.00    -0.237 OA
ATOM     74  O   UNL A   1      54.911  26.816  22.912  1.00  0.00    -0.237 OA
ATOM     75  O   UNL A   1      52.740  26.292  21.887  1.00  0.00    -0.744 OA
ENDBRANCH  69  72
ENDBRANCH  51  65
BRANCH  52  76
ATOM     76  C   UNL A   1      41.242  28.804  27.738  1.00  0.00     0.023 A 
ATOM     77  C   UNL A   1      40.333  29.201  26.741  1.00  0.00     0.012 A 
ATOM     78  C   UNL A   1      40.763  28.534  29.036  1.00  0.00     0.148 A 
ATOM     79  C   UNL A   1      38.977  29.352  27.035  1.00  0.00     0.002 A 
ATOM     80  C   UNL A   1      39.404  28.623  29.305  1.00  0.00     0.091 A 
ATOM     81  F   UNL A   1      41.647  28.173  29.977  1.00  0.00    -0.205 F 
ATOM     82  C   UNL A   1      38.511  29.051  28.312  1.00  0.00     0.022 A 
BRANCH  80  83
ATOM     83  S   UNL A   1      38.698  28.117  30.878  1.00  0.00     0.127 S 
ATOM     84  O   UNL A   1      37.364  28.706  30.812  1.00  0.00    -0.237 OA
ATOM     85  O   UNL A   1      38.735  26.658  30.768  1.00  0.00    -0.237 OA
ATOM     86  O   UNL A   1      39.581  28.662  31.900  1.00  0.00    -0.744 OA
ENDBRANCH  80  83
ENDBRANCH  52  76
BRANCH  64  87
ATOM     87  C   UNL A   1      46.865  32.878  28.423  1.00  0.00     0.023 A 
ATOM     88  C   UNL A   1      47.190  33.096  29.776  1.00  0.00     0.012 A 
ATOM     89  C   UNL A   1      46.776  33.978  27.547  1.00  0.00     0.148 A 
ATOM     90  C   UNL A   1      47.389  34.389  30.258  1.00  0.00     0.002 A 
ATOM     91  C   UNL A   1      47.028  35.259  28.021  1.00  0.00     0.091 A 
ATOM     92  F   UNL A   1      46.446  33.750  26.267  1.00  0.00    -0.205 F 
ATOM     93  C   UNL A   1      47.320  35.468  29.379  1.00  0.00     0.022 A 
BRANCH  91  94
ATOM     94  S   UNL A   1      47.059  36.696  26.945  1.00  0.00     0.127 S 
ATOM     95  O   UNL A   1      47.881  36.218  25.834  1.00  0.00    -0.237 OA
ATOM     96  O   UNL A   1      45.643  36.873  26.625  1.00  0.00    -0.237 OA
ATOM     97  O   UNL A   1      47.642  37.776  27.730  1.00  0.00    -0.744 OA
ENDBRANCH  91  94
ENDBRANCH  64  87
ENDBRANCH  38  39
ENDBRANCH  31  33
ENDBRANCH  30  31
ENDBRANCH  29  30
ENDBRANCH   1  29
TORSDOF 18
ENDMDL
MODEL 3
REMARK VINA RESULT:     -11.8      4.643      7.694
REMARK SMILES C=CCN1C(=O)/C(=C/c2ccccn2)S/C1=[NH+]\c1ccc(C(=O)OCCOC(=O)c2ccc(-c3c4nc(c(-c5cccc(S(=O)(=O)[O-])c5F)c5ccc([nH]5)c(-c5cccc(S(=O)(=O)[O-])c5F)c5nc(c(-c6cccc(S(=O)(=O)[O-])c6F)c6ccc3[nH]6)C=C5)C=C4)cc2)cc1
REMARK SMILES IDX 25 1 24 2 22 3 23 4 21 5 18 6 19 7 94 8 20 9 93 10 17 11
REMARK SMILES IDX 4 12 5 13 16 14 6 15 7 16 15 17 8 18 3 20 2 21 1 22 9 23
REMARK SMILES IDX 10 24 14 25 11 26 13 27 12 28 26 29 27 30 28 31 29 32 30 33
REMARK SMILES IDX 31 34 92 35 32 36 91 37 33 38 34 39 35 40 85 41 36 42 90 43
REMARK SMILES IDX 84 44 86 45 37 46 89 47 83 48 82 49 38 51 70 52 50 53 69 54
REMARK SMILES IDX 51 55 54 56 68 57 87 58 52 59 53 60 67 62 88 63 55 64 39 65
REMARK SMILES IDX 40 66 48 67 41 68 43 69 49 70 42 71 44 72 45 73 46 74 47 75
REMARK SMILES IDX 71 76 72 77 80 78 73 79 75 80 81 81 74 82 76 83 77 84 78 85
REMARK SMILES IDX 79 86 56 87 57 88 65 89 58 90 60 91 66 92 59 93 61 94 62 95
REMARK SMILES IDX 63 96 64 97
REMARK H PARENT 17 19 86 50 54 61
REMARK Flexibility Score: inf
ROOT
ATOM      1  C   UNL A   1      35.509  20.586  25.006  1.00  0.00     0.275 C 
ENDROOT
BRANCH   1   2
ATOM      2  O   UNL A   1      35.291  21.886  25.596  1.00  0.00    -0.458 OA
BRANCH   2   3
ATOM      3  C   UNL A   1      34.218  21.973  26.425  1.00  0.00     0.338 C 
ATOM      4  O   UNL A   1      34.111  21.457  27.521  1.00  0.00    -0.246 OA
BRANCH   3   5
ATOM      5  C   UNL A   1      33.168  22.858  25.862  1.00  0.00     0.060 A 
ATOM      6  C   UNL A   1      31.392  24.708  24.722  1.00  0.00     0.125 A 
ATOM      7  C   UNL A   1      32.316  24.048  23.922  1.00  0.00     0.052 A 
ATOM      8  C   UNL A   1      31.307  24.383  26.085  1.00  0.00     0.052 A 
ATOM      9  C   UNL A   1      33.223  23.165  24.496  1.00  0.00     0.020 A 
ATOM     10  C   UNL A   1      32.192  23.459  26.659  1.00  0.00     0.020 A 
BRANCH   6  11
ATOM     11  N   UNL A   1      30.625  25.729  24.139  1.00  0.00    -0.234 N 
ATOM     12  N   UNL A   1      30.404  28.007  23.626  1.00  0.00    -0.182 N 
ATOM     13  C   UNL A   1      30.745  29.241  24.144  1.00  0.00     0.349 C 
ATOM     14  C   UNL A   1      31.069  26.943  24.180  1.00  0.00     0.324 C 
ATOM     15  O   UNL A   1      30.120  30.288  24.030  1.00  0.00    -0.240 OA
ATOM     16  C   UNL A   1      31.977  29.126  24.975  1.00  0.00     0.111 C 
ATOM     17  S   UNL A   1      32.529  27.504  24.970  1.00  0.00     0.007 SA
ATOM     18  C   UNL A   1      32.479  30.151  25.675  1.00  0.00     0.052 C 
ATOM     19  H   UNL A   1      29.766  25.524  23.707  1.00  0.00     0.313 HD
BRANCH  12  20
ATOM     20  C   UNL A   1      29.259  27.803  22.751  1.00  0.00     0.275 C 
BRANCH  20  21
ATOM     21  C   UNL A   1      27.963  27.921  23.504  1.00  0.00     0.011 C 
ATOM     22  C   UNL A   1      26.902  28.652  23.134  1.00  0.00     0.008 C 
ENDBRANCH  20  21
ENDBRANCH  12  20
BRANCH  18  23
ATOM     23  C   UNL A   1      33.626  30.078  26.580  1.00  0.00     0.064 A 
ATOM     24  C   UNL A   1      34.401  28.929  26.712  1.00  0.00     0.028 A 
ATOM     25  N   UNL A   1      33.878  31.216  27.268  1.00  0.00    -0.257 NA
ATOM     26  C   UNL A   1      35.451  28.931  27.625  1.00  0.00     0.004 A 
ATOM     27  C   UNL A   1      34.902  31.185  28.150  1.00  0.00     0.111 A 
ATOM     28  C   UNL A   1      35.705  30.078  28.366  1.00  0.00     0.020 A 
ENDBRANCH  18  23
ENDBRANCH   6  11
ENDBRANCH   3   5
ENDBRANCH   2   3
ENDBRANCH   1   2
BRANCH   1  29
ATOM     29  C   UNL A   1      36.991  20.205  25.008  1.00  0.00     0.275 C 
BRANCH  29  30
ATOM     30  O   UNL A   1      37.822  21.362  25.209  1.00  0.00    -0.458 OA
BRANCH  30  31
ATOM     31  C   UNL A   1      38.926  21.144  25.958  1.00  0.00     0.338 C 
ATOM     32  O   UNL A   1      39.521  20.089  26.110  1.00  0.00    -0.246 OA
BRANCH  31  33
ATOM     33  C   UNL A   1      39.417  22.405  26.529  1.00  0.00     0.060 A 
ATOM     34  C   UNL A   1      38.813  23.581  26.104  1.00  0.00     0.016 A 
ATOM     35  C   UNL A   1      40.579  22.456  27.291  1.00  0.00     0.016 A 
ATOM     36  C   UNL A   1      39.445  24.803  26.293  1.00  0.00     0.010 A 
ATOM     37  C   UNL A   1      41.132  23.703  27.613  1.00  0.00     0.010 A 
ATOM     38  C   UNL A   1      40.604  24.892  27.074  1.00  0.00    -0.014 A 
BRANCH  38  39
ATOM     39  C   UNL A   1      41.250  26.219  27.319  1.00  0.00     0.031 A 
ATOM     40  C   UNL A   1      42.625  26.519  26.771  1.00  0.00     0.074 A 
ATOM     41  C   UNL A   1      40.612  27.158  28.050  1.00  0.00     0.049 A 
ATOM     42  N   UNL A   1      43.414  27.531  27.027  1.00  0.00    -0.248 NA
ATOM     43  C   UNL A   1      43.197  25.546  25.824  1.00  0.00     0.031 C 
ATOM     44  C   UNL A   1      39.274  27.016  28.634  1.00  0.00     0.029 A 
ATOM     45  N   UNL A   1      41.005  28.415  28.444  1.00  0.00    -0.354 N 
ATOM     46  C   UNL A   1      44.600  27.277  26.345  1.00  0.00     0.074 A 
ATOM     47  C   UNL A   1      44.424  26.017  25.655  1.00  0.00     0.031 C 
ATOM     48  C   UNL A   1      38.950  28.141  29.285  1.00  0.00     0.029 A 
ATOM     49  C   UNL A   1      40.092  29.044  29.261  1.00  0.00     0.049 A 
ATOM     50  H   UNL A   1      41.858  28.825  28.170  1.00  0.00     0.167 HD
ATOM     51  C   UNL A   1      45.730  28.025  26.295  1.00  0.00     0.034 A 
ATOM     52  C   UNL A   1      40.175  30.187  29.967  1.00  0.00     0.034 A 
ATOM     53  C   UNL A   1      45.876  29.308  26.931  1.00  0.00     0.049 A 
ATOM     54  C   UNL A   1      41.440  30.991  29.904  1.00  0.00     0.074 A 
ATOM     55  C   UNL A   1      46.960  30.168  26.894  1.00  0.00     0.029 A 
ATOM     56  N   UNL A   1      44.911  29.918  27.718  1.00  0.00    -0.354 N 
ATOM     57  N   UNL A   1      42.530  30.757  29.216  1.00  0.00    -0.248 NA
ATOM     58  C   UNL A   1      41.484  32.222  30.703  1.00  0.00     0.031 C 
ATOM     59  C   UNL A   1      46.664  31.281  27.688  1.00  0.00     0.029 A 
ATOM     60  C   UNL A   1      45.379  31.136  28.183  1.00  0.00     0.049 A 
ATOM     61  H   UNL A   1      44.023  29.542  27.916  1.00  0.00     0.167 HD
ATOM     62  C   UNL A   1      43.380  31.825  29.475  1.00  0.00     0.074 A 
ATOM     63  C   UNL A   1      42.665  32.719  30.365  1.00  0.00     0.031 C 
ATOM     64  C   UNL A   1      44.641  32.039  29.030  1.00  0.00     0.034 A 
BRANCH  51  65
ATOM     65  C   UNL A   1      46.907  27.481  25.522  1.00  0.00     0.023 A 
ATOM     66  C   UNL A   1      47.770  26.537  26.113  1.00  0.00     0.012 A 
ATOM     67  C   UNL A   1      47.120  27.861  24.179  1.00  0.00     0.148 A 
ATOM     68  C   UNL A   1      48.845  26.009  25.398  1.00  0.00     0.002 A 
ATOM     69  C   UNL A   1      48.164  27.294  23.458  1.00  0.00     0.091 A 
ATOM     70  F   UNL A   1      46.299  28.770  23.636  1.00  0.00    -0.205 F 
ATOM     71  C   UNL A   1      49.036  26.379  24.069  1.00  0.00     0.022 A 
BRANCH  69  72
ATOM     72  S   UNL A   1      48.442  27.643  21.717  1.00  0.00     0.127 S 
ATOM     73  O   UNL A   1      48.720  26.307  21.189  1.00  0.00    -0.237 OA
ATOM     74  O   UNL A   1      47.154  28.202  21.307  1.00  0.00    -0.237 OA
ATOM     75  O   UNL A   1      49.556  28.579  21.665  1.00  0.00    -0.744 OA
ENDBRANCH  69  72
ENDBRANCH  51  65
BRANCH  52  76
ATOM     76  C   UNL A   1      39.023  30.628  30.808  1.00  0.00     0.023 A 
ATOM     77  C   UNL A   1      38.804  30.022  32.058  1.00  0.00     0.012 A 
ATOM     78  C   UNL A   1      38.169  31.668  30.390  1.00  0.00     0.148 A 
ATOM     79  C   UNL A   1      37.740  30.426  32.866  1.00  0.00     0.002 A 
ATOM     80  C   UNL A   1      37.152  32.109  31.226  1.00  0.00     0.091 A 
ATOM     81  F   UNL A   1      38.384  32.222  29.188  1.00  0.00    -0.205 F 
ATOM     82  C   UNL A   1      36.923  31.476  32.457  1.00  0.00     0.022 A 
BRANCH  80  83
ATOM     83  S   UNL A   1      36.146  33.547  30.845  1.00  0.00     0.127 S 
ATOM     84  O   UNL A   1      36.365  34.386  32.020  1.00  0.00    -0.237 OA
ATOM     85  O   UNL A   1      36.770  34.034  29.614  1.00  0.00    -0.237 OA
ATOM     86  O   UNL A   1      34.790  33.044  30.670  1.00  0.00    -0.744 OA
ENDBRANCH  80  83
ENDBRANCH  52  76
BRANCH  64  87
ATOM     87  C   UNL A   1      45.319  33.314  29.454  1.00  0.00     0.023 A 
ATOM     88  C   UNL A   1      46.135  33.333  30.602  1.00  0.00     0.012 A 
ATOM     89  C   UNL A   1      45.192  34.482  28.676  1.00  0.00     0.148 A 
ATOM     90  C   UNL A   1      46.786  34.504  30.990  1.00  0.00     0.002 A 
ATOM     91  C   UNL A   1      45.886  35.630  29.037  1.00  0.00     0.091 A 
ATOM     92  F   UNL A   1      44.395  34.448  27.597  1.00  0.00    -0.205 F 
ATOM     93  C   UNL A   1      46.671  35.647  30.202  1.00  0.00     0.022 A 
BRANCH  91  94
ATOM     94  S   UNL A   1      45.878  37.118  28.033  1.00  0.00     0.127 S 
ATOM     95  O   UNL A   1      46.907  37.924  28.686  1.00  0.00    -0.237 OA
ATOM     96  O   UNL A   1      46.250  36.603  26.715  1.00  0.00    -0.237 OA
ATOM     97  O   UNL A   1      44.525  37.653  28.114  1.00  0.00    -0.744 OA
ENDBRANCH  91  94
ENDBRANCH  64  87
ENDBRANCH  38  39
ENDBRANCH  31  33
ENDBRANCH  30  31
ENDBRANCH  29  30
ENDBRANCH   1  29
TORSDOF 18
ENDMDL
