MODEL 1
REMARK VINA RESULT:     -11.6      0.000      0.000
REMARK SMILES CN(C)Nc1ncnc(Nc2ccc(C(=O)OCCOC(=O)c3ccc(-c4c5nc(c(-c6cccc(S(=O)(=O)[O-])c6F)c6ccc([nH]6)c(-c6cccc(S(=O)(=O)[O-])c6F)c6nc(c(-c7cccc(S(=O)(=O)[O-])c7F)c7ccc4[nH]7)C=C6)C=C5)cc3)cc2)c1[N+](=O)[O-]
REMARK SMILES IDX 18 1 17 2 15 3 16 4 14 5 11 6 12 7 87 8 13 9 86 10 10 11
REMARK SMILES IDX 9 13 5 14 6 15 88 16 7 17 8 18 4 19 2 21 1 22 3 23 89 24
REMARK SMILES IDX 90 25 91 26 19 27 20 28 21 29 22 30 23 31 24 32 85 33 25 34
REMARK SMILES IDX 84 35 26 36 27 37 28 38 78 39 29 40 83 41 77 42 79 43 30 44
REMARK SMILES IDX 82 45 76 46 75 47 31 49 63 50 43 51 62 52 44 53 47 54 61 55
REMARK SMILES IDX 80 56 45 57 46 58 60 60 81 61 48 62 32 63 33 64 41 65 34 66
REMARK SMILES IDX 36 67 42 68 35 69 37 70 38 71 39 72 40 73 64 74 65 75 73 76
REMARK SMILES IDX 66 77 68 78 74 79 67 80 69 81 70 82 71 83 72 84 49 85 50 86
REMARK SMILES IDX 58 87 51 88 53 89 59 90 52 91 54 92 55 93 56 94 57 95
REMARK H PARENT 10 12 4 20 79 48 47 59
REMARK Flexibility Score: inf
ROOT
ATOM      1  C   UNL A   1      32.021  29.254  24.891  1.00  0.00     0.275 C 
ENDROOT
BRANCH   1   2
ATOM      2  O   UNL A   1      30.937  28.331  24.666  1.00  0.00    -0.458 OA
BRANCH   2   3
ATOM      3  C   UNL A   1      30.964  27.239  25.467  1.00  0.00     0.338 C 
ATOM      4  O   UNL A   1      30.987  27.222  26.686  1.00  0.00    -0.246 OA
BRANCH   3   5
ATOM      5  C   UNL A   1      30.939  26.000  24.671  1.00  0.00     0.060 A 
ATOM      6  C   UNL A   1      31.400  23.562  23.367  1.00  0.00     0.040 A 
ATOM      7  C   UNL A   1      30.913  23.579  24.675  1.00  0.00     0.027 A 
ATOM      8  C   UNL A   1      31.569  24.785  22.696  1.00  0.00     0.027 A 
ATOM      9  C   UNL A   1      30.702  24.789  25.326  1.00  0.00     0.018 A 
ATOM     10  C   UNL A   1      31.331  26.005  23.336  1.00  0.00     0.018 A 
BRANCH   6  11
ATOM     11  N   UNL A   1      31.864  22.340  22.851  1.00  0.00    -0.334 N 
ATOM     12  H   UNL A   1      31.554  22.101  21.948  1.00  0.00     0.168 HD
BRANCH  11  13
ATOM     13  C   UNL A   1      32.723  21.419  23.479  1.00  0.00     0.215 A 
ATOM     14  C   UNL A   1      34.523  20.858  24.919  1.00  0.00     0.225 A 
ATOM     15  N   UNL A   1      34.177  19.553  24.874  1.00  0.00    -0.212 NA
ATOM     16  C   UNL A   1      33.872  21.800  24.148  1.00  0.00     0.354 A 
ATOM     17  C   UNL A   1      33.118  19.241  24.128  1.00  0.00     0.227 A 
ATOM     18  N   UNL A   1      32.352  20.117  23.478  1.00  0.00    -0.212 NA
BRANCH  14  19
ATOM     19  N   UNL A   1      35.465  21.121  25.918  1.00  0.00    -0.298 N 
ATOM     20  H   UNL A   1      35.125  21.305  26.823  1.00  0.00     0.184 HD
BRANCH  19  21
ATOM     21  N   UNL A   1      36.873  21.142  25.731  1.00  0.00    -0.228 NA
ATOM     22  C   UNL A   1      37.270  20.634  24.406  1.00  0.00     0.130 C 
ATOM     23  C   UNL A   1      37.294  22.552  25.820  1.00  0.00     0.130 C 
ENDBRANCH  19  21
ENDBRANCH  14  19
BRANCH  16  24
ATOM     24  N   UNL A   1      34.446  23.099  23.943  1.00  0.00     0.070 N 
ATOM     25  O   UNL A   1      34.994  23.316  22.851  1.00  0.00    -0.258 OA
ATOM     26  O   UNL A   1      34.457  23.878  24.906  1.00  0.00    -0.258 OA
ENDBRANCH  16  24
ENDBRANCH  11  13
ENDBRANCH   6  11
ENDBRANCH   3   5
ENDBRANCH   2   3
ENDBRANCH   1   2
BRANCH   1  27
ATOM     27  C   UNL A   1      31.541  30.499  25.637  1.00  0.00     0.275 C 
BRANCH  27  28
ATOM     28  O   UNL A   1      32.114  30.548  26.958  1.00  0.00    -0.458 OA
BRANCH  28  29
ATOM     29  C   UNL A   1      32.856  31.647  27.230  1.00  0.00     0.338 C 
ATOM     30  O   UNL A   1      32.472  32.805  27.213  1.00  0.00    -0.246 OA
BRANCH  29  31
ATOM     31  C   UNL A   1      34.246  31.286  27.578  1.00  0.00     0.060 A 
ATOM     32  C   UNL A   1      34.629  29.955  27.725  1.00  0.00     0.016 A 
ATOM     33  C   UNL A   1      35.136  32.299  27.933  1.00  0.00     0.016 A 
ATOM     34  C   UNL A   1      35.816  29.638  28.396  1.00  0.00     0.010 A 
ATOM     35  C   UNL A   1      36.384  31.974  28.476  1.00  0.00     0.010 A 
ATOM     36  C   UNL A   1      36.712  30.644  28.791  1.00  0.00    -0.014 A 
BRANCH  36  37
ATOM     37  C   UNL A   1      37.943  30.336  29.589  1.00  0.00     0.031 A 
ATOM     38  C   UNL A   1      39.049  29.494  28.984  1.00  0.00     0.074 A 
ATOM     39  C   UNL A   1      38.098  30.786  30.852  1.00  0.00     0.049 A 
ATOM     40  N   UNL A   1      40.075  28.929  29.569  1.00  0.00    -0.248 NA
ATOM     41  C   UNL A   1      38.975  29.227  27.536  1.00  0.00     0.031 C 
ATOM     42  C   UNL A   1      37.141  31.614  31.584  1.00  0.00     0.029 A 
ATOM     43  N   UNL A   1      39.126  30.604  31.749  1.00  0.00    -0.354 N 
ATOM     44  C   UNL A   1      40.696  28.155  28.594  1.00  0.00     0.074 A 
ATOM     45  C   UNL A   1      39.949  28.343  27.370  1.00  0.00     0.031 C 
ATOM     46  C   UNL A   1      37.644  31.912  32.792  1.00  0.00     0.029 A 
ATOM     47  C   UNL A   1      38.922  31.227  32.960  1.00  0.00     0.049 A 
ATOM     48  H   UNL A   1      39.933  30.078  31.544  1.00  0.00     0.167 HD
ATOM     49  C   UNL A   1      41.793  27.366  28.699  1.00  0.00     0.034 A 
ATOM     50  C   UNL A   1      39.657  31.230  34.090  1.00  0.00     0.034 A 
ATOM     51  C   UNL A   1      42.623  27.280  29.872  1.00  0.00     0.049 A 
ATOM     52  C   UNL A   1      40.930  30.433  34.148  1.00  0.00     0.074 A 
ATOM     53  C   UNL A   1      43.770  26.529  30.061  1.00  0.00     0.029 A 
ATOM     54  N   UNL A   1      42.426  28.007  31.033  1.00  0.00    -0.354 N 
ATOM     55  N   UNL A   1      41.491  29.706  33.214  1.00  0.00    -0.248 NA
ATOM     56  C   UNL A   1      41.675  30.458  35.417  1.00  0.00     0.031 C 
ATOM     57  C   UNL A   1      44.280  26.820  31.331  1.00  0.00     0.029 A 
ATOM     58  C   UNL A   1      43.445  27.746  31.933  1.00  0.00     0.049 A 
ATOM     59  H   UNL A   1      41.671  28.620  31.195  1.00  0.00     0.167 HD
ATOM     60  C   UNL A   1      42.658  29.200  33.775  1.00  0.00     0.074 A 
ATOM     61  C   UNL A   1      42.743  29.730  35.120  1.00  0.00     0.031 C 
ATOM     62  C   UNL A   1      43.559  28.342  33.238  1.00  0.00     0.034 A 
BRANCH  49  63
ATOM     63  C   UNL A   1      42.196  26.555  27.495  1.00  0.00     0.023 A 
ATOM     64  C   UNL A   1      42.927  27.164  26.457  1.00  0.00     0.012 A 
ATOM     65  C   UNL A   1      41.911  25.177  27.425  1.00  0.00     0.148 A 
ATOM     66  C   UNL A   1      43.348  26.418  25.356  1.00  0.00     0.002 A 
ATOM     67  C   UNL A   1      42.365  24.432  26.342  1.00  0.00     0.091 A 
ATOM     68  F   UNL A   1      41.191  24.619  28.409  1.00  0.00    -0.205 F 
ATOM     69  C   UNL A   1      43.077  25.052  25.303  1.00  0.00     0.022 A 
BRANCH  67  70
ATOM     70  S   UNL A   1      42.122  22.655  26.242  1.00  0.00     0.127 S 
ATOM     71  O   UNL A   1      42.731  22.342  24.950  1.00  0.00    -0.237 OA
ATOM     72  O   UNL A   1      42.871  22.165  27.401  1.00  0.00    -0.237 OA
ATOM     73  O   UNL A   1      40.682  22.453  26.332  1.00  0.00    -0.744 OA
ENDBRANCH  67  70
ENDBRANCH  49  63
BRANCH  50  74
ATOM     74  C   UNL A   1      39.225  32.064  35.248  1.00  0.00     0.023 A 
ATOM     75  C   UNL A   1      38.394  31.491  36.231  1.00  0.00     0.012 A 
ATOM     76  C   UNL A   1      39.670  33.388  35.416  1.00  0.00     0.148 A 
ATOM     77  C   UNL A   1      38.006  32.226  37.352  1.00  0.00     0.002 A 
ATOM     78  C   UNL A   1      39.331  34.093  36.566  1.00  0.00     0.091 A 
ATOM     79  F   UNL A   1      40.433  33.933  34.459  1.00  0.00    -0.205 F 
ATOM     80  C   UNL A   1      38.488  33.520  37.529  1.00  0.00     0.022 A 
BRANCH  78  81
ATOM     81  S   UNL A   1      40.058  35.698  36.922  1.00  0.00     0.127 S 
ATOM     82  O   UNL A   1      39.615  36.492  35.780  1.00  0.00    -0.237 OA
ATOM     83  O   UNL A   1      39.434  36.053  38.198  1.00  0.00    -0.237 OA
ATOM     84  O   UNL A   1      41.490  35.444  37.017  1.00  0.00    -0.744 OA
ENDBRANCH  78  81
ENDBRANCH  50  74
BRANCH  62  85
ATOM     85  C   UNL A   1      44.730  27.936  34.089  1.00  0.00     0.023 A 
ATOM     86  C   UNL A   1      45.894  28.729  34.081  1.00  0.00     0.012 A 
ATOM     87  C   UNL A   1      44.659  26.819  34.942  1.00  0.00     0.148 A 
ATOM     88  C   UNL A   1      46.978  28.404  34.895  1.00  0.00     0.002 A 
ATOM     89  C   UNL A   1      45.733  26.519  35.774  1.00  0.00     0.091 A 
ATOM     90  F   UNL A   1      43.554  26.058  34.918  1.00  0.00    -0.205 F 
ATOM     91  C   UNL A   1      46.895  27.307  35.749  1.00  0.00     0.022 A 
BRANCH  89  92
ATOM     92  S   UNL A   1      45.655  25.160  36.947  1.00  0.00     0.127 S 
ATOM     93  O   UNL A   1      46.882  25.354  37.716  1.00  0.00    -0.237 OA
ATOM     94  O   UNL A   1      44.424  25.441  37.687  1.00  0.00    -0.237 OA
ATOM     95  O   UNL A   1      45.595  23.954  36.131  1.00  0.00    -0.744 OA
ENDBRANCH  89  92
ENDBRANCH  62  85
ENDBRANCH  36  37
ENDBRANCH  29  31
ENDBRANCH  28  29
ENDBRANCH  27  28
ENDBRANCH   1  27
TORSDOF 19
ENDMDL
MODEL 2
REMARK VINA RESULT:     -10.9      4.647      7.808
REMARK SMILES CN(C)Nc1ncnc(Nc2ccc(C(=O)OCCOC(=O)c3ccc(-c4c5nc(c(-c6cccc(S(=O)(=O)[O-])c6F)c6ccc([nH]6)c(-c6cccc(S(=O)(=O)[O-])c6F)c6nc(c(-c7cccc(S(=O)(=O)[O-])c7F)c7ccc4[nH]7)C=C6)C=C5)cc3)cc2)c1[N+](=O)[O-]
REMARK SMILES IDX 18 1 17 2 15 3 16 4 14 5 11 6 12 7 87 8 13 9 86 10 10 11
REMARK SMILES IDX 9 13 5 14 6 15 88 16 7 17 8 18 4 19 2 21 1 22 3 23 89 24
REMARK SMILES IDX 90 25 91 26 19 27 20 28 21 29 22 30 23 31 24 32 85 33 25 34
REMARK SMILES IDX 84 35 26 36 27 37 28 38 78 39 29 40 83 41 77 42 79 43 30 44
REMARK SMILES IDX 82 45 76 46 75 47 31 49 63 50 43 51 62 52 44 53 47 54 61 55
REMARK SMILES IDX 80 56 45 57 46 58 60 60 81 61 48 62 32 63 33 64 41 65 34 66
REMARK SMILES IDX 36 67 42 68 35 69 37 70 38 71 39 72 40 73 64 74 65 75 73 76
REMARK SMILES IDX 66 77 68 78 74 79 67 80 69 81 70 82 71 83 72 84 49 85 50 86
REMARK SMILES IDX 58 87 51 88 53 89 59 90 52 91 54 92 55 93 56 94 57 95
REMARK H PARENT 10 12 4 20 79 48 47 59
REMARK Flexibility Score: inf
ROOT
ATOM      1  C   UNL A   1      36.193  19.430  25.133  1.00  0.00     0.275 C 
ENDROOT
BRANCH   1   2
ATOM      2  O   UNL A   1      34.946  19.966  24.647  1.00  0.00    -0.458 OA
BRANCH   2   3
ATOM      3  C   UNL A   1      34.411  20.927  25.438  1.00  0.00     0.338 C 
ATOM      4  O   UNL A   1      34.235  20.873  26.643  1.00  0.00    -0.246 OA
BRANCH   3   5
ATOM      5  C   UNL A   1      34.064  22.124  24.652  1.00  0.00     0.060 A 
ATOM      6  C   UNL A   1      32.897  24.326  23.371  1.00  0.00     0.040 A 
ATOM      7  C   UNL A   1      33.373  24.444  24.676  1.00  0.00     0.027 A 
ATOM      8  C   UNL A   1      33.092  23.112  22.689  1.00  0.00     0.027 A 
ATOM      9  C   UNL A   1      33.937  23.346  25.317  1.00  0.00     0.018 A 
ATOM     10  C   UNL A   1      33.684  22.012  23.319  1.00  0.00     0.018 A 
BRANCH   6  11
ATOM     11  N   UNL A   1      32.089  25.360  22.866  1.00  0.00    -0.334 N 
ATOM     12  H   UNL A   1      31.254  25.085  22.423  1.00  0.00     0.168 HD
BRANCH  11  13
ATOM     13  C   UNL A   1      32.337  26.743  22.925  1.00  0.00     0.215 A 
ATOM     14  C   UNL A   1      31.948  28.921  23.783  1.00  0.00     0.225 A 
ATOM     15  N   UNL A   1      33.065  29.379  23.178  1.00  0.00    -0.212 NA
ATOM     16  C   UNL A   1      31.505  27.627  23.589  1.00  0.00     0.354 A 
ATOM     17  C   UNL A   1      33.766  28.495  22.469  1.00  0.00     0.227 A 
ATOM     18  N   UNL A   1      33.481  27.197  22.362  1.00  0.00    -0.212 NA
BRANCH  14  19
ATOM     19  N   UNL A   1      31.431  29.837  24.703  1.00  0.00    -0.298 N 
ATOM     20  H   UNL A   1      30.539  30.211  24.519  1.00  0.00     0.184 HD
BRANCH  19  21
ATOM     21  N   UNL A   1      32.091  30.273  25.883  1.00  0.00    -0.228 NA
ATOM     22  C   UNL A   1      31.513  31.517  26.422  1.00  0.00     0.130 C 
ATOM     23  C   UNL A   1      31.903  29.214  26.892  1.00  0.00     0.130 C 
ENDBRANCH  19  21
ENDBRANCH  14  19
BRANCH  16  24
ATOM     24  N   UNL A   1      30.169  27.251  23.950  1.00  0.00     0.070 N 
ATOM     25  O   UNL A   1      29.237  27.879  23.425  1.00  0.00    -0.258 OA
ATOM     26  O   UNL A   1      30.035  26.403  24.843  1.00  0.00    -0.258 OA
ENDBRANCH  16  24
ENDBRANCH  11  13
ENDBRANCH   6  11
ENDBRANCH   3   5
ENDBRANCH   2   3
ENDBRANCH   1   2
BRANCH   1  27
ATOM     27  C   UNL A   1      37.386  20.084  24.436  1.00  0.00     0.275 C 
BRANCH  27  28
ATOM     28  O   UNL A   1      37.794  21.272  25.142  1.00  0.00    -0.458 OA
BRANCH  28  29
ATOM     29  C   UNL A   1      38.960  21.172  25.822  1.00  0.00     0.338 C 
ATOM     30  O   UNL A   1      39.689  20.195  25.876  1.00  0.00    -0.246 OA
BRANCH  29  31
ATOM     31  C   UNL A   1      39.285  22.434  26.521  1.00  0.00     0.060 A 
ATOM     32  C   UNL A   1      38.534  23.587  26.310  1.00  0.00     0.016 A 
ATOM     33  C   UNL A   1      40.462  22.507  27.264  1.00  0.00     0.016 A 
ATOM     34  C   UNL A   1      39.051  24.835  26.676  1.00  0.00     0.010 A 
ATOM     35  C   UNL A   1      40.905  23.742  27.751  1.00  0.00     0.010 A 
ATOM     36  C   UNL A   1      40.252  24.936  27.398  1.00  0.00    -0.014 A 
BRANCH  36  37
ATOM     37  C   UNL A   1      40.870  26.263  27.722  1.00  0.00     0.031 A 
ATOM     38  C   UNL A   1      42.258  26.599  27.214  1.00  0.00     0.074 A 
ATOM     39  C   UNL A   1      40.221  27.180  28.470  1.00  0.00     0.049 A 
ATOM     40  N   UNL A   1      43.053  27.579  27.563  1.00  0.00    -0.248 NA
ATOM     41  C   UNL A   1      42.839  25.698  26.202  1.00  0.00     0.031 C 
ATOM     42  C   UNL A   1      38.879  27.027  29.031  1.00  0.00     0.029 A 
ATOM     43  N   UNL A   1      40.611  28.431  28.891  1.00  0.00    -0.354 N 
ATOM     44  C   UNL A   1      44.259  27.347  26.906  1.00  0.00     0.074 A 
ATOM     45  C   UNL A   1      44.083  26.149  26.115  1.00  0.00     0.031 C 
ATOM     46  C   UNL A   1      38.536  28.153  29.675  1.00  0.00     0.029 A 
ATOM     47  C   UNL A   1      39.663  29.080  29.651  1.00  0.00     0.049 A 
ATOM     48  H   UNL A   1      41.485  28.826  28.669  1.00  0.00     0.167 HD
ATOM     49  C   UNL A   1      45.406  28.068  26.947  1.00  0.00     0.034 A 
ATOM     50  C   UNL A   1      39.698  30.271  30.282  1.00  0.00     0.034 A 
ATOM     51  C   UNL A   1      45.547  29.333  27.620  1.00  0.00     0.049 A 
ATOM     52  C   UNL A   1      40.946  31.105  30.224  1.00  0.00     0.074 A 
ATOM     53  C   UNL A   1      46.664  30.149  27.692  1.00  0.00     0.029 A 
ATOM     54  N   UNL A   1      44.529  29.989  28.288  1.00  0.00    -0.354 N 
ATOM     55  N   UNL A   1      42.073  30.861  29.601  1.00  0.00    -0.248 NA
ATOM     56  C   UNL A   1      40.929  32.383  30.953  1.00  0.00     0.031 C 
ATOM     57  C   UNL A   1      46.312  31.311  28.387  1.00  0.00     0.029 A 
ATOM     58  C   UNL A   1      44.980  31.213  28.752  1.00  0.00     0.049 A 
ATOM     59  H   UNL A   1      43.618  29.637  28.416  1.00  0.00     0.167 HD
ATOM     60  C   UNL A   1      42.891  31.957  29.851  1.00  0.00     0.074 A 
ATOM     61  C   UNL A   1      42.120  32.884  30.654  1.00  0.00     0.031 C 
ATOM     62  C   UNL A   1      44.178  32.160  29.481  1.00  0.00     0.034 A 
BRANCH  49  63
ATOM     63  C   UNL A   1      46.602  27.531  26.207  1.00  0.00     0.023 A 
ATOM     64  C   UNL A   1      46.749  27.799  24.832  1.00  0.00     0.012 A 
ATOM     65  C   UNL A   1      47.612  26.822  26.885  1.00  0.00     0.148 A 
ATOM     66  C   UNL A   1      47.872  27.348  24.139  1.00  0.00     0.002 A 
ATOM     67  C   UNL A   1      48.747  26.407  26.196  1.00  0.00     0.091 A 
ATOM     68  F   UNL A   1      47.444  26.552  28.188  1.00  0.00    -0.205 F 
ATOM     69  C   UNL A   1      48.875  26.663  24.822  1.00  0.00     0.022 A 
BRANCH  67  70
ATOM     70  S   UNL A   1      50.116  25.588  27.023  1.00  0.00     0.127 S 
ATOM     71  O   UNL A   1      50.454  26.554  28.068  1.00  0.00    -0.237 OA
ATOM     72  O   UNL A   1      49.500  24.354  27.513  1.00  0.00    -0.237 OA
ATOM     73  O   UNL A   1      51.127  25.385  25.995  1.00  0.00    -0.744 OA
ENDBRANCH  67  70
ENDBRANCH  49  63
BRANCH  50  74
ATOM     74  C   UNL A   1      38.480  30.766  30.988  1.00  0.00     0.023 A 
ATOM     75  C   UNL A   1      38.401  30.637  32.388  1.00  0.00     0.012 A 
ATOM     76  C   UNL A   1      37.435  31.411  30.300  1.00  0.00     0.148 A 
ATOM     77  C   UNL A   1      37.299  31.130  33.087  1.00  0.00     0.002 A 
ATOM     78  C   UNL A   1      36.370  31.955  31.010  1.00  0.00     0.091 A 
ATOM     79  F   UNL A   1      37.506  31.498  28.964  1.00  0.00    -0.205 F 
ATOM     80  C   UNL A   1      36.292  31.804  32.401  1.00  0.00     0.022 A 
BRANCH  78  81
ATOM     81  S   UNL A   1      35.134  32.974  30.195  1.00  0.00     0.127 S 
ATOM     82  O   UNL A   1      34.310  33.409  31.318  1.00  0.00    -0.237 OA
ATOM     83  O   UNL A   1      35.945  34.028  29.582  1.00  0.00    -0.237 OA
ATOM     84  O   UNL A   1      34.497  32.085  29.231  1.00  0.00    -0.744 OA
ENDBRANCH  78  81
ENDBRANCH  50  74
BRANCH  62  85
ATOM     85  C   UNL A   1      44.835  33.441  29.917  1.00  0.00     0.023 A 
ATOM     86  C   UNL A   1      45.553  33.469  31.128  1.00  0.00     0.012 A 
ATOM     87  C   UNL A   1      44.801  34.591  29.105  1.00  0.00     0.148 A 
ATOM     88  C   UNL A   1      46.211  34.629  31.535  1.00  0.00     0.002 A 
ATOM     89  C   UNL A   1      45.486  35.734  29.503  1.00  0.00     0.091 A 
ATOM     90  F   UNL A   1      44.091  34.556  27.967  1.00  0.00    -0.205 F 
ATOM     91  C   UNL A   1      46.187  35.757  30.719  1.00  0.00     0.022 A 
BRANCH  89  92
ATOM     92  S   UNL A   1      45.551  37.195  28.459  1.00  0.00     0.127 S 
ATOM     93  O   UNL A   1      46.386  38.095  29.251  1.00  0.00    -0.237 OA
ATOM     94  O   UNL A   1      46.186  36.693  27.239  1.00  0.00    -0.237 OA
ATOM     95  O   UNL A   1      44.162  37.600  28.281  1.00  0.00    -0.744 OA
ENDBRANCH  89  92
ENDBRANCH  62  85
ENDBRANCH  36  37
ENDBRANCH  29  31
ENDBRANCH  28  29
ENDBRANCH  27  28
ENDBRANCH   1  27
TORSDOF 19
ENDMDL
MODEL 3
REMARK VINA RESULT:     -10.8      2.141      3.006
REMARK SMILES CN(C)Nc1ncnc(Nc2ccc(C(=O)OCCOC(=O)c3ccc(-c4c5nc(c(-c6cccc(S(=O)(=O)[O-])c6F)c6ccc([nH]6)c(-c6cccc(S(=O)(=O)[O-])c6F)c6nc(c(-c7cccc(S(=O)(=O)[O-])c7F)c7ccc4[nH]7)C=C6)C=C5)cc3)cc2)c1[N+](=O)[O-]
REMARK SMILES IDX 18 1 17 2 15 3 16 4 14 5 11 6 12 7 87 8 13 9 86 10 10 11
REMARK SMILES IDX 9 13 5 14 6 15 88 16 7 17 8 18 4 19 2 21 1 22 3 23 89 24
REMARK SMILES IDX 90 25 91 26 19 27 20 28 21 29 22 30 23 31 24 32 85 33 25 34
REMARK SMILES IDX 84 35 26 36 27 37 28 38 78 39 29 40 83 41 77 42 79 43 30 44
REMARK SMILES IDX 82 45 76 46 75 47 31 49 63 50 43 51 62 52 44 53 47 54 61 55
REMARK SMILES IDX 80 56 45 57 46 58 60 60 81 61 48 62 32 63 33 64 41 65 34 66
REMARK SMILES IDX 36 67 42 68 35 69 37 70 38 71 39 72 40 73 64 74 65 75 73 76
REMARK SMILES IDX 66 77 68 78 74 79 67 80 69 81 70 82 71 83 72 84 49 85 50 86
REMARK SMILES IDX 58 87 51 88 53 89 59 90 52 91 54 92 55 93 56 94 57 95
REMARK H PARENT 10 12 4 20 79 48 47 59
REMARK Flexibility Score: inf
ROOT
ATOM      1  C   UNL A   1      31.415  28.898  25.848  1.00  0.00     0.275 C 
ENDROOT
BRANCH   1   2
ATOM      2  O   UNL A   1      32.440  27.921  25.580  1.00  0.00    -0.458 OA
BRANCH   2   3
ATOM      3  C   UNL A   1      32.160  26.682  26.048  1.00  0.00     0.338 C 
ATOM      4  O   UNL A   1      31.271  26.372  26.823  1.00  0.00    -0.246 OA
BRANCH   3   5
ATOM      5  C   UNL A   1      33.077  25.681  25.475  1.00  0.00     0.060 A 
ATOM      6  C   UNL A   1      35.203  24.029  24.699  1.00  0.00     0.040 A 
ATOM      7  C   UNL A   1      34.491  23.756  25.868  1.00  0.00     0.027 A 
ATOM      8  C   UNL A   1      34.777  25.090  23.883  1.00  0.00     0.027 A 
ATOM      9  C   UNL A   1      33.447  24.587  26.260  1.00  0.00     0.018 A 
ATOM     10  C   UNL A   1      33.710  25.913  24.258  1.00  0.00     0.018 A 
BRANCH   6  11
ATOM     11  N   UNL A   1      36.413  23.345  24.489  1.00  0.00    -0.334 N 
ATOM     12  H   UNL A   1      36.549  22.964  23.591  1.00  0.00     0.168 HD
BRANCH  11  13
ATOM     13  C   UNL A   1      37.453  23.144  25.415  1.00  0.00     0.215 A 
ATOM     14  C   UNL A   1      39.163  21.838  26.415  1.00  0.00     0.225 A 
ATOM     15  N   UNL A   1      39.641  22.925  27.059  1.00  0.00    -0.212 NA
ATOM     16  C   UNL A   1      38.006  21.901  25.665  1.00  0.00     0.354 A 
ATOM     17  C   UNL A   1      38.998  24.074  26.853  1.00  0.00     0.227 A 
ATOM     18  N   UNL A   1      37.967  24.238  26.025  1.00  0.00    -0.212 NA
BRANCH  14  19
ATOM     19  N   UNL A   1      40.043  20.755  26.481  1.00  0.00    -0.298 N 
ATOM     20  H   UNL A   1      39.833  20.039  27.123  1.00  0.00     0.184 HD
BRANCH  19  21
ATOM     21  N   UNL A   1      41.217  20.604  25.695  1.00  0.00    -0.228 NA
ATOM     22  C   UNL A   1      42.087  21.793  25.752  1.00  0.00     0.130 C 
ATOM     23  C   UNL A   1      41.967  19.469  26.263  1.00  0.00     0.130 C 
ENDBRANCH  19  21
ENDBRANCH  14  19
BRANCH  16  24
ATOM     24  N   UNL A   1      37.327  20.701  25.268  1.00  0.00     0.070 N 
ATOM     25  O   UNL A   1      37.990  19.841  24.667  1.00  0.00    -0.258 OA
ATOM     26  O   UNL A   1      36.103  20.650  25.449  1.00  0.00    -0.258 OA
ENDBRANCH  16  24
ENDBRANCH  11  13
ENDBRANCH   6  11
ENDBRANCH   3   5
ENDBRANCH   2   3
ENDBRANCH   1   2
BRANCH   1  27
ATOM     27  C   UNL A   1      32.011  30.296  26.008  1.00  0.00     0.275 C 
BRANCH  27  28
ATOM     28  O   UNL A   1      33.402  30.213  26.371  1.00  0.00    -0.458 OA
BRANCH  28  29
ATOM     29  C   UNL A   1      33.842  31.175  27.217  1.00  0.00     0.338 C 
ATOM     30  O   UNL A   1      33.239  32.184  27.546  1.00  0.00    -0.246 OA
BRANCH  29  31
ATOM     31  C   UNL A   1      35.189  30.860  27.736  1.00  0.00     0.060 A 
ATOM     32  C   UNL A   1      35.549  29.555  28.059  1.00  0.00     0.016 A 
ATOM     33  C   UNL A   1      36.044  31.910  28.069  1.00  0.00     0.016 A 
ATOM     34  C   UNL A   1      36.663  29.317  28.874  1.00  0.00     0.010 A 
ATOM     35  C   UNL A   1      37.231  31.652  28.764  1.00  0.00     0.010 A 
ATOM     36  C   UNL A   1      37.520  30.364  29.248  1.00  0.00    -0.014 A 
BRANCH  36  37
ATOM     37  C   UNL A   1      38.665  30.148  30.191  1.00  0.00     0.031 A 
ATOM     38  C   UNL A   1      39.847  29.299  29.769  1.00  0.00     0.074 A 
ATOM     39  C   UNL A   1      38.674  30.690  31.428  1.00  0.00     0.049 A 
ATOM     40  N   UNL A   1      40.817  28.807  30.499  1.00  0.00    -0.248 NA
ATOM     41  C   UNL A   1      39.935  28.929  28.345  1.00  0.00     0.031 C 
ATOM     42  C   UNL A   1      37.626  31.540  31.992  1.00  0.00     0.029 A 
ATOM     43  N   UNL A   1      39.603  30.602  32.438  1.00  0.00    -0.354 N 
ATOM     44  C   UNL A   1      41.555  27.984  29.653  1.00  0.00     0.074 A 
ATOM     45  C   UNL A   1      40.939  28.064  28.347  1.00  0.00     0.031 C 
ATOM     46  C   UNL A   1      37.990  31.937  33.221  1.00  0.00     0.029 A 
ATOM     47  C   UNL A   1      39.257  31.303  33.572  1.00  0.00     0.049 A 
ATOM     48  H   UNL A   1      40.439  30.087  32.359  1.00  0.00     0.167 HD
ATOM     49  C   UNL A   1      42.651  27.237  29.931  1.00  0.00     0.034 A 
ATOM     50  C   UNL A   1      39.867  31.406  34.770  1.00  0.00     0.034 A 
ATOM     51  C   UNL A   1      43.352  27.258  31.188  1.00  0.00     0.049 A 
ATOM     52  C   UNL A   1      41.143  30.652  35.021  1.00  0.00     0.074 A 
ATOM     53  C   UNL A   1      44.488  26.555  31.552  1.00  0.00     0.029 A 
ATOM     54  N   UNL A   1      43.016  28.059  32.265  1.00  0.00    -0.354 N 
ATOM     55  N   UNL A   1      41.817  29.878  34.206  1.00  0.00    -0.248 NA
ATOM     56  C   UNL A   1      41.747  30.789  36.356  1.00  0.00     0.031 C 
ATOM     57  C   UNL A   1      44.852  26.950  32.844  1.00  0.00     0.029 A 
ATOM     58  C   UNL A   1      43.938  27.891  33.284  1.00  0.00     0.049 A 
ATOM     59  H   UNL A   1      42.235  28.659  32.302  1.00  0.00     0.167 HD
ATOM     60  C   UNL A   1      42.927  29.447  34.923  1.00  0.00     0.074 A 
ATOM     61  C   UNL A   1      42.856  30.073  36.227  1.00  0.00     0.031 C 
ATOM     62  C   UNL A   1      43.899  28.580  34.547  1.00  0.00     0.034 A 
BRANCH  49  63
ATOM     63  C   UNL A   1      43.198  26.356  28.839  1.00  0.00     0.023 A 
ATOM     64  C   UNL A   1      42.744  25.028  28.721  1.00  0.00     0.012 A 
ATOM     65  C   UNL A   1      44.107  26.863  27.889  1.00  0.00     0.148 A 
ATOM     66  C   UNL A   1      43.205  24.211  27.689  1.00  0.00     0.002 A 
ATOM     67  C   UNL A   1      44.534  26.053  26.842  1.00  0.00     0.091 A 
ATOM     68  F   UNL A   1      44.549  28.120  28.031  1.00  0.00    -0.205 F 
ATOM     69  C   UNL A   1      44.090  24.726  26.744  1.00  0.00     0.022 A 
BRANCH  67  70
ATOM     70  S   UNL A   1      45.612  26.670  25.543  1.00  0.00     0.127 S 
ATOM     71  O   UNL A   1      45.658  25.532  24.627  1.00  0.00    -0.237 OA
ATOM     72  O   UNL A   1      44.873  27.828  25.038  1.00  0.00    -0.237 OA
ATOM     73  O   UNL A   1      46.866  27.004  26.205  1.00  0.00    -0.744 OA
ENDBRANCH  67  70
ENDBRANCH  49  63
BRANCH  50  74
ATOM     74  C   UNL A   1      39.295  32.307  35.813  1.00  0.00     0.023 A 
ATOM     75  C   UNL A   1      38.326  31.797  36.699  1.00  0.00     0.012 A 
ATOM     76  C   UNL A   1      39.738  33.633  35.972  1.00  0.00     0.148 A 
ATOM     77  C   UNL A   1      37.802  32.596  37.717  1.00  0.00     0.002 A 
ATOM     78  C   UNL A   1      39.257  34.402  37.026  1.00  0.00     0.091 A 
ATOM     79  F   UNL A   1      40.636  34.116  35.102  1.00  0.00    -0.205 F 
ATOM     80  C   UNL A   1      38.279  33.892  37.891  1.00  0.00     0.022 A 
BRANCH  78  81
ATOM     81  S   UNL A   1      39.959  36.016  37.395  1.00  0.00     0.127 S 
ATOM     82  O   UNL A   1      39.200  36.414  38.576  1.00  0.00    -0.237 OA
ATOM     83  O   UNL A   1      41.367  35.700  37.645  1.00  0.00    -0.237 OA
ATOM     84  O   UNL A   1      39.737  36.802  36.187  1.00  0.00    -0.744 OA
ENDBRANCH  78  81
ENDBRANCH  50  74
BRANCH  62  85
ATOM     85  C   UNL A   1      44.980  28.270  35.545  1.00  0.00     0.023 A 
ATOM     86  C   UNL A   1      46.210  28.951  35.461  1.00  0.00     0.012 A 
ATOM     87  C   UNL A   1      44.762  27.361  36.598  1.00  0.00     0.148 A 
ATOM     88  C   UNL A   1      47.214  28.719  36.400  1.00  0.00     0.002 A 
ATOM     89  C   UNL A   1      45.758  27.157  37.547  1.00  0.00     0.091 A 
ATOM     90  F   UNL A   1      43.596  26.700  36.648  1.00  0.00    -0.205 F 
ATOM     91  C   UNL A   1      46.986  27.831  37.448  1.00  0.00     0.022 A 
BRANCH  89  92
ATOM     92  S   UNL A   1      45.494  26.079  38.961  1.00  0.00     0.127 S 
ATOM     93  O   UNL A   1      44.342  26.705  39.606  1.00  0.00    -0.237 OA
ATOM     94  O   UNL A   1      45.211  24.787  38.334  1.00  0.00    -0.237 OA
ATOM     95  O   UNL A   1      46.744  26.116  39.708  1.00  0.00    -0.744 OA
ENDBRANCH  89  92
ENDBRANCH  62  85
ENDBRANCH  36  37
ENDBRANCH  29  31
ENDBRANCH  28  29
ENDBRANCH  27  28
ENDBRANCH   1  27
TORSDOF 19
ENDMDL
