MODEL 1
REMARK VINA RESULT:     -11.6      0.000      0.000
REMARK SMILES Cc1noc(C)c1[C@H](C)NC(=O)NC[C@@](C)(O)C(=O)OCCOC(=O)c1ccc(-c2c3nc(c(-c4cccc(S(=O)(=O)[O-])c4F)c4ccc([nH]4)c(-c4cccc(S(=O)(=O)[O-])c4F)c4nc(c(-c5cccc(S(=O)(=O)[O-])c5F)c5ccc2[nH]5)C=C4)C=C3)cc1
REMARK SMILES IDX 21 1 20 2 18 3 19 4 15 5 16 6 14 7 13 8 10 9 11 10 12 12
REMARK SMILES IDX 8 14 9 15 7 16 1 17 2 18 3 19 4 20 5 21 6 22 17 23 22 25
REMARK SMILES IDX 23 26 24 27 25 28 26 29 27 30 88 31 28 32 87 33 29 34 30 35
REMARK SMILES IDX 31 36 81 37 32 38 86 39 80 40 82 41 33 42 85 43 79 44 78 45
REMARK SMILES IDX 34 47 66 48 46 49 65 50 47 51 50 52 64 53 83 54 48 55 49 56
REMARK SMILES IDX 63 58 84 59 51 60 35 61 36 62 44 63 37 64 39 65 45 66 38 67
REMARK SMILES IDX 40 68 41 69 42 70 43 71 67 72 68 73 76 74 69 75 71 76 77 77
REMARK SMILES IDX 70 78 72 79 73 80 74 81 75 82 52 83 53 84 61 85 54 86 56 87
REMARK SMILES IDX 62 88 55 89 57 90 58 91 59 92 60 93
REMARK H PARENT 10 11 13 13 17 24 82 46 50 57
REMARK Flexibility Score: inf
ROOT
ATOM      1  C   UNL A   1      36.999  22.215  23.971  1.00  0.00     0.274 C 
ENDROOT
BRANCH   1   2
ATOM      2  O   UNL A   1      35.572  22.381  24.134  1.00  0.00    -0.460 OA
BRANCH   2   3
ATOM      3  C   UNL A   1      35.129  22.881  25.335  1.00  0.00     0.339 C 
ATOM      4  O   UNL A   1      35.401  23.998  25.750  1.00  0.00    -0.249 OA
BRANCH   3   5
ATOM      5  C   UNL A   1      34.267  21.817  26.074  1.00  0.00     0.176 C 
ATOM      6  C   UNL A   1      33.081  22.613  26.629  1.00  0.00     0.057 C 
BRANCH   5   7
ATOM      7  C   UNL A   1      33.753  20.630  25.196  1.00  0.00     0.164 C 
BRANCH   7   8
ATOM      8  N   UNL A   1      32.760  20.898  24.155  1.00  0.00    -0.335 N 
ATOM      9  N   UNL A   1      32.572  23.147  23.088  1.00  0.00    -0.331 N 
ATOM     10  C   UNL A   1      32.442  21.770  23.208  1.00  0.00     0.315 C 
ATOM     11  H   UNL A   1      32.458  23.264  22.118  1.00  0.00     0.165 HD
ATOM     12  O   UNL A   1      31.813  21.245  22.274  1.00  0.00    -0.249 OA
ATOM     13  H   UNL A   1      32.092  20.173  24.157  1.00  0.00     0.165 HD
BRANCH   9  14
ATOM     14  C   UNL A   1      32.861  25.128  23.701  1.00  0.00     0.116 C 
ATOM     15  C   UNL A   1      33.394  26.434  22.680  1.00  0.00     0.036 C 
BRANCH  14  16
ATOM     16  C   UNL A   1      32.349  25.976  25.273  1.00  0.00     0.040 A 
ATOM     17  C   UNL A   1      34.010  28.095  26.225  1.00  0.00     0.071 C 
ATOM     18  C   UNL A   1      32.805  27.218  26.037  1.00  0.00     0.086 A 
ATOM     19  N   UNL A   1      31.856  27.637  26.878  1.00  0.00    -0.085 NA
ATOM     20  O   UNL A   1      30.872  26.739  26.843  1.00  0.00    -0.361 OA
ATOM     21  C   UNL A   1      31.138  25.736  25.978  1.00  0.00     0.139 A 
ATOM     22  C   UNL A   1      30.023  24.765  26.079  1.00  0.00     0.091 C 
ENDBRANCH  14  16
ENDBRANCH   9  14
ENDBRANCH   7   8
ENDBRANCH   5   7
BRANCH   5  23
ATOM     23  O   UNL A   1      34.897  21.258  27.240  1.00  0.00    -0.377 OA
ATOM     24  H   UNL A   1      34.631  20.330  27.337  1.00  0.00     0.212 HD
ENDBRANCH   5  23
ENDBRANCH   3   5
ENDBRANCH   2   3
ENDBRANCH   1   2
BRANCH   1  25
ATOM     25  C   UNL A   1      37.414  20.820  24.436  1.00  0.00     0.275 C 
BRANCH  25  26
ATOM     26  O   UNL A   1      37.783  20.925  25.817  1.00  0.00    -0.458 OA
BRANCH  26  27
ATOM     27  C   UNL A   1      39.096  21.088  26.010  1.00  0.00     0.338 C 
ATOM     28  O   UNL A   1      39.997  20.446  25.486  1.00  0.00    -0.246 OA
BRANCH  27  29
ATOM     29  C   UNL A   1      39.424  22.219  26.880  1.00  0.00     0.060 A 
ATOM     30  C   UNL A   1      38.764  23.802  26.228  1.00  0.00     0.016 A 
ATOM     31  C   UNL A   1      40.821  22.284  28.053  1.00  0.00     0.016 A 
ATOM     32  C   UNL A   1      39.459  25.373  26.792  1.00  0.00     0.010 A 
ATOM     33  C   UNL A   1      41.644  23.860  28.429  1.00  0.00     0.010 A 
ATOM     34  C   UNL A   1      40.937  25.400  27.822  1.00  0.00    -0.014 A 
BRANCH  34  35
ATOM     35  C   UNL A   1      41.450  26.721  28.293  1.00  0.00     0.031 A 
ATOM     36  C   UNL A   1      42.890  27.089  28.094  1.00  0.00     0.074 A 
ATOM     37  C   UNL A   1      40.650  27.619  28.894  1.00  0.00     0.049 A 
ATOM     38  N   UNL A   1      43.461  28.255  27.978  1.00  0.00    -0.248 NA
ATOM     39  C   UNL A   1      43.816  25.966  27.966  1.00  0.00     0.031 C 
ATOM     40  C   UNL A   1      39.261  27.409  29.273  1.00  0.00     0.029 A 
ATOM     41  N   UNL A   1      40.922  28.892  29.330  1.00  0.00    -0.354 N 
ATOM     42  C   UNL A   1      44.784  27.993  27.632  1.00  0.00     0.074 A 
ATOM     43  C   UNL A   1      44.932  26.558  27.564  1.00  0.00     0.031 C 
ATOM     44  C   UNL A   1      38.810  28.486  29.935  1.00  0.00     0.029 A 
ATOM     45  C   UNL A   1      39.874  29.478  30.000  1.00  0.00     0.049 A 
ATOM     46  H   UNL A   1      41.783  29.343  29.178  1.00  0.00     0.167 HD
ATOM     47  C   UNL A   1      45.794  28.869  27.422  1.00  0.00     0.034 A 
ATOM     48  C   UNL A   1      39.784  30.680  30.596  1.00  0.00     0.034 A 
ATOM     49  C   UNL A   1      45.706  30.256  27.787  1.00  0.00     0.049 A 
ATOM     50  C   UNL A   1      40.932  31.637  30.449  1.00  0.00     0.074 A 
ATOM     51  C   UNL A   1      46.665  31.246  27.681  1.00  0.00     0.029 A 
ATOM     52  N   UNL A   1      44.617  30.818  28.439  1.00  0.00    -0.354 N 
ATOM     53  N   UNL A   1      42.085  31.456  29.846  1.00  0.00    -0.248 NA
ATOM     54  C   UNL A   1      40.745  32.983  31.001  1.00  0.00     0.031 C 
ATOM     55  C   UNL A   1      46.178  32.387  28.332  1.00  0.00     0.029 A 
ATOM     56  C   UNL A   1      44.892  32.128  28.780  1.00  0.00     0.049 A 
ATOM     57  H   UNL A   1      43.771  30.352  28.628  1.00  0.00     0.167 HD
ATOM     58  C   UNL A   1      42.747  32.675  29.916  1.00  0.00     0.074 A 
ATOM     59  C   UNL A   1      41.852  33.591  30.598  1.00  0.00     0.031 C 
ATOM     60  C   UNL A   1      43.980  33.013  29.461  1.00  0.00     0.034 A 
BRANCH  47  61
ATOM     61  C   UNL A   1      47.069  28.348  26.808  1.00  0.00     0.023 A 
ATOM     62  C   UNL A   1      48.144  28.010  27.658  1.00  0.00     0.012 A 
ATOM     63  C   UNL A   1      47.194  28.126  25.424  1.00  0.00     0.148 A 
ATOM     64  C   UNL A   1      49.323  27.469  27.142  1.00  0.00     0.002 A 
ATOM     65  C   UNL A   1      48.362  27.559  24.919  1.00  0.00     0.091 A 
ATOM     66  F   UNL A   1      46.175  28.475  24.627  1.00  0.00    -0.205 F 
ATOM     67  C   UNL A   1      49.428  27.236  25.775  1.00  0.00     0.022 A 
BRANCH  65  68
ATOM     68  S   UNL A   1      48.588  27.174  23.179  1.00  0.00     0.127 S 
ATOM     69  O   UNL A   1      48.166  25.774  23.132  1.00  0.00    -0.237 OA
ATOM     70  O   UNL A   1      47.665  28.110  22.537  1.00  0.00    -0.237 OA
ATOM     71  O   UNL A   1      49.996  27.405  22.893  1.00  0.00    -0.744 OA
ENDBRANCH  65  68
ENDBRANCH  47  61
BRANCH  48  72
ATOM     72  C   UNL A   1      38.538  31.045  31.327  1.00  0.00     0.023 A 
ATOM     73  C   UNL A   1      38.454  30.869  32.720  1.00  0.00     0.012 A 
ATOM     74  C   UNL A   1      37.454  31.632  30.642  1.00  0.00     0.148 A 
ATOM     75  C   UNL A   1      37.304  31.248  33.416  1.00  0.00     0.002 A 
ATOM     76  C   UNL A   1      36.335  32.057  31.347  1.00  0.00     0.091 A 
ATOM     77  F   UNL A   1      37.548  31.779  29.313  1.00  0.00    -0.205 F 
ATOM     78  C   UNL A   1      36.252  31.853  32.733  1.00  0.00     0.022 A 
BRANCH  76  79
ATOM     79  S   UNL A   1      34.993  32.961  30.567  1.00  0.00     0.127 S 
ATOM     80  O   UNL A   1      34.548  32.014  29.548  1.00  0.00    -0.237 OA
ATOM     81  O   UNL A   1      34.063  33.147  31.682  1.00  0.00    -0.237 OA
ATOM     82  O   UNL A   1      35.586  34.194  30.068  1.00  0.00    -0.744 OA
ENDBRANCH  76  79
ENDBRANCH  48  72
BRANCH  60  83
ATOM     83  C   UNL A   1      44.422  34.435  29.674  1.00  0.00     0.023 A 
ATOM     84  C   UNL A   1      45.077  34.804  30.866  1.00  0.00     0.012 A 
ATOM     85  C   UNL A   1      44.214  35.400  28.671  1.00  0.00     0.148 A 
ATOM     86  C   UNL A   1      45.467  36.124  31.079  1.00  0.00     0.002 A 
ATOM     87  C   UNL A   1      44.659  36.700  28.865  1.00  0.00     0.091 A 
ATOM     88  F   UNL A   1      43.573  35.032  27.551  1.00  0.00    -0.205 F 
ATOM     89  C   UNL A   1      45.266  37.069  30.075  1.00  0.00     0.022 A 
BRANCH  87  90
ATOM     90  S   UNL A   1      44.539  37.951  27.583  1.00  0.00     0.127 S 
ATOM     91  O   UNL A   1      45.524  37.478  26.613  1.00  0.00    -0.237 OA
ATOM     92  O   UNL A   1      43.146  37.819  27.154  1.00  0.00    -0.237 OA
ATOM     93  O   UNL A   1      44.852  39.219  28.228  1.00  0.00    -0.744 OA
ENDBRANCH  87  90
ENDBRANCH  60  83
ENDBRANCH  34  35
ENDBRANCH  27  29
ENDBRANCH  26  27
ENDBRANCH  25  26
ENDBRANCH   1  25
TORSDOF 19
ENDMDL
MODEL 2
REMARK VINA RESULT:     -11.5      5.115     10.535
REMARK SMILES Cc1noc(C)c1[C@H](C)NC(=O)NC[C@@](C)(O)C(=O)OCCOC(=O)c1ccc(-c2c3nc(c(-c4cccc(S(=O)(=O)[O-])c4F)c4ccc([nH]4)c(-c4cccc(S(=O)(=O)[O-])c4F)c4nc(c(-c5cccc(S(=O)(=O)[O-])c5F)c5ccc2[nH]5)C=C4)C=C3)cc1
REMARK SMILES IDX 21 1 20 2 18 3 19 4 15 5 16 6 14 7 13 8 10 9 11 10 12 12
REMARK SMILES IDX 8 14 9 15 7 16 1 17 2 18 3 19 4 20 5 21 6 22 17 23 22 25
REMARK SMILES IDX 23 26 24 27 25 28 26 29 27 30 88 31 28 32 87 33 29 34 30 35
REMARK SMILES IDX 31 36 81 37 32 38 86 39 80 40 82 41 33 42 85 43 79 44 78 45
REMARK SMILES IDX 34 47 66 48 46 49 65 50 47 51 50 52 64 53 83 54 48 55 49 56
REMARK SMILES IDX 63 58 84 59 51 60 35 61 36 62 44 63 37 64 39 65 45 66 38 67
REMARK SMILES IDX 40 68 41 69 42 70 43 71 67 72 68 73 76 74 69 75 71 76 77 77
REMARK SMILES IDX 70 78 72 79 73 80 74 81 75 82 52 83 53 84 61 85 54 86 56 87
REMARK SMILES IDX 62 88 55 89 57 90 58 91 59 92 60 93
REMARK H PARENT 10 11 13 13 17 24 82 46 50 57
REMARK Flexibility Score: inf
ROOT
ATOM      1  C   UNL A   1      32.857  30.953  26.529  1.00  0.00     0.274 C 
ENDROOT
BRANCH   1   2
ATOM      2  O   UNL A   1      32.638  29.596  26.974  1.00  0.00    -0.460 OA
BRANCH   2   3
ATOM      3  C   UNL A   1      33.433  28.617  26.428  1.00  0.00     0.339 C 
ATOM      4  O   UNL A   1      34.650  28.694  26.349  1.00  0.00    -0.249 OA
BRANCH   3   5
ATOM      5  C   UNL A   1      32.557  27.436  25.919  1.00  0.00     0.176 C 
ATOM      6  C   UNL A   1      31.380  27.389  26.900  1.00  0.00     0.057 C 
BRANCH   5   7
ATOM      7  C   UNL A   1      32.029  27.565  24.453  1.00  0.00     0.164 C 
BRANCH   7   8
ATOM      8  N   UNL A   1      32.945  27.294  23.344  1.00  0.00    -0.335 N 
ATOM      9  N   UNL A   1      34.161  25.121  23.165  1.00  0.00    -0.331 N 
ATOM     10  C   UNL A   1      33.589  26.309  22.732  1.00  0.00     0.315 C 
ATOM     11  H   UNL A   1      34.249  24.633  22.316  1.00  0.00     0.165 HD
ATOM     12  O   UNL A   1      33.800  26.557  21.533  1.00  0.00    -0.249 OA
ATOM     13  H   UNL A   1      33.156  28.143  22.890  1.00  0.00     0.165 HD
BRANCH   9  14
ATOM     14  C   UNL A   1      34.952  23.728  24.515  1.00  0.00     0.116 C 
ATOM     15  C   UNL A   1      36.154  24.069  25.728  1.00  0.00     0.036 C 
BRANCH  14  16
ATOM     16  C   UNL A   1      34.375  22.012  24.932  1.00  0.00     0.040 A 
ATOM     17  C   UNL A   1      31.583  21.641  25.399  1.00  0.00     0.071 C 
ATOM     18  C   UNL A   1      33.018  21.327  25.084  1.00  0.00     0.086 A 
ATOM     19  N   UNL A   1      33.137  20.002  24.978  1.00  0.00    -0.085 NA
ATOM     20  O   UNL A   1      34.438  19.727  24.895  1.00  0.00    -0.361 OA
ATOM     21  C   UNL A   1      35.191  20.848  24.923  1.00  0.00     0.139 A 
ATOM     22  C   UNL A   1      36.611  20.421  24.904  1.00  0.00     0.091 C 
ENDBRANCH  14  16
ENDBRANCH   9  14
ENDBRANCH   7   8
ENDBRANCH   5   7
BRANCH   5  23
ATOM     23  O   UNL A   1      33.179  26.146  26.048  1.00  0.00    -0.377 OA
ATOM     24  H   UNL A   1      34.120  26.217  25.820  1.00  0.00     0.212 HD
ENDBRANCH   5  23
ENDBRANCH   3   5
ENDBRANCH   2   3
ENDBRANCH   1   2
BRANCH   1  25
ATOM     25  C   UNL A   1      32.605  31.923  27.682  1.00  0.00     0.275 C 
BRANCH  25  26
ATOM     26  O   UNL A   1      33.294  33.141  27.371  1.00  0.00    -0.458 OA
BRANCH  26  27
ATOM     27  C   UNL A   1      33.502  33.925  28.434  1.00  0.00     0.338 C 
ATOM     28  O   UNL A   1      32.795  34.853  28.807  1.00  0.00    -0.246 OA
BRANCH  27  29
ATOM     29  C   UNL A   1      34.660  33.529  29.237  1.00  0.00     0.060 A 
ATOM     30  C   UNL A   1      36.236  33.744  28.322  1.00  0.00     0.016 A 
ATOM     31  C   UNL A   1      34.628  32.363  30.641  1.00  0.00     0.016 A 
ATOM     32  C   UNL A   1      37.719  32.854  28.852  1.00  0.00     0.010 A 
ATOM     33  C   UNL A   1      36.069  31.318  31.011  1.00  0.00     0.010 A 
ATOM     34  C   UNL A   1      37.617  31.594  30.135  1.00  0.00    -0.014 A 
BRANCH  34  35
ATOM     35  C   UNL A   1      38.876  30.914  30.564  1.00  0.00     0.031 A 
ATOM     36  C   UNL A   1      39.583  31.349  31.812  1.00  0.00     0.074 A 
ATOM     37  C   UNL A   1      39.406  29.897  29.864  1.00  0.00     0.049 A 
ATOM     38  N   UNL A   1      40.365  30.689  32.621  1.00  0.00    -0.248 NA
ATOM     39  C   UNL A   1      39.336  32.727  32.230  1.00  0.00     0.031 C 
ATOM     40  C   UNL A   1      38.933  29.404  28.579  1.00  0.00     0.029 A 
ATOM     41  N   UNL A   1      40.504  29.117  30.132  1.00  0.00    -0.354 N 
ATOM     42  C   UNL A   1      40.587  31.535  33.704  1.00  0.00     0.074 A 
ATOM     43  C   UNL A   1      39.864  32.758  33.446  1.00  0.00     0.031 C 
ATOM     44  C   UNL A   1      39.761  28.444  28.136  1.00  0.00     0.029 A 
ATOM     45  C   UNL A   1      40.809  28.234  29.125  1.00  0.00     0.049 A 
ATOM     46  H   UNL A   1      41.022  29.183  30.966  1.00  0.00     0.167 HD
ATOM     47  C   UNL A   1      41.352  31.324  34.800  1.00  0.00     0.034 A 
ATOM     48  C   UNL A   1      41.820  27.353  29.014  1.00  0.00     0.034 A 
ATOM     49  C   UNL A   1      42.291  30.241  34.893  1.00  0.00     0.049 A 
ATOM     50  C   UNL A   1      42.735  27.167  30.189  1.00  0.00     0.074 A 
ATOM     51  C   UNL A   1      43.167  29.936  35.918  1.00  0.00     0.029 A 
ATOM     52  N   UNL A   1      42.552  29.350  33.861  1.00  0.00    -0.354 N 
ATOM     53  N   UNL A   1      42.736  27.795  31.343  1.00  0.00    -0.248 NA
ATOM     54  C   UNL A   1      43.743  26.107  30.080  1.00  0.00     0.031 C 
ATOM     55  C   UNL A   1      44.003  28.903  35.476  1.00  0.00     0.029 A 
ATOM     56  C   UNL A   1      43.603  28.521  34.204  1.00  0.00     0.049 A 
ATOM     57  H   UNL A   1      42.060  29.314  33.010  1.00  0.00     0.167 HD
ATOM     58  C   UNL A   1      43.720  27.184  32.109  1.00  0.00     0.074 A 
ATOM     59  C   UNL A   1      44.275  26.120  31.294  1.00  0.00     0.031 C 
ATOM     60  C   UNL A   1      44.133  27.472  33.370  1.00  0.00     0.034 A 
BRANCH  47  61
ATOM     61  C   UNL A   1      41.225  32.291  35.950  1.00  0.00     0.023 A 
ATOM     62  C   UNL A   1      42.231  33.263  36.135  1.00  0.00     0.012 A 
ATOM     63  C   UNL A   1      40.102  32.296  36.800  1.00  0.00     0.148 A 
ATOM     64  C   UNL A   1      42.129  34.216  37.150  1.00  0.00     0.002 A 
ATOM     65  C   UNL A   1      39.993  33.268  37.792  1.00  0.00     0.091 A 
ATOM     66  F   UNL A   1      39.167  31.352  36.627  1.00  0.00    -0.205 F 
ATOM     67  C   UNL A   1      41.007  34.224  37.972  1.00  0.00     0.022 A 
BRANCH  65  68
ATOM     68  S   UNL A   1      38.568  33.399  38.878  1.00  0.00     0.127 S 
ATOM     69  O   UNL A   1      38.707  32.190  39.690  1.00  0.00    -0.237 OA
ATOM     70  O   UNL A   1      38.840  34.647  39.591  1.00  0.00    -0.237 OA
ATOM     71  O   UNL A   1      37.399  33.429  38.010  1.00  0.00    -0.744 OA
ENDBRANCH  65  68
ENDBRANCH  47  61
BRANCH  48  72
ATOM     72  C   UNL A   1      41.964  26.555  27.763  1.00  0.00     0.023 A 
ATOM     73  C   UNL A   1      42.601  27.108  26.637  1.00  0.00     0.012 A 
ATOM     74  C   UNL A   1      41.524  25.216  27.716  1.00  0.00     0.148 A 
ATOM     75  C   UNL A   1      42.776  26.351  25.477  1.00  0.00     0.002 A 
ATOM     76  C   UNL A   1      41.749  24.451  26.578  1.00  0.00     0.091 A 
ATOM     77  F   UNL A   1      40.907  24.713  28.794  1.00  0.00    -0.205 F 
ATOM     78  C   UNL A   1      42.363  25.021  25.452  1.00  0.00     0.022 A 
BRANCH  76  79
ATOM     79  S   UNL A   1      41.367  22.697  26.508  1.00  0.00     0.127 S 
ATOM     80  O   UNL A   1      39.915  22.714  26.346  1.00  0.00    -0.237 OA
ATOM     81  O   UNL A   1      42.113  22.271  25.323  1.00  0.00    -0.237 OA
ATOM     82  O   UNL A   1      41.858  22.137  27.760  1.00  0.00    -0.744 OA
ENDBRANCH  76  79
ENDBRANCH  48  72
BRANCH  60  83
ATOM     83  C   UNL A   1      45.224  26.611  33.945  1.00  0.00     0.023 A 
ATOM     84  C   UNL A   1      46.576  26.976  33.781  1.00  0.00     0.012 A 
ATOM     85  C   UNL A   1      44.903  25.455  34.680  1.00  0.00     0.148 A 
ATOM     86  C   UNL A   1      47.592  26.171  34.291  1.00  0.00     0.002 A 
ATOM     87  C   UNL A   1      45.918  24.690  35.237  1.00  0.00     0.091 A 
ATOM     88  F   UNL A   1      43.611  25.117  34.809  1.00  0.00    -0.205 F 
ATOM     89  C   UNL A   1      47.262  25.034  35.026  1.00  0.00     0.022 A 
BRANCH  87  90
ATOM     90  S   UNL A   1      45.579  23.274  36.286  1.00  0.00     0.127 S 
ATOM     91  O   UNL A   1      46.926  22.773  36.553  1.00  0.00    -0.237 OA
ATOM     92  O   UNL A   1      44.919  23.894  37.436  1.00  0.00    -0.237 OA
ATOM     93  O   UNL A   1      44.725  22.390  35.506  1.00  0.00    -0.744 OA
ENDBRANCH  87  90
ENDBRANCH  60  83
ENDBRANCH  34  35
ENDBRANCH  27  29
ENDBRANCH  26  27
ENDBRANCH  25  26
ENDBRANCH   1  25
TORSDOF 19
ENDMDL
MODEL 3
REMARK VINA RESULT:     -11.3      1.628      2.406
REMARK SMILES Cc1noc(C)c1[C@H](C)NC(=O)NC[C@@](C)(O)C(=O)OCCOC(=O)c1ccc(-c2c3nc(c(-c4cccc(S(=O)(=O)[O-])c4F)c4ccc([nH]4)c(-c4cccc(S(=O)(=O)[O-])c4F)c4nc(c(-c5cccc(S(=O)(=O)[O-])c5F)c5ccc2[nH]5)C=C4)C=C3)cc1
REMARK SMILES IDX 21 1 20 2 18 3 19 4 15 5 16 6 14 7 13 8 10 9 11 10 12 12
REMARK SMILES IDX 8 14 9 15 7 16 1 17 2 18 3 19 4 20 5 21 6 22 17 23 22 25
REMARK SMILES IDX 23 26 24 27 25 28 26 29 27 30 88 31 28 32 87 33 29 34 30 35
REMARK SMILES IDX 31 36 81 37 32 38 86 39 80 40 82 41 33 42 85 43 79 44 78 45
REMARK SMILES IDX 34 47 66 48 46 49 65 50 47 51 50 52 64 53 83 54 48 55 49 56
REMARK SMILES IDX 63 58 84 59 51 60 35 61 36 62 44 63 37 64 39 65 45 66 38 67
REMARK SMILES IDX 40 68 41 69 42 70 43 71 67 72 68 73 76 74 69 75 71 76 77 77
REMARK SMILES IDX 70 78 72 79 73 80 74 81 75 82 52 83 53 84 61 85 54 86 56 87
REMARK SMILES IDX 62 88 55 89 57 90 58 91 59 92 60 93
REMARK H PARENT 10 11 13 13 17 24 82 46 50 57
REMARK Flexibility Score: inf
ROOT
ATOM      1  C   UNL A   1      38.538  22.009  25.838  1.00  0.00     0.274 C 
ENDROOT
BRANCH   1   2
ATOM      2  O   UNL A   1      37.375  22.317  25.037  1.00  0.00    -0.460 OA
BRANCH   2   3
ATOM      3  C   UNL A   1      36.347  21.407  25.042  1.00  0.00     0.339 C 
ATOM      4  O   UNL A   1      36.505  20.202  25.172  1.00  0.00    -0.249 OA
BRANCH   3   5
ATOM      5  C   UNL A   1      34.985  22.132  24.838  1.00  0.00     0.176 C 
ATOM      6  C   UNL A   1      33.938  21.031  25.046  1.00  0.00     0.057 C 
BRANCH   5   7
ATOM      7  C   UNL A   1      34.702  23.330  25.802  1.00  0.00     0.164 C 
BRANCH   7   8
ATOM      8  N   UNL A   1      33.633  23.204  26.793  1.00  0.00    -0.335 N 
ATOM      9  N   UNL A   1      31.681  24.761  26.800  1.00  0.00    -0.331 N 
ATOM     10  C   UNL A   1      32.393  23.597  27.053  1.00  0.00     0.315 C 
ATOM     11  H   UNL A   1      30.757  24.450  26.928  1.00  0.00     0.165 HD
ATOM     12  O   UNL A   1      31.774  22.776  27.752  1.00  0.00    -0.249 OA
ATOM     13  H   UNL A   1      33.942  22.621  27.524  1.00  0.00     0.165 HD
BRANCH   9  14
ATOM     14  C   UNL A   1      31.365  26.774  26.314  1.00  0.00     0.116 C 
ATOM     15  C   UNL A   1      31.527  28.115  27.413  1.00  0.00     0.036 C 
BRANCH  14  16
ATOM     16  C   UNL A   1      31.172  27.583  24.653  1.00  0.00     0.040 A 
ATOM     17  C   UNL A   1      28.609  27.427  23.404  1.00  0.00     0.071 C 
ATOM     18  C   UNL A   1      30.000  27.896  23.725  1.00  0.00     0.086 A 
ATOM     19  N   UNL A   1      30.323  28.853  22.851  1.00  0.00    -0.085 NA
ATOM     20  O   UNL A   1      31.618  29.121  23.020  1.00  0.00    -0.361 OA
ATOM     21  C   UNL A   1      32.162  28.373  24.005  1.00  0.00     0.139 A 
ATOM     22  C   UNL A   1      33.608  28.695  24.051  1.00  0.00     0.091 C 
ENDBRANCH  14  16
ENDBRANCH   9  14
ENDBRANCH   7   8
ENDBRANCH   5   7
BRANCH   5  23
ATOM     23  O   UNL A   1      34.759  22.588  23.494  1.00  0.00    -0.377 OA
ATOM     24  H   UNL A   1      33.805  22.611  23.317  1.00  0.00     0.212 HD
ENDBRANCH   5  23
ENDBRANCH   3   5
ENDBRANCH   2   3
ENDBRANCH   1   2
BRANCH   1  25
ATOM     25  C   UNL A   1      39.120  20.664  25.408  1.00  0.00     0.275 C 
BRANCH  25  26
ATOM     26  O   UNL A   1      39.952  20.200  26.479  1.00  0.00    -0.458 OA
BRANCH  26  27
ATOM     27  C   UNL A   1      41.254  20.179  26.176  1.00  0.00     0.338 C 
ATOM     28  O   UNL A   1      41.859  19.276  25.613  1.00  0.00    -0.246 OA
BRANCH  27  29
ATOM     29  C   UNL A   1      41.951  21.425  26.500  1.00  0.00     0.060 A 
ATOM     30  C   UNL A   1      41.807  21.850  28.280  1.00  0.00     0.016 A 
ATOM     31  C   UNL A   1      42.332  22.765  25.320  1.00  0.00     0.016 A 
ATOM     32  C   UNL A   1      42.095  23.548  28.831  1.00  0.00     0.010 A 
ATOM     33  C   UNL A   1      42.395  24.496  25.872  1.00  0.00     0.010 A 
ATOM     34  C   UNL A   1      42.309  24.873  27.630  1.00  0.00    -0.014 A 
BRANCH  34  35
ATOM     35  C   UNL A   1      42.582  26.252  28.135  1.00  0.00     0.031 A 
ATOM     36  C   UNL A   1      43.982  26.787  28.156  1.00  0.00     0.074 A 
ATOM     37  C   UNL A   1      41.597  27.055  28.573  1.00  0.00     0.049 A 
ATOM     38  N   UNL A   1      44.425  28.013  28.096  1.00  0.00    -0.248 NA
ATOM     39  C   UNL A   1      45.041  25.782  28.213  1.00  0.00     0.031 C 
ATOM     40  C   UNL A   1      40.199  26.684  28.732  1.00  0.00     0.029 A 
ATOM     41  N   UNL A   1      41.644  28.357  29.006  1.00  0.00    -0.354 N 
ATOM     42  C   UNL A   1      45.808  27.907  27.973  1.00  0.00     0.074 A 
ATOM     43  C   UNL A   1      46.131  26.499  27.974  1.00  0.00     0.031 C 
ATOM     44  C   UNL A   1      39.524  27.708  29.280  1.00  0.00     0.029 A 
ATOM     45  C   UNL A   1      40.441  28.821  29.482  1.00  0.00     0.049 A 
ATOM     46  H   UNL A   1      42.460  28.905  28.979  1.00  0.00     0.167 HD
ATOM     47  C   UNL A   1      46.730  28.895  27.899  1.00  0.00     0.034 A 
ATOM     48  C   UNL A   1      40.116  30.010  30.019  1.00  0.00     0.034 A 
ATOM     49  C   UNL A   1      46.423  30.265  28.202  1.00  0.00     0.049 A 
ATOM     50  C   UNL A   1      41.154  31.096  30.026  1.00  0.00     0.074 A 
ATOM     51  C   UNL A   1      47.265  31.362  28.219  1.00  0.00     0.029 A 
ATOM     52  N   UNL A   1      45.185  30.701  28.654  1.00  0.00    -0.354 N 
ATOM     53  N   UNL A   1      42.402  31.048  29.620  1.00  0.00    -0.248 NA
ATOM     54  C   UNL A   1      40.724  32.417  30.498  1.00  0.00     0.031 C 
ATOM     55  C   UNL A   1      46.550  32.444  28.748  1.00  0.00     0.029 A 
ATOM     56  C   UNL A   1      45.247  32.039  28.994  1.00  0.00     0.049 A 
ATOM     57  H   UNL A   1      44.380  30.139  28.721  1.00  0.00     0.167 HD
ATOM     58  C   UNL A   1      42.897  32.338  29.756  1.00  0.00     0.074 A 
ATOM     59  C   UNL A   1      41.804  33.149  30.258  1.00  0.00     0.031 C 
ATOM     60  C   UNL A   1      44.140  32.816  29.492  1.00  0.00     0.034 A 
BRANCH  47  61
ATOM     61  C   UNL A   1      48.139  28.523  27.513  1.00  0.00     0.023 A 
ATOM     62  C   UNL A   1      49.103  28.363  28.531  1.00  0.00     0.012 A 
ATOM     63  C   UNL A   1      48.503  28.265  26.177  1.00  0.00     0.148 A 
ATOM     64  C   UNL A   1      50.406  27.963  28.228  1.00  0.00     0.002 A 
ATOM     65  C   UNL A   1      49.796  27.838  25.885  1.00  0.00     0.091 A 
ATOM     66  F   UNL A   1      47.583  28.445  25.220  1.00  0.00    -0.205 F 
ATOM     67  C   UNL A   1      50.749  27.693  26.907  1.00  0.00     0.022 A 
BRANCH  65  68
ATOM     68  S   UNL A   1      50.334  27.419  24.223  1.00  0.00     0.127 S 
ATOM     69  O   UNL A   1      51.595  26.727  24.490  1.00  0.00    -0.237 OA
ATOM     70  O   UNL A   1      49.250  26.553  23.761  1.00  0.00    -0.237 OA
ATOM     71  O   UNL A   1      50.461  28.681  23.508  1.00  0.00    -0.744 OA
ENDBRANCH  65  68
ENDBRANCH  47  61
BRANCH  48  72
ATOM     72  C   UNL A   1      38.734  30.233  30.530  1.00  0.00     0.023 A 
ATOM     73  C   UNL A   1      38.383  29.822  31.829  1.00  0.00     0.012 A 
ATOM     74  C   UNL A   1      37.783  30.915  29.744  1.00  0.00     0.148 A 
ATOM     75  C   UNL A   1      37.102  30.064  32.329  1.00  0.00     0.002 A 
ATOM     76  C   UNL A   1      36.528  31.201  30.266  1.00  0.00     0.091 A 
ATOM     77  F   UNL A   1      38.132  31.285  28.504  1.00  0.00    -0.205 F 
ATOM     78  C   UNL A   1      36.180  30.765  31.554  1.00  0.00     0.022 A 
BRANCH  76  79
ATOM     79  S   UNL A   1      35.328  32.208  29.388  1.00  0.00     0.127 S 
ATOM     80  O   UNL A   1      34.847  31.279  28.368  1.00  0.00    -0.237 OA
ATOM     81  O   UNL A   1      34.361  32.518  30.442  1.00  0.00    -0.237 OA
ATOM     82  O   UNL A   1      36.068  33.362  28.894  1.00  0.00    -0.744 OA
ENDBRANCH  76  79
ENDBRANCH  48  72
BRANCH  60  83
ATOM     83  C   UNL A   1      44.373  34.283  29.728  1.00  0.00     0.023 A 
ATOM     84  C   UNL A   1      44.777  34.742  30.998  1.00  0.00     0.012 A 
ATOM     85  C   UNL A   1      44.221  35.204  28.674  1.00  0.00     0.148 A 
ATOM     86  C   UNL A   1      44.971  36.103  31.229  1.00  0.00     0.002 A 
ATOM     87  C   UNL A   1      44.475  36.550  28.896  1.00  0.00     0.091 A 
ATOM     88  F   UNL A   1      43.819  34.748  27.479  1.00  0.00    -0.205 F 
ATOM     89  C   UNL A   1      44.829  37.004  30.176  1.00  0.00     0.022 A 
BRANCH  87  90
ATOM     90  S   UNL A   1      44.421  37.761  27.573  1.00  0.00     0.127 S 
ATOM     91  O   UNL A   1      44.652  39.007  28.300  1.00  0.00    -0.237 OA
ATOM     92  O   UNL A   1      45.533  37.336  26.721  1.00  0.00    -0.237 OA
ATOM     93  O   UNL A   1      43.107  37.628  26.959  1.00  0.00    -0.744 OA
ENDBRANCH  87  90
ENDBRANCH  60  83
ENDBRANCH  34  35
ENDBRANCH  27  29
ENDBRANCH  26  27
ENDBRANCH  25  26
ENDBRANCH   1  25
TORSDOF 19
ENDMDL
