MODEL 1
REMARK VINA RESULT:     -11.5      0.000      0.000
REMARK SMILES CNS(=O)(=O)c1ccc(Oc2csc(C(=O)OCCOC(=O)c3ccc(-c4c5nc(c(-c6cccc(S(=O)(=O)[O-])c6F)c6ccc([nH]6)c(-c6cccc(S(=O)(=O)[O-])c6F)c6nc(c(-c7cccc(S(=O)(=O)[O-])c7F)c7ccc4[nH]7)C=C6)C=C5)cc3)c2)cc1
REMARK SMILES IDX 18 1 17 2 15 3 16 4 14 5 11 6 12 7 86 8 13 9 10 10 9 11 6 12
REMARK SMILES IDX 7 13 88 14 8 15 87 16 3 17 4 18 5 19 2 20 1 21 19 23 20 24
REMARK SMILES IDX 21 25 22 26 23 27 24 28 85 29 25 30 84 31 26 32 27 33 28 34
REMARK SMILES IDX 78 35 29 36 83 37 77 38 79 39 30 40 82 41 76 42 75 43 31 45
REMARK SMILES IDX 63 46 43 47 62 48 44 49 47 50 61 51 80 52 45 53 46 54 60 56
REMARK SMILES IDX 81 57 48 58 32 59 33 60 41 61 34 62 36 63 42 64 35 65 37 66
REMARK SMILES IDX 38 67 39 68 40 69 64 70 65 71 73 72 66 73 68 74 74 75 67 76
REMARK SMILES IDX 69 77 70 78 71 79 72 80 49 81 50 82 58 83 51 84 53 85 59 86
REMARK SMILES IDX 52 87 54 88 55 89 56 90 57 91
REMARK H PARENT 2 22 79 44 47 55
REMARK Flexibility Score: inf
ROOT
ATOM      1  C   UNL A   1      36.299  19.940  24.762  1.00  0.00     0.275 C 
ENDROOT
BRANCH   1   2
ATOM      2  O   UNL A   1      35.753  20.935  25.650  1.00  0.00    -0.458 OA
BRANCH   2   3
ATOM      3  C   UNL A   1      35.005  21.922  25.066  1.00  0.00     0.348 C 
ATOM      4  O   UNL A   1      35.189  22.335  23.931  1.00  0.00    -0.245 OA
BRANCH   3   5
ATOM      5  C   UNL A   1      33.963  22.368  25.979  1.00  0.00     0.116 A 
ATOM      6  C   UNL A   1      32.165  23.490  26.952  1.00  0.00     0.138 A 
ATOM      7  C   UNL A   1      32.594  22.734  28.017  1.00  0.00     0.112 A 
ATOM      8  C   UNL A   1      32.946  23.282  25.782  1.00  0.00     0.074 A 
ATOM      9  S   UNL A   1      33.883  21.705  27.565  1.00  0.00    -0.133 S 
BRANCH   6  10
ATOM     10  O   UNL A   1      31.057  24.262  26.953  1.00  0.00    -0.456 OA
BRANCH  10  11
ATOM     11  C   UNL A   1      30.936  25.437  26.254  1.00  0.00     0.127 A 
ATOM     12  C   UNL A   1      30.775  27.585  24.492  1.00  0.00     0.082 A 
ATOM     13  C   UNL A   1      29.989  26.455  24.267  1.00  0.00     0.025 A 
ATOM     14  C   UNL A   1      31.594  27.674  25.625  1.00  0.00     0.025 A 
ATOM     15  C   UNL A   1      30.075  25.381  25.152  1.00  0.00     0.048 A 
ATOM     16  C   UNL A   1      31.687  26.587  26.500  1.00  0.00     0.048 A 
BRANCH  12  17
ATOM     17  S   UNL A   1      30.761  28.911  23.316  1.00  0.00     0.240 S 
ATOM     18  O   UNL A   1      30.005  30.018  23.858  1.00  0.00    -0.207 OA
ATOM     19  O   UNL A   1      30.466  28.358  22.012  1.00  0.00    -0.207 OA
BRANCH  17  20
ATOM     20  N   UNL A   1      32.385  29.357  23.267  1.00  0.00    -0.214 NA
ATOM     21  C   UNL A   1      33.305  28.547  22.473  1.00  0.00     0.120 C 
ATOM     22  H   UNL A   1      32.426  30.307  22.897  1.00  0.00     0.141 HD
ENDBRANCH  17  20
ENDBRANCH  12  17
ENDBRANCH  10  11
ENDBRANCH   6  10
ENDBRANCH   3   5
ENDBRANCH   2   3
ENDBRANCH   1   2
BRANCH   1  23
ATOM     23  C   UNL A   1      37.828  19.861  24.844  1.00  0.00     0.275 C 
BRANCH  23  24
ATOM     24  O   UNL A   1      38.408  21.082  25.338  1.00  0.00    -0.458 OA
BRANCH  24  25
ATOM     25  C   UNL A   1      39.454  20.908  26.177  1.00  0.00     0.338 C 
ATOM     26  O   UNL A   1      40.090  19.880  26.351  1.00  0.00    -0.246 OA
BRANCH  25  27
ATOM     27  C   UNL A   1      39.850  22.189  26.780  1.00  0.00     0.060 A 
ATOM     28  C   UNL A   1      39.281  23.340  26.239  1.00  0.00     0.016 A 
ATOM     29  C   UNL A   1      40.856  22.285  27.739  1.00  0.00     0.016 A 
ATOM     30  C   UNL A   1      39.747  24.597  26.601  1.00  0.00     0.010 A 
ATOM     31  C   UNL A   1      41.303  23.555  28.132  1.00  0.00     0.010 A 
ATOM     32  C   UNL A   1      40.779  24.719  27.538  1.00  0.00    -0.014 A 
BRANCH  32  33
ATOM     33  C   UNL A   1      41.350  26.063  27.817  1.00  0.00     0.031 A 
ATOM     34  C   UNL A   1      42.733  26.407  27.329  1.00  0.00     0.074 A 
ATOM     35  C   UNL A   1      40.620  26.989  28.469  1.00  0.00     0.049 A 
ATOM     36  N   UNL A   1      43.437  27.490  27.531  1.00  0.00    -0.248 NA
ATOM     37  C   UNL A   1      43.418  25.391  26.513  1.00  0.00     0.031 C 
ATOM     38  C   UNL A   1      39.256  26.795  28.963  1.00  0.00     0.029 A 
ATOM     39  N   UNL A   1      40.925  28.276  28.835  1.00  0.00    -0.354 N 
ATOM     40  C   UNL A   1      44.666  27.266  26.920  1.00  0.00     0.074 A 
ATOM     41  C   UNL A   1      44.613  25.940  26.343  1.00  0.00     0.031 C 
ATOM     42  C   UNL A   1      38.841  27.922  29.565  1.00  0.00     0.029 A 
ATOM     43  C   UNL A   1      39.928  28.895  29.553  1.00  0.00     0.049 A 
ATOM     44  H   UNL A   1      41.777  28.715  28.606  1.00  0.00     0.167 HD
ATOM     45  C   UNL A   1      45.737  28.091  26.837  1.00  0.00     0.034 A 
ATOM     46  C   UNL A   1      39.902  30.097  30.162  1.00  0.00     0.034 A 
ATOM     47  C   UNL A   1      45.768  29.427  27.374  1.00  0.00     0.049 A 
ATOM     48  C   UNL A   1      41.110  30.989  30.065  1.00  0.00     0.074 A 
ATOM     49  C   UNL A   1      46.794  30.353  27.317  1.00  0.00     0.029 A 
ATOM     50  N   UNL A   1      44.727  30.026  28.066  1.00  0.00    -0.354 N 
ATOM     51  N   UNL A   1      42.244  30.781  29.441  1.00  0.00    -0.248 NA
ATOM     52  C   UNL A   1      41.023  32.294  30.735  1.00  0.00     0.031 C 
ATOM     53  C   UNL A   1      46.383  31.503  28.000  1.00  0.00     0.029 A 
ATOM     54  C   UNL A   1      45.084  31.309  28.444  1.00  0.00     0.049 A 
ATOM     55  H   UNL A   1      43.859  29.601  28.259  1.00  0.00     0.167 HD
ATOM     56  C   UNL A   1      42.987  31.944  29.603  1.00  0.00     0.074 A 
ATOM     57  C   UNL A   1      42.168  32.858  30.374  1.00  0.00     0.031 C 
ATOM     58  C   UNL A   1      44.237  32.228  29.161  1.00  0.00     0.034 A 
BRANCH  45  59
ATOM     59  C   UNL A   1      46.968  27.573  26.136  1.00  0.00     0.023 A 
ATOM     60  C   UNL A   1      47.172  27.847  24.769  1.00  0.00     0.012 A 
ATOM     61  C   UNL A   1      47.944  26.843  26.845  1.00  0.00     0.148 A 
ATOM     62  C   UNL A   1      48.303  27.367  24.107  1.00  0.00     0.002 A 
ATOM     63  C   UNL A   1      49.092  26.411  26.192  1.00  0.00     0.091 A 
ATOM     64  F   UNL A   1      47.726  26.575  28.140  1.00  0.00    -0.205 F 
ATOM     65  C   UNL A   1      49.266  26.659  24.821  1.00  0.00     0.022 A 
BRANCH  63  66
ATOM     66  S   UNL A   1      50.428  25.562  27.041  1.00  0.00     0.127 S 
ATOM     67  O   UNL A   1      51.389  25.363  25.957  1.00  0.00    -0.237 OA
ATOM     68  O   UNL A   1      50.835  26.551  28.042  1.00  0.00    -0.237 OA
ATOM     69  O   UNL A   1      49.846  24.347  27.592  1.00  0.00    -0.744 OA
ENDBRANCH  63  66
ENDBRANCH  45  59
BRANCH  46  70
ATOM     70  C   UNL A   1      38.682  30.534  30.897  1.00  0.00     0.023 A 
ATOM     71  C   UNL A   1      38.578  30.293  32.280  1.00  0.00     0.012 A 
ATOM     72  C   UNL A   1      37.634  31.206  30.237  1.00  0.00     0.148 A 
ATOM     73  C   UNL A   1      37.439  30.683  32.987  1.00  0.00     0.002 A 
ATOM     74  C   UNL A   1      36.530  31.644  30.956  1.00  0.00     0.091 A 
ATOM     75  F   UNL A   1      37.745  31.413  28.917  1.00  0.00    -0.205 F 
ATOM     76  C   UNL A   1      36.421  31.367  32.327  1.00  0.00     0.022 A 
BRANCH  74  77
ATOM     77  S   UNL A   1      35.232  32.642  30.219  1.00  0.00     0.127 S 
ATOM     78  O   UNL A   1      34.751  31.767  29.152  1.00  0.00    -0.237 OA
ATOM     79  O   UNL A   1      34.307  32.810  31.341  1.00  0.00    -0.237 OA
ATOM     80  O   UNL A   1      35.877  33.872  29.781  1.00  0.00    -0.744 OA
ENDBRANCH  74  77
ENDBRANCH  46  70
BRANCH  58  81
ATOM     81  C   UNL A   1      44.777  33.608  29.435  1.00  0.00     0.023 A 
ATOM     82  C   UNL A   1      45.520  33.864  30.604  1.00  0.00     0.012 A 
ATOM     83  C   UNL A   1      44.593  34.641  28.495  1.00  0.00     0.148 A 
ATOM     84  C   UNL A   1      46.035  35.136  30.852  1.00  0.00     0.002 A 
ATOM     85  C   UNL A   1      45.155  35.891  28.722  1.00  0.00     0.091 A 
ATOM     86  F   UNL A   1      43.866  34.385  27.397  1.00  0.00    -0.205 F 
ATOM     87  C   UNL A   1      45.863  36.144  29.907  1.00  0.00     0.022 A 
BRANCH  85  88
ATOM     88  S   UNL A   1      45.073  37.216  27.512  1.00  0.00     0.127 S 
ATOM     89  O   UNL A   1      45.972  36.723  26.470  1.00  0.00    -0.237 OA
ATOM     90  O   UNL A   1      43.656  37.214  27.146  1.00  0.00    -0.237 OA
ATOM     91  O   UNL A   1      45.516  38.419  28.204  1.00  0.00    -0.744 OA
ENDBRANCH  85  88
ENDBRANCH  58  81
ENDBRANCH  32  33
ENDBRANCH  25  27
ENDBRANCH  24  25
ENDBRANCH  23  24
ENDBRANCH   1  23
TORSDOF 18
ENDMDL
MODEL 2
REMARK VINA RESULT:     -11.3      4.911     10.419
REMARK SMILES CNS(=O)(=O)c1ccc(Oc2csc(C(=O)OCCOC(=O)c3ccc(-c4c5nc(c(-c6cccc(S(=O)(=O)[O-])c6F)c6ccc([nH]6)c(-c6cccc(S(=O)(=O)[O-])c6F)c6nc(c(-c7cccc(S(=O)(=O)[O-])c7F)c7ccc4[nH]7)C=C6)C=C5)cc3)c2)cc1
REMARK SMILES IDX 18 1 17 2 15 3 16 4 14 5 11 6 12 7 86 8 13 9 10 10 9 11 6 12
REMARK SMILES IDX 7 13 88 14 8 15 87 16 3 17 4 18 5 19 2 20 1 21 19 23 20 24
REMARK SMILES IDX 21 25 22 26 23 27 24 28 85 29 25 30 84 31 26 32 27 33 28 34
REMARK SMILES IDX 78 35 29 36 83 37 77 38 79 39 30 40 82 41 76 42 75 43 31 45
REMARK SMILES IDX 63 46 43 47 62 48 44 49 47 50 61 51 80 52 45 53 46 54 60 56
REMARK SMILES IDX 81 57 48 58 32 59 33 60 41 61 34 62 36 63 42 64 35 65 37 66
REMARK SMILES IDX 38 67 39 68 40 69 64 70 65 71 73 72 66 73 68 74 74 75 67 76
REMARK SMILES IDX 69 77 70 78 71 79 72 80 49 81 50 82 58 83 51 84 53 85 59 86
REMARK SMILES IDX 52 87 54 88 55 89 56 90 57 91
REMARK H PARENT 2 22 79 44 47 55
REMARK Flexibility Score: inf
ROOT
ATOM      1  C   UNL A   1      31.890  29.267  24.847  1.00  0.00     0.275 C 
ENDROOT
BRANCH   1   2
ATOM      2  O   UNL A   1      30.649  28.715  24.364  1.00  0.00    -0.458 OA
BRANCH   2   3
ATOM      3  C   UNL A   1      30.753  27.686  23.466  1.00  0.00     0.348 C 
ATOM      4  O   UNL A   1      30.399  27.762  22.300  1.00  0.00    -0.245 OA
BRANCH   3   5
ATOM      5  C   UNL A   1      31.367  26.529  24.101  1.00  0.00     0.116 A 
ATOM      6  C   UNL A   1      32.722  24.693  24.583  1.00  0.00     0.138 A 
ATOM      7  C   UNL A   1      31.798  24.595  25.596  1.00  0.00     0.112 A 
ATOM      8  C   UNL A   1      32.479  25.801  23.725  1.00  0.00     0.074 A 
ATOM      9  S   UNL A   1      30.697  25.902  25.557  1.00  0.00    -0.133 S 
BRANCH   6  10
ATOM     10  O   UNL A   1      33.816  23.911  24.460  1.00  0.00    -0.456 OA
BRANCH  10  11
ATOM     11  C   UNL A   1      33.779  22.543  24.354  1.00  0.00     0.127 A 
ATOM     12  C   UNL A   1      33.287  19.807  24.232  1.00  0.00     0.082 A 
ATOM     13  C   UNL A   1      32.525  20.674  23.450  1.00  0.00     0.025 A 
ATOM     14  C   UNL A   1      34.334  20.291  25.027  1.00  0.00     0.025 A 
ATOM     15  C   UNL A   1      32.774  22.044  23.517  1.00  0.00     0.048 A 
ATOM     16  C   UNL A   1      34.569  21.668  25.100  1.00  0.00     0.048 A 
BRANCH  12  17
ATOM     17  S   UNL A   1      32.909  18.075  24.243  1.00  0.00     0.240 S 
ATOM     18  O   UNL A   1      32.913  17.579  22.885  1.00  0.00    -0.207 OA
ATOM     19  O   UNL A   1      31.781  17.862  25.124  1.00  0.00    -0.207 OA
BRANCH  17  20
ATOM     20  N   UNL A   1      34.243  17.428  25.044  1.00  0.00    -0.214 NA
ATOM     21  C   UNL A   1      34.484  15.991  24.946  1.00  0.00     0.120 C 
ATOM     22  H   UNL A   1      35.071  17.897  24.677  1.00  0.00     0.141 HD
ENDBRANCH  17  20
ENDBRANCH  12  17
ENDBRANCH  10  11
ENDBRANCH   6  10
ENDBRANCH   3   5
ENDBRANCH   2   3
ENDBRANCH   1   2
BRANCH   1  23
ATOM     23  C   UNL A   1      31.671  30.440  25.809  1.00  0.00     0.275 C 
BRANCH  23  24
ATOM     24  O   UNL A   1      32.494  30.338  26.985  1.00  0.00    -0.458 OA
BRANCH  24  25
ATOM     25  C   UNL A   1      33.237  31.437  27.248  1.00  0.00     0.338 C 
ATOM     26  O   UNL A   1      32.854  32.597  27.250  1.00  0.00    -0.246 OA
BRANCH  25  27
ATOM     27  C   UNL A   1      34.585  31.054  27.692  1.00  0.00     0.060 A 
ATOM     28  C   UNL A   1      34.816  29.696  27.899  1.00  0.00     0.016 A 
ATOM     29  C   UNL A   1      35.552  31.994  28.044  1.00  0.00     0.016 A 
ATOM     30  C   UNL A   1      35.983  29.262  28.512  1.00  0.00     0.010 A 
ATOM     31  C   UNL A   1      36.747  31.555  28.631  1.00  0.00     0.010 A 
ATOM     32  C   UNL A   1      36.955  30.188  28.905  1.00  0.00    -0.014 A 
BRANCH  32  33
ATOM     33  C   UNL A   1      38.138  29.717  29.673  1.00  0.00     0.031 A 
ATOM     34  C   UNL A   1      38.343  30.178  31.092  1.00  0.00     0.074 A 
ATOM     35  C   UNL A   1      39.006  28.849  29.118  1.00  0.00     0.049 A 
ATOM     36  N   UNL A   1      39.342  29.944  31.903  1.00  0.00    -0.248 NA
ATOM     37  C   UNL A   1      37.286  31.022  31.673  1.00  0.00     0.031 C 
ATOM     38  C   UNL A   1      38.903  28.299  27.765  1.00  0.00     0.029 A 
ATOM     39  N   UNL A   1      40.150  28.281  29.620  1.00  0.00    -0.354 N 
ATOM     40  C   UNL A   1      39.066  30.656  33.065  1.00  0.00     0.074 A 
ATOM     41  C   UNL A   1      37.806  31.335  32.852  1.00  0.00     0.031 C 
ATOM     42  C   UNL A   1      39.939  27.473  27.546  1.00  0.00     0.029 A 
ATOM     43  C   UNL A   1      40.809  27.480  28.717  1.00  0.00     0.049 A 
ATOM     44  H   UNL A   1      40.469  28.433  30.539  1.00  0.00     0.167 HD
ATOM     45  C   UNL A   1      39.789  30.730  34.209  1.00  0.00     0.034 A 
ATOM     46  C   UNL A   1      41.996  26.849  28.806  1.00  0.00     0.034 A 
ATOM     47  C   UNL A   1      41.019  30.017  34.431  1.00  0.00     0.049 A 
ATOM     48  C   UNL A   1      42.785  26.958  30.083  1.00  0.00     0.074 A 
ATOM     49  C   UNL A   1      41.812  30.002  35.565  1.00  0.00     0.029 A 
ATOM     50  N   UNL A   1      41.635  29.192  33.502  1.00  0.00    -0.354 N 
ATOM     51  N   UNL A   1      42.484  27.594  31.189  1.00  0.00    -0.248 NA
ATOM     52  C   UNL A   1      44.065  26.238  30.132  1.00  0.00     0.031 C 
ATOM     53  C   UNL A   1      42.923  29.190  35.311  1.00  0.00     0.029 A 
ATOM     54  C   UNL A   1      42.799  28.664  34.034  1.00  0.00     0.049 A 
ATOM     55  H   UNL A   1      41.294  29.008  32.597  1.00  0.00     0.167 HD
ATOM     56  C   UNL A   1      43.513  27.316  32.080  1.00  0.00     0.074 A 
ATOM     57  C   UNL A   1      44.439  26.442  31.388  1.00  0.00     0.031 C 
ATOM     58  C   UNL A   1      43.681  27.750  33.354  1.00  0.00     0.034 A 
BRANCH  45  59
ATOM     59  C   UNL A   1      39.264  31.615  35.312  1.00  0.00     0.023 A 
ATOM     60  C   UNL A   1      38.316  31.117  36.227  1.00  0.00     0.012 A 
ATOM     61  C   UNL A   1      39.743  32.933  35.463  1.00  0.00     0.148 A 
ATOM     62  C   UNL A   1      37.818  31.928  37.248  1.00  0.00     0.002 A 
ATOM     63  C   UNL A   1      39.280  33.718  36.512  1.00  0.00     0.091 A 
ATOM     64  F   UNL A   1      40.630  33.397  34.573  1.00  0.00    -0.205 F 
ATOM     65  C   UNL A   1      38.307  33.223  37.396  1.00  0.00     0.022 A 
BRANCH  63  66
ATOM     66  S   UNL A   1      39.907  35.370  36.835  1.00  0.00     0.127 S 
ATOM     67  O   UNL A   1      39.369  36.118  35.699  1.00  0.00    -0.237 OA
ATOM     68  O   UNL A   1      39.288  35.689  38.123  1.00  0.00    -0.237 OA
ATOM     69  O   UNL A   1      41.358  35.249  36.873  1.00  0.00    -0.744 OA
ENDBRANCH  63  66
ENDBRANCH  45  59
BRANCH  46  70
ATOM     70  C   UNL A   1      42.499  26.038  27.661  1.00  0.00     0.023 A 
ATOM     71  C   UNL A   1      43.410  26.608  26.752  1.00  0.00     0.012 A 
ATOM     72  C   UNL A   1      42.094  24.702  27.480  1.00  0.00     0.148 A 
ATOM     73  C   UNL A   1      43.885  25.872  25.665  1.00  0.00     0.002 A 
ATOM     74  C   UNL A   1      42.615  23.955  26.430  1.00  0.00     0.091 A 
ATOM     75  F   UNL A   1      41.214  24.181  28.348  1.00  0.00    -0.205 F 
ATOM     76  C   UNL A   1      43.495  24.544  25.510  1.00  0.00     0.022 A 
BRANCH  74  77
ATOM     77  S   UNL A   1      42.271  22.205  26.227  1.00  0.00     0.127 S 
ATOM     78  O   UNL A   1      43.021  21.892  25.012  1.00  0.00    -0.237 OA
ATOM     79  O   UNL A   1      42.830  21.643  27.458  1.00  0.00    -0.237 OA
ATOM     80  O   UNL A   1      40.823  22.095  26.118  1.00  0.00    -0.744 OA
ENDBRANCH  74  77
ENDBRANCH  46  70
BRANCH  58  81
ATOM     81  C   UNL A   1      44.874  27.233  34.116  1.00  0.00     0.023 A 
ATOM     82  C   UNL A   1      46.092  27.941  34.099  1.00  0.00     0.012 A 
ATOM     83  C   UNL A   1      44.765  26.066  34.899  1.00  0.00     0.148 A 
ATOM     84  C   UNL A   1      47.193  27.474  34.816  1.00  0.00     0.002 A 
ATOM     85  C   UNL A   1      45.848  25.637  35.654  1.00  0.00     0.091 A 
ATOM     86  F   UNL A   1      43.604  25.394  34.887  1.00  0.00    -0.205 F 
ATOM     87  C   UNL A   1      47.068  26.330  35.602  1.00  0.00     0.022 A 
BRANCH  85  88
ATOM     88  S   UNL A   1      45.744  24.236  36.773  1.00  0.00     0.127 S 
ATOM     89  O   UNL A   1      45.376  23.154  35.862  1.00  0.00    -0.237 OA
ATOM     90  O   UNL A   1      47.107  24.154  37.297  1.00  0.00    -0.237 OA
ATOM     91  O   UNL A   1      44.737  24.589  37.765  1.00  0.00    -0.744 OA
ENDBRANCH  85  88
ENDBRANCH  58  81
ENDBRANCH  32  33
ENDBRANCH  25  27
ENDBRANCH  24  25
ENDBRANCH  23  24
ENDBRANCH   1  23
TORSDOF 18
ENDMDL
MODEL 3
REMARK VINA RESULT:     -11.2      4.976      8.389
REMARK SMILES CNS(=O)(=O)c1ccc(Oc2csc(C(=O)OCCOC(=O)c3ccc(-c4c5nc(c(-c6cccc(S(=O)(=O)[O-])c6F)c6ccc([nH]6)c(-c6cccc(S(=O)(=O)[O-])c6F)c6nc(c(-c7cccc(S(=O)(=O)[O-])c7F)c7ccc4[nH]7)C=C6)C=C5)cc3)c2)cc1
REMARK SMILES IDX 18 1 17 2 15 3 16 4 14 5 11 6 12 7 86 8 13 9 10 10 9 11 6 12
REMARK SMILES IDX 7 13 88 14 8 15 87 16 3 17 4 18 5 19 2 20 1 21 19 23 20 24
REMARK SMILES IDX 21 25 22 26 23 27 24 28 85 29 25 30 84 31 26 32 27 33 28 34
REMARK SMILES IDX 78 35 29 36 83 37 77 38 79 39 30 40 82 41 76 42 75 43 31 45
REMARK SMILES IDX 63 46 43 47 62 48 44 49 47 50 61 51 80 52 45 53 46 54 60 56
REMARK SMILES IDX 81 57 48 58 32 59 33 60 41 61 34 62 36 63 42 64 35 65 37 66
REMARK SMILES IDX 38 67 39 68 40 69 64 70 65 71 73 72 66 73 68 74 74 75 67 76
REMARK SMILES IDX 69 77 70 78 71 79 72 80 49 81 50 82 58 83 51 84 53 85 59 86
REMARK SMILES IDX 52 87 54 88 55 89 56 90 57 91
REMARK H PARENT 2 22 79 44 47 55
REMARK Flexibility Score: inf
ROOT
ATOM      1  C   UNL A   1      31.127  30.135  24.897  1.00  0.00     0.275 C 
ENDROOT
BRANCH   1   2
ATOM      2  O   UNL A   1      32.320  29.390  24.579  1.00  0.00    -0.458 OA
BRANCH   2   3
ATOM      3  C   UNL A   1      32.165  28.342  23.712  1.00  0.00     0.348 C 
ATOM      4  O   UNL A   1      31.574  28.422  22.645  1.00  0.00    -0.245 OA
BRANCH   3   5
ATOM      5  C   UNL A   1      32.826  27.157  24.237  1.00  0.00     0.116 A 
ATOM      6  C   UNL A   1      33.825  25.061  24.460  1.00  0.00     0.138 A 
ATOM      7  C   UNL A   1      33.764  25.451  25.777  1.00  0.00     0.112 A 
ATOM      8  C   UNL A   1      33.290  26.036  23.574  1.00  0.00     0.074 A 
ATOM      9  S   UNL A   1      33.146  27.038  25.924  1.00  0.00    -0.133 S 
BRANCH   6  10
ATOM     10  O   UNL A   1      34.427  23.936  24.017  1.00  0.00    -0.456 OA
BRANCH  10  11
ATOM     11  C   UNL A   1      34.018  22.665  24.335  1.00  0.00     0.127 A 
ATOM     12  C   UNL A   1      33.508  19.958  24.727  1.00  0.00     0.082 A 
ATOM     13  C   UNL A   1      34.783  20.460  24.992  1.00  0.00     0.025 A 
ATOM     14  C   UNL A   1      32.471  20.811  24.328  1.00  0.00     0.025 A 
ATOM     15  C   UNL A   1      35.032  21.817  24.791  1.00  0.00     0.048 A 
ATOM     16  C   UNL A   1      32.733  22.168  24.115  1.00  0.00     0.048 A 
BRANCH  12  17
ATOM     17  S   UNL A   1      33.205  18.218  24.871  1.00  0.00     0.240 S 
ATOM     18  O   UNL A   1      32.518  17.956  26.115  1.00  0.00    -0.207 OA
ATOM     19  O   UNL A   1      34.417  17.515  24.512  1.00  0.00    -0.207 OA
BRANCH  17  20
ATOM     20  N   UNL A   1      32.126  17.943  23.606  1.00  0.00    -0.214 NA
ATOM     21  C   UNL A   1      32.627  18.011  22.236  1.00  0.00     0.120 C 
ATOM     22  H   UNL A   1      31.738  17.008  23.738  1.00  0.00     0.141 HD
ENDBRANCH  17  20
ENDBRANCH  12  17
ENDBRANCH  10  11
ENDBRANCH   6  10
ENDBRANCH   3   5
ENDBRANCH   2   3
ENDBRANCH   1   2
BRANCH   1  23
ATOM     23  C   UNL A   1      31.333  31.087  26.080  1.00  0.00     0.275 C 
BRANCH  23  24
ATOM     24  O   UNL A   1      32.547  30.805  26.799  1.00  0.00    -0.458 OA
BRANCH  24  25
ATOM     25  C   UNL A   1      33.224  31.900  27.212  1.00  0.00     0.338 C 
ATOM     26  O   UNL A   1      32.790  33.038  27.302  1.00  0.00    -0.246 OA
BRANCH  25  27
ATOM     27  C   UNL A   1      34.560  31.528  27.699  1.00  0.00     0.060 A 
ATOM     28  C   UNL A   1      34.756  30.189  28.031  1.00  0.00     0.016 A 
ATOM     29  C   UNL A   1      35.548  32.472  27.969  1.00  0.00     0.016 A 
ATOM     30  C   UNL A   1      35.910  29.786  28.690  1.00  0.00     0.010 A 
ATOM     31  C   UNL A   1      36.729  32.060  28.602  1.00  0.00     0.010 A 
ATOM     32  C   UNL A   1      36.903  30.720  29.002  1.00  0.00    -0.014 A 
BRANCH  32  33
ATOM     33  C   UNL A   1      38.071  30.294  29.817  1.00  0.00     0.031 A 
ATOM     34  C   UNL A   1      39.088  29.349  29.233  1.00  0.00     0.074 A 
ATOM     35  C   UNL A   1      38.244  30.781  31.062  1.00  0.00     0.049 A 
ATOM     36  N   UNL A   1      40.131  28.801  29.801  1.00  0.00    -0.248 NA
ATOM     37  C   UNL A   1      38.901  28.963  27.825  1.00  0.00     0.031 C 
ATOM     38  C   UNL A   1      37.352  31.728  31.730  1.00  0.00     0.029 A 
ATOM     39  N   UNL A   1      39.227  30.539  31.989  1.00  0.00    -0.354 N 
ATOM     40  C   UNL A   1      40.690  27.962  28.843  1.00  0.00     0.074 A 
ATOM     41  C   UNL A   1      39.867  28.070  27.658  1.00  0.00     0.031 C 
ATOM     42  C   UNL A   1      37.828  31.990  32.958  1.00  0.00     0.029 A 
ATOM     43  C   UNL A   1      39.023  31.185  33.186  1.00  0.00     0.049 A 
ATOM     44  H   UNL A   1      40.003  29.960  31.814  1.00  0.00     0.167 HD
ATOM     45  C   UNL A   1      41.794  27.182  28.937  1.00  0.00     0.034 A 
ATOM     46  C   UNL A   1      39.701  31.114  34.348  1.00  0.00     0.034 A 
ATOM     47  C   UNL A   1      42.634  27.112  30.103  1.00  0.00     0.049 A 
ATOM     48  C   UNL A   1      40.916  30.228  34.430  1.00  0.00     0.074 A 
ATOM     49  C   UNL A   1      43.790  26.375  30.289  1.00  0.00     0.029 A 
ATOM     50  N   UNL A   1      42.410  27.806  31.283  1.00  0.00    -0.354 N 
ATOM     51  N   UNL A   1      41.459  29.482  33.499  1.00  0.00    -0.248 NA
ATOM     52  C   UNL A   1      41.627  30.199  35.716  1.00  0.00     0.031 C 
ATOM     53  C   UNL A   1      44.249  26.600  31.591  1.00  0.00     0.029 A 
ATOM     54  C   UNL A   1      43.403  27.513  32.202  1.00  0.00     0.049 A 
ATOM     55  H   UNL A   1      41.655  28.418  31.443  1.00  0.00     0.167 HD
ATOM     56  C   UNL A   1      42.599  28.929  34.070  1.00  0.00     0.074 A 
ATOM     57  C   UNL A   1      42.674  29.439  35.425  1.00  0.00     0.031 C 
ATOM     58  C   UNL A   1      43.498  28.072  33.527  1.00  0.00     0.034 A 
BRANCH  45  59
ATOM     59  C   UNL A   1      42.158  26.337  27.741  1.00  0.00     0.023 A 
ATOM     60  C   UNL A   1      42.900  26.896  26.681  1.00  0.00     0.012 A 
ATOM     61  C   UNL A   1      41.794  24.976  27.686  1.00  0.00     0.148 A 
ATOM     62  C   UNL A   1      43.237  26.127  25.566  1.00  0.00     0.002 A 
ATOM     63  C   UNL A   1      42.177  24.204  26.596  1.00  0.00     0.091 A 
ATOM     64  F   UNL A   1      41.072  24.466  28.693  1.00  0.00    -0.205 F 
ATOM     65  C   UNL A   1      42.885  24.781  25.528  1.00  0.00     0.022 A 
BRANCH  63  66
ATOM     66  S   UNL A   1      41.841  22.443  26.491  1.00  0.00     0.127 S 
ATOM     67  O   UNL A   1      42.474  21.948  27.714  1.00  0.00    -0.237 OA
ATOM     68  O   UNL A   1      40.377  22.406  26.506  1.00  0.00    -0.237 OA
ATOM     69  O   UNL A   1      42.446  21.991  25.247  1.00  0.00    -0.744 OA
ENDBRANCH  63  66
ENDBRANCH  45  59
BRANCH  46  70
ATOM     70  C   UNL A   1      39.260  31.921  35.521  1.00  0.00     0.023 A 
ATOM     71  C   UNL A   1      38.366  31.362  36.454  1.00  0.00     0.012 A 
ATOM     72  C   UNL A   1      39.738  33.230  35.727  1.00  0.00     0.148 A 
ATOM     73  C   UNL A   1      37.930  32.104  37.553  1.00  0.00     0.002 A 
ATOM     74  C   UNL A   1      39.347  33.941  36.854  1.00  0.00     0.091 A 
ATOM     75  F   UNL A   1      40.578  33.749  34.820  1.00  0.00    -0.205 F 
ATOM     76  C   UNL A   1      38.428  33.389  37.758  1.00  0.00     0.022 A 
BRANCH  74  77
ATOM     77  S   UNL A   1      40.034  35.548  37.267  1.00  0.00     0.127 S 
ATOM     78  O   UNL A   1      39.375  35.837  38.539  1.00  0.00    -0.237 OA
ATOM     79  O   UNL A   1      41.463  35.248  37.367  1.00  0.00    -0.237 OA
ATOM     80  O   UNL A   1      39.680  36.427  36.162  1.00  0.00    -0.744 OA
ENDBRANCH  74  77
ENDBRANCH  46  70
BRANCH  58  81
ATOM     81  C   UNL A   1      44.685  27.681  34.368  1.00  0.00     0.023 A 
ATOM     82  C   UNL A   1      45.812  28.523  34.446  1.00  0.00     0.012 A 
ATOM     83  C   UNL A   1      44.656  26.496  35.130  1.00  0.00     0.148 A 
ATOM     84  C   UNL A   1      46.905  28.172  35.237  1.00  0.00     0.002 A 
ATOM     85  C   UNL A   1      45.725  26.179  35.958  1.00  0.00     0.091 A 
ATOM     86  F   UNL A   1      43.584  25.696  35.027  1.00  0.00    -0.205 F 
ATOM     87  C   UNL A   1      46.857  27.008  36.000  1.00  0.00     0.022 A 
BRANCH  85  88
ATOM     88  S   UNL A   1      45.703  24.756  37.053  1.00  0.00     0.127 S 
ATOM     89  O   UNL A   1      45.482  23.660  36.112  1.00  0.00    -0.237 OA
ATOM     90  O   UNL A   1      47.043  24.795  37.639  1.00  0.00    -0.237 OA
ATOM     91  O   UNL A   1      44.623  24.996  38.001  1.00  0.00    -0.744 OA
ENDBRANCH  85  88
ENDBRANCH  58  81
ENDBRANCH  32  33
ENDBRANCH  25  27
ENDBRANCH  24  25
ENDBRANCH  23  24
ENDBRANCH   1  23
TORSDOF 18
ENDMDL
