MODEL 1
REMARK VINA RESULT:     -12.1      0.000      0.000
REMARK SMILES O=C(OCCOC(=O)[C@]1(NC(=O)c2nc(C3CC3)n[nH]2)CCSC1)c1ccc(-c2c3nc(c(-c4cccc(S(=O)(=O)[O-])c4F)c4ccc([nH]4)c(-c4cccc(S(=O)(=O)[O-])c4F)c4nc(c(-c5cccc(S(=O)(=O)[O-])c5F)c5ccc2[nH]5)C=C4)C=C3)cc1
REMARK SMILES IDX 4 1 3 2 2 3 1 4 25 5 26 6 87 7 27 8 86 9 28 10 29 11 30 12
REMARK SMILES IDX 80 13 31 14 85 15 79 16 81 17 32 18 84 19 78 20 77 21 33 23
REMARK SMILES IDX 65 24 45 25 64 26 46 27 49 28 63 29 82 30 47 31 48 32 62 34
REMARK SMILES IDX 83 35 50 36 34 37 35 38 43 39 36 40 38 41 44 42 37 43 39 44
REMARK SMILES IDX 40 45 41 46 42 47 66 48 67 49 75 50 68 51 70 52 76 53 69 54
REMARK SMILES IDX 71 55 72 56 73 57 74 58 51 59 52 60 60 61 53 62 55 63 61 64
REMARK SMILES IDX 54 65 56 66 57 67 58 68 59 69 5 70 6 71 7 72 8 73 9 74 21 75
REMARK SMILES IDX 24 76 22 77 23 78 10 79 11 80 12 82 13 83 14 84 20 85 15 86
REMARK SMILES IDX 19 87 16 89 17 90 18 91
REMARK H PARENT 81 22 49 33 10 81 20 88
REMARK Flexibility Score: inf
ROOT
ATOM      1  C   UNL A   1      37.161  21.008  24.706  1.00  0.00     0.275 C 
ENDROOT
BRANCH   1   2
ATOM      2  O   UNL A   1      37.745  21.761  25.787  1.00  0.00    -0.458 OA
BRANCH   2   3
ATOM      3  C   UNL A   1      39.046  21.554  26.091  1.00  0.00     0.338 C 
ATOM      4  O   UNL A   1      39.633  20.488  26.027  1.00  0.00    -0.246 OA
BRANCH   3   5
ATOM      5  C   UNL A   1      39.613  22.809  26.655  1.00  0.00     0.060 A 
ATOM      6  C   UNL A   1      39.013  24.045  26.373  1.00  0.00     0.016 A 
ATOM      7  C   UNL A   1      40.671  22.744  27.571  1.00  0.00     0.016 A 
ATOM      8  C   UNL A   1      39.462  25.200  26.999  1.00  0.00     0.010 A 
ATOM      9  C   UNL A   1      41.124  23.909  28.204  1.00  0.00     0.010 A 
ATOM     10  C   UNL A   1      40.525  25.141  27.910  1.00  0.00    -0.014 A 
BRANCH  10  11
ATOM     11  C   UNL A   1      41.123  26.426  28.327  1.00  0.00     0.031 A 
ATOM     12  C   UNL A   1      42.444  26.780  27.718  1.00  0.00     0.074 A 
ATOM     13  C   UNL A   1      40.467  27.298  29.115  1.00  0.00     0.049 A 
ATOM     14  N   UNL A   1      43.106  27.900  27.779  1.00  0.00    -0.248 NA
ATOM     15  C   UNL A   1      43.109  25.717  26.943  1.00  0.00     0.031 C 
ATOM     16  C   UNL A   1      39.207  27.035  29.795  1.00  0.00     0.029 A 
ATOM     17  N   UNL A   1      40.748  28.601  29.439  1.00  0.00    -0.354 N 
ATOM     18  C   UNL A   1      44.291  27.661  27.100  1.00  0.00     0.074 A 
ATOM     19  C   UNL A   1      44.239  26.308  26.594  1.00  0.00     0.031 C 
ATOM     20  C   UNL A   1      38.750  28.172  30.345  1.00  0.00     0.029 A 
ATOM     21  C   UNL A   1      39.734  29.227  30.131  1.00  0.00     0.049 A 
ATOM     22  H   UNL A   1      41.594  29.046  29.201  1.00  0.00     0.167 HD
ATOM     23  C   UNL A   1      45.347  28.487  26.940  1.00  0.00     0.034 A 
ATOM     24  C   UNL A   1      39.626  30.507  30.543  1.00  0.00     0.034 A 
ATOM     25  C   UNL A   1      45.400  29.816  27.469  1.00  0.00     0.049 A 
ATOM     26  C   UNL A   1      40.790  31.430  30.294  1.00  0.00     0.074 A 
ATOM     27  C   UNL A   1      46.445  30.719  27.432  1.00  0.00     0.029 A 
ATOM     28  N   UNL A   1      44.355  30.429  28.145  1.00  0.00    -0.354 N 
ATOM     29  N   UNL A   1      41.884  31.212  29.604  1.00  0.00    -0.248 NA
ATOM     30  C   UNL A   1      40.717  32.769  30.899  1.00  0.00     0.031 C 
ATOM     31  C   UNL A   1      46.032  31.881  28.094  1.00  0.00     0.029 A 
ATOM     32  C   UNL A   1      44.727  31.703  28.531  1.00  0.00     0.049 A 
ATOM     33  H   UNL A   1      43.479  30.018  28.324  1.00  0.00     0.167 HD
ATOM     34  C   UNL A   1      42.638  32.374  29.707  1.00  0.00     0.074 A 
ATOM     35  C   UNL A   1      41.849  33.317  30.475  1.00  0.00     0.031 C 
ATOM     36  C   UNL A   1      43.890  32.627  29.253  1.00  0.00     0.034 A 
BRANCH  23  37
ATOM     37  C   UNL A   1      46.522  27.926  26.199  1.00  0.00     0.023 A 
ATOM     38  C   UNL A   1      46.578  28.036  24.797  1.00  0.00     0.012 A 
ATOM     39  C   UNL A   1      47.526  27.220  26.886  1.00  0.00     0.148 A 
ATOM     40  C   UNL A   1      47.606  27.422  24.082  1.00  0.00     0.002 A 
ATOM     41  C   UNL A   1      48.561  26.634  26.170  1.00  0.00     0.091 A 
ATOM     42  F   UNL A   1      47.421  27.088  28.217  1.00  0.00    -0.205 F 
ATOM     43  C   UNL A   1      48.599  26.726  24.768  1.00  0.00     0.022 A 
BRANCH  41  44
ATOM     44  S   UNL A   1      49.892  25.734  26.971  1.00  0.00     0.127 S 
ATOM     45  O   UNL A   1      49.219  24.496  27.359  1.00  0.00    -0.237 OA
ATOM     46  O   UNL A   1      50.863  25.588  25.886  1.00  0.00    -0.237 OA
ATOM     47  O   UNL A   1      50.338  26.579  28.071  1.00  0.00    -0.744 OA
ENDBRANCH  41  44
ENDBRANCH  23  37
BRANCH  24  48
ATOM     48  C   UNL A   1      38.377  31.005  31.196  1.00  0.00     0.023 A 
ATOM     49  C   UNL A   1      38.240  30.890  32.595  1.00  0.00     0.012 A 
ATOM     50  C   UNL A   1      37.333  31.601  30.465  1.00  0.00     0.148 A 
ATOM     51  C   UNL A   1      37.087  31.338  33.244  1.00  0.00     0.002 A 
ATOM     52  C   UNL A   1      36.214  32.103  31.125  1.00  0.00     0.091 A 
ATOM     53  F   UNL A   1      37.444  31.671  29.129  1.00  0.00    -0.205 F 
ATOM     54  C   UNL A   1      36.080  31.958  32.511  1.00  0.00     0.022 A 
BRANCH  52  55
ATOM     55  S   UNL A   1      34.970  33.052  30.242  1.00  0.00     0.127 S 
ATOM     56  O   UNL A   1      35.769  34.111  29.634  1.00  0.00    -0.237 OA
ATOM     57  O   UNL A   1      34.429  32.071  29.300  1.00  0.00    -0.237 OA
ATOM     58  O   UNL A   1      34.025  33.462  31.273  1.00  0.00    -0.744 OA
ENDBRANCH  52  55
ENDBRANCH  24  48
BRANCH  36  59
ATOM     59  C   UNL A   1      44.494  33.961  29.589  1.00  0.00     0.023 A 
ATOM     60  C   UNL A   1      45.236  34.097  30.777  1.00  0.00     0.012 A 
ATOM     61  C   UNL A   1      44.428  35.032  28.679  1.00  0.00     0.148 A 
ATOM     62  C   UNL A   1      45.900  35.289  31.061  1.00  0.00     0.002 A 
ATOM     63  C   UNL A   1      45.125  36.202  28.950  1.00  0.00     0.091 A 
ATOM     64  F   UNL A   1      43.694  34.885  27.567  1.00  0.00    -0.205 F 
ATOM     65  C   UNL A   1      45.857  36.335  30.142  1.00  0.00     0.022 A 
BRANCH  63  66
ATOM     66  S   UNL A   1      45.199  37.557  27.774  1.00  0.00     0.127 S 
ATOM     67  O   UNL A   1      46.015  38.533  28.493  1.00  0.00    -0.237 OA
ATOM     68  O   UNL A   1      45.857  36.940  26.621  1.00  0.00    -0.237 OA
ATOM     69  O   UNL A   1      43.815  37.946  27.534  1.00  0.00    -0.744 OA
ENDBRANCH  63  66
ENDBRANCH  36  59
ENDBRANCH  10  11
ENDBRANCH   3   5
ENDBRANCH   2   3
ENDBRANCH   1   2
BRANCH   1  70
ATOM     70  C   UNL A   1      35.856  20.266  25.007  1.00  0.00     0.274 C 
BRANCH  70  71
ATOM     71  O   UNL A   1      34.994  21.084  25.813  1.00  0.00    -0.460 OA
BRANCH  71  72
ATOM     72  C   UNL A   1      33.665  20.829  25.623  1.00  0.00     0.332 C 
ATOM     73  O   UNL A   1      33.184  19.702  25.681  1.00  0.00    -0.249 OA
BRANCH  72  74
ATOM     74  C   UNL A   1      32.831  22.137  25.553  1.00  0.00     0.148 C 
ATOM     75  C   UNL A   1      32.090  22.084  24.188  1.00  0.00     0.052 C 
ATOM     76  C   UNL A   1      33.715  23.389  25.480  1.00  0.00     0.110 C 
ATOM     77  C   UNL A   1      33.061  22.387  23.065  1.00  0.00     0.072 C 
ATOM     78  S   UNL A   1      34.113  23.699  23.720  1.00  0.00    -0.159 SA
BRANCH  74  79
ATOM     79  N   UNL A   1      31.775  22.294  26.583  1.00  0.00    -0.333 N 
ATOM     80  C   UNL A   1      30.775  23.203  26.798  1.00  0.00     0.289 C 
ATOM     81  H   UNL A   1      31.799  21.585  27.267  1.00  0.00     0.165 HD
ATOM     82  O   UNL A   1      29.884  22.888  27.582  1.00  0.00    -0.266 OA
BRANCH  80  83
ATOM     83  C   UNL A   1      30.860  24.537  26.289  1.00  0.00     0.214 A 
ATOM     84  N   UNL A   1      31.530  25.575  26.744  1.00  0.00    -0.207 NA
ATOM     85  N   UNL A   1      30.105  24.927  25.221  1.00  0.00    -0.255 N 
ATOM     86  C   UNL A   1      31.038  26.606  25.982  1.00  0.00     0.154 A 
ATOM     87  N   UNL A   1      30.121  26.259  25.073  1.00  0.00    -0.158 NA
ATOM     88  H   UNL A   1      29.611  24.309  24.635  1.00  0.00     0.192 HD
BRANCH  86  89
ATOM     89  C   UNL A   1      31.444  28.052  26.173  1.00  0.00     0.060 C 
ATOM     90  C   UNL A   1      31.637  28.579  27.579  1.00  0.00     0.012 C 
ATOM     91  C   UNL A   1      32.825  28.351  26.707  1.00  0.00     0.012 C 
ENDBRANCH  86  89
ENDBRANCH  80  83
ENDBRANCH  74  79
ENDBRANCH  72  74
ENDBRANCH  71  72
ENDBRANCH  70  71
ENDBRANCH   1  70
TORSDOF 17
ENDMDL
MODEL 2
REMARK VINA RESULT:     -11.9      1.149      1.513
REMARK SMILES O=C(OCCOC(=O)[C@]1(NC(=O)c2nc(C3CC3)n[nH]2)CCSC1)c1ccc(-c2c3nc(c(-c4cccc(S(=O)(=O)[O-])c4F)c4ccc([nH]4)c(-c4cccc(S(=O)(=O)[O-])c4F)c4nc(c(-c5cccc(S(=O)(=O)[O-])c5F)c5ccc2[nH]5)C=C4)C=C3)cc1
REMARK SMILES IDX 4 1 3 2 2 3 1 4 25 5 26 6 87 7 27 8 86 9 28 10 29 11 30 12
REMARK SMILES IDX 80 13 31 14 85 15 79 16 81 17 32 18 84 19 78 20 77 21 33 23
REMARK SMILES IDX 65 24 45 25 64 26 46 27 49 28 63 29 82 30 47 31 48 32 62 34
REMARK SMILES IDX 83 35 50 36 34 37 35 38 43 39 36 40 38 41 44 42 37 43 39 44
REMARK SMILES IDX 40 45 41 46 42 47 66 48 67 49 75 50 68 51 70 52 76 53 69 54
REMARK SMILES IDX 71 55 72 56 73 57 74 58 51 59 52 60 60 61 53 62 55 63 61 64
REMARK SMILES IDX 54 65 56 66 57 67 58 68 59 69 5 70 6 71 7 72 8 73 9 74 21 75
REMARK SMILES IDX 24 76 22 77 23 78 10 79 11 80 12 82 13 83 14 84 20 85 15 86
REMARK SMILES IDX 19 87 16 89 17 90 18 91
REMARK H PARENT 81 22 49 33 10 81 20 88
REMARK Flexibility Score: inf
ROOT
ATOM      1  C   UNL A   1      37.374  20.939  24.736  1.00  0.00     0.275 C 
ENDROOT
BRANCH   1   2
ATOM      2  O   UNL A   1      37.925  21.747  25.795  1.00  0.00    -0.458 OA
BRANCH   2   3
ATOM      3  C   UNL A   1      39.215  21.555  26.150  1.00  0.00     0.338 C 
ATOM      4  O   UNL A   1      39.818  20.497  26.105  1.00  0.00    -0.246 OA
BRANCH   3   5
ATOM      5  C   UNL A   1      39.743  22.814  26.743  1.00  0.00     0.060 A 
ATOM      6  C   UNL A   1      39.113  24.039  26.476  1.00  0.00     0.016 A 
ATOM      7  C   UNL A   1      40.792  22.761  27.670  1.00  0.00     0.016 A 
ATOM      8  C   UNL A   1      39.525  25.193  27.128  1.00  0.00     0.010 A 
ATOM      9  C   UNL A   1      41.207  23.924  28.328  1.00  0.00     0.010 A 
ATOM     10  C   UNL A   1      40.579  25.146  28.050  1.00  0.00    -0.014 A 
BRANCH  10  11
ATOM     11  C   UNL A   1      41.138  26.439  28.497  1.00  0.00     0.031 A 
ATOM     12  C   UNL A   1      42.512  26.779  28.009  1.00  0.00     0.074 A 
ATOM     13  C   UNL A   1      40.412  27.326  29.201  1.00  0.00     0.049 A 
ATOM     14  N   UNL A   1      43.169  27.899  28.111  1.00  0.00    -0.248 NA
ATOM     15  C   UNL A   1      43.245  25.700  27.322  1.00  0.00     0.031 C 
ATOM     16  C   UNL A   1      39.092  27.078  29.763  1.00  0.00     0.029 A 
ATOM     17  N   UNL A   1      40.665  28.635  29.525  1.00  0.00    -0.354 N 
ATOM     18  C   UNL A   1      44.413  27.646  27.553  1.00  0.00     0.074 A 
ATOM     19  C   UNL A   1      44.405  26.283  27.072  1.00  0.00     0.031 C 
ATOM     20  C   UNL A   1      38.589  28.226  30.245  1.00  0.00     0.029 A 
ATOM     21  C   UNL A   1      39.591  29.276  30.105  1.00  0.00     0.049 A 
ATOM     22  H   UNL A   1      41.531  29.075  29.360  1.00  0.00     0.167 HD
ATOM     23  C   UNL A   1      45.481  28.468  27.478  1.00  0.00     0.034 A 
ATOM     24  C   UNL A   1      39.448  30.564  30.479  1.00  0.00     0.034 A 
ATOM     25  C   UNL A   1      45.487  29.807  27.984  1.00  0.00     0.049 A 
ATOM     26  C   UNL A   1      40.633  31.481  30.324  1.00  0.00     0.074 A 
ATOM     27  C   UNL A   1      46.533  30.708  28.029  1.00  0.00     0.029 A 
ATOM     28  N   UNL A   1      44.384  30.434  28.545  1.00  0.00    -0.354 N 
ATOM     29  N   UNL A   1      41.788  31.248  29.746  1.00  0.00    -0.248 NA
ATOM     30  C   UNL A   1      40.507  32.832  30.893  1.00  0.00     0.031 C 
ATOM     31  C   UNL A   1      46.063  31.883  28.626  1.00  0.00     0.029 A 
ATOM     32  C   UNL A   1      44.721  31.715  28.940  1.00  0.00     0.049 A 
ATOM     33  H   UNL A   1      43.494  30.028  28.648  1.00  0.00     0.167 HD
ATOM     34  C   UNL A   1      42.532  32.411  29.898  1.00  0.00     0.074 A 
ATOM     35  C   UNL A   1      41.675  33.370  30.568  1.00  0.00     0.031 C 
ATOM     36  C   UNL A   1      43.822  32.654  29.560  1.00  0.00     0.034 A 
BRANCH  23  37
ATOM     37  C   UNL A   1      46.720  27.891  26.864  1.00  0.00     0.023 A 
ATOM     38  C   UNL A   1      47.753  27.417  27.695  1.00  0.00     0.012 A 
ATOM     39  C   UNL A   1      46.891  27.894  25.468  1.00  0.00     0.148 A 
ATOM     40  C   UNL A   1      48.957  26.982  27.144  1.00  0.00     0.002 A 
ATOM     41  C   UNL A   1      48.084  27.434  24.925  1.00  0.00     0.091 A 
ATOM     42  F   UNL A   1      45.911  28.397  24.703  1.00  0.00    -0.205 F 
ATOM     43  C   UNL A   1      49.120  26.986  25.760  1.00  0.00     0.022 A 
BRANCH  41  44
ATOM     44  S   UNL A   1      48.375  27.385  23.155  1.00  0.00     0.127 S 
ATOM     45  O   UNL A   1      49.728  27.931  23.064  1.00  0.00    -0.237 OA
ATOM     46  O   UNL A   1      48.272  25.955  22.864  1.00  0.00    -0.237 OA
ATOM     47  O   UNL A   1      47.326  28.201  22.556  1.00  0.00    -0.744 OA
ENDBRANCH  41  44
ENDBRANCH  23  37
BRANCH  24  48
ATOM     48  C   UNL A   1      38.144  31.076  31.000  1.00  0.00     0.023 A 
ATOM     49  C   UNL A   1      37.864  30.965  32.377  1.00  0.00     0.012 A 
ATOM     50  C   UNL A   1      37.187  31.681  30.165  1.00  0.00     0.148 A 
ATOM     51  C   UNL A   1      36.655  31.426  32.904  1.00  0.00     0.002 A 
ATOM     52  C   UNL A   1      36.011  32.196  30.706  1.00  0.00     0.091 A 
ATOM     53  F   UNL A   1      37.435  31.747  28.848  1.00  0.00    -0.205 F 
ATOM     54  C   UNL A   1      35.734  32.055  32.072  1.00  0.00     0.022 A 
BRANCH  52  55
ATOM     55  S   UNL A   1      34.874  33.156  29.699  1.00  0.00     0.127 S 
ATOM     56  O   UNL A   1      34.284  32.131  28.844  1.00  0.00    -0.237 OA
ATOM     57  O   UNL A   1      33.965  33.723  30.697  1.00  0.00    -0.237 OA
ATOM     58  O   UNL A   1      35.718  34.145  29.041  1.00  0.00    -0.744 OA
ENDBRANCH  52  55
ENDBRANCH  24  48
BRANCH  36  59
ATOM     59  C   UNL A   1      44.395  33.994  29.926  1.00  0.00     0.023 A 
ATOM     60  C   UNL A   1      45.119  34.125  31.126  1.00  0.00     0.012 A 
ATOM     61  C   UNL A   1      44.320  35.079  29.033  1.00  0.00     0.148 A 
ATOM     62  C   UNL A   1      45.755  35.324  31.438  1.00  0.00     0.002 A 
ATOM     63  C   UNL A   1      44.990  36.257  29.332  1.00  0.00     0.091 A 
ATOM     64  F   UNL A   1      43.604  34.935  27.908  1.00  0.00    -0.205 F 
ATOM     65  C   UNL A   1      45.703  36.385  30.536  1.00  0.00     0.022 A 
BRANCH  63  66
ATOM     66  S   UNL A   1      45.052  37.632  28.179  1.00  0.00     0.127 S 
ATOM     67  O   UNL A   1      43.647  38.024  28.106  1.00  0.00    -0.237 OA
ATOM     68  O   UNL A   1      45.918  38.587  28.872  1.00  0.00    -0.237 OA
ATOM     69  O   UNL A   1      45.621  37.091  26.952  1.00  0.00    -0.744 OA
ENDBRANCH  63  66
ENDBRANCH  36  59
ENDBRANCH  10  11
ENDBRANCH   3   5
ENDBRANCH   2   3
ENDBRANCH   1   2
BRANCH   1  70
ATOM     70  C   UNL A   1      36.012  20.291  25.000  1.00  0.00     0.274 C 
BRANCH  70  71
ATOM     71  O   UNL A   1      35.212  21.140  25.837  1.00  0.00    -0.460 OA
BRANCH  71  72
ATOM     72  C   UNL A   1      33.867  20.949  25.683  1.00  0.00     0.332 C 
ATOM     73  O   UNL A   1      33.341  19.841  25.716  1.00  0.00    -0.249 OA
BRANCH  72  74
ATOM     74  C   UNL A   1      33.089  22.291  25.689  1.00  0.00     0.148 C 
ATOM     75  C   UNL A   1      32.425  22.393  24.288  1.00  0.00     0.052 C 
ATOM     76  C   UNL A   1      34.022  23.507  25.779  1.00  0.00     0.110 C 
ATOM     77  C   UNL A   1      33.470  22.754  23.251  1.00  0.00     0.072 C 
ATOM     78  S   UNL A   1      34.530  23.956  24.079  1.00  0.00    -0.159 SA
BRANCH  74  79
ATOM     79  N   UNL A   1      31.982  22.400  26.672  1.00  0.00    -0.333 N 
ATOM     80  C   UNL A   1      30.918  23.246  26.825  1.00  0.00     0.289 C 
ATOM     81  H   UNL A   1      32.023  21.709  27.372  1.00  0.00     0.165 HD
ATOM     82  O   UNL A   1      30.017  22.890  27.579  1.00  0.00    -0.266 OA
BRANCH  80  83
ATOM     83  C   UNL A   1      30.939  24.573  26.289  1.00  0.00     0.214 A 
ATOM     84  N   UNL A   1      31.561  25.649  26.721  1.00  0.00    -0.207 NA
ATOM     85  N   UNL A   1      30.163  24.906  25.217  1.00  0.00    -0.255 N 
ATOM     86  C   UNL A   1      31.018  26.642  25.942  1.00  0.00     0.154 A 
ATOM     87  N   UNL A   1      30.116  26.234  25.044  1.00  0.00    -0.158 NA
ATOM     88  H   UNL A   1      29.696  24.254  24.645  1.00  0.00     0.192 HD
BRANCH  86  89
ATOM     89  C   UNL A   1      31.357  28.109  26.102  1.00  0.00     0.060 C 
ATOM     90  C   UNL A   1      31.869  28.599  27.439  1.00  0.00     0.012 C 
ATOM     91  C   UNL A   1      32.804  28.501  26.282  1.00  0.00     0.012 C 
ENDBRANCH  86  89
ENDBRANCH  80  83
ENDBRANCH  74  79
ENDBRANCH  72  74
ENDBRANCH  71  72
ENDBRANCH  70  71
ENDBRANCH   1  70
TORSDOF 17
ENDMDL
MODEL 3
REMARK VINA RESULT:     -11.7      1.818      3.194
REMARK SMILES O=C(OCCOC(=O)[C@]1(NC(=O)c2nc(C3CC3)n[nH]2)CCSC1)c1ccc(-c2c3nc(c(-c4cccc(S(=O)(=O)[O-])c4F)c4ccc([nH]4)c(-c4cccc(S(=O)(=O)[O-])c4F)c4nc(c(-c5cccc(S(=O)(=O)[O-])c5F)c5ccc2[nH]5)C=C4)C=C3)cc1
REMARK SMILES IDX 4 1 3 2 2 3 1 4 25 5 26 6 87 7 27 8 86 9 28 10 29 11 30 12
REMARK SMILES IDX 80 13 31 14 85 15 79 16 81 17 32 18 84 19 78 20 77 21 33 23
REMARK SMILES IDX 65 24 45 25 64 26 46 27 49 28 63 29 82 30 47 31 48 32 62 34
REMARK SMILES IDX 83 35 50 36 34 37 35 38 43 39 36 40 38 41 44 42 37 43 39 44
REMARK SMILES IDX 40 45 41 46 42 47 66 48 67 49 75 50 68 51 70 52 76 53 69 54
REMARK SMILES IDX 71 55 72 56 73 57 74 58 51 59 52 60 60 61 53 62 55 63 61 64
REMARK SMILES IDX 54 65 56 66 57 67 58 68 59 69 5 70 6 71 7 72 8 73 9 74 21 75
REMARK SMILES IDX 24 76 22 77 23 78 10 79 11 80 12 82 13 83 14 84 20 85 15 86
REMARK SMILES IDX 19 87 16 89 17 90 18 91
REMARK H PARENT 81 22 49 33 10 81 20 88
REMARK Flexibility Score: inf
ROOT
ATOM      1  C   UNL A   1      36.976  21.724  24.101  1.00  0.00     0.275 C 
ENDROOT
BRANCH   1   2
ATOM      2  O   UNL A   1      37.340  21.742  25.496  1.00  0.00    -0.458 OA
BRANCH   2   3
ATOM      3  C   UNL A   1      38.611  21.435  25.836  1.00  0.00     0.338 C 
ATOM      4  O   UNL A   1      39.121  20.330  25.773  1.00  0.00    -0.246 OA
BRANCH   3   5
ATOM      5  C   UNL A   1      39.250  22.638  26.439  1.00  0.00     0.060 A 
ATOM      6  C   UNL A   1      38.718  23.914  26.203  1.00  0.00     0.016 A 
ATOM      7  C   UNL A   1      40.308  22.483  27.344  1.00  0.00     0.016 A 
ATOM      8  C   UNL A   1      39.234  25.019  26.865  1.00  0.00     0.010 A 
ATOM      9  C   UNL A   1      40.828  23.598  28.012  1.00  0.00     0.010 A 
ATOM     10  C   UNL A   1      40.297  24.870  27.765  1.00  0.00    -0.014 A 
BRANCH  10  11
ATOM     11  C   UNL A   1      40.967  26.106  28.221  1.00  0.00     0.031 A 
ATOM     12  C   UNL A   1      42.331  26.374  27.665  1.00  0.00     0.074 A 
ATOM     13  C   UNL A   1      40.345  27.012  28.997  1.00  0.00     0.049 A 
ATOM     14  N   UNL A   1      43.068  27.443  27.765  1.00  0.00    -0.248 NA
ATOM     15  C   UNL A   1      42.949  25.275  26.899  1.00  0.00     0.031 C 
ATOM     16  C   UNL A   1      39.046  26.831  29.629  1.00  0.00     0.029 A 
ATOM     17  N   UNL A   1      40.705  28.289  29.350  1.00  0.00    -0.354 N 
ATOM     18  C   UNL A   1      44.257  27.129  27.125  1.00  0.00     0.074 A 
ATOM     19  C   UNL A   1      44.129  25.789  26.599  1.00  0.00     0.031 C 
ATOM     20  C   UNL A   1      38.650  27.990  30.178  1.00  0.00     0.029 A 
ATOM     21  C   UNL A   1      39.712  28.976  30.014  1.00  0.00     0.049 A 
ATOM     22  H   UNL A   1      41.588  28.676  29.148  1.00  0.00     0.167 HD
ATOM     23  C   UNL A   1      45.373  27.881  27.015  1.00  0.00     0.034 A 
ATOM     24  C   UNL A   1      39.679  30.256  30.439  1.00  0.00     0.034 A 
ATOM     25  C   UNL A   1      45.499  29.197  27.564  1.00  0.00     0.049 A 
ATOM     26  C   UNL A   1      40.912  31.098  30.245  1.00  0.00     0.074 A 
ATOM     27  C   UNL A   1      46.605  30.025  27.577  1.00  0.00     0.029 A 
ATOM     28  N   UNL A   1      44.475  29.874  28.211  1.00  0.00    -0.354 N 
ATOM     29  N   UNL A   1      42.014  30.812  29.592  1.00  0.00    -0.248 NA
ATOM     30  C   UNL A   1      40.911  32.432  30.866  1.00  0.00     0.031 C 
ATOM     31  C   UNL A   1      46.251  31.205  28.240  1.00  0.00     0.029 A 
ATOM     32  C   UNL A   1      44.921  31.114  28.628  1.00  0.00     0.049 A 
ATOM     33  H   UNL A   1      43.567  29.524  28.353  1.00  0.00     0.167 HD
ATOM     34  C   UNL A   1      42.843  31.916  29.738  1.00  0.00     0.074 A 
ATOM     35  C   UNL A   1      42.093  32.904  30.490  1.00  0.00     0.031 C 
ATOM     36  C   UNL A   1      44.125  32.086  29.332  1.00  0.00     0.034 A 
BRANCH  23  37
ATOM     37  C   UNL A   1      46.532  27.247  26.309  1.00  0.00     0.023 A 
ATOM     38  C   UNL A   1      47.358  26.342  27.001  1.00  0.00     0.012 A 
ATOM     39  C   UNL A   1      46.848  27.612  24.987  1.00  0.00     0.148 A 
ATOM     40  C   UNL A   1      48.505  25.829  26.396  1.00  0.00     0.002 A 
ATOM     41  C   UNL A   1      47.978  27.077  24.382  1.00  0.00     0.091 A 
ATOM     42  F   UNL A   1      46.073  28.515  24.369  1.00  0.00    -0.205 F 
ATOM     43  C   UNL A   1      48.812  26.193  25.087  1.00  0.00     0.022 A 
BRANCH  41  44
ATOM     44  S   UNL A   1      48.440  27.475  22.694  1.00  0.00     0.127 S 
ATOM     45  O   UNL A   1      49.677  28.227  22.897  1.00  0.00    -0.237 OA
ATOM     46  O   UNL A   1      48.621  26.149  22.103  1.00  0.00    -0.237 OA
ATOM     47  O   UNL A   1      47.325  28.235  22.145  1.00  0.00    -0.744 OA
ENDBRANCH  41  44
ENDBRANCH  23  37
BRANCH  24  48
ATOM     48  C   UNL A   1      38.444  30.833  31.054  1.00  0.00     0.023 A 
ATOM     49  C   UNL A   1      38.291  30.791  32.455  1.00  0.00     0.012 A 
ATOM     50  C   UNL A   1      37.431  31.433  30.284  1.00  0.00     0.148 A 
ATOM     51  C   UNL A   1      37.151  31.313  33.070  1.00  0.00     0.002 A 
ATOM     52  C   UNL A   1      36.327  32.009  30.908  1.00  0.00     0.091 A 
ATOM     53  F   UNL A   1      37.557  31.435  28.949  1.00  0.00    -0.205 F 
ATOM     54  C   UNL A   1      36.175  31.936  32.298  1.00  0.00     0.022 A 
BRANCH  52  55
ATOM     55  S   UNL A   1      35.129  32.963  29.967  1.00  0.00     0.127 S 
ATOM     56  O   UNL A   1      35.977  33.950  29.306  1.00  0.00    -0.237 OA
ATOM     57  O   UNL A   1      34.548  31.956  29.077  1.00  0.00    -0.237 OA
ATOM     58  O   UNL A   1      34.201  33.471  30.969  1.00  0.00    -0.744 OA
ENDBRANCH  52  55
ENDBRANCH  24  48
BRANCH  36  59
ATOM     59  C   UNL A   1      44.807  33.371  29.708  1.00  0.00     0.023 A 
ATOM     60  C   UNL A   1      45.559  33.425  30.897  1.00  0.00     0.012 A 
ATOM     61  C   UNL A   1      44.804  34.472  28.833  1.00  0.00     0.148 A 
ATOM     62  C   UNL A   1      46.293  34.565  31.217  1.00  0.00     0.002 A 
ATOM     63  C   UNL A   1      45.570  35.590  29.139  1.00  0.00     0.091 A 
ATOM     64  F   UNL A   1      44.061  34.405  27.719  1.00  0.00    -0.205 F 
ATOM     65  C   UNL A   1      46.310  35.641  30.332  1.00  0.00     0.022 A 
BRANCH  63  66
ATOM     66  S   UNL A   1      45.722  36.975  28.006  1.00  0.00     0.127 S 
ATOM     67  O   UNL A   1      46.616  37.865  28.741  1.00  0.00    -0.237 OA
ATOM     68  O   UNL A   1      46.317  36.351  26.822  1.00  0.00    -0.237 OA
ATOM     69  O   UNL A   1      44.366  37.468  27.804  1.00  0.00    -0.744 OA
ENDBRANCH  63  66
ENDBRANCH  36  59
ENDBRANCH  10  11
ENDBRANCH   3   5
ENDBRANCH   2   3
ENDBRANCH   1   2
BRANCH   1  70
ATOM     70  C   UNL A   1      36.273  22.969  23.555  1.00  0.00     0.274 C 
BRANCH  70  71
ATOM     71  O   UNL A   1      35.104  23.262  24.336  1.00  0.00    -0.460 OA
BRANCH  71  72
ATOM     72  C   UNL A   1      34.028  23.648  23.585  1.00  0.00     0.332 C 
ATOM     73  O   UNL A   1      33.885  23.332  22.408  1.00  0.00    -0.249 OA
BRANCH  72  74
ATOM     74  C   UNL A   1      32.933  24.325  24.452  1.00  0.00     0.148 C 
ATOM     75  C   UNL A   1      32.396  25.505  23.596  1.00  0.00     0.052 C 
ATOM     76  C   UNL A   1      33.509  24.976  25.716  1.00  0.00     0.110 C 
ATOM     77  C   UNL A   1      33.402  26.638  23.597  1.00  0.00     0.072 C 
ATOM     78  S   UNL A   1      34.038  26.675  25.286  1.00  0.00    -0.159 SA
BRANCH  74  79
ATOM     79  N   UNL A   1      31.750  23.489  24.780  1.00  0.00    -0.333 N 
ATOM     80  C   UNL A   1      31.579  22.220  25.260  1.00  0.00     0.289 C 
ATOM     81  H   UNL A   1      30.897  23.953  24.613  1.00  0.00     0.165 HD
ATOM     82  O   UNL A   1      30.470  21.927  25.698  1.00  0.00    -0.266 OA
BRANCH  80  83
ATOM     83  C   UNL A   1      32.582  21.215  25.082  1.00  0.00     0.214 A 
ATOM     84  N   UNL A   1      32.624  20.202  24.244  1.00  0.00    -0.207 NA
ATOM     85  N   UNL A   1      33.662  21.152  25.914  1.00  0.00    -0.255 N 
ATOM     86  C   UNL A   1      33.698  19.479  24.702  1.00  0.00     0.154 A 
ATOM     87  N   UNL A   1      34.328  19.999  25.760  1.00  0.00    -0.158 NA
ATOM     88  H   UNL A   1      33.918  21.861  26.547  1.00  0.00     0.192 HD
BRANCH  86  89
ATOM     89  C   UNL A   1      34.127  18.154  24.108  1.00  0.00     0.060 C 
ATOM     90  C   UNL A   1      33.374  16.900  24.496  1.00  0.00     0.012 C 
ATOM     91  C   UNL A   1      33.204  17.468  23.128  1.00  0.00     0.012 C 
ENDBRANCH  86  89
ENDBRANCH  80  83
ENDBRANCH  74  79
ENDBRANCH  72  74
ENDBRANCH  71  72
ENDBRANCH  70  71
ENDBRANCH   1  70
TORSDOF 17
ENDMDL
