MODEL 1
REMARK VINA RESULT:     -12.4      0.000      0.000
REMARK SMILES CC1(C)C(C(=O)Nc2ccc(CC(=O)OCCOC(=O)c3ccc(-c4c5nc(c(-c6cccc(S(=O)(=O)[O-])c6F)c6ccc([nH]6)c(-c6cccc(S(=O)(=O)[O-])c6F)c6nc(c(-c7cccc(S(=O)(=O)[O-])c7F)c7ccc4[nH]7)C=C6)C=C5)cc3)cc2)C1(C)C
REMARK SMILES IDX 16 1 15 2 13 3 14 4 12 5 11 6 8 7 9 8 85 9 10 10 84 11 7 12
REMARK SMILES IDX 5 13 6 14 4 16 1 17 2 18 3 19 86 20 87 21 88 22 17 23 18 24
REMARK SMILES IDX 19 25 20 26 21 27 22 28 83 29 23 30 82 31 24 32 25 33 26 34
REMARK SMILES IDX 76 35 27 36 81 37 75 38 77 39 28 40 80 41 74 42 73 43 29 45
REMARK SMILES IDX 61 46 41 47 60 48 42 49 45 50 59 51 78 52 43 53 44 54 58 56
REMARK SMILES IDX 79 57 46 58 30 59 31 60 39 61 32 62 34 63 40 64 33 65 35 66
REMARK SMILES IDX 36 67 37 68 38 69 62 70 63 71 71 72 64 73 66 74 72 75 65 76
REMARK SMILES IDX 67 77 68 78 69 79 70 80 47 81 48 82 56 83 49 84 51 85 57 86
REMARK SMILES IDX 50 87 52 88 53 89 54 90 55 91
REMARK H PARENT 7 15 77 44 45 55
REMARK Flexibility Score: inf
ROOT
ATOM      1  C   UNL A   1      35.085  20.399  25.328  1.00  0.00     0.274 C 
ENDROOT
BRANCH   1   2
ATOM      2  O   UNL A   1      34.378  19.388  24.593  1.00  0.00    -0.462 OA
BRANCH   2   3
ATOM      3  C   UNL A   1      33.025  19.454  24.672  1.00  0.00     0.310 C 
ATOM      4  O   UNL A   1      32.341  18.884  25.514  1.00  0.00    -0.252 OA
BRANCH   3   5
ATOM      5  C   UNL A   1      32.412  20.270  23.573  1.00  0.00     0.158 C 
BRANCH   5   6
ATOM      6  C   UNL A   1      32.370  21.768  23.754  1.00  0.00    -0.037 A 
ATOM      7  C   UNL A   1      32.993  24.406  24.388  1.00  0.00     0.041 A 
ATOM      8  C   UNL A   1      33.146  23.965  23.074  1.00  0.00     0.026 A 
ATOM      9  C   UNL A   1      32.277  23.626  25.298  1.00  0.00     0.026 A 
ATOM     10  C   UNL A   1      32.852  22.635  22.763  1.00  0.00     0.006 A 
ATOM     11  C   UNL A   1      31.975  22.301  24.985  1.00  0.00     0.006 A 
BRANCH   7  12
ATOM     12  N   UNL A   1      33.823  25.467  24.822  1.00  0.00    -0.326 N 
ATOM     13  C   UNL A   1      33.523  26.766  24.474  1.00  0.00     0.228 C 
ATOM     14  O   UNL A   1      33.797  27.260  23.385  1.00  0.00    -0.274 OA
ATOM     15  H   UNL A   1      34.617  25.275  25.372  1.00  0.00     0.169 HD
BRANCH  13  16
ATOM     16  C   UNL A   1      32.890  27.631  25.521  1.00  0.00     0.091 C 
ATOM     17  C   UNL A   1      31.884  30.010  25.368  1.00  0.00     0.012 C 
ATOM     18  C   UNL A   1      31.692  28.527  25.115  1.00  0.00    -0.017 C 
ATOM     19  C   UNL A   1      30.960  28.307  23.804  1.00  0.00     0.012 C 
ATOM     20  C   UNL A   1      31.565  27.503  26.269  1.00  0.00    -0.017 C 
ATOM     21  C   UNL A   1      31.531  28.022  27.696  1.00  0.00     0.012 C 
ATOM     22  C   UNL A   1      30.690  26.276  26.157  1.00  0.00     0.012 C 
ENDBRANCH  13  16
ENDBRANCH   7  12
ENDBRANCH   5   6
ENDBRANCH   3   5
ENDBRANCH   2   3
ENDBRANCH   1   2
BRANCH   1  23
ATOM     23  C   UNL A   1      36.568  20.346  24.974  1.00  0.00     0.275 C 
BRANCH  23  24
ATOM     24  O   UNL A   1      37.281  21.384  25.671  1.00  0.00    -0.458 OA
BRANCH  24  25
ATOM     25  C   UNL A   1      38.597  21.157  25.882  1.00  0.00     0.338 C 
ATOM     26  O   UNL A   1      39.216  20.126  25.691  1.00  0.00    -0.246 OA
BRANCH  25  27
ATOM     27  C   UNL A   1      39.227  22.370  26.427  1.00  0.00     0.060 A 
ATOM     28  C   UNL A   1      38.749  23.636  26.083  1.00  0.00     0.016 A 
ATOM     29  C   UNL A   1      40.375  22.235  27.206  1.00  0.00     0.016 A 
ATOM     30  C   UNL A   1      39.453  24.776  26.475  1.00  0.00     0.010 A 
ATOM     31  C   UNL A   1      41.037  23.379  27.658  1.00  0.00     0.010 A 
ATOM     32  C   UNL A   1      40.599  24.659  27.276  1.00  0.00    -0.014 A 
BRANCH  32  33
ATOM     33  C   UNL A   1      41.351  25.859  27.729  1.00  0.00     0.031 A 
ATOM     34  C   UNL A   1      40.655  26.932  28.523  1.00  0.00     0.074 A 
ATOM     35  C   UNL A   1      42.637  26.022  27.363  1.00  0.00     0.049 A 
ATOM     36  N   UNL A   1      41.078  28.126  28.848  1.00  0.00    -0.248 NA
ATOM     37  C   UNL A   1      39.297  26.625  29.003  1.00  0.00     0.031 C 
ATOM     38  C   UNL A   1      43.423  25.062  26.586  1.00  0.00     0.029 A 
ATOM     39  N   UNL A   1      43.499  27.074  27.563  1.00  0.00    -0.354 N 
ATOM     40  C   UNL A   1      40.024  28.734  29.519  1.00  0.00     0.074 A 
ATOM     41  C   UNL A   1      38.939  27.775  29.557  1.00  0.00     0.031 C 
ATOM     42  C   UNL A   1      44.641  25.575  26.356  1.00  0.00     0.029 A 
ATOM     43  C   UNL A   1      44.705  26.919  26.921  1.00  0.00     0.049 A 
ATOM     44  H   UNL A   1      43.274  27.860  28.111  1.00  0.00     0.167 HD
ATOM     45  C   UNL A   1      39.968  29.972  30.064  1.00  0.00     0.034 A 
ATOM     46  C   UNL A   1      45.733  27.776  26.766  1.00  0.00     0.034 A 
ATOM     47  C   UNL A   1      41.063  30.905  30.068  1.00  0.00     0.049 A 
ATOM     48  C   UNL A   1      45.650  29.143  27.387  1.00  0.00     0.074 A 
ATOM     49  C   UNL A   1      41.119  32.166  30.637  1.00  0.00     0.029 A 
ATOM     50  N   UNL A   1      42.297  30.679  29.476  1.00  0.00    -0.354 N 
ATOM     51  N   UNL A   1      44.679  29.669  28.095  1.00  0.00    -0.248 NA
ATOM     52  C   UNL A   1      46.811  30.026  27.211  1.00  0.00     0.031 C 
ATOM     53  C   UNL A   1      42.385  32.705  30.384  1.00  0.00     0.029 A 
ATOM     54  C   UNL A   1      43.121  31.776  29.666  1.00  0.00     0.049 A 
ATOM     55  H   UNL A   1      42.548  29.860  28.992  1.00  0.00     0.167 HD
ATOM     56  C   UNL A   1      45.120  30.932  28.466  1.00  0.00     0.074 A 
ATOM     57  C   UNL A   1      46.456  31.084  27.928  1.00  0.00     0.031 C 
ATOM     58  C   UNL A   1      44.470  31.889  29.173  1.00  0.00     0.034 A 
BRANCH  45  59
ATOM     59  C   UNL A   1      38.688  30.380  30.745  1.00  0.00     0.023 A 
ATOM     60  C   UNL A   1      38.504  30.083  32.110  1.00  0.00     0.012 A 
ATOM     61  C   UNL A   1      37.693  31.100  30.055  1.00  0.00     0.148 A 
ATOM     62  C   UNL A   1      37.339  30.473  32.772  1.00  0.00     0.002 A 
ATOM     63  C   UNL A   1      36.551  31.517  30.730  1.00  0.00     0.091 A 
ATOM     64  F   UNL A   1      37.872  31.351  28.750  1.00  0.00    -0.205 F 
ATOM     65  C   UNL A   1      36.369  31.198  32.086  1.00  0.00     0.022 A 
BRANCH  63  66
ATOM     66  S   UNL A   1      35.280  32.516  29.946  1.00  0.00     0.127 S 
ATOM     67  O   UNL A   1      34.795  31.613  28.904  1.00  0.00    -0.237 OA
ATOM     68  O   UNL A   1      34.337  32.741  31.044  1.00  0.00    -0.237 OA
ATOM     69  O   UNL A   1      35.954  33.718  29.476  1.00  0.00    -0.744 OA
ENDBRANCH  63  66
ENDBRANCH  45  59
BRANCH  46  70
ATOM     70  C   UNL A   1      46.942  27.346  26.009  1.00  0.00     0.023 A 
ATOM     71  C   UNL A   1      47.866  26.477  26.620  1.00  0.00     0.012 A 
ATOM     72  C   UNL A   1      47.153  27.745  24.675  1.00  0.00     0.148 A 
ATOM     73  C   UNL A   1      48.988  26.028  25.922  1.00  0.00     0.002 A 
ATOM     74  C   UNL A   1      48.241  27.250  23.967  1.00  0.00     0.091 A 
ATOM     75  F   UNL A   1      46.273  28.590  24.117  1.00  0.00    -0.205 F 
ATOM     76  C   UNL A   1      49.167  26.402  24.593  1.00  0.00     0.022 A 
BRANCH  74  77
ATOM     77  S   UNL A   1      48.466  27.568  22.213  1.00  0.00     0.127 S 
ATOM     78  O   UNL A   1      49.641  28.435  22.214  1.00  0.00    -0.237 OA
ATOM     79  O   UNL A   1      48.693  26.222  21.683  1.00  0.00    -0.237 OA
ATOM     80  O   UNL A   1      47.222  28.182  21.767  1.00  0.00    -0.744 OA
ENDBRANCH  74  77
ENDBRANCH  46  70
BRANCH  58  81
ATOM     81  C   UNL A   1      45.198  33.182  29.430  1.00  0.00     0.023 A 
ATOM     82  C   UNL A   1      45.970  33.323  30.599  1.00  0.00     0.012 A 
ATOM     83  C   UNL A   1      45.180  34.222  28.481  1.00  0.00     0.148 A 
ATOM     84  C   UNL A   1      46.693  34.492  30.834  1.00  0.00     0.002 A 
ATOM     85  C   UNL A   1      45.937  35.367  28.701  1.00  0.00     0.091 A 
ATOM     86  F   UNL A   1      44.422  34.076  27.385  1.00  0.00    -0.205 F 
ATOM     87  C   UNL A   1      46.686  35.508  29.881  1.00  0.00     0.022 A 
BRANCH  85  88
ATOM     88  S   UNL A   1      46.054  36.687  27.487  1.00  0.00     0.127 S 
ATOM     89  O   UNL A   1      46.382  35.946  26.271  1.00  0.00    -0.237 OA
ATOM     90  O   UNL A   1      44.705  37.256  27.511  1.00  0.00    -0.237 OA
ATOM     91  O   UNL A   1      47.092  37.585  27.975  1.00  0.00    -0.744 OA
ENDBRANCH  85  88
ENDBRANCH  58  81
ENDBRANCH  32  33
ENDBRANCH  25  27
ENDBRANCH  24  25
ENDBRANCH  23  24
ENDBRANCH   1  23
TORSDOF 17
ENDMDL
MODEL 2
REMARK VINA RESULT:     -12.3      5.182     10.108
REMARK SMILES CC1(C)C(C(=O)Nc2ccc(CC(=O)OCCOC(=O)c3ccc(-c4c5nc(c(-c6cccc(S(=O)(=O)[O-])c6F)c6ccc([nH]6)c(-c6cccc(S(=O)(=O)[O-])c6F)c6nc(c(-c7cccc(S(=O)(=O)[O-])c7F)c7ccc4[nH]7)C=C6)C=C5)cc3)cc2)C1(C)C
REMARK SMILES IDX 16 1 15 2 13 3 14 4 12 5 11 6 8 7 9 8 85 9 10 10 84 11 7 12
REMARK SMILES IDX 5 13 6 14 4 16 1 17 2 18 3 19 86 20 87 21 88 22 17 23 18 24
REMARK SMILES IDX 19 25 20 26 21 27 22 28 83 29 23 30 82 31 24 32 25 33 26 34
REMARK SMILES IDX 76 35 27 36 81 37 75 38 77 39 28 40 80 41 74 42 73 43 29 45
REMARK SMILES IDX 61 46 41 47 60 48 42 49 45 50 59 51 78 52 43 53 44 54 58 56
REMARK SMILES IDX 79 57 46 58 30 59 31 60 39 61 32 62 34 63 40 64 33 65 35 66
REMARK SMILES IDX 36 67 37 68 38 69 62 70 63 71 71 72 64 73 66 74 72 75 65 76
REMARK SMILES IDX 67 77 68 78 69 79 70 80 47 81 48 82 56 83 49 84 51 85 57 86
REMARK SMILES IDX 50 87 52 88 53 89 54 90 55 91
REMARK H PARENT 7 15 77 44 45 55
REMARK Flexibility Score: inf
ROOT
ATOM      1  C   UNL A   1      31.064  29.164  24.952  1.00  0.00     0.274 C 
ENDROOT
BRANCH   1   2
ATOM      2  O   UNL A   1      32.097  28.834  24.010  1.00  0.00    -0.462 OA
BRANCH   2   3
ATOM      3  C   UNL A   1      31.854  27.740  23.244  1.00  0.00     0.310 C 
ATOM      4  O   UNL A   1      32.597  27.317  22.366  1.00  0.00    -0.252 OA
BRANCH   3   5
ATOM      5  C   UNL A   1      30.529  27.101  23.537  1.00  0.00     0.158 C 
BRANCH   5   6
ATOM      6  C   UNL A   1      30.538  25.709  24.120  1.00  0.00    -0.037 A 
ATOM      7  C   UNL A   1      31.317  23.239  25.139  1.00  0.00     0.041 A 
ATOM      8  C   UNL A   1      30.950  24.255  26.021  1.00  0.00     0.026 A 
ATOM      9  C   UNL A   1      31.028  23.366  23.780  1.00  0.00     0.026 A 
ATOM     10  C   UNL A   1      30.579  25.500  25.507  1.00  0.00     0.006 A 
ATOM     11  C   UNL A   1      30.649  24.606  23.268  1.00  0.00     0.006 A 
BRANCH   7  12
ATOM     12  N   UNL A   1      32.235  22.268  25.609  1.00  0.00    -0.326 N 
ATOM     13  C   UNL A   1      33.204  21.769  24.766  1.00  0.00     0.228 C 
ATOM     14  O   UNL A   1      32.999  20.887  23.939  1.00  0.00    -0.274 OA
ATOM     15  H   UNL A   1      32.180  21.949  26.539  1.00  0.00     0.169 HD
BRANCH  13  16
ATOM     16  C   UNL A   1      34.598  22.295  24.931  1.00  0.00     0.091 C 
ATOM     17  C   UNL A   1      36.471  22.694  23.192  1.00  0.00     0.012 C 
ATOM     18  C   UNL A   1      35.185  23.198  23.816  1.00  0.00    -0.017 C 
ATOM     19  C   UNL A   1      34.290  23.811  22.755  1.00  0.00     0.012 C 
ATOM     20  C   UNL A   1      35.116  23.687  25.283  1.00  0.00    -0.017 C 
ATOM     21  C   UNL A   1      36.405  23.757  26.084  1.00  0.00     0.012 C 
ATOM     22  C   UNL A   1      34.194  24.806  25.711  1.00  0.00     0.012 C 
ENDBRANCH  13  16
ENDBRANCH   7  12
ENDBRANCH   5   6
ENDBRANCH   3   5
ENDBRANCH   2   3
ENDBRANCH   1   2
BRANCH   1  23
ATOM     23  C   UNL A   1      31.406  30.481  25.644  1.00  0.00     0.275 C 
BRANCH  23  24
ATOM     24  O   UNL A   1      32.776  30.465  26.087  1.00  0.00    -0.458 OA
BRANCH  24  25
ATOM     25  C   UNL A   1      33.119  31.423  26.976  1.00  0.00     0.338 C 
ATOM     26  O   UNL A   1      32.508  32.441  27.249  1.00  0.00    -0.246 OA
BRANCH  25  27
ATOM     27  C   UNL A   1      34.411  31.085  27.595  1.00  0.00     0.060 A 
ATOM     28  C   UNL A   1      34.703  29.769  27.959  1.00  0.00     0.016 A 
ATOM     29  C   UNL A   1      35.293  32.117  27.909  1.00  0.00     0.016 A 
ATOM     30  C   UNL A   1      35.859  29.488  28.689  1.00  0.00     0.010 A 
ATOM     31  C   UNL A   1      36.484  31.824  28.576  1.00  0.00     0.010 A 
ATOM     32  C   UNL A   1      36.767  30.512  28.996  1.00  0.00    -0.014 A 
BRANCH  32  33
ATOM     33  C   UNL A   1      38.019  30.235  29.749  1.00  0.00     0.031 A 
ATOM     34  C   UNL A   1      39.035  29.271  29.198  1.00  0.00     0.074 A 
ATOM     35  C   UNL A   1      38.207  30.788  30.962  1.00  0.00     0.049 A 
ATOM     36  N   UNL A   1      40.088  28.758  29.778  1.00  0.00    -0.248 NA
ATOM     37  C   UNL A   1      38.830  28.814  27.813  1.00  0.00     0.031 C 
ATOM     38  C   UNL A   1      37.294  31.729  31.613  1.00  0.00     0.029 A 
ATOM     39  N   UNL A   1      39.212  30.608  31.883  1.00  0.00    -0.354 N 
ATOM     40  C   UNL A   1      40.640  27.877  28.857  1.00  0.00     0.074 A 
ATOM     41  C   UNL A   1      39.806  27.927  27.674  1.00  0.00     0.031 C 
ATOM     42  C   UNL A   1      37.767  32.028  32.834  1.00  0.00     0.029 A 
ATOM     43  C   UNL A   1      38.984  31.259  33.072  1.00  0.00     0.049 A 
ATOM     44  H   UNL A   1      40.014  30.065  31.708  1.00  0.00     0.167 HD
ATOM     45  C   UNL A   1      41.747  27.106  28.978  1.00  0.00     0.034 A 
ATOM     46  C   UNL A   1      39.655  31.214  34.240  1.00  0.00     0.034 A 
ATOM     47  C   UNL A   1      42.602  27.095  30.135  1.00  0.00     0.049 A 
ATOM     48  C   UNL A   1      40.885  30.357  34.347  1.00  0.00     0.074 A 
ATOM     49  C   UNL A   1      43.773  26.384  30.334  1.00  0.00     0.029 A 
ATOM     50  N   UNL A   1      42.381  27.831  31.289  1.00  0.00    -0.354 N 
ATOM     51  N   UNL A   1      41.444  29.598  33.435  1.00  0.00    -0.248 NA
ATOM     52  C   UNL A   1      41.594  30.366  35.636  1.00  0.00     0.031 C 
ATOM     53  C   UNL A   1      44.257  26.685  31.612  1.00  0.00     0.029 A 
ATOM     54  C   UNL A   1      43.393  27.593  32.205  1.00  0.00     0.049 A 
ATOM     55  H   UNL A   1      41.617  28.434  31.436  1.00  0.00     0.167 HD
ATOM     56  C   UNL A   1      42.577  29.059  34.030  1.00  0.00     0.074 A 
ATOM     57  C   UNL A   1      42.642  29.598  35.372  1.00  0.00     0.031 C 
ATOM     58  C   UNL A   1      43.474  28.181  33.517  1.00  0.00     0.034 A 
BRANCH  45  59
ATOM     59  C   UNL A   1      42.127  26.237  27.808  1.00  0.00     0.023 A 
ATOM     60  C   UNL A   1      42.942  26.766  26.788  1.00  0.00     0.012 A 
ATOM     61  C   UNL A   1      41.725  24.888  27.742  1.00  0.00     0.148 A 
ATOM     62  C   UNL A   1      43.331  25.974  25.706  1.00  0.00     0.002 A 
ATOM     63  C   UNL A   1      42.147  24.095  26.680  1.00  0.00     0.091 A 
ATOM     64  F   UNL A   1      40.928  24.409  28.708  1.00  0.00    -0.205 F 
ATOM     65  C   UNL A   1      42.942  24.639  25.658  1.00  0.00     0.022 A 
BRANCH  63  66
ATOM     66  S   UNL A   1      41.753  22.345  26.571  1.00  0.00     0.127 S 
ATOM     67  O   UNL A   1      42.279  21.845  27.839  1.00  0.00    -0.237 OA
ATOM     68  O   UNL A   1      40.292  22.359  26.480  1.00  0.00    -0.237 OA
ATOM     69  O   UNL A   1      42.426  21.862  25.373  1.00  0.00    -0.744 OA
ENDBRANCH  63  66
ENDBRANCH  45  59
BRANCH  46  70
ATOM     70  C   UNL A   1      39.183  32.033  35.391  1.00  0.00     0.023 A 
ATOM     71  C   UNL A   1      38.273  31.473  36.310  1.00  0.00     0.012 A 
ATOM     72  C   UNL A   1      39.669  33.336  35.614  1.00  0.00     0.148 A 
ATOM     73  C   UNL A   1      37.843  32.203  37.417  1.00  0.00     0.002 A 
ATOM     74  C   UNL A   1      39.280  34.036  36.749  1.00  0.00     0.091 A 
ATOM     75  F   UNL A   1      40.517  33.860  34.717  1.00  0.00    -0.205 F 
ATOM     76  C   UNL A   1      38.356  33.477  37.645  1.00  0.00     0.022 A 
BRANCH  74  77
ATOM     77  S   UNL A   1      40.003  35.622  37.189  1.00  0.00     0.127 S 
ATOM     78  O   UNL A   1      41.420  35.284  37.298  1.00  0.00    -0.237 OA
ATOM     79  O   UNL A   1      39.653  36.450  36.034  1.00  0.00    -0.237 OA
ATOM     80  O   UNL A   1      39.345  36.018  38.427  1.00  0.00    -0.744 OA
ENDBRANCH  74  77
ENDBRANCH  46  70
BRANCH  58  81
ATOM     81  C   UNL A   1      44.621  27.761  34.398  1.00  0.00     0.023 A 
ATOM     82  C   UNL A   1      45.797  28.534  34.420  1.00  0.00     0.012 A 
ATOM     83  C   UNL A   1      44.504  26.651  35.256  1.00  0.00     0.148 A 
ATOM     84  C   UNL A   1      46.853  28.193  35.266  1.00  0.00     0.002 A 
ATOM     85  C   UNL A   1      45.542  26.341  36.126  1.00  0.00     0.091 A 
ATOM     86  F   UNL A   1      43.383  25.916  35.203  1.00  0.00    -0.205 F 
ATOM     87  C   UNL A   1      46.721  27.105  36.126  1.00  0.00     0.022 A 
BRANCH  85  88
ATOM     88  S   UNL A   1      45.422  25.010  37.327  1.00  0.00     0.127 S 
ATOM     89  O   UNL A   1      44.110  25.262  37.922  1.00  0.00    -0.237 OA
ATOM     90  O   UNL A   1      45.491  23.817  36.482  1.00  0.00    -0.237 OA
ATOM     91  O   UNL A   1      46.560  25.178  38.221  1.00  0.00    -0.744 OA
ENDBRANCH  85  88
ENDBRANCH  58  81
ENDBRANCH  32  33
ENDBRANCH  25  27
ENDBRANCH  24  25
ENDBRANCH  23  24
ENDBRANCH   1  23
TORSDOF 17
ENDMDL
MODEL 3
REMARK VINA RESULT:     -12.1      1.708      2.130
REMARK SMILES CC1(C)C(C(=O)Nc2ccc(CC(=O)OCCOC(=O)c3ccc(-c4c5nc(c(-c6cccc(S(=O)(=O)[O-])c6F)c6ccc([nH]6)c(-c6cccc(S(=O)(=O)[O-])c6F)c6nc(c(-c7cccc(S(=O)(=O)[O-])c7F)c7ccc4[nH]7)C=C6)C=C5)cc3)cc2)C1(C)C
REMARK SMILES IDX 16 1 15 2 13 3 14 4 12 5 11 6 8 7 9 8 85 9 10 10 84 11 7 12
REMARK SMILES IDX 5 13 6 14 4 16 1 17 2 18 3 19 86 20 87 21 88 22 17 23 18 24
REMARK SMILES IDX 19 25 20 26 21 27 22 28 83 29 23 30 82 31 24 32 25 33 26 34
REMARK SMILES IDX 76 35 27 36 81 37 75 38 77 39 28 40 80 41 74 42 73 43 29 45
REMARK SMILES IDX 61 46 41 47 60 48 42 49 45 50 59 51 78 52 43 53 44 54 58 56
REMARK SMILES IDX 79 57 46 58 30 59 31 60 39 61 32 62 34 63 40 64 33 65 35 66
REMARK SMILES IDX 36 67 37 68 38 69 62 70 63 71 71 72 64 73 66 74 72 75 65 76
REMARK SMILES IDX 67 77 68 78 69 79 70 80 47 81 48 82 56 83 49 84 51 85 57 86
REMARK SMILES IDX 50 87 52 88 53 89 54 90 55 91
REMARK H PARENT 7 15 77 44 45 55
REMARK Flexibility Score: inf
ROOT
ATOM      1  C   UNL A   1      34.922  20.598  25.012  1.00  0.00     0.274 C 
ENDROOT
BRANCH   1   2
ATOM      2  O   UNL A   1      34.520  21.414  26.124  1.00  0.00    -0.462 OA
BRANCH   2   3
ATOM      3  C   UNL A   1      33.252  21.894  26.061  1.00  0.00     0.310 C 
ATOM      4  O   UNL A   1      32.665  22.453  26.981  1.00  0.00    -0.252 OA
BRANCH   3   5
ATOM      5  C   UNL A   1      32.588  21.628  24.743  1.00  0.00     0.158 C 
BRANCH   5   6
ATOM      6  C   UNL A   1      32.254  22.818  23.876  1.00  0.00    -0.037 A 
ATOM      7  C   UNL A   1      31.852  25.397  22.910  1.00  0.00     0.041 A 
ATOM      8  C   UNL A   1      33.018  24.714  22.566  1.00  0.00     0.026 A 
ATOM      9  C   UNL A   1      30.788  24.701  23.487  1.00  0.00     0.026 A 
ATOM     10  C   UNL A   1      33.226  23.427  23.069  1.00  0.00     0.006 A 
ATOM     11  C   UNL A   1      30.993  23.413  23.981  1.00  0.00     0.006 A 
BRANCH   7  12
ATOM     12  N   UNL A   1      31.910  26.811  22.944  1.00  0.00    -0.326 N 
ATOM     13  C   UNL A   1      31.228  27.508  23.919  1.00  0.00     0.228 C 
ATOM     14  O   UNL A   1      30.028  27.756  23.865  1.00  0.00    -0.274 OA
ATOM     15  H   UNL A   1      32.438  27.297  22.270  1.00  0.00     0.169 HD
BRANCH  13  16
ATOM     16  C   UNL A   1      32.028  28.045  25.067  1.00  0.00     0.091 C 
ATOM     17  C   UNL A   1      31.427  28.301  27.571  1.00  0.00     0.012 C 
ATOM     18  C   UNL A   1      31.870  27.375  26.456  1.00  0.00    -0.017 C 
ATOM     19  C   UNL A   1      31.199  26.021  26.598  1.00  0.00     0.012 C 
ATOM     20  C   UNL A   1      33.259  27.497  25.784  1.00  0.00    -0.017 C 
ATOM     21  C   UNL A   1      34.242  28.516  26.335  1.00  0.00     0.012 C 
ATOM     22  C   UNL A   1      34.014  26.288  25.280  1.00  0.00     0.012 C 
ENDBRANCH  13  16
ENDBRANCH   7  12
ENDBRANCH   5   6
ENDBRANCH   3   5
ENDBRANCH   2   3
ENDBRANCH   1   2
BRANCH   1  23
ATOM     23  C   UNL A   1      36.352  20.950  24.612  1.00  0.00     0.275 C 
BRANCH  23  24
ATOM     24  O   UNL A   1      37.072  21.460  25.749  1.00  0.00    -0.458 OA
BRANCH  24  25
ATOM     25  C   UNL A   1      38.361  21.067  25.857  1.00  0.00     0.338 C 
ATOM     26  O   UNL A   1      38.817  19.951  25.683  1.00  0.00    -0.246 OA
BRANCH  25  27
ATOM     27  C   UNL A   1      39.196  22.210  26.258  1.00  0.00     0.060 A 
ATOM     28  C   UNL A   1      40.356  22.015  27.010  1.00  0.00     0.016 A 
ATOM     29  C   UNL A   1      38.751  23.499  25.967  1.00  0.00     0.016 A 
ATOM     30  C   UNL A   1      41.048  23.114  27.521  1.00  0.00     0.010 A 
ATOM     31  C   UNL A   1      39.485  24.597  26.418  1.00  0.00     0.010 A 
ATOM     32  C   UNL A   1      40.626  24.417  27.221  1.00  0.00    -0.014 A 
BRANCH  32  33
ATOM     33  C   UNL A   1      41.361  25.605  27.730  1.00  0.00     0.031 A 
ATOM     34  C   UNL A   1      40.631  26.674  28.498  1.00  0.00     0.074 A 
ATOM     35  C   UNL A   1      42.666  25.762  27.437  1.00  0.00     0.049 A 
ATOM     36  N   UNL A   1      41.044  27.860  28.861  1.00  0.00    -0.248 NA
ATOM     37  C   UNL A   1      39.246  26.372  28.899  1.00  0.00     0.031 C 
ATOM     38  C   UNL A   1      43.486  24.805  26.692  1.00  0.00     0.029 A 
ATOM     39  N   UNL A   1      43.523  26.804  27.696  1.00  0.00    -0.354 N 
ATOM     40  C   UNL A   1      39.960  28.469  29.481  1.00  0.00     0.074 A 
ATOM     41  C   UNL A   1      38.867  27.518  29.448  1.00  0.00     0.031 C 
ATOM     42  C   UNL A   1      44.719  25.311  26.535  1.00  0.00     0.029 A 
ATOM     43  C   UNL A   1      44.761  26.648  27.119  1.00  0.00     0.049 A 
ATOM     44  H   UNL A   1      43.275  27.585  28.241  1.00  0.00     0.167 HD
ATOM     45  C   UNL A   1      39.883  29.701  30.038  1.00  0.00     0.034 A 
ATOM     46  C   UNL A   1      45.803  27.498  27.031  1.00  0.00     0.034 A 
ATOM     47  C   UNL A   1      40.983  30.625  30.113  1.00  0.00     0.049 A 
ATOM     48  C   UNL A   1      45.696  28.858  27.664  1.00  0.00     0.074 A 
ATOM     49  C   UNL A   1      41.017  31.878  30.700  1.00  0.00     0.029 A 
ATOM     50  N   UNL A   1      42.245  30.396  29.587  1.00  0.00    -0.354 N 
ATOM     51  N   UNL A   1      44.692  29.383  28.324  1.00  0.00    -0.248 NA
ATOM     52  C   UNL A   1      46.872  29.734  27.563  1.00  0.00     0.031 C 
ATOM     53  C   UNL A   1      42.299  32.410  30.523  1.00  0.00     0.029 A 
ATOM     54  C   UNL A   1      43.067  31.483  29.835  1.00  0.00     0.049 A 
ATOM     55  H   UNL A   1      42.517  29.581  29.106  1.00  0.00     0.167 HD
ATOM     56  C   UNL A   1      45.122  30.638  28.735  1.00  0.00     0.074 A 
ATOM     57  C   UNL A   1      46.486  30.786  28.273  1.00  0.00     0.031 C 
ATOM     58  C   UNL A   1      44.441  31.592  29.417  1.00  0.00     0.034 A 
BRANCH  45  59
ATOM     59  C   UNL A   1      38.570  30.110  30.653  1.00  0.00     0.023 A 
ATOM     60  C   UNL A   1      38.293  29.763  31.990  1.00  0.00     0.012 A 
ATOM     61  C   UNL A   1      37.637  30.881  29.932  1.00  0.00     0.148 A 
ATOM     62  C   UNL A   1      37.097  30.153  32.593  1.00  0.00     0.002 A 
ATOM     63  C   UNL A   1      36.463  31.297  30.551  1.00  0.00     0.091 A 
ATOM     64  F   UNL A   1      37.905  31.181  28.653  1.00  0.00    -0.205 F 
ATOM     65  C   UNL A   1      36.189  30.927  31.878  1.00  0.00     0.022 A 
BRANCH  63  66
ATOM     66  S   UNL A   1      35.266  32.357  29.730  1.00  0.00     0.127 S 
ATOM     67  O   UNL A   1      34.322  32.629  30.812  1.00  0.00    -0.237 OA
ATOM     68  O   UNL A   1      36.085  33.505  29.334  1.00  0.00    -0.237 OA
ATOM     69  O   UNL A   1      34.745  31.577  28.617  1.00  0.00    -0.744 OA
ENDBRANCH  63  66
ENDBRANCH  45  59
BRANCH  46  70
ATOM     70  C   UNL A   1      47.048  27.067  26.336  1.00  0.00     0.023 A 
ATOM     71  C   UNL A   1      47.243  27.422  24.987  1.00  0.00     0.012 A 
ATOM     72  C   UNL A   1      48.060  26.361  27.013  1.00  0.00     0.148 A 
ATOM     73  C   UNL A   1      48.415  27.064  24.321  1.00  0.00     0.002 A 
ATOM     74  C   UNL A   1      49.249  26.057  26.361  1.00  0.00     0.091 A 
ATOM     75  F   UNL A   1      47.848  26.013  28.291  1.00  0.00    -0.205 F 
ATOM     76  C   UNL A   1      49.423  26.396  25.011  1.00  0.00     0.022 A 
BRANCH  74  77
ATOM     77  S   UNL A   1      50.650  25.326  27.217  1.00  0.00     0.127 S 
ATOM     78  O   UNL A   1      51.028  26.394  28.138  1.00  0.00    -0.237 OA
ATOM     79  O   UNL A   1      50.044  24.152  27.849  1.00  0.00    -0.237 OA
ATOM     80  O   UNL A   1      51.618  25.009  26.176  1.00  0.00    -0.744 OA
ENDBRANCH  74  77
ENDBRANCH  46  70
BRANCH  58  81
ATOM     81  C   UNL A   1      45.164  32.875  29.730  1.00  0.00     0.023 A 
ATOM     82  C   UNL A   1      45.845  33.007  30.955  1.00  0.00     0.012 A 
ATOM     83  C   UNL A   1      45.232  33.915  28.783  1.00  0.00     0.148 A 
ATOM     84  C   UNL A   1      46.563  34.167  31.245  1.00  0.00     0.002 A 
ATOM     85  C   UNL A   1      45.984  35.051  29.061  1.00  0.00     0.091 A 
ATOM     86  F   UNL A   1      44.559  33.778  27.632  1.00  0.00    -0.205 F 
ATOM     87  C   UNL A   1      46.642  35.183  30.295  1.00  0.00     0.022 A 
BRANCH  85  88
ATOM     88  S   UNL A   1      46.210  36.368  27.860  1.00  0.00     0.127 S 
ATOM     89  O   UNL A   1      46.830  35.653  26.746  1.00  0.00    -0.237 OA
ATOM     90  O   UNL A   1      44.836  36.808  27.614  1.00  0.00    -0.237 OA
ATOM     91  O   UNL A   1      47.050  37.363  28.515  1.00  0.00    -0.744 OA
ENDBRANCH  85  88
ENDBRANCH  58  81
ENDBRANCH  32  33
ENDBRANCH  25  27
ENDBRANCH  24  25
ENDBRANCH  23  24
ENDBRANCH   1  23
TORSDOF 17
ENDMDL
