MODEL 1
REMARK VINA RESULT:     -12.7      0.000      0.000
REMARK SMILES O=C(OCCOC(=O)c1cc(-c2ccccc2)nc(Nc2nc3ccccc3s2)n1)c1ccc(-c2c3nc(c(-c4cccc(S(=O)(=O)[O-])c4F)c4ccc([nH]4)c(-c4cccc(S(=O)(=O)[O-])c4F)c4nc(c(-c5cccc(S(=O)(=O)[O-])c5F)c5ccc2[nH]5)C=C4)C=C3)cc1
REMARK SMILES IDX 4 1 3 2 2 3 1 4 31 5 32 6 93 7 33 8 92 9 34 10 35 11 36 12
REMARK SMILES IDX 86 13 37 14 91 15 85 16 87 17 38 18 90 19 84 20 83 21 39 23
REMARK SMILES IDX 71 24 51 25 70 26 52 27 55 28 69 29 88 30 53 31 54 32 68 34
REMARK SMILES IDX 89 35 56 36 40 37 41 38 49 39 42 40 44 41 50 42 43 43 45 44
REMARK SMILES IDX 46 45 47 46 48 47 72 48 73 49 81 50 74 51 76 52 82 53 75 54
REMARK SMILES IDX 77 55 78 56 79 57 80 58 57 59 58 60 66 61 59 62 61 63 67 64
REMARK SMILES IDX 60 65 62 66 63 67 64 68 65 69 5 70 6 71 7 72 8 73 9 74 10 75
REMARK SMILES IDX 30 76 11 77 19 78 18 79 12 80 13 81 17 82 14 83 16 84 15 85
REMARK SMILES IDX 20 86 21 88 22 89 29 90 23 91 28 92 24 93 27 94 25 95 26 96
REMARK H PARENT 87 22 55 33 20 87
REMARK Flexibility Score: inf
ROOT
ATOM      1  C   UNL A   1      31.510  31.949  26.843  1.00  0.00     0.275 C 
ENDROOT
BRANCH   1   2
ATOM      2  O   UNL A   1      32.554  32.934  26.873  1.00  0.00    -0.458 OA
BRANCH   2   3
ATOM      3  C   UNL A   1      33.303  33.402  27.899  1.00  0.00     0.338 C 
ATOM      4  O   UNL A   1      32.955  34.457  28.421  1.00  0.00    -0.246 OA
BRANCH   3   5
ATOM      5  C   UNL A   1      34.549  32.743  28.414  1.00  0.00     0.060 A 
ATOM      6  C   UNL A   1      34.586  31.619  29.237  1.00  0.00     0.016 A 
ATOM      7  C   UNL A   1      35.781  33.328  28.062  1.00  0.00     0.016 A 
ATOM      8  C   UNL A   1      35.797  31.070  29.661  1.00  0.00     0.010 A 
ATOM      9  C   UNL A   1      37.002  32.771  28.464  1.00  0.00     0.010 A 
ATOM     10  C   UNL A   1      37.013  31.641  29.284  1.00  0.00    -0.014 A 
BRANCH  10  11
ATOM     11  C   UNL A   1      38.254  31.109  29.892  1.00  0.00     0.031 A 
ATOM     12  C   UNL A   1      38.646  31.607  31.256  1.00  0.00     0.074 A 
ATOM     13  C   UNL A   1      38.933  30.113  29.288  1.00  0.00     0.049 A 
ATOM     14  N   UNL A   1      39.573  31.155  32.057  1.00  0.00    -0.248 NA
ATOM     15  C   UNL A   1      37.860  32.720  31.820  1.00  0.00     0.031 C 
ATOM     16  C   UNL A   1      38.575  29.503  28.005  1.00  0.00     0.029 A 
ATOM     17  N   UNL A   1      40.063  29.433  29.661  1.00  0.00    -0.354 N 
ATOM     18  C   UNL A   1      39.456  31.896  33.227  1.00  0.00     0.074 A 
ATOM     19  C   UNL A   1      38.411  32.869  33.016  1.00  0.00     0.031 C 
ATOM     20  C   UNL A   1      39.505  28.592  27.666  1.00  0.00     0.029 A 
ATOM     21  C   UNL A   1      40.506  28.530  28.718  1.00  0.00     0.049 A 
ATOM     22  H   UNL A   1      40.518  29.578  30.522  1.00  0.00     0.167 HD
ATOM     23  C   UNL A   1      40.133  31.741  34.387  1.00  0.00     0.034 A 
ATOM     24  C   UNL A   1      41.593  27.735  28.722  1.00  0.00     0.034 A 
ATOM     25  C   UNL A   1      41.190  30.783  34.558  1.00  0.00     0.049 A 
ATOM     26  C   UNL A   1      42.405  27.680  29.980  1.00  0.00     0.074 A 
ATOM     27  C   UNL A   1      41.959  30.534  35.679  1.00  0.00     0.029 A 
ATOM     28  N   UNL A   1      41.644  29.929  33.561  1.00  0.00    -0.354 N 
ATOM     29  N   UNL A   1      42.228  28.336  31.102  1.00  0.00    -0.248 NA
ATOM     30  C   UNL A   1      43.503  26.709  30.004  1.00  0.00     0.031 C 
ATOM     31  C   UNL A   1      42.903  29.555  35.347  1.00  0.00     0.029 A 
ATOM     32  C   UNL A   1      42.693  29.164  34.032  1.00  0.00     0.049 A 
ATOM     33  H   UNL A   1      41.272  29.877  32.650  1.00  0.00     0.167 HD
ATOM     34  C   UNL A   1      43.166  27.825  31.985  1.00  0.00     0.074 A 
ATOM     35  C   UNL A   1      43.900  26.801  31.265  1.00  0.00     0.031 C 
ATOM     36  C   UNL A   1      43.399  28.160  33.278  1.00  0.00     0.034 A 
BRANCH  23  37
ATOM     37  C   UNL A   1      39.727  32.606  35.553  1.00  0.00     0.023 A 
ATOM     38  C   UNL A   1      40.253  33.910  35.668  1.00  0.00     0.012 A 
ATOM     39  C   UNL A   1      38.810  32.146  36.516  1.00  0.00     0.148 A 
ATOM     40  C   UNL A   1      39.896  34.731  36.738  1.00  0.00     0.002 A 
ATOM     41  C   UNL A   1      38.428  32.983  37.558  1.00  0.00     0.091 A 
ATOM     42  F   UNL A   1      38.338  30.897  36.401  1.00  0.00    -0.205 F 
ATOM     43  C   UNL A   1      38.979  34.270  37.678  1.00  0.00     0.022 A 
BRANCH  41  44
ATOM     44  S   UNL A   1      37.208  32.511  38.789  1.00  0.00     0.127 S 
ATOM     45  O   UNL A   1      37.595  33.348  39.925  1.00  0.00    -0.237 OA
ATOM     46  O   UNL A   1      35.956  32.903  38.142  1.00  0.00    -0.237 OA
ATOM     47  O   UNL A   1      37.371  31.079  38.992  1.00  0.00    -0.744 OA
ENDBRANCH  41  44
ENDBRANCH  23  37
BRANCH  24  48
ATOM     48  C   UNL A   1      41.933  26.856  27.567  1.00  0.00     0.023 A 
ATOM     49  C   UNL A   1      42.537  27.409  26.424  1.00  0.00     0.012 A 
ATOM     50  C   UNL A   1      41.612  25.485  27.574  1.00  0.00     0.148 A 
ATOM     51  C   UNL A   1      42.824  26.611  25.314  1.00  0.00     0.002 A 
ATOM     52  C   UNL A   1      41.955  24.682  26.488  1.00  0.00     0.091 A 
ATOM     53  F   UNL A   1      40.952  25.001  28.635  1.00  0.00    -0.205 F 
ATOM     54  C   UNL A   1      42.548  25.247  25.351  1.00  0.00     0.022 A 
BRANCH  52  55
ATOM     55  S   UNL A   1      41.706  22.899  26.471  1.00  0.00     0.127 S 
ATOM     56  O   UNL A   1      40.250  22.780  26.485  1.00  0.00    -0.237 OA
ATOM     57  O   UNL A   1      42.339  22.532  25.205  1.00  0.00    -0.237 OA
ATOM     58  O   UNL A   1      42.367  22.402  27.670  1.00  0.00    -0.744 OA
ENDBRANCH  52  55
ENDBRANCH  24  48
BRANCH  36  59
ATOM     59  C   UNL A   1      44.486  27.400  33.979  1.00  0.00     0.023 A 
ATOM     60  C   UNL A   1      45.824  27.828  33.870  1.00  0.00     0.012 A 
ATOM     61  C   UNL A   1      44.175  26.278  34.768  1.00  0.00     0.148 A 
ATOM     62  C   UNL A   1      46.844  27.118  34.498  1.00  0.00     0.002 A 
ATOM     63  C   UNL A   1      45.189  25.611  35.439  1.00  0.00     0.091 A 
ATOM     64  F   UNL A   1      42.897  25.876  34.835  1.00  0.00    -0.205 F 
ATOM     65  C   UNL A   1      46.525  26.019  35.291  1.00  0.00     0.022 A 
BRANCH  63  66
ATOM     66  S   UNL A   1      44.858  24.252  36.563  1.00  0.00     0.127 S 
ATOM     67  O   UNL A   1      43.904  24.857  37.489  1.00  0.00    -0.237 OA
ATOM     68  O   UNL A   1      44.288  23.244  35.668  1.00  0.00    -0.237 OA
ATOM     69  O   UNL A   1      46.146  23.886  37.139  1.00  0.00    -0.744 OA
ENDBRANCH  63  66
ENDBRANCH  36  59
ENDBRANCH  10  11
ENDBRANCH   3   5
ENDBRANCH   2   3
ENDBRANCH   1   2
BRANCH   1  70
ATOM     70  C   UNL A   1      31.996  30.499  26.884  1.00  0.00     0.275 C 
BRANCH  70  71
ATOM     71  O   UNL A   1      32.844  30.151  25.781  1.00  0.00    -0.457 OA
BRANCH  71  72
ATOM     72  C   UNL A   1      33.774  29.187  26.040  1.00  0.00     0.357 C 
ATOM     73  O   UNL A   1      34.673  29.265  26.864  1.00  0.00    -0.244 OA
BRANCH  72  74
ATOM     74  C   UNL A   1      33.490  27.991  25.197  1.00  0.00     0.154 A 
ATOM     75  C   UNL A   1      34.198  26.831  25.390  1.00  0.00     0.065 A 
ATOM     76  N   UNL A   1      32.506  28.131  24.283  1.00  0.00    -0.206 NA
ATOM     77  C   UNL A   1      33.812  25.781  24.593  1.00  0.00     0.077 A 
ATOM     78  C   UNL A   1      32.243  27.075  23.507  1.00  0.00     0.230 A 
ATOM     79  N   UNL A   1      32.845  25.898  23.659  1.00  0.00    -0.213 NA
BRANCH  77  80
ATOM     80  C   UNL A   1      34.329  24.422  24.736  1.00  0.00     0.000 A 
ATOM     81  C   UNL A   1      34.259  23.768  25.981  1.00  0.00     0.010 A 
ATOM     82  C   UNL A   1      34.985  23.781  23.671  1.00  0.00     0.010 A 
ATOM     83  C   UNL A   1      34.889  22.546  26.174  1.00  0.00     0.001 A 
ATOM     84  C   UNL A   1      35.623  22.562  23.869  1.00  0.00     0.001 A 
ATOM     85  C   UNL A   1      35.603  21.974  25.129  1.00  0.00     0.000 A 
ENDBRANCH  77  80
BRANCH  78  86
ATOM     86  N   UNL A   1      31.263  27.106  22.530  1.00  0.00    -0.300 N 
ATOM     87  H   UNL A   1      31.266  26.398  21.844  1.00  0.00     0.172 HD
BRANCH  86  88
ATOM     88  C   UNL A   1      30.311  28.045  22.464  1.00  0.00     0.190 A 
ATOM     89  N   UNL A   1      30.370  29.099  21.691  1.00  0.00    -0.220 NA
ATOM     90  S   UNL A   1      28.869  27.923  23.396  1.00  0.00    -0.097 S 
ATOM     91  C   UNL A   1      29.384  29.997  22.025  1.00  0.00     0.084 A 
ATOM     92  C   UNL A   1      28.491  29.558  22.999  1.00  0.00     0.056 A 
ATOM     93  C   UNL A   1      29.247  31.297  21.505  1.00  0.00     0.030 A 
ATOM     94  C   UNL A   1      27.489  30.398  23.511  1.00  0.00     0.021 A 
ATOM     95  C   UNL A   1      28.293  32.159  22.042  1.00  0.00     0.002 A 
ATOM     96  C   UNL A   1      27.431  31.715  23.039  1.00  0.00     0.002 A 
ENDBRANCH  86  88
ENDBRANCH  78  86
ENDBRANCH  72  74
ENDBRANCH  71  72
ENDBRANCH  70  71
ENDBRANCH   1  70
TORSDOF 17
ENDMDL
MODEL 2
REMARK VINA RESULT:     -12.2      3.359      5.492
REMARK SMILES O=C(OCCOC(=O)c1cc(-c2ccccc2)nc(Nc2nc3ccccc3s2)n1)c1ccc(-c2c3nc(c(-c4cccc(S(=O)(=O)[O-])c4F)c4ccc([nH]4)c(-c4cccc(S(=O)(=O)[O-])c4F)c4nc(c(-c5cccc(S(=O)(=O)[O-])c5F)c5ccc2[nH]5)C=C4)C=C3)cc1
REMARK SMILES IDX 4 1 3 2 2 3 1 4 31 5 32 6 93 7 33 8 92 9 34 10 35 11 36 12
REMARK SMILES IDX 86 13 37 14 91 15 85 16 87 17 38 18 90 19 84 20 83 21 39 23
REMARK SMILES IDX 71 24 51 25 70 26 52 27 55 28 69 29 88 30 53 31 54 32 68 34
REMARK SMILES IDX 89 35 56 36 40 37 41 38 49 39 42 40 44 41 50 42 43 43 45 44
REMARK SMILES IDX 46 45 47 46 48 47 72 48 73 49 81 50 74 51 76 52 82 53 75 54
REMARK SMILES IDX 77 55 78 56 79 57 80 58 57 59 58 60 66 61 59 62 61 63 67 64
REMARK SMILES IDX 60 65 62 66 63 67 64 68 65 69 5 70 6 71 7 72 8 73 9 74 10 75
REMARK SMILES IDX 30 76 11 77 19 78 18 79 12 80 13 81 17 82 14 83 16 84 15 85
REMARK SMILES IDX 20 86 21 88 22 89 29 90 23 91 28 92 24 93 27 94 25 95 26 96
REMARK H PARENT 87 22 55 33 20 87
REMARK Flexibility Score: inf
ROOT
ATOM      1  C   UNL A   1      32.968  29.030  27.219  1.00  0.00     0.275 C 
ENDROOT
BRANCH   1   2
ATOM      2  O   UNL A   1      33.555  30.322  27.005  1.00  0.00    -0.458 OA
BRANCH   2   3
ATOM      3  C   UNL A   1      34.549  30.964  27.663  1.00  0.00     0.338 C 
ATOM      4  O   UNL A   1      34.421  32.172  27.845  1.00  0.00    -0.246 OA
BRANCH   3   5
ATOM      5  C   UNL A   1      35.811  30.312  28.147  1.00  0.00     0.060 A 
ATOM      6  C   UNL A   1      35.998  29.753  29.410  1.00  0.00     0.016 A 
ATOM      7  C   UNL A   1      36.906  30.291  27.261  1.00  0.00     0.016 A 
ATOM      8  C   UNL A   1      37.208  29.159  29.768  1.00  0.00     0.010 A 
ATOM      9  C   UNL A   1      38.119  29.677  27.604  1.00  0.00     0.010 A 
ATOM     10  C   UNL A   1      38.279  29.119  28.875  1.00  0.00    -0.014 A 
BRANCH  10  11
ATOM     11  C   UNL A   1      39.583  28.619  29.366  1.00  0.00     0.031 A 
ATOM     12  C   UNL A   1      40.220  29.323  30.534  1.00  0.00     0.074 A 
ATOM     13  C   UNL A   1      40.110  27.486  28.859  1.00  0.00     0.049 A 
ATOM     14  N   UNL A   1      41.250  28.956  31.247  1.00  0.00    -0.248 NA
ATOM     15  C   UNL A   1      39.584  30.570  30.998  1.00  0.00     0.031 C 
ATOM     16  C   UNL A   1      39.517  26.684  27.786  1.00  0.00     0.029 A 
ATOM     17  N   UNL A   1      41.259  26.807  29.168  1.00  0.00    -0.354 N 
ATOM     18  C   UNL A   1      41.361  29.900  32.261  1.00  0.00     0.074 A 
ATOM     19  C   UNL A   1      40.334  30.890  32.042  1.00  0.00     0.031 C 
ATOM     20  C   UNL A   1      40.339  25.665  27.479  1.00  0.00     0.029 A 
ATOM     21  C   UNL A   1      41.501  25.721  28.353  1.00  0.00     0.049 A 
ATOM     22  H   UNL A   1      41.859  27.070  29.904  1.00  0.00     0.167 HD
ATOM     23  C   UNL A   1      42.218  29.906  33.308  1.00  0.00     0.034 A 
ATOM     24  C   UNL A   1      42.541  24.866  28.332  1.00  0.00     0.034 A 
ATOM     25  C   UNL A   1      43.250  28.923  33.485  1.00  0.00     0.049 A 
ATOM     26  C   UNL A   1      43.550  24.979  29.433  1.00  0.00     0.074 A 
ATOM     27  C   UNL A   1      44.187  28.824  34.496  1.00  0.00     0.029 A 
ATOM     28  N   UNL A   1      43.494  27.876  32.605  1.00  0.00    -0.354 N 
ATOM     29  N   UNL A   1      43.592  25.834  30.426  1.00  0.00    -0.248 NA
ATOM     30  C   UNL A   1      44.598  23.953  29.463  1.00  0.00     0.031 C 
ATOM     31  C   UNL A   1      45.022  27.739  34.206  1.00  0.00     0.029 A 
ATOM     32  C   UNL A   1      44.578  27.136  33.038  1.00  0.00     0.049 A 
ATOM     33  H   UNL A   1      42.972  27.689  31.791  1.00  0.00     0.167 HD
ATOM     34  C   UNL A   1      44.645  25.425  31.229  1.00  0.00     0.074 A 
ATOM     35  C   UNL A   1      45.205  24.240  30.606  1.00  0.00     0.031 C 
ATOM     36  C   UNL A   1      45.105  25.967  32.383  1.00  0.00     0.034 A 
BRANCH  23  37
ATOM     37  C   UNL A   1      42.049  30.991  34.340  1.00  0.00     0.023 A 
ATOM     38  C   UNL A   1      41.301  30.732  35.508  1.00  0.00     0.012 A 
ATOM     39  C   UNL A   1      42.650  32.253  34.175  1.00  0.00     0.148 A 
ATOM     40  C   UNL A   1      41.127  31.719  36.478  1.00  0.00     0.002 A 
ATOM     41  C   UNL A   1      42.506  33.219  35.164  1.00  0.00     0.091 A 
ATOM     42  F   UNL A   1      43.340  32.488  33.050  1.00  0.00    -0.205 F 
ATOM     43  C   UNL A   1      41.736  32.959  36.309  1.00  0.00     0.022 A 
BRANCH  41  44
ATOM     44  S   UNL A   1      43.298  34.830  35.074  1.00  0.00     0.127 S 
ATOM     45  O   UNL A   1      42.735  35.501  36.246  1.00  0.00    -0.237 OA
ATOM     46  O   UNL A   1      44.713  34.478  35.195  1.00  0.00    -0.237 OA
ATOM     47  O   UNL A   1      42.914  35.398  33.791  1.00  0.00    -0.744 OA
ENDBRANCH  41  44
ENDBRANCH  23  37
BRANCH  24  48
ATOM     48  C   UNL A   1      42.646  23.774  27.323  1.00  0.00     0.023 A 
ATOM     49  C   UNL A   1      43.232  24.036  26.071  1.00  0.00     0.012 A 
ATOM     50  C   UNL A   1      42.120  22.493  27.576  1.00  0.00     0.148 A 
ATOM     51  C   UNL A   1      43.300  23.038  25.095  1.00  0.00     0.002 A 
ATOM     52  C   UNL A   1      42.245  21.485  26.622  1.00  0.00     0.091 A 
ATOM     53  F   UNL A   1      41.483  22.294  28.738  1.00  0.00    -0.205 F 
ATOM     54  C   UNL A   1      42.822  21.761  25.375  1.00  0.00     0.022 A 
BRANCH  52  55
ATOM     55  S   UNL A   1      41.726  19.787  26.916  1.00  0.00     0.127 S 
ATOM     56  O   UNL A   1      41.025  19.449  25.678  1.00  0.00    -0.237 OA
ATOM     57  O   UNL A   1      43.014  19.118  27.092  1.00  0.00    -0.237 OA
ATOM     58  O   UNL A   1      40.878  19.838  28.099  1.00  0.00    -0.744 OA
ENDBRANCH  52  55
ENDBRANCH  24  48
BRANCH  36  59
ATOM     59  C   UNL A   1      46.265  25.269  33.031  1.00  0.00     0.023 A 
ATOM     60  C   UNL A   1      47.579  25.714  32.784  1.00  0.00     0.012 A 
ATOM     61  C   UNL A   1      46.046  24.191  33.908  1.00  0.00     0.148 A 
ATOM     62  C   UNL A   1      48.664  25.061  33.364  1.00  0.00     0.002 A 
ATOM     63  C   UNL A   1      47.128  23.584  34.527  1.00  0.00     0.091 A 
ATOM     64  F   UNL A   1      44.788  23.770  34.107  1.00  0.00    -0.205 F 
ATOM     65  C   UNL A   1      48.438  24.005  34.243  1.00  0.00     0.022 A 
BRANCH  63  66
ATOM     66  S   UNL A   1      46.924  22.288  35.752  1.00  0.00     0.127 S 
ATOM     67  O   UNL A   1      46.454  21.174  34.932  1.00  0.00    -0.237 OA
ATOM     68  O   UNL A   1      48.284  22.135  36.270  1.00  0.00    -0.237 OA
ATOM     69  O   UNL A   1      45.964  22.801  36.722  1.00  0.00    -0.744 OA
ENDBRANCH  63  66
ENDBRANCH  36  59
ENDBRANCH  10  11
ENDBRANCH   3   5
ENDBRANCH   2   3
ENDBRANCH   1   2
BRANCH   1  70
ATOM     70  C   UNL A   1      33.389  27.959  26.210  1.00  0.00     0.275 C 
BRANCH  70  71
ATOM     71  O   UNL A   1      32.740  26.696  26.417  1.00  0.00    -0.457 OA
BRANCH  71  72
ATOM     72  C   UNL A   1      32.338  26.052  25.283  1.00  0.00     0.357 C 
ATOM     73  O   UNL A   1      31.651  26.533  24.395  1.00  0.00    -0.244 OA
BRANCH  72  74
ATOM     74  C   UNL A   1      32.917  24.680  25.265  1.00  0.00     0.154 A 
ATOM     75  C   UNL A   1      34.277  24.509  25.188  1.00  0.00     0.065 A 
ATOM     76  N   UNL A   1      32.034  23.662  25.350  1.00  0.00    -0.206 NA
ATOM     77  C   UNL A   1      34.697  23.202  25.234  1.00  0.00     0.077 A 
ATOM     78  C   UNL A   1      32.530  22.422  25.323  1.00  0.00     0.230 A 
ATOM     79  N   UNL A   1      33.835  22.166  25.301  1.00  0.00    -0.213 NA
BRANCH  77  80
ATOM     80  C   UNL A   1      36.101  22.804  25.315  1.00  0.00     0.000 A 
ATOM     81  C   UNL A   1      36.497  21.522  24.890  1.00  0.00     0.010 A 
ATOM     82  C   UNL A   1      37.061  23.648  25.900  1.00  0.00     0.010 A 
ATOM     83  C   UNL A   1      37.792  21.071  25.110  1.00  0.00     0.001 A 
ATOM     84  C   UNL A   1      38.354  23.192  26.129  1.00  0.00     0.001 A 
ATOM     85  C   UNL A   1      38.697  21.894  25.767  1.00  0.00     0.000 A 
ENDBRANCH  77  80
BRANCH  78  86
ATOM     86  N   UNL A   1      31.718  21.302  25.394  1.00  0.00    -0.300 N 
ATOM     87  H   UNL A   1      30.812  21.407  25.768  1.00  0.00     0.172 HD
BRANCH  86  88
ATOM     88  C   UNL A   1      32.095  20.086  24.984  1.00  0.00     0.190 A 
ATOM     89  N   UNL A   1      32.214  19.048  25.773  1.00  0.00    -0.220 NA
ATOM     90  S   UNL A   1      32.432  19.764  23.327  1.00  0.00    -0.097 S 
ATOM     91  C   UNL A   1      32.854  18.020  25.123  1.00  0.00     0.084 A 
ATOM     92  C   UNL A   1      33.122  18.249  23.775  1.00  0.00     0.056 A 
ATOM     93  C   UNL A   1      33.282  16.817  25.711  1.00  0.00     0.030 A 
ATOM     94  C   UNL A   1      33.853  17.332  23.004  1.00  0.00     0.021 A 
ATOM     95  C   UNL A   1      34.056  15.923  24.973  1.00  0.00     0.002 A 
ATOM     96  C   UNL A   1      34.343  16.183  23.637  1.00  0.00     0.002 A 
ENDBRANCH  86  88
ENDBRANCH  78  86
ENDBRANCH  72  74
ENDBRANCH  71  72
ENDBRANCH  70  71
ENDBRANCH   1  70
TORSDOF 17
ENDMDL
MODEL 3
REMARK VINA RESULT:     -12.2      5.292     10.987
REMARK SMILES O=C(OCCOC(=O)c1cc(-c2ccccc2)nc(Nc2nc3ccccc3s2)n1)c1ccc(-c2c3nc(c(-c4cccc(S(=O)(=O)[O-])c4F)c4ccc([nH]4)c(-c4cccc(S(=O)(=O)[O-])c4F)c4nc(c(-c5cccc(S(=O)(=O)[O-])c5F)c5ccc2[nH]5)C=C4)C=C3)cc1
REMARK SMILES IDX 4 1 3 2 2 3 1 4 31 5 32 6 93 7 33 8 92 9 34 10 35 11 36 12
REMARK SMILES IDX 86 13 37 14 91 15 85 16 87 17 38 18 90 19 84 20 83 21 39 23
REMARK SMILES IDX 71 24 51 25 70 26 52 27 55 28 69 29 88 30 53 31 54 32 68 34
REMARK SMILES IDX 89 35 56 36 40 37 41 38 49 39 42 40 44 41 50 42 43 43 45 44
REMARK SMILES IDX 46 45 47 46 48 47 72 48 73 49 81 50 74 51 76 52 82 53 75 54
REMARK SMILES IDX 77 55 78 56 79 57 80 58 57 59 58 60 66 61 59 62 61 63 67 64
REMARK SMILES IDX 60 65 62 66 63 67 64 68 65 69 5 70 6 71 7 72 8 73 9 74 10 75
REMARK SMILES IDX 30 76 11 77 19 78 18 79 12 80 13 81 17 82 14 83 16 84 15 85
REMARK SMILES IDX 20 86 21 88 22 89 29 90 23 91 28 92 24 93 27 94 25 95 26 96
REMARK H PARENT 87 22 55 33 20 87
REMARK Flexibility Score: inf
ROOT
ATOM      1  C   UNL A   1      38.432  19.777  25.430  1.00  0.00     0.275 C 
ENDROOT
BRANCH   1   2
ATOM      2  O   UNL A   1      39.824  20.050  25.651  1.00  0.00    -0.458 OA
BRANCH   2   3
ATOM      3  C   UNL A   1      40.487  20.434  26.767  1.00  0.00     0.338 C 
ATOM      4  O   UNL A   1      40.800  19.560  27.570  1.00  0.00    -0.246 OA
BRANCH   3   5
ATOM      5  C   UNL A   1      40.828  21.855  27.109  1.00  0.00     0.060 A 
ATOM      6  C   UNL A   1      40.490  22.972  26.347  1.00  0.00     0.016 A 
ATOM      7  C   UNL A   1      41.579  22.073  28.280  1.00  0.00     0.016 A 
ATOM      8  C   UNL A   1      40.845  24.259  26.751  1.00  0.00     0.010 A 
ATOM      9  C   UNL A   1      41.922  23.364  28.705  1.00  0.00     0.010 A 
ATOM     10  C   UNL A   1      41.566  24.468  27.927  1.00  0.00    -0.014 A 
BRANCH  10  11
ATOM     11  C   UNL A   1      42.048  25.837  28.218  1.00  0.00     0.031 A 
ATOM     12  C   UNL A   1      43.421  26.224  27.741  1.00  0.00     0.074 A 
ATOM     13  C   UNL A   1      41.221  26.742  28.780  1.00  0.00     0.049 A 
ATOM     14  N   UNL A   1      43.976  27.405  27.714  1.00  0.00    -0.248 NA
ATOM     15  C   UNL A   1      44.261  25.156  27.167  1.00  0.00     0.031 C 
ATOM     16  C   UNL A   1      39.840  26.483  29.194  1.00  0.00     0.029 A 
ATOM     17  N   UNL A   1      41.410  28.060  29.105  1.00  0.00    -0.354 N 
ATOM     18  C   UNL A   1      45.204  27.232  27.088  1.00  0.00     0.074 A 
ATOM     19  C   UNL A   1      45.346  25.824  26.804  1.00  0.00     0.031 C 
ATOM     20  C   UNL A   1      39.332  27.583  29.780  1.00  0.00     0.029 A 
ATOM     21  C   UNL A   1      40.338  28.633  29.756  1.00  0.00     0.049 A 
ATOM     22  H   UNL A   1      42.237  28.552  28.895  1.00  0.00     0.167 HD
ATOM     23  C   UNL A   1      46.108  28.177  26.742  1.00  0.00     0.034 A 
ATOM     24  C   UNL A   1      40.190  29.873  30.260  1.00  0.00     0.034 A 
ATOM     25  C   UNL A   1      45.954  29.567  27.066  1.00  0.00     0.049 A 
ATOM     26  C   UNL A   1      41.272  30.868  29.973  1.00  0.00     0.074 A 
ATOM     27  C   UNL A   1      46.801  30.622  26.781  1.00  0.00     0.029 A 
ATOM     28  N   UNL A   1      44.882  30.093  27.775  1.00  0.00    -0.354 N 
ATOM     29  N   UNL A   1      42.392  30.698  29.312  1.00  0.00    -0.248 NA
ATOM     30  C   UNL A   1      41.025  32.244  30.418  1.00  0.00     0.031 C 
ATOM     31  C   UNL A   1      46.259  31.779  27.352  1.00  0.00     0.029 A 
ATOM     32  C   UNL A   1      45.052  31.453  27.954  1.00  0.00     0.049 A 
ATOM     33  H   UNL A   1      44.113  29.573  28.103  1.00  0.00     0.167 HD
ATOM     34  C   UNL A   1      42.967  31.957  29.221  1.00  0.00     0.074 A 
ATOM     35  C   UNL A   1      42.063  32.875  29.888  1.00  0.00     0.031 C 
ATOM     36  C   UNL A   1      44.129  32.328  28.631  1.00  0.00     0.034 A 
BRANCH  23  37
ATOM     37  C   UNL A   1      47.316  27.732  25.959  1.00  0.00     0.023 A 
ATOM     38  C   UNL A   1      48.410  27.151  26.635  1.00  0.00     0.012 A 
ATOM     39  C   UNL A   1      47.363  27.861  24.558  1.00  0.00     0.148 A 
ATOM     40  C   UNL A   1      49.542  26.733  25.934  1.00  0.00     0.002 A 
ATOM     41  C   UNL A   1      48.477  27.407  23.862  1.00  0.00     0.091 A 
ATOM     42  F   UNL A   1      46.324  28.434  23.936  1.00  0.00    -0.205 F 
ATOM     43  C   UNL A   1      49.571  26.854  24.548  1.00  0.00     0.022 A 
BRANCH  41  44
ATOM     44  S   UNL A   1      48.593  27.460  22.069  1.00  0.00     0.127 S 
ATOM     45  O   UNL A   1      49.868  28.151  21.877  1.00  0.00    -0.237 OA
ATOM     46  O   UNL A   1      48.613  26.039  21.725  1.00  0.00    -0.237 OA
ATOM     47  O   UNL A   1      47.420  28.187  21.610  1.00  0.00    -0.744 OA
ENDBRANCH  41  44
ENDBRANCH  23  37
BRANCH  24  48
ATOM     48  C   UNL A   1      38.958  30.288  30.987  1.00  0.00     0.023 A 
ATOM     49  C   UNL A   1      38.810  29.969  32.349  1.00  0.00     0.012 A 
ATOM     50  C   UNL A   1      37.907  30.951  30.324  1.00  0.00     0.148 A 
ATOM     51  C   UNL A   1      37.643  30.311  33.038  1.00  0.00     0.002 A 
ATOM     52  C   UNL A   1      36.772  31.343  31.030  1.00  0.00     0.091 A 
ATOM     53  F   UNL A   1      38.031  31.160  29.006  1.00  0.00    -0.205 F 
ATOM     54  C   UNL A   1      36.633  31.010  32.385  1.00  0.00     0.022 A 
BRANCH  52  55
ATOM     55  S   UNL A   1      35.446  32.312  30.294  1.00  0.00     0.127 S 
ATOM     56  O   UNL A   1      34.469  32.391  31.379  1.00  0.00    -0.237 OA
ATOM     57  O   UNL A   1      36.135  33.567  29.998  1.00  0.00    -0.237 OA
ATOM     58  O   UNL A   1      35.004  31.550  29.135  1.00  0.00    -0.744 OA
ENDBRANCH  52  55
ENDBRANCH  24  48
BRANCH  36  59
ATOM     59  C   UNL A   1      44.469  33.788  28.686  1.00  0.00     0.023 A 
ATOM     60  C   UNL A   1      44.030  34.650  27.662  1.00  0.00     0.012 A 
ATOM     61  C   UNL A   1      45.200  34.308  29.771  1.00  0.00     0.148 A 
ATOM     62  C   UNL A   1      44.358  36.003  27.692  1.00  0.00     0.002 A 
ATOM     63  C   UNL A   1      45.472  35.667  29.823  1.00  0.00     0.091 A 
ATOM     64  F   UNL A   1      45.628  33.462  30.720  1.00  0.00    -0.205 F 
ATOM     65  C   UNL A   1      45.067  36.512  28.777  1.00  0.00     0.022 A 
BRANCH  63  66
ATOM     66  S   UNL A   1      46.287  36.424  31.231  1.00  0.00     0.127 S 
ATOM     67  O   UNL A   1      46.307  37.832  30.842  1.00  0.00    -0.237 OA
ATOM     68  O   UNL A   1      45.369  36.105  32.326  1.00  0.00    -0.237 OA
ATOM     69  O   UNL A   1      47.591  35.783  31.332  1.00  0.00    -0.744 OA
ENDBRANCH  63  66
ENDBRANCH  36  59
ENDBRANCH  10  11
ENDBRANCH   3   5
ENDBRANCH   2   3
ENDBRANCH   1   2
BRANCH   1  70
ATOM     70  C   UNL A   1      37.645  20.930  24.803  1.00  0.00     0.275 C 
BRANCH  70  71
ATOM     71  O   UNL A   1      36.673  21.503  25.690  1.00  0.00    -0.457 OA
BRANCH  71  72
ATOM     72  C   UNL A   1      36.591  22.865  25.666  1.00  0.00     0.357 C 
ATOM     73  O   UNL A   1      37.538  23.636  25.637  1.00  0.00    -0.244 OA
BRANCH  72  74
ATOM     74  C   UNL A   1      35.159  23.271  25.624  1.00  0.00     0.154 A 
ATOM     75  C   UNL A   1      34.814  24.593  25.754  1.00  0.00     0.065 A 
ATOM     76  N   UNL A   1      34.266  22.275  25.434  1.00  0.00    -0.206 NA
ATOM     77  C   UNL A   1      33.470  24.852  25.646  1.00  0.00     0.077 A 
ATOM     78  C   UNL A   1      32.974  22.614  25.406  1.00  0.00     0.230 A 
ATOM     79  N   UNL A   1      32.556  23.876  25.473  1.00  0.00    -0.213 NA
BRANCH  77  80
ATOM     80  C   UNL A   1      32.906  26.199  25.606  1.00  0.00     0.000 A 
ATOM     81  C   UNL A   1      33.635  27.287  26.124  1.00  0.00     0.010 A 
ATOM     82  C   UNL A   1      31.598  26.423  25.141  1.00  0.00     0.010 A 
ATOM     83  C   UNL A   1      33.050  28.540  26.242  1.00  0.00     0.001 A 
ATOM     84  C   UNL A   1      31.010  27.677  25.269  1.00  0.00     0.001 A 
ATOM     85  C   UNL A   1      31.728  28.715  25.854  1.00  0.00     0.000 A 
ENDBRANCH  77  80
BRANCH  78  86
ATOM     86  N   UNL A   1      31.971  21.677  25.226  1.00  0.00    -0.300 N 
ATOM     87  H   UNL A   1      31.038  21.958  25.377  1.00  0.00     0.172 HD
BRANCH  86  88
ATOM     88  C   UNL A   1      32.197  20.410  24.858  1.00  0.00     0.190 A 
ATOM     89  N   UNL A   1      32.202  19.395  25.684  1.00  0.00    -0.220 NA
ATOM     90  S   UNL A   1      32.477  19.992  23.212  1.00  0.00    -0.097 S 
ATOM     91  C   UNL A   1      32.709  18.275  25.069  1.00  0.00     0.084 A 
ATOM     92  C   UNL A   1      32.988  18.423  23.712  1.00  0.00     0.056 A 
ATOM     93  C   UNL A   1      32.999  17.052  25.699  1.00  0.00     0.030 A 
ATOM     94  C   UNL A   1      33.597  17.399  22.971  1.00  0.00     0.021 A 
ATOM     95  C   UNL A   1      33.653  16.047  24.990  1.00  0.00     0.002 A 
ATOM     96  C   UNL A   1      33.955  16.224  23.643  1.00  0.00     0.002 A 
ENDBRANCH  86  88
ENDBRANCH  78  86
ENDBRANCH  72  74
ENDBRANCH  71  72
ENDBRANCH  70  71
ENDBRANCH   1  70
TORSDOF 17
ENDMDL
