MODEL 1
REMARK VINA RESULT:     -12.4      0.000      0.000
REMARK SMILES O=C(CNC(=O)[C@H]1CC[C@@H](Cn2cnc3ccccc3c2=O)CC1)OCCOC(=O)c1ccc(-c2c3nc(c(-c4cccc(S(=O)(=O)[O-])c4F)c4ccc([nH]4)c(-c4cccc(S(=O)(=O)[O-])c4F)c4nc(c(-c5cccc(S(=O)(=O)[O-])c5F)c5ccc2[nH]5)C=C4)C=C3)cc1
REMARK SMILES IDX 26 1 25 2 2 3 1 4 3 5 4 6 5 7 6 9 7 10 24 11 8 12 23 13 9 14
REMARK SMILES IDX 10 15 11 16 12 17 13 18 21 19 14 20 20 21 22 22 15 23 19 24
REMARK SMILES IDX 16 25 18 26 17 27 27 28 28 29 29 30 30 31 31 32 32 33 93 34
REMARK SMILES IDX 33 35 92 36 34 37 35 38 36 39 86 40 37 41 91 42 85 43 87 44
REMARK SMILES IDX 38 45 90 46 84 47 83 48 39 50 71 51 51 52 70 53 52 54 55 55
REMARK SMILES IDX 69 56 88 57 53 58 54 59 68 61 89 62 56 63 40 64 41 65 49 66
REMARK SMILES IDX 42 67 44 68 50 69 43 70 45 71 46 72 47 73 48 74 72 75 73 76
REMARK SMILES IDX 81 77 74 78 76 79 82 80 75 81 77 82 78 83 79 84 80 85 57 86
REMARK SMILES IDX 58 87 66 88 59 89 61 90 67 91 60 92 62 93 63 94 64 95 65 96
REMARK H PARENT 4 8 87 49 55 60
REMARK Flexibility Score: inf
ROOT
ATOM      1  C   UNL A   1      31.095  31.163  25.558  1.00  0.00     0.274 C 
ENDROOT
BRANCH   1   2
ATOM      2  O   UNL A   1      30.692  30.014  24.788  1.00  0.00    -0.461 OA
BRANCH   2   3
ATOM      3  C   UNL A   1      30.002  30.053  23.624  1.00  0.00     0.325 C 
ATOM      4  O   UNL A   1      28.988  30.746  23.540  1.00  0.00    -0.250 OA
BRANCH   3   5
ATOM      5  C   UNL A   1      30.498  29.253  22.421  1.00  0.00     0.238 C 
BRANCH   5   6
ATOM      6  N   UNL A   1      31.931  29.243  22.210  1.00  0.00    -0.345 N 
ATOM      7  C   UNL A   1      32.872  28.417  22.749  1.00  0.00     0.223 C 
ATOM      8  H   UNL A   1      32.272  29.928  21.592  1.00  0.00     0.164 HD
ATOM      9  O   UNL A   1      34.022  28.497  22.321  1.00  0.00    -0.275 OA
BRANCH   7  10
ATOM     10  C   UNL A   1      32.492  27.455  23.880  1.00  0.00     0.078 C 
ATOM     11  C   UNL A   1      31.950  26.121  23.367  1.00  0.00     0.014 C 
ATOM     12  C   UNL A   1      33.697  27.257  24.807  1.00  0.00     0.014 C 
ATOM     13  C   UNL A   1      31.649  25.163  24.532  1.00  0.00     0.006 C 
ATOM     14  C   UNL A   1      33.382  26.300  25.950  1.00  0.00     0.006 C 
ATOM     15  C   UNL A   1      32.852  24.942  25.467  1.00  0.00     0.009 C 
BRANCH  15  16
ATOM     16  C   UNL A   1      33.902  24.040  24.778  1.00  0.00     0.130 C 
BRANCH  16  17
ATOM     17  N   UNL A   1      33.651  22.613  24.923  1.00  0.00    -0.298 N 
ATOM     18  C   UNL A   1      33.821  21.998  26.141  1.00  0.00     0.203 A 
ATOM     19  C   UNL A   1      33.176  21.905  23.827  1.00  0.00     0.261 A 
ATOM     20  N   UNL A   1      33.600  20.749  26.381  1.00  0.00    -0.238 NA
ATOM     21  C   UNL A   1      32.929  20.472  24.039  1.00  0.00     0.066 A 
ATOM     22  O   UNL A   1      32.946  22.395  22.726  1.00  0.00    -0.269 OA
ATOM     23  C   UNL A   1      33.140  19.957  25.317  1.00  0.00     0.077 A 
ATOM     24  C   UNL A   1      32.478  19.662  22.990  1.00  0.00     0.016 A 
ATOM     25  C   UNL A   1      32.877  18.604  25.539  1.00  0.00     0.029 A 
ATOM     26  C   UNL A   1      32.223  18.313  23.225  1.00  0.00     0.001 A 
ATOM     27  C   UNL A   1      32.418  17.786  24.501  1.00  0.00     0.002 A 
ENDBRANCH  16  17
ENDBRANCH  15  16
ENDBRANCH   7  10
ENDBRANCH   5   6
ENDBRANCH   3   5
ENDBRANCH   2   3
ENDBRANCH   1   2
BRANCH   1  28
ATOM     28  C   UNL A   1      31.834  30.768  26.840  1.00  0.00     0.275 C 
BRANCH  28  29
ATOM     29  O   UNL A   1      33.253  30.968  26.703  1.00  0.00    -0.458 OA
BRANCH  29  30
ATOM     30  C   UNL A   1      33.794  31.967  27.452  1.00  0.00     0.338 C 
ATOM     31  O   UNL A   1      33.257  33.020  27.745  1.00  0.00    -0.246 OA
BRANCH  30  32
ATOM     32  C   UNL A   1      35.061  31.477  28.053  1.00  0.00     0.060 A 
ATOM     33  C   UNL A   1      36.162  32.320  28.226  1.00  0.00     0.016 A 
ATOM     34  C   UNL A   1      35.170  30.120  28.377  1.00  0.00     0.016 A 
ATOM     35  C   UNL A   1      37.373  31.802  28.697  1.00  0.00     0.010 A 
ATOM     36  C   UNL A   1      36.372  29.610  28.882  1.00  0.00     0.010 A 
ATOM     37  C   UNL A   1      37.485  30.445  29.051  1.00  0.00    -0.014 A 
BRANCH  37  38
ATOM     38  C   UNL A   1      38.707  29.962  29.750  1.00  0.00     0.031 A 
ATOM     39  C   UNL A   1      39.124  30.466  31.104  1.00  0.00     0.074 A 
ATOM     40  C   UNL A   1      39.479  29.055  29.117  1.00  0.00     0.049 A 
ATOM     41  N   UNL A   1      40.139  30.082  31.839  1.00  0.00    -0.248 NA
ATOM     42  C   UNL A   1      38.314  31.530  31.715  1.00  0.00     0.031 C 
ATOM     43  C   UNL A   1      39.227  28.537  27.770  1.00  0.00     0.029 A 
ATOM     44  N   UNL A   1      40.628  28.417  29.509  1.00  0.00    -0.354 N 
ATOM     45  C   UNL A   1      40.101  30.859  32.989  1.00  0.00     0.074 A 
ATOM     46  C   UNL A   1      38.965  31.748  32.853  1.00  0.00     0.031 C 
ATOM     47  C   UNL A   1      40.183  27.651  27.454  1.00  0.00     0.029 A 
ATOM     48  C   UNL A   1      41.129  27.554  28.563  1.00  0.00     0.049 A 
ATOM     49  H   UNL A   1      41.053  28.561  30.385  1.00  0.00     0.167 HD
ATOM     50  C   UNL A   1      40.922  30.817  34.066  1.00  0.00     0.034 A 
ATOM     51  C   UNL A   1      42.224  26.770  28.572  1.00  0.00     0.034 A 
ATOM     52  C   UNL A   1      42.034  29.914  34.218  1.00  0.00     0.049 A 
ATOM     53  C   UNL A   1      43.103  26.731  29.785  1.00  0.00     0.074 A 
ATOM     54  C   UNL A   1      42.862  29.757  35.319  1.00  0.00     0.029 A 
ATOM     55  N   UNL A   1      42.483  29.030  33.253  1.00  0.00    -0.354 N 
ATOM     56  N   UNL A   1      42.955  27.362  30.923  1.00  0.00    -0.248 NA
ATOM     57  C   UNL A   1      44.285  25.857  29.730  1.00  0.00     0.031 C 
ATOM     58  C   UNL A   1      43.816  28.783  35.016  1.00  0.00     0.029 A 
ATOM     59  C   UNL A   1      43.581  28.332  33.729  1.00  0.00     0.049 A 
ATOM     60  H   UNL A   1      42.083  28.915  32.362  1.00  0.00     0.167 HD
ATOM     61  C   UNL A   1      44.016  26.956  31.722  1.00  0.00     0.074 A 
ATOM     62  C   UNL A   1      44.788  26.007  30.949  1.00  0.00     0.031 C 
ATOM     63  C   UNL A   1      44.325  27.355  32.978  1.00  0.00     0.034 A 
BRANCH  50  64
ATOM     64  C   UNL A   1      40.621  31.712  35.238  1.00  0.00     0.023 A 
ATOM     65  C   UNL A   1      41.372  32.893  35.392  1.00  0.00     0.012 A 
ATOM     66  C   UNL A   1      39.498  31.489  36.059  1.00  0.00     0.148 A 
ATOM     67  C   UNL A   1      41.009  33.844  36.344  1.00  0.00     0.002 A 
ATOM     68  C   UNL A   1      39.127  32.453  36.990  1.00  0.00     0.091 A 
ATOM     69  F   UNL A   1      38.800  30.356  35.891  1.00  0.00    -0.205 F 
ATOM     70  C   UNL A   1      39.881  33.631  37.133  1.00  0.00     0.022 A 
BRANCH  68  71
ATOM     71  S   UNL A   1      37.658  32.311  38.015  1.00  0.00     0.127 S 
ATOM     72  O   UNL A   1      36.663  33.009  37.201  1.00  0.00    -0.237 OA
ATOM     73  O   UNL A   1      37.475  30.862  38.090  1.00  0.00    -0.237 OA
ATOM     74  O   UNL A   1      37.983  32.957  39.278  1.00  0.00    -0.744 OA
ENDBRANCH  68  71
ENDBRANCH  50  64
BRANCH  51  75
ATOM     75  C   UNL A   1      42.498  25.906  27.394  1.00  0.00     0.023 A 
ATOM     76  C   UNL A   1      43.281  26.409  26.340  1.00  0.00     0.012 A 
ATOM     77  C   UNL A   1      42.064  24.567  27.360  1.00  0.00     0.148 A 
ATOM     78  C   UNL A   1      43.626  25.593  25.264  1.00  0.00     0.002 A 
ATOM     79  C   UNL A   1      42.449  23.746  26.307  1.00  0.00     0.091 A 
ATOM     80  F   UNL A   1      41.313  24.117  28.375  1.00  0.00    -0.205 F 
ATOM     81  C   UNL A   1      43.222  24.260  25.254  1.00  0.00     0.022 A 
BRANCH  79  82
ATOM     82  S   UNL A   1      42.082  21.989  26.270  1.00  0.00     0.127 S 
ATOM     83  O   UNL A   1      42.929  21.532  25.172  1.00  0.00    -0.237 OA
ATOM     84  O   UNL A   1      42.513  21.565  27.602  1.00  0.00    -0.237 OA
ATOM     85  O   UNL A   1      40.646  21.891  26.044  1.00  0.00    -0.744 OA
ENDBRANCH  79  82
ENDBRANCH  51  75
BRANCH  63  86
ATOM     86  C   UNL A   1      45.559  26.786  33.621  1.00  0.00     0.023 A 
ATOM     87  C   UNL A   1      46.760  27.518  33.559  1.00  0.00     0.012 A 
ATOM     88  C   UNL A   1      45.500  25.606  34.388  1.00  0.00     0.148 A 
ATOM     89  C   UNL A   1      47.890  27.082  34.249  1.00  0.00     0.002 A 
ATOM     90  C   UNL A   1      46.623  25.193  35.097  1.00  0.00     0.091 A 
ATOM     91  F   UNL A   1      44.344  24.929  34.427  1.00  0.00    -0.205 F 
ATOM     92  C   UNL A   1      47.819  25.928  35.026  1.00  0.00     0.022 A 
BRANCH  90  93
ATOM     93  S   UNL A   1      46.618  23.756  36.176  1.00  0.00     0.127 S 
ATOM     94  O   UNL A   1      47.993  23.752  36.674  1.00  0.00    -0.237 OA
ATOM     95  O   UNL A   1      45.610  24.122  37.171  1.00  0.00    -0.237 OA
ATOM     96  O   UNL A   1      46.265  22.619  35.337  1.00  0.00    -0.744 OA
ENDBRANCH  90  93
ENDBRANCH  63  86
ENDBRANCH  37  38
ENDBRANCH  30  32
ENDBRANCH  29  30
ENDBRANCH  28  29
ENDBRANCH   1  28
TORSDOF 18
ENDMDL
MODEL 2
REMARK VINA RESULT:     -12.3      1.650      2.113
REMARK SMILES O=C(CNC(=O)[C@H]1CC[C@@H](Cn2cnc3ccccc3c2=O)CC1)OCCOC(=O)c1ccc(-c2c3nc(c(-c4cccc(S(=O)(=O)[O-])c4F)c4ccc([nH]4)c(-c4cccc(S(=O)(=O)[O-])c4F)c4nc(c(-c5cccc(S(=O)(=O)[O-])c5F)c5ccc2[nH]5)C=C4)C=C3)cc1
REMARK SMILES IDX 26 1 25 2 2 3 1 4 3 5 4 6 5 7 6 9 7 10 24 11 8 12 23 13 9 14
REMARK SMILES IDX 10 15 11 16 12 17 13 18 21 19 14 20 20 21 22 22 15 23 19 24
REMARK SMILES IDX 16 25 18 26 17 27 27 28 28 29 29 30 30 31 31 32 32 33 93 34
REMARK SMILES IDX 33 35 92 36 34 37 35 38 36 39 86 40 37 41 91 42 85 43 87 44
REMARK SMILES IDX 38 45 90 46 84 47 83 48 39 50 71 51 51 52 70 53 52 54 55 55
REMARK SMILES IDX 69 56 88 57 53 58 54 59 68 61 89 62 56 63 40 64 41 65 49 66
REMARK SMILES IDX 42 67 44 68 50 69 43 70 45 71 46 72 47 73 48 74 72 75 73 76
REMARK SMILES IDX 81 77 74 78 76 79 82 80 75 81 77 82 78 83 79 84 80 85 57 86
REMARK SMILES IDX 58 87 66 88 59 89 61 90 67 91 60 92 62 93 63 94 64 95 65 96
REMARK H PARENT 4 8 87 49 55 60
REMARK Flexibility Score: inf
ROOT
ATOM      1  C   UNL A   1      30.968  29.954  24.619  1.00  0.00     0.274 C 
ENDROOT
BRANCH   1   2
ATOM      2  O   UNL A   1      31.075  29.441  23.278  1.00  0.00    -0.461 OA
BRANCH   2   3
ATOM      3  C   UNL A   1      30.102  28.773  22.613  1.00  0.00     0.325 C 
ATOM      4  O   UNL A   1      29.315  29.396  21.900  1.00  0.00    -0.250 OA
BRANCH   3   5
ATOM      5  C   UNL A   1      30.001  27.254  22.740  1.00  0.00     0.238 C 
BRANCH   5   6
ATOM      6  N   UNL A   1      29.628  26.748  24.045  1.00  0.00    -0.345 N 
ATOM      7  C   UNL A   1      30.413  26.165  24.995  1.00  0.00     0.223 C 
ATOM      8  H   UNL A   1      28.677  26.838  24.278  1.00  0.00     0.164 HD
ATOM      9  O   UNL A   1      29.911  25.936  26.095  1.00  0.00    -0.275 OA
BRANCH   7  10
ATOM     10  C   UNL A   1      31.859  25.780  24.667  1.00  0.00     0.078 C 
ATOM     11  C   UNL A   1      32.778  25.828  25.889  1.00  0.00     0.014 C 
ATOM     12  C   UNL A   1      31.880  24.401  23.997  1.00  0.00     0.014 C 
ATOM     13  C   UNL A   1      34.199  25.368  25.528  1.00  0.00     0.006 C 
ATOM     14  C   UNL A   1      33.297  23.959  23.654  1.00  0.00     0.006 C 
ATOM     15  C   UNL A   1      34.242  23.978  24.866  1.00  0.00     0.009 C 
BRANCH  15  16
ATOM     16  C   UNL A   1      33.973  22.878  25.919  1.00  0.00     0.130 C 
BRANCH  16  17
ATOM     17  N   UNL A   1      34.232  21.524  25.448  1.00  0.00    -0.298 N 
ATOM     18  C   UNL A   1      35.523  21.075  25.302  1.00  0.00     0.203 A 
ATOM     19  C   UNL A   1      33.153  20.683  25.214  1.00  0.00     0.261 A 
ATOM     20  N   UNL A   1      35.859  19.888  24.918  1.00  0.00    -0.238 NA
ATOM     21  C   UNL A   1      33.478  19.326  24.753  1.00  0.00     0.066 A 
ATOM     22  O   UNL A   1      31.977  20.993  25.376  1.00  0.00    -0.269 OA
ATOM     23  C   UNL A   1      34.824  18.983  24.637  1.00  0.00     0.077 A 
ATOM     24  C   UNL A   1      32.462  18.409  24.459  1.00  0.00     0.016 A 
ATOM     25  C   UNL A   1      35.146  17.686  24.232  1.00  0.00     0.029 A 
ATOM     26  C   UNL A   1      32.798  17.120  24.052  1.00  0.00     0.001 A 
ATOM     27  C   UNL A   1      34.140  16.758  23.944  1.00  0.00     0.002 A 
ENDBRANCH  16  17
ENDBRANCH  15  16
ENDBRANCH   7  10
ENDBRANCH   5   6
ENDBRANCH   3   5
ENDBRANCH   2   3
ENDBRANCH   1   2
BRANCH   1  28
ATOM     28  C   UNL A   1      32.289  29.839  25.387  1.00  0.00     0.275 C 
BRANCH  28  29
ATOM     29  O   UNL A   1      32.149  30.323  26.735  1.00  0.00    -0.458 OA
BRANCH  29  30
ATOM     30  C   UNL A   1      32.808  31.477  27.030  1.00  0.00     0.338 C 
ATOM     31  O   UNL A   1      32.361  32.606  26.937  1.00  0.00    -0.246 OA
BRANCH  30  32
ATOM     32  C   UNL A   1      34.086  31.134  27.705  1.00  0.00     0.060 A 
ATOM     33  C   UNL A   1      35.042  32.110  27.998  1.00  0.00     0.016 A 
ATOM     34  C   UNL A   1      34.362  29.789  27.977  1.00  0.00     0.016 A 
ATOM     35  C   UNL A   1      36.278  31.738  28.537  1.00  0.00     0.010 A 
ATOM     36  C   UNL A   1      35.587  29.423  28.550  1.00  0.00     0.010 A 
ATOM     37  C   UNL A   1      36.556  30.393  28.840  1.00  0.00    -0.014 A 
BRANCH  37  38
ATOM     38  C   UNL A   1      37.782  30.046  29.609  1.00  0.00     0.031 A 
ATOM     39  C   UNL A   1      38.063  30.588  30.983  1.00  0.00     0.074 A 
ATOM     40  C   UNL A   1      38.684  29.232  29.023  1.00  0.00     0.049 A 
ATOM     41  N   UNL A   1      39.070  30.315  31.776  1.00  0.00    -0.248 NA
ATOM     42  C   UNL A   1      37.106  31.553  31.544  1.00  0.00     0.031 C 
ATOM     43  C   UNL A   1      38.569  28.694  27.666  1.00  0.00     0.029 A 
ATOM     44  N   UNL A   1      39.873  28.723  29.482  1.00  0.00    -0.354 N 
ATOM     45  C   UNL A   1      38.880  31.080  32.920  1.00  0.00     0.074 A 
ATOM     46  C   UNL A   1      37.663  31.838  32.717  1.00  0.00     0.031 C 
ATOM     47  C   UNL A   1      39.634  27.920  27.407  1.00  0.00     0.029 A 
ATOM     48  C   UNL A   1      40.519  27.925  28.569  1.00  0.00     0.049 A 
ATOM     49  H   UNL A   1      40.229  28.911  30.381  1.00  0.00     0.167 HD
ATOM     50  C   UNL A   1      39.638  31.125  34.042  1.00  0.00     0.034 A 
ATOM     51  C   UNL A   1      41.692  27.267  28.642  1.00  0.00     0.034 A 
ATOM     52  C   UNL A   1      40.833  30.350  34.260  1.00  0.00     0.049 A 
ATOM     53  C   UNL A   1      42.499  27.321  29.904  1.00  0.00     0.074 A 
ATOM     54  C   UNL A   1      41.609  30.282  35.406  1.00  0.00     0.029 A 
ATOM     55  N   UNL A   1      41.432  29.525  33.325  1.00  0.00    -0.354 N 
ATOM     56  N   UNL A   1      42.218  27.928  31.029  1.00  0.00    -0.248 NA
ATOM     57  C   UNL A   1      43.772  26.584  29.919  1.00  0.00     0.031 C 
ATOM     58  C   UNL A   1      42.681  29.420  35.162  1.00  0.00     0.029 A 
ATOM     59  C   UNL A   1      42.571  28.951  33.865  1.00  0.00     0.049 A 
ATOM     60  H   UNL A   1      41.099  29.369  32.412  1.00  0.00     0.167 HD
ATOM     61  C   UNL A   1      43.269  27.639  31.890  1.00  0.00     0.074 A 
ATOM     62  C   UNL A   1      44.185  26.784  31.165  1.00  0.00     0.031 C 
ATOM     63  C   UNL A   1      43.460  28.065  33.160  1.00  0.00     0.034 A 
BRANCH  50  64
ATOM     64  C   UNL A   1      39.174  31.977  35.192  1.00  0.00     0.023 A 
ATOM     65  C   UNL A   1      38.392  31.379  36.200  1.00  0.00     0.012 A 
ATOM     66  C   UNL A   1      39.655  33.289  35.372  1.00  0.00     0.148 A 
ATOM     67  C   UNL A   1      38.099  32.071  37.373  1.00  0.00     0.002 A 
ATOM     68  C   UNL A   1      39.378  33.964  36.554  1.00  0.00     0.091 A 
ATOM     69  F   UNL A   1      40.397  33.834  34.397  1.00  0.00    -0.205 F 
ATOM     70  C   UNL A   1      38.601  33.357  37.556  1.00  0.00     0.022 A 
BRANCH  68  71
ATOM     71  S   UNL A   1      40.026  35.600  36.923  1.00  0.00     0.127 S 
ATOM     72  O   UNL A   1      39.347  35.908  38.182  1.00  0.00    -0.237 OA
ATOM     73  O   UNL A   1      41.459  35.340  37.051  1.00  0.00    -0.237 OA
ATOM     74  O   UNL A   1      39.651  36.445  35.799  1.00  0.00    -0.744 OA
ENDBRANCH  68  71
ENDBRANCH  50  64
BRANCH  51  75
ATOM     75  C   UNL A   1      42.127  26.442  27.485  1.00  0.00     0.023 A 
ATOM     76  C   UNL A   1      42.987  27.006  26.525  1.00  0.00     0.012 A 
ATOM     77  C   UNL A   1      41.766  25.085  27.384  1.00  0.00     0.148 A 
ATOM     78  C   UNL A   1      43.480  26.231  25.476  1.00  0.00     0.002 A 
ATOM     79  C   UNL A   1      42.296  24.307  26.362  1.00  0.00     0.091 A 
ATOM     80  F   UNL A   1      40.939  24.578  28.309  1.00  0.00    -0.205 F 
ATOM     81  C   UNL A   1      43.145  24.881  25.403  1.00  0.00     0.022 A 
BRANCH  79  82
ATOM     82  S   UNL A   1      42.023  22.536  26.259  1.00  0.00     0.127 S 
ATOM     83  O   UNL A   1      42.699  22.203  25.009  1.00  0.00    -0.237 OA
ATOM     84  O   UNL A   1      42.692  22.058  27.470  1.00  0.00    -0.237 OA
ATOM     85  O   UNL A   1      40.577  22.359  26.261  1.00  0.00    -0.744 OA
ENDBRANCH  79  82
ENDBRANCH  51  75
BRANCH  63  86
ATOM     86  C   UNL A   1      44.711  27.634  33.874  1.00  0.00     0.023 A 
ATOM     87  C   UNL A   1      45.838  28.477  33.846  1.00  0.00     0.012 A 
ATOM     88  C   UNL A   1      44.730  26.472  34.670  1.00  0.00     0.148 A 
ATOM     89  C   UNL A   1      46.970  28.170  34.600  1.00  0.00     0.002 A 
ATOM     90  C   UNL A   1      45.851  26.186  35.440  1.00  0.00     0.091 A 
ATOM     91  F   UNL A   1      43.643  25.686  34.675  1.00  0.00    -0.205 F 
ATOM     92  C   UNL A   1      46.973  27.032  35.404  1.00  0.00     0.022 A 
BRANCH  90  93
ATOM     93  S   UNL A   1      45.933  24.781  36.557  1.00  0.00     0.127 S 
ATOM     94  O   UNL A   1      45.754  23.658  35.637  1.00  0.00    -0.237 OA
ATOM     95  O   UNL A   1      47.280  24.907  37.111  1.00  0.00    -0.237 OA
ATOM     96  O   UNL A   1      44.855  24.964  37.520  1.00  0.00    -0.744 OA
ENDBRANCH  90  93
ENDBRANCH  63  86
ENDBRANCH  37  38
ENDBRANCH  30  32
ENDBRANCH  29  30
ENDBRANCH  28  29
ENDBRANCH   1  28
TORSDOF 18
ENDMDL
MODEL 3
REMARK VINA RESULT:     -12.2      2.692      9.236
REMARK SMILES O=C(CNC(=O)[C@H]1CC[C@@H](Cn2cnc3ccccc3c2=O)CC1)OCCOC(=O)c1ccc(-c2c3nc(c(-c4cccc(S(=O)(=O)[O-])c4F)c4ccc([nH]4)c(-c4cccc(S(=O)(=O)[O-])c4F)c4nc(c(-c5cccc(S(=O)(=O)[O-])c5F)c5ccc2[nH]5)C=C4)C=C3)cc1
REMARK SMILES IDX 26 1 25 2 2 3 1 4 3 5 4 6 5 7 6 9 7 10 24 11 8 12 23 13 9 14
REMARK SMILES IDX 10 15 11 16 12 17 13 18 21 19 14 20 20 21 22 22 15 23 19 24
REMARK SMILES IDX 16 25 18 26 17 27 27 28 28 29 29 30 30 31 31 32 32 33 93 34
REMARK SMILES IDX 33 35 92 36 34 37 35 38 36 39 86 40 37 41 91 42 85 43 87 44
REMARK SMILES IDX 38 45 90 46 84 47 83 48 39 50 71 51 51 52 70 53 52 54 55 55
REMARK SMILES IDX 69 56 88 57 53 58 54 59 68 61 89 62 56 63 40 64 41 65 49 66
REMARK SMILES IDX 42 67 44 68 50 69 43 70 45 71 46 72 47 73 48 74 72 75 73 76
REMARK SMILES IDX 81 77 74 78 76 79 82 80 75 81 77 82 78 83 79 84 80 85 57 86
REMARK SMILES IDX 58 87 66 88 59 89 61 90 67 91 60 92 62 93 63 94 64 95 65 96
REMARK H PARENT 4 8 87 49 55 60
REMARK Flexibility Score: inf
ROOT
ATOM      1  C   UNL A   1      42.684  20.571  26.562  1.00  0.00     0.274 C 
ENDROOT
BRANCH   1   2
ATOM      2  O   UNL A   1      41.266  20.821  26.582  1.00  0.00    -0.461 OA
BRANCH   2   3
ATOM      3  C   UNL A   1      40.329  20.074  25.954  1.00  0.00     0.325 C 
ATOM      4  O   UNL A   1      40.563  18.892  25.699  1.00  0.00    -0.250 OA
BRANCH   3   5
ATOM      5  C   UNL A   1      38.984  20.697  25.583  1.00  0.00     0.238 C 
BRANCH   5   6
ATOM      6  N   UNL A   1      38.828  22.103  25.893  1.00  0.00    -0.345 N 
ATOM      7  C   UNL A   1      37.754  22.915  25.676  1.00  0.00     0.223 C 
ATOM      8  H   UNL A   1      39.603  22.531  26.320  1.00  0.00     0.164 HD
ATOM      9  O   UNL A   1      37.786  24.050  26.149  1.00  0.00    -0.275 OA
BRANCH   7  10
ATOM     10  C   UNL A   1      36.575  22.420  24.832  1.00  0.00     0.078 C 
ATOM     11  C   UNL A   1      35.603  21.545  25.626  1.00  0.00     0.014 C 
ATOM     12  C   UNL A   1      35.864  23.620  24.195  1.00  0.00     0.014 C 
ATOM     13  C   UNL A   1      34.402  21.130  24.761  1.00  0.00     0.006 C 
ATOM     14  C   UNL A   1      34.673  23.189  23.348  1.00  0.00     0.006 C 
ATOM     15  C   UNL A   1      33.668  22.323  24.123  1.00  0.00     0.009 C 
BRANCH  15  16
ATOM     16  C   UNL A   1      32.848  23.078  25.195  1.00  0.00     0.130 C 
BRANCH  16  17
ATOM     17  N   UNL A   1      32.185  24.279  24.704  1.00  0.00    -0.298 N 
ATOM     18  C   UNL A   1      31.123  24.180  23.836  1.00  0.00     0.203 A 
ATOM     19  C   UNL A   1      32.606  25.514  25.180  1.00  0.00     0.261 A 
ATOM     20  N   UNL A   1      30.453  25.178  23.365  1.00  0.00    -0.238 NA
ATOM     21  C   UNL A   1      31.890  26.686  24.657  1.00  0.00     0.066 A 
ATOM     22  O   UNL A   1      33.506  25.677  25.997  1.00  0.00    -0.269 OA
ATOM     23  C   UNL A   1      30.831  26.465  23.778  1.00  0.00     0.077 A 
ATOM     24  C   UNL A   1      32.256  27.979  25.050  1.00  0.00     0.016 A 
ATOM     25  C   UNL A   1      30.123  27.569  23.301  1.00  0.00     0.029 A 
ATOM     26  C   UNL A   1      31.543  29.072  24.564  1.00  0.00     0.001 A 
ATOM     27  C   UNL A   1      30.473  28.866  23.693  1.00  0.00     0.002 A 
ENDBRANCH  16  17
ENDBRANCH  15  16
ENDBRANCH   7  10
ENDBRANCH   5   6
ENDBRANCH   3   5
ENDBRANCH   2   3
ENDBRANCH   1   2
BRANCH   1  28
ATOM     28  C   UNL A   1      43.379  21.284  25.399  1.00  0.00     0.275 C 
BRANCH  28  29
ATOM     29  O   UNL A   1      42.720  22.524  25.082  1.00  0.00    -0.458 OA
BRANCH  29  30
ATOM     30  C   UNL A   1      43.498  23.641  25.106  1.00  0.00     0.338 C 
ATOM     31  O   UNL A   1      44.372  23.927  24.307  1.00  0.00    -0.246 OA
BRANCH  30  32
ATOM     32  C   UNL A   1      42.959  24.574  26.128  1.00  0.00     0.060 A 
ATOM     33  C   UNL A   1      41.951  24.184  27.015  1.00  0.00     0.016 A 
ATOM     34  C   UNL A   1      43.423  25.894  26.144  1.00  0.00     0.016 A 
ATOM     35  C   UNL A   1      41.393  25.118  27.894  1.00  0.00     0.010 A 
ATOM     36  C   UNL A   1      42.888  26.819  27.049  1.00  0.00     0.010 A 
ATOM     37  C   UNL A   1      41.870  26.440  27.936  1.00  0.00    -0.014 A 
BRANCH  37  38
ATOM     38  C   UNL A   1      41.419  27.356  29.020  1.00  0.00     0.031 A 
ATOM     39  C   UNL A   1      40.188  28.211  28.903  1.00  0.00     0.074 A 
ATOM     40  C   UNL A   1      42.173  27.431  30.135  1.00  0.00     0.049 A 
ATOM     41  N   UNL A   1      39.662  29.008  29.801  1.00  0.00    -0.248 NA
ATOM     42  C   UNL A   1      39.452  28.178  27.631  1.00  0.00     0.031 C 
ATOM     43  C   UNL A   1      43.429  26.709  30.347  1.00  0.00     0.029 A 
ATOM     44  N   UNL A   1      42.004  28.150  31.292  1.00  0.00    -0.354 N 
ATOM     45  C   UNL A   1      38.546  29.581  29.205  1.00  0.00     0.074 A 
ATOM     46  C   UNL A   1      38.473  29.048  27.860  1.00  0.00     0.031 C 
ATOM     47  C   UNL A   1      43.909  27.009  31.563  1.00  0.00     0.029 A 
ATOM     48  C   UNL A   1      43.010  27.962  32.209  1.00  0.00     0.049 A 
ATOM     49  H   UNL A   1      41.234  28.743  31.451  1.00  0.00     0.167 HD
ATOM     50  C   UNL A   1      37.655  30.451  29.739  1.00  0.00     0.034 A 
ATOM     51  C   UNL A   1      43.203  28.491  33.432  1.00  0.00     0.034 A 
ATOM     52  C   UNL A   1      37.708  30.961  31.085  1.00  0.00     0.049 A 
ATOM     53  C   UNL A   1      42.190  29.437  34.004  1.00  0.00     0.074 A 
ATOM     54  C   UNL A   1      36.792  31.783  31.724  1.00  0.00     0.029 A 
ATOM     55  N   UNL A   1      38.723  30.715  31.993  1.00  0.00    -0.354 N 
ATOM     56  N   UNL A   1      41.061  29.840  33.478  1.00  0.00    -0.248 NA
ATOM     57  C   UNL A   1      42.460  29.982  35.343  1.00  0.00     0.031 C 
ATOM     58  C   UNL A   1      37.257  32.040  33.015  1.00  0.00     0.029 A 
ATOM     59  C   UNL A   1      38.460  31.376  33.182  1.00  0.00     0.049 A 
ATOM     60  H   UNL A   1      39.513  30.155  31.821  1.00  0.00     0.167 HD
ATOM     61  C   UNL A   1      40.480  30.678  34.422  1.00  0.00     0.074 A 
ATOM     62  C   UNL A   1      41.370  30.707  35.564  1.00  0.00     0.031 C 
ATOM     63  C   UNL A   1      39.322  31.372  34.335  1.00  0.00     0.034 A 
BRANCH  50  64
ATOM     64  C   UNL A   1      36.468  30.865  28.912  1.00  0.00     0.023 A 
ATOM     65  C   UNL A   1      35.669  29.861  28.331  1.00  0.00     0.012 A 
ATOM     66  C   UNL A   1      36.041  32.207  28.866  1.00  0.00     0.148 A 
ATOM     67  C   UNL A   1      34.459  30.184  27.720  1.00  0.00     0.002 A 
ATOM     68  C   UNL A   1      34.822  32.519  28.275  1.00  0.00     0.091 A 
ATOM     69  F   UNL A   1      36.821  33.143  29.427  1.00  0.00    -0.205 F 
ATOM     70  C   UNL A   1      34.030  31.509  27.702  1.00  0.00     0.022 A 
BRANCH  68  71
ATOM     71  S   UNL A   1      34.142  34.182  28.251  1.00  0.00     0.127 S 
ATOM     72  O   UNL A   1      34.585  34.700  29.546  1.00  0.00    -0.237 OA
ATOM     73  O   UNL A   1      34.817  34.773  27.097  1.00  0.00    -0.237 OA
ATOM     74  O   UNL A   1      32.701  34.027  28.110  1.00  0.00    -0.744 OA
ENDBRANCH  68  71
ENDBRANCH  50  64
BRANCH  51  75
ATOM     75  C   UNL A   1      44.391  28.069  34.219  1.00  0.00     0.023 A 
ATOM     76  C   UNL A   1      45.609  28.749  34.041  1.00  0.00     0.012 A 
ATOM     77  C   UNL A   1      44.292  27.063  35.200  1.00  0.00     0.148 A 
ATOM     78  C   UNL A   1      46.717  28.431  34.827  1.00  0.00     0.002 A 
ATOM     79  C   UNL A   1      45.385  26.783  36.009  1.00  0.00     0.091 A 
ATOM     80  F   UNL A   1      43.120  26.428  35.341  1.00  0.00    -0.205 F 
ATOM     81  C   UNL A   1      46.601  27.459  35.818  1.00  0.00     0.022 A 
BRANCH  79  82
ATOM     82  S   UNL A   1      45.294  25.639  37.390  1.00  0.00     0.127 S 
ATOM     83  O   UNL A   1      45.151  24.358  36.706  1.00  0.00    -0.237 OA
ATOM     84  O   UNL A   1      46.588  25.852  38.041  1.00  0.00    -0.237 OA
ATOM     85  O   UNL A   1      44.147  26.066  38.180  1.00  0.00    -0.744 OA
ENDBRANCH  79  82
ENDBRANCH  51  75
BRANCH  63  86
ATOM     86  C   UNL A   1      38.926  32.243  35.494  1.00  0.00     0.023 A 
ATOM     87  C   UNL A   1      38.096  31.709  36.497  1.00  0.00     0.012 A 
ATOM     88  C   UNL A   1      39.476  33.530  35.657  1.00  0.00     0.148 A 
ATOM     89  C   UNL A   1      37.812  32.444  37.647  1.00  0.00     0.002 A 
ATOM     90  C   UNL A   1      39.212  34.247  36.819  1.00  0.00     0.091 A 
ATOM     91  F   UNL A   1      40.262  34.015  34.685  1.00  0.00    -0.205 F 
ATOM     92  C   UNL A   1      38.378  33.707  37.813  1.00  0.00     0.022 A 
BRANCH  90  93
ATOM     93  S   UNL A   1      39.941  35.853  37.158  1.00  0.00     0.127 S 
ATOM     94  O   UNL A   1      41.351  35.509  37.338  1.00  0.00    -0.237 OA
ATOM     95  O   UNL A   1      39.644  36.591  35.931  1.00  0.00    -0.237 OA
ATOM     96  O   UNL A   1      39.274  36.357  38.352  1.00  0.00    -0.744 OA
ENDBRANCH  90  93
ENDBRANCH  63  86
ENDBRANCH  37  38
ENDBRANCH  30  32
ENDBRANCH  29  30
ENDBRANCH  28  29
ENDBRANCH   1  28
TORSDOF 18
ENDMDL
