MODEL 1
REMARK VINA RESULT:     -12.1      0.000      0.000
REMARK SMILES O=C(OCCOC(=O)c1cccc(Oc2ncc([N+](=O)[O-])cc2Br)c1)c1ccc(-c2c3nc(c(-c4cccc(S(=O)(=O)[O-])c4F)c4ccc([nH]4)c(-c4cccc(S(=O)(=O)[O-])c4F)c4nc(c(-c5cccc(S(=O)(=O)[O-])c5F)c5ccc2[nH]5)C=C4)C=C3)cc1
REMARK SMILES IDX 4 1 3 2 2 3 1 4 26 5 27 6 88 7 28 8 87 9 29 10 30 11 31 12
REMARK SMILES IDX 81 13 32 14 86 15 80 16 82 17 33 18 85 19 79 20 78 21 34 23
REMARK SMILES IDX 66 24 46 25 65 26 47 27 50 28 64 29 83 30 48 31 49 32 63 34
REMARK SMILES IDX 84 35 51 36 35 37 36 38 44 39 37 40 39 41 45 42 38 43 40 44
REMARK SMILES IDX 41 45 42 46 43 47 67 48 68 49 76 50 69 51 71 52 77 53 70 54
REMARK SMILES IDX 72 55 73 56 74 57 75 58 52 59 53 60 61 61 54 62 56 63 62 64
REMARK SMILES IDX 55 65 57 66 58 67 59 68 60 69 5 70 6 71 7 72 8 73 9 74 10 75
REMARK SMILES IDX 25 76 11 77 13 78 12 79 14 80 15 81 16 82 23 83 17 84 22 85
REMARK SMILES IDX 24 86 18 87 19 88 20 89 21 90
REMARK H PARENT 82 22 50 33
REMARK Flexibility Score: inf
ROOT
ATOM      1  C   UNL A   1      31.267  29.777  24.796  1.00  0.00     0.275 C 
ENDROOT
BRANCH   1   2
ATOM      2  O   UNL A   1      32.529  30.154  25.374  1.00  0.00    -0.458 OA
BRANCH   2   3
ATOM      3  C   UNL A   1      32.830  30.855  26.493  1.00  0.00     0.338 C 
ATOM      4  O   UNL A   1      32.016  31.700  26.867  1.00  0.00    -0.246 OA
BRANCH   3   5
ATOM      5  C   UNL A   1      34.100  30.722  27.293  1.00  0.00     0.060 A 
ATOM      6  C   UNL A   1      34.947  31.755  27.702  1.00  0.00     0.016 A 
ATOM      7  C   UNL A   1      34.447  29.412  27.693  1.00  0.00     0.016 A 
ATOM      8  C   UNL A   1      36.083  31.503  28.479  1.00  0.00     0.010 A 
ATOM      9  C   UNL A   1      35.579  29.152  28.474  1.00  0.00     0.010 A 
ATOM     10  C   UNL A   1      36.415  30.201  28.855  1.00  0.00    -0.014 A 
BRANCH  10  11
ATOM     11  C   UNL A   1      37.703  29.970  29.545  1.00  0.00     0.031 A 
ATOM     12  C   UNL A   1      37.852  30.412  30.956  1.00  0.00     0.074 A 
ATOM     13  C   UNL A   1      38.728  29.368  28.921  1.00  0.00     0.049 A 
ATOM     14  N   UNL A   1      38.831  30.171  31.781  1.00  0.00    -0.248 NA
ATOM     15  C   UNL A   1      36.793  31.280  31.491  1.00  0.00     0.031 C 
ATOM     16  C   UNL A   1      38.739  29.093  27.499  1.00  0.00     0.029 A 
ATOM     17  N   UNL A   1      39.937  28.888  29.361  1.00  0.00    -0.354 N 
ATOM     18  C   UNL A   1      38.548  30.918  32.910  1.00  0.00     0.074 A 
ATOM     19  C   UNL A   1      37.295  31.601  32.673  1.00  0.00     0.031 C 
ATOM     20  C   UNL A   1      39.870  28.448  27.183  1.00  0.00     0.029 A 
ATOM     21  C   UNL A   1      40.631  28.192  28.390  1.00  0.00     0.049 A 
ATOM     22  H   UNL A   1      40.276  29.028  30.275  1.00  0.00     0.167 HD
ATOM     23  C   UNL A   1      39.294  31.037  34.030  1.00  0.00     0.034 A 
ATOM     24  C   UNL A   1      41.712  27.390  28.484  1.00  0.00     0.034 A 
ATOM     25  C   UNL A   1      40.559  30.385  34.216  1.00  0.00     0.049 A 
ATOM     26  C   UNL A   1      42.402  27.351  29.819  1.00  0.00     0.074 A 
ATOM     27  C   UNL A   1      41.414  30.451  35.299  1.00  0.00     0.029 A 
ATOM     28  N   UNL A   1      41.162  29.554  33.280  1.00  0.00    -0.354 N 
ATOM     29  N   UNL A   1      42.060  27.958  30.930  1.00  0.00    -0.248 NA
ATOM     30  C   UNL A   1      43.633  26.555  29.918  1.00  0.00     0.031 C 
ATOM     31  C   UNL A   1      42.542  29.674  35.011  1.00  0.00     0.029 A 
ATOM     32  C   UNL A   1      42.370  29.086  33.766  1.00  0.00     0.049 A 
ATOM     33  H   UNL A   1      40.785  29.332  32.397  1.00  0.00     0.167 HD
ATOM     34  C   UNL A   1      43.052  27.657  31.847  1.00  0.00     0.074 A 
ATOM     35  C   UNL A   1      43.956  26.730  31.193  1.00  0.00     0.031 C 
ATOM     36  C   UNL A   1      43.237  28.153  33.093  1.00  0.00     0.034 A 
BRANCH  23  37
ATOM     37  C   UNL A   1      38.747  31.938  35.099  1.00  0.00     0.023 A 
ATOM     38  C   UNL A   1      38.793  33.337  34.926  1.00  0.00     0.012 A 
ATOM     39  C   UNL A   1      38.232  31.402  36.293  1.00  0.00     0.148 A 
ATOM     40  C   UNL A   1      38.380  34.191  35.947  1.00  0.00     0.002 A 
ATOM     41  C   UNL A   1      37.773  32.258  37.285  1.00  0.00     0.091 A 
ATOM     42  F   UNL A   1      38.228  30.071  36.447  1.00  0.00    -0.205 F 
ATOM     43  C   UNL A   1      37.863  33.652  37.122  1.00  0.00     0.022 A 
BRANCH  41  44
ATOM     44  S   UNL A   1      37.030  31.668  38.807  1.00  0.00     0.127 S 
ATOM     45  O   UNL A   1      35.870  32.550  38.932  1.00  0.00    -0.237 OA
ATOM     46  O   UNL A   1      36.710  30.282  38.467  1.00  0.00    -0.237 OA
ATOM     47  O   UNL A   1      38.043  31.829  39.842  1.00  0.00    -0.744 OA
ENDBRANCH  41  44
ENDBRANCH  23  37
BRANCH  24  48
ATOM     48  C   UNL A   1      42.142  26.492  27.362  1.00  0.00     0.023 A 
ATOM     49  C   UNL A   1      42.966  27.020  26.340  1.00  0.00     0.012 A 
ATOM     50  C   UNL A   1      41.784  25.133  27.285  1.00  0.00     0.148 A 
ATOM     51  C   UNL A   1      43.382  26.237  25.260  1.00  0.00     0.002 A 
ATOM     52  C   UNL A   1      42.277  24.334  26.254  1.00  0.00     0.091 A 
ATOM     53  F   UNL A   1      40.954  24.634  28.213  1.00  0.00    -0.205 F 
ATOM     54  C   UNL A   1      43.052  24.888  25.225  1.00  0.00     0.022 A 
BRANCH  52  55
ATOM     55  S   UNL A   1      42.060  22.550  26.258  1.00  0.00     0.127 S 
ATOM     56  O   UNL A   1      42.821  22.150  25.078  1.00  0.00    -0.237 OA
ATOM     57  O   UNL A   1      42.662  22.169  27.538  1.00  0.00    -0.237 OA
ATOM     58  O   UNL A   1      40.619  22.343  26.197  1.00  0.00    -0.744 OA
ENDBRANCH  52  55
ENDBRANCH  24  48
BRANCH  36  59
ATOM     59  C   UNL A   1      44.477  27.709  33.814  1.00  0.00     0.023 A 
ATOM     60  C   UNL A   1      45.658  28.472  33.717  1.00  0.00     0.012 A 
ATOM     61  C   UNL A   1      44.452  26.561  34.625  1.00  0.00     0.148 A 
ATOM     62  C   UNL A   1      46.811  28.074  34.389  1.00  0.00     0.002 A 
ATOM     63  C   UNL A   1      45.587  26.202  35.335  1.00  0.00     0.091 A 
ATOM     64  F   UNL A   1      43.321  25.842  34.679  1.00  0.00    -0.205 F 
ATOM     65  C   UNL A   1      46.772  26.947  35.206  1.00  0.00     0.022 A 
BRANCH  63  66
ATOM     66  S   UNL A   1      45.600  24.825  36.484  1.00  0.00     0.127 S 
ATOM     67  O   UNL A   1      46.974  24.869  36.983  1.00  0.00    -0.237 OA
ATOM     68  O   UNL A   1      44.582  25.227  37.455  1.00  0.00    -0.237 OA
ATOM     69  O   UNL A   1      45.260  23.644  35.702  1.00  0.00    -0.744 OA
ENDBRANCH  63  66
ENDBRANCH  36  59
ENDBRANCH  10  11
ENDBRANCH   3   5
ENDBRANCH   2   3
ENDBRANCH   1   2
BRANCH   1  70
ATOM     70  C   UNL A   1      31.342  29.438  23.304  1.00  0.00     0.275 C 
BRANCH  70  71
ATOM     71  O   UNL A   1      31.772  28.095  23.046  1.00  0.00    -0.458 OA
BRANCH  71  72
ATOM     72  C   UNL A   1      33.121  27.917  22.999  1.00  0.00     0.338 C 
ATOM     73  O   UNL A   1      33.923  28.589  22.383  1.00  0.00    -0.246 OA
BRANCH  72  74
ATOM     74  C   UNL A   1      33.491  26.801  23.892  1.00  0.00     0.063 A 
ATOM     75  C   UNL A   1      33.405  26.967  25.277  1.00  0.00     0.016 A 
ATOM     76  C   UNL A   1      33.979  25.612  23.345  1.00  0.00     0.062 A 
ATOM     77  C   UNL A   1      33.794  25.926  26.118  1.00  0.00     0.005 A 
ATOM     78  C   UNL A   1      34.465  24.610  24.185  1.00  0.00     0.130 A 
ATOM     79  C   UNL A   1      34.348  24.763  25.574  1.00  0.00     0.047 A 
BRANCH  78  80
ATOM     80  O   UNL A   1      35.113  23.467  23.757  1.00  0.00    -0.438 OA
BRANCH  80  81
ATOM     81  C   UNL A   1      34.536  22.250  24.039  1.00  0.00     0.234 A 
ATOM     82  N   UNL A   1      33.247  22.120  23.645  1.00  0.00    -0.214 NA
ATOM     83  C   UNL A   1      35.219  21.229  24.690  1.00  0.00     0.087 A 
ATOM     84  C   UNL A   1      32.603  20.959  23.873  1.00  0.00     0.200 A 
ATOM     85  C   UNL A   1      34.568  20.005  24.860  1.00  0.00     0.108 A 
ATOM     86  Br  UNL A   1      37.005  21.405  25.288  1.00  0.00    -0.045 Br
ATOM     87  C   UNL A   1      33.237  19.878  24.445  1.00  0.00     0.288 A 
BRANCH  87  88
ATOM     88  N   UNL A   1      32.529  18.617  24.566  1.00  0.00     0.064 N 
ATOM     89  O   UNL A   1      32.141  18.063  23.529  1.00  0.00    -0.258 OA
ATOM     90  O   UNL A   1      32.381  18.155  25.707  1.00  0.00    -0.258 OA
ENDBRANCH  87  88
ENDBRANCH  80  81
ENDBRANCH  78  80
ENDBRANCH  72  74
ENDBRANCH  71  72
ENDBRANCH  70  71
ENDBRANCH   1  70
TORSDOF 17
ENDMDL
MODEL 2
REMARK VINA RESULT:     -11.9      5.448     10.428
REMARK SMILES O=C(OCCOC(=O)c1cccc(Oc2ncc([N+](=O)[O-])cc2Br)c1)c1ccc(-c2c3nc(c(-c4cccc(S(=O)(=O)[O-])c4F)c4ccc([nH]4)c(-c4cccc(S(=O)(=O)[O-])c4F)c4nc(c(-c5cccc(S(=O)(=O)[O-])c5F)c5ccc2[nH]5)C=C4)C=C3)cc1
REMARK SMILES IDX 4 1 3 2 2 3 1 4 26 5 27 6 88 7 28 8 87 9 29 10 30 11 31 12
REMARK SMILES IDX 81 13 32 14 86 15 80 16 82 17 33 18 85 19 79 20 78 21 34 23
REMARK SMILES IDX 66 24 46 25 65 26 47 27 50 28 64 29 83 30 48 31 49 32 63 34
REMARK SMILES IDX 84 35 51 36 35 37 36 38 44 39 37 40 39 41 45 42 38 43 40 44
REMARK SMILES IDX 41 45 42 46 43 47 67 48 68 49 76 50 69 51 71 52 77 53 70 54
REMARK SMILES IDX 72 55 73 56 74 57 75 58 52 59 53 60 61 61 54 62 56 63 62 64
REMARK SMILES IDX 55 65 57 66 58 67 59 68 60 69 5 70 6 71 7 72 8 73 9 74 10 75
REMARK SMILES IDX 25 76 11 77 13 78 12 79 14 80 15 81 16 82 23 83 17 84 22 85
REMARK SMILES IDX 24 86 18 87 19 88 20 89 21 90
REMARK H PARENT 82 22 50 33
REMARK Flexibility Score: inf
ROOT
ATOM      1  C   UNL A   1      36.601  20.271  24.916  1.00  0.00     0.275 C 
ENDROOT
BRANCH   1   2
ATOM      2  O   UNL A   1      37.262  21.239  25.750  1.00  0.00    -0.458 OA
BRANCH   2   3
ATOM      3  C   UNL A   1      38.574  21.484  25.973  1.00  0.00     0.338 C 
ATOM      4  O   UNL A   1      39.361  20.553  25.801  1.00  0.00    -0.246 OA
BRANCH   3   5
ATOM      5  C   UNL A   1      39.150  22.789  26.459  1.00  0.00     0.060 A 
ATOM      6  C   UNL A   1      38.680  24.073  26.170  1.00  0.00     0.016 A 
ATOM      7  C   UNL A   1      40.263  22.693  27.322  1.00  0.00     0.016 A 
ATOM      8  C   UNL A   1      39.283  25.211  26.718  1.00  0.00     0.010 A 
ATOM      9  C   UNL A   1      40.869  23.827  27.878  1.00  0.00     0.010 A 
ATOM     10  C   UNL A   1      40.389  25.096  27.560  1.00  0.00    -0.014 A 
BRANCH  10  11
ATOM     11  C   UNL A   1      41.082  26.330  27.992  1.00  0.00     0.031 A 
ATOM     12  C   UNL A   1      42.444  26.612  27.469  1.00  0.00     0.074 A 
ATOM     13  C   UNL A   1      40.499  27.193  28.840  1.00  0.00     0.049 A 
ATOM     14  N   UNL A   1      43.153  27.696  27.599  1.00  0.00    -0.248 NA
ATOM     15  C   UNL A   1      43.115  25.516  26.755  1.00  0.00     0.031 C 
ATOM     16  C   UNL A   1      39.272  26.901  29.551  1.00  0.00     0.029 A 
ATOM     17  N   UNL A   1      40.832  28.458  29.259  1.00  0.00    -0.354 N 
ATOM     18  C   UNL A   1      44.386  27.392  27.051  1.00  0.00     0.074 A 
ATOM     19  C   UNL A   1      44.319  26.031  26.565  1.00  0.00     0.031 C 
ATOM     20  C   UNL A   1      38.920  27.968  30.281  1.00  0.00     0.029 A 
ATOM     21  C   UNL A   1      39.851  29.050  30.031  1.00  0.00     0.049 A 
ATOM     22  H   UNL A   1      41.684  28.898  29.034  1.00  0.00     0.167 HD
ATOM     23  C   UNL A   1      45.481  28.182  26.990  1.00  0.00     0.034 A 
ATOM     24  C   UNL A   1      39.694  30.331  30.427  1.00  0.00     0.034 A 
ATOM     25  C   UNL A   1      45.531  29.513  27.525  1.00  0.00     0.049 A 
ATOM     26  C   UNL A   1      40.837  31.265  30.140  1.00  0.00     0.074 A 
ATOM     27  C   UNL A   1      46.592  30.397  27.543  1.00  0.00     0.029 A 
ATOM     28  N   UNL A   1      44.470  30.148  28.159  1.00  0.00    -0.354 N 
ATOM     29  N   UNL A   1      41.955  31.010  29.503  1.00  0.00    -0.248 NA
ATOM     30  C   UNL A   1      40.726  32.640  30.642  1.00  0.00     0.031 C 
ATOM     31  C   UNL A   1      46.178  31.561  28.202  1.00  0.00     0.029 A 
ATOM     32  C   UNL A   1      44.844  31.420  28.555  1.00  0.00     0.049 A 
ATOM     33  H   UNL A   1      43.581  29.751  28.305  1.00  0.00     0.167 HD
ATOM     34  C   UNL A   1      42.699  32.175  29.567  1.00  0.00     0.074 A 
ATOM     35  C   UNL A   1      41.864  33.169  30.214  1.00  0.00     0.031 C 
ATOM     36  C   UNL A   1      43.981  32.387  29.185  1.00  0.00     0.034 A 
BRANCH  23  37
ATOM     37  C   UNL A   1      46.698  27.582  26.350  1.00  0.00     0.023 A 
ATOM     38  C   UNL A   1      47.596  26.823  27.129  1.00  0.00     0.012 A 
ATOM     39  C   UNL A   1      46.977  27.807  24.989  1.00  0.00     0.148 A 
ATOM     40  C   UNL A   1      48.780  26.339  26.575  1.00  0.00     0.002 A 
ATOM     41  C   UNL A   1      48.133  27.277  24.432  1.00  0.00     0.091 A 
ATOM     42  F   UNL A   1      46.125  28.558  24.278  1.00  0.00    -0.205 F 
ATOM     43  C   UNL A   1      49.044  26.560  25.226  1.00  0.00     0.022 A 
BRANCH  41  44
ATOM     44  S   UNL A   1      48.535  27.447  22.692  1.00  0.00     0.127 S 
ATOM     45  O   UNL A   1      47.391  28.211  22.196  1.00  0.00    -0.237 OA
ATOM     46  O   UNL A   1      49.791  28.194  22.746  1.00  0.00    -0.237 OA
ATOM     47  O   UNL A   1      48.648  26.093  22.167  1.00  0.00    -0.744 OA
ENDBRANCH  41  44
ENDBRANCH  23  37
BRANCH  24  48
ATOM     48  C   UNL A   1      38.409  30.835  31.015  1.00  0.00     0.023 A 
ATOM     49  C   UNL A   1      38.228  30.772  32.417  1.00  0.00     0.012 A 
ATOM     50  C   UNL A   1      37.376  31.393  30.240  1.00  0.00     0.148 A 
ATOM     51  C   UNL A   1      37.045  31.208  33.020  1.00  0.00     0.002 A 
ATOM     52  C   UNL A   1      36.238  31.911  30.855  1.00  0.00     0.091 A 
ATOM     53  F   UNL A   1      37.509  31.404  28.905  1.00  0.00    -0.205 F 
ATOM     54  C   UNL A   1      36.056  31.794  32.241  1.00  0.00     0.022 A 
BRANCH  52  55
ATOM     55  S   UNL A   1      35.018  32.860  29.938  1.00  0.00     0.127 S 
ATOM     56  O   UNL A   1      34.100  33.275  30.994  1.00  0.00    -0.237 OA
ATOM     57  O   UNL A   1      35.830  33.937  29.368  1.00  0.00    -0.237 OA
ATOM     58  O   UNL A   1      34.485  31.934  28.947  1.00  0.00    -0.744 OA
ENDBRANCH  52  55
ENDBRANCH  24  48
BRANCH  36  59
ATOM     59  C   UNL A   1      44.553  33.744  29.479  1.00  0.00     0.023 A 
ATOM     60  C   UNL A   1      45.191  33.986  30.712  1.00  0.00     0.012 A 
ATOM     61  C   UNL A   1      44.497  34.761  28.511  1.00  0.00     0.148 A 
ATOM     62  C   UNL A   1      45.733  35.237  30.992  1.00  0.00     0.002 A 
ATOM     63  C   UNL A   1      45.087  35.987  28.774  1.00  0.00     0.091 A 
ATOM     64  F   UNL A   1      43.863  34.509  27.356  1.00  0.00    -0.205 F 
ATOM     65  C   UNL A   1      45.691  36.233  30.020  1.00  0.00     0.022 A 
BRANCH  63  66
ATOM     66  S   UNL A   1      45.168  37.294  27.548  1.00  0.00     0.127 S 
ATOM     67  O   UNL A   1      45.819  38.366  28.299  1.00  0.00    -0.237 OA
ATOM     68  O   UNL A   1      45.995  36.685  26.506  1.00  0.00    -0.237 OA
ATOM     69  O   UNL A   1      43.791  37.559  27.152  1.00  0.00    -0.744 OA
ENDBRANCH  63  66
ENDBRANCH  36  59
ENDBRANCH  10  11
ENDBRANCH   3   5
ENDBRANCH   2   3
ENDBRANCH   1   2
BRANCH   1  70
ATOM     70  C   UNL A   1      35.072  20.319  24.998  1.00  0.00     0.275 C 
BRANCH  70  71
ATOM     71  O   UNL A   1      34.495  21.397  24.250  1.00  0.00    -0.458 OA
BRANCH  71  72
ATOM     72  C   UNL A   1      33.135  21.441  24.250  1.00  0.00     0.338 C 
ATOM     73  O   UNL A   1      32.379  20.627  23.759  1.00  0.00    -0.246 OA
BRANCH  72  74
ATOM     74  C   UNL A   1      32.690  22.619  25.023  1.00  0.00     0.063 A 
ATOM     75  C   UNL A   1      31.566  22.518  25.847  1.00  0.00     0.016 A 
ATOM     76  C   UNL A   1      33.362  23.834  24.877  1.00  0.00     0.062 A 
ATOM     77  C   UNL A   1      31.124  23.642  26.543  1.00  0.00     0.005 A 
ATOM     78  C   UNL A   1      32.861  24.982  25.491  1.00  0.00     0.130 A 
ATOM     79  C   UNL A   1      31.753  24.875  26.344  1.00  0.00     0.047 A 
BRANCH  78  80
ATOM     80  O   UNL A   1      33.347  26.259  25.290  1.00  0.00    -0.438 OA
BRANCH  80  81
ATOM     81  C   UNL A   1      32.503  27.195  24.736  1.00  0.00     0.234 A 
ATOM     82  N   UNL A   1      32.151  26.960  23.450  1.00  0.00    -0.214 NA
ATOM     83  C   UNL A   1      32.052  28.307  25.437  1.00  0.00     0.087 A 
ATOM     84  C   UNL A   1      31.322  27.820  22.827  1.00  0.00     0.200 A 
ATOM     85  C   UNL A   1      31.137  29.155  24.809  1.00  0.00     0.108 A 
ATOM     86  Br  UNL A   1      32.566  28.677  27.220  1.00  0.00    -0.045 Br
ATOM     87  C   UNL A   1      30.775  28.902  23.481  1.00  0.00     0.288 A 
BRANCH  87  88
ATOM     88  N   UNL A   1      29.800  29.733  22.796  1.00  0.00     0.064 N 
ATOM     89  O   UNL A   1      29.057  30.446  23.481  1.00  0.00    -0.258 OA
ATOM     90  O   UNL A   1      29.793  29.696  21.556  1.00  0.00    -0.258 OA
ENDBRANCH  87  88
ENDBRANCH  80  81
ENDBRANCH  78  80
ENDBRANCH  72  74
ENDBRANCH  71  72
ENDBRANCH  70  71
ENDBRANCH   1  70
TORSDOF 17
ENDMDL
MODEL 3
REMARK VINA RESULT:     -11.8      1.609      2.025
REMARK SMILES O=C(OCCOC(=O)c1cccc(Oc2ncc([N+](=O)[O-])cc2Br)c1)c1ccc(-c2c3nc(c(-c4cccc(S(=O)(=O)[O-])c4F)c4ccc([nH]4)c(-c4cccc(S(=O)(=O)[O-])c4F)c4nc(c(-c5cccc(S(=O)(=O)[O-])c5F)c5ccc2[nH]5)C=C4)C=C3)cc1
REMARK SMILES IDX 4 1 3 2 2 3 1 4 26 5 27 6 88 7 28 8 87 9 29 10 30 11 31 12
REMARK SMILES IDX 81 13 32 14 86 15 80 16 82 17 33 18 85 19 79 20 78 21 34 23
REMARK SMILES IDX 66 24 46 25 65 26 47 27 50 28 64 29 83 30 48 31 49 32 63 34
REMARK SMILES IDX 84 35 51 36 35 37 36 38 44 39 37 40 39 41 45 42 38 43 40 44
REMARK SMILES IDX 41 45 42 46 43 47 67 48 68 49 76 50 69 51 71 52 77 53 70 54
REMARK SMILES IDX 72 55 73 56 74 57 75 58 52 59 53 60 61 61 54 62 56 63 62 64
REMARK SMILES IDX 55 65 57 66 58 67 59 68 60 69 5 70 6 71 7 72 8 73 9 74 10 75
REMARK SMILES IDX 25 76 11 77 13 78 12 79 14 80 15 81 16 82 23 83 17 84 22 85
REMARK SMILES IDX 24 86 18 87 19 88 20 89 21 90
REMARK H PARENT 82 22 50 33
REMARK Flexibility Score: inf
ROOT
ATOM      1  C   UNL A   1      31.826  30.021  26.456  1.00  0.00     0.275 C 
ENDROOT
BRANCH   1   2
ATOM      2  O   UNL A   1      32.592  31.235  26.373  1.00  0.00    -0.458 OA
BRANCH   2   3
ATOM      3  C   UNL A   1      33.337  31.890  27.294  1.00  0.00     0.338 C 
ATOM      4  O   UNL A   1      32.967  33.018  27.622  1.00  0.00    -0.246 OA
BRANCH   3   5
ATOM      5  C   UNL A   1      34.608  31.375  27.918  1.00  0.00     0.060 A 
ATOM      6  C   UNL A   1      34.876  30.063  28.317  1.00  0.00     0.016 A 
ATOM      7  C   UNL A   1      35.645  32.320  28.086  1.00  0.00     0.016 A 
ATOM      8  C   UNL A   1      36.118  29.702  28.851  1.00  0.00     0.010 A 
ATOM      9  C   UNL A   1      36.891  31.965  28.615  1.00  0.00     0.010 A 
ATOM     10  C   UNL A   1      37.126  30.652  29.019  1.00  0.00    -0.014 A 
BRANCH  10  11
ATOM     11  C   UNL A   1      38.363  30.255  29.725  1.00  0.00     0.031 A 
ATOM     12  C   UNL A   1      38.524  30.620  31.157  1.00  0.00     0.074 A 
ATOM     13  C   UNL A   1      39.333  29.572  29.096  1.00  0.00     0.049 A 
ATOM     14  N   UNL A   1      39.450  30.240  31.990  1.00  0.00    -0.248 NA
ATOM     15  C   UNL A   1      37.551  31.574  31.707  1.00  0.00     0.031 C 
ATOM     16  C   UNL A   1      39.350  29.355  27.664  1.00  0.00     0.029 A 
ATOM     17  N   UNL A   1      40.473  28.946  29.539  1.00  0.00    -0.354 N 
ATOM     18  C   UNL A   1      39.221  30.967  33.145  1.00  0.00     0.074 A 
ATOM     19  C   UNL A   1      38.054  31.790  32.912  1.00  0.00     0.031 C 
ATOM     20  C   UNL A   1      40.414  28.605  27.344  1.00  0.00     0.029 A 
ATOM     21  C   UNL A   1      41.112  28.220  28.553  1.00  0.00     0.049 A 
ATOM     22  H   UNL A   1      40.802  29.011  30.465  1.00  0.00     0.167 HD
ATOM     23  C   UNL A   1      39.946  30.958  34.284  1.00  0.00     0.034 A 
ATOM     24  C   UNL A   1      42.098  27.302  28.635  1.00  0.00     0.034 A 
ATOM     25  C   UNL A   1      41.129  30.166  34.467  1.00  0.00     0.049 A 
ATOM     26  C   UNL A   1      42.747  27.133  29.980  1.00  0.00     0.074 A 
ATOM     27  C   UNL A   1      41.959  30.094  35.569  1.00  0.00     0.029 A 
ATOM     28  N   UNL A   1      41.664  29.314  33.508  1.00  0.00    -0.354 N 
ATOM     29  N   UNL A   1      42.443  27.728  31.110  1.00  0.00    -0.248 NA
ATOM     30  C   UNL A   1      43.882  26.206  30.070  1.00  0.00     0.031 C 
ATOM     31  C   UNL A   1      43.004  29.213  35.270  1.00  0.00     0.029 A 
ATOM     32  C   UNL A   1      42.802  28.698  33.998  1.00  0.00     0.049 A 
ATOM     33  H   UNL A   1      41.287  29.170  32.609  1.00  0.00     0.167 HD
ATOM     34  C   UNL A   1      43.375  27.284  32.032  1.00  0.00     0.074 A 
ATOM     35  C   UNL A   1      44.190  26.292  31.358  1.00  0.00     0.031 C 
ATOM     36  C   UNL A   1      43.581  27.706  33.303  1.00  0.00     0.034 A 
BRANCH  23  37
ATOM     37  C   UNL A   1      39.473  31.868  35.380  1.00  0.00     0.023 A 
ATOM     38  C   UNL A   1      38.490  31.421  36.286  1.00  0.00     0.012 A 
ATOM     39  C   UNL A   1      39.969  33.181  35.484  1.00  0.00     0.148 A 
ATOM     40  C   UNL A   1      37.969  32.283  37.249  1.00  0.00     0.002 A 
ATOM     41  C   UNL A   1      39.483  34.018  36.479  1.00  0.00     0.091 A 
ATOM     42  F   UNL A   1      40.880  33.594  34.592  1.00  0.00    -0.205 F 
ATOM     43  C   UNL A   1      38.471  33.578  37.350  1.00  0.00     0.022 A 
BRANCH  41  44
ATOM     44  S   UNL A   1      40.107  35.680  36.738  1.00  0.00     0.127 S 
ATOM     45  O   UNL A   1      39.580  36.379  35.567  1.00  0.00    -0.237 OA
ATOM     46  O   UNL A   1      39.473  36.044  38.004  1.00  0.00    -0.237 OA
ATOM     47  O   UNL A   1      41.558  35.566  36.789  1.00  0.00    -0.744 OA
ENDBRANCH  41  44
ENDBRANCH  23  37
BRANCH  24  48
ATOM     48  C   UNL A   1      42.457  26.409  27.483  1.00  0.00     0.023 A 
ATOM     49  C   UNL A   1      43.329  26.901  26.483  1.00  0.00     0.012 A 
ATOM     50  C   UNL A   1      41.986  25.089  27.359  1.00  0.00     0.148 A 
ATOM     51  C   UNL A   1      43.684  26.123  25.377  1.00  0.00     0.002 A 
ATOM     52  C   UNL A   1      42.416  24.287  26.303  1.00  0.00     0.091 A 
ATOM     53  F   UNL A   1      41.112  24.631  28.266  1.00  0.00    -0.205 F 
ATOM     54  C   UNL A   1      43.241  24.808  25.296  1.00  0.00     0.022 A 
BRANCH  52  55
ATOM     55  S   UNL A   1      42.049  22.529  26.244  1.00  0.00     0.127 S 
ATOM     56  O   UNL A   1      42.720  22.120  25.013  1.00  0.00    -0.237 OA
ATOM     57  O   UNL A   1      42.673  22.042  27.476  1.00  0.00    -0.237 OA
ATOM     58  O   UNL A   1      40.595  22.444  26.244  1.00  0.00    -0.744 OA
ENDBRANCH  52  55
ENDBRANCH  24  48
BRANCH  36  59
ATOM     59  C   UNL A   1      44.747  27.100  34.029  1.00  0.00     0.023 A 
ATOM     60  C   UNL A   1      46.031  27.665  33.891  1.00  0.00     0.012 A 
ATOM     61  C   UNL A   1      44.556  26.003  34.885  1.00  0.00     0.148 A 
ATOM     62  C   UNL A   1      47.118  27.118  34.566  1.00  0.00     0.002 A 
ATOM     63  C   UNL A   1      45.632  25.497  35.598  1.00  0.00     0.091 A 
ATOM     64  F   UNL A   1      43.328  25.472  34.978  1.00  0.00    -0.205 F 
ATOM     65  C   UNL A   1      46.917  26.042  35.428  1.00  0.00     0.022 A 
BRANCH  63  66
ATOM     66  S   UNL A   1      45.449  24.180  36.801  1.00  0.00     0.127 S 
ATOM     67  O   UNL A   1      45.032  23.062  35.955  1.00  0.00    -0.237 OA
ATOM     68  O   UNL A   1      46.804  24.068  37.341  1.00  0.00    -0.237 OA
ATOM     69  O   UNL A   1      44.451  24.643  37.756  1.00  0.00    -0.744 OA
ENDBRANCH  63  66
ENDBRANCH  36  59
ENDBRANCH  10  11
ENDBRANCH   3   5
ENDBRANCH   2   3
ENDBRANCH   1   2
BRANCH   1  70
ATOM     70  C   UNL A   1      32.460  28.833  25.726  1.00  0.00     0.275 C 
BRANCH  70  71
ATOM     71  O   UNL A   1      31.552  28.152  24.850  1.00  0.00    -0.458 OA
BRANCH  71  72
ATOM     72  C   UNL A   1      31.311  26.849  25.162  1.00  0.00     0.338 C 
ATOM     73  O   UNL A   1      30.331  26.402  25.723  1.00  0.00    -0.246 OA
BRANCH  72  74
ATOM     74  C   UNL A   1      32.412  26.016  24.637  1.00  0.00     0.063 A 
ATOM     75  C   UNL A   1      32.780  26.126  23.294  1.00  0.00     0.016 A 
ATOM     76  C   UNL A   1      33.034  25.087  25.474  1.00  0.00     0.062 A 
ATOM     77  C   UNL A   1      33.793  25.309  22.791  1.00  0.00     0.005 A 
ATOM     78  C   UNL A   1      33.974  24.200  24.949  1.00  0.00     0.130 A 
ATOM     79  C   UNL A   1      34.367  24.332  23.609  1.00  0.00     0.047 A 
BRANCH  78  80
ATOM     80  O   UNL A   1      34.532  23.142  25.640  1.00  0.00    -0.438 OA
BRANCH  80  81
ATOM     81  C   UNL A   1      34.108  21.870  25.332  1.00  0.00     0.234 A 
ATOM     82  N   UNL A   1      32.767  21.690  25.353  1.00  0.00    -0.214 NA
ATOM     83  C   UNL A   1      34.990  20.837  25.033  1.00  0.00     0.087 A 
ATOM     84  C   UNL A   1      32.260  20.477  25.058  1.00  0.00     0.200 A 
ATOM     85  C   UNL A   1      34.456  19.602  24.659  1.00  0.00     0.108 A 
ATOM     86  Br  UNL A   1      36.870  21.055  25.042  1.00  0.00    -0.045 Br
ATOM     87  C   UNL A   1      33.067  19.427  24.678  1.00  0.00     0.288 A 
BRANCH  87  88
ATOM     88  N   UNL A   1      32.462  18.175  24.263  1.00  0.00     0.064 N 
ATOM     89  O   UNL A   1      32.498  17.879  23.061  1.00  0.00    -0.258 OA
ATOM     90  O   UNL A   1      31.967  17.461  25.148  1.00  0.00    -0.258 OA
ENDBRANCH  87  88
ENDBRANCH  80  81
ENDBRANCH  78  80
ENDBRANCH  72  74
ENDBRANCH  71  72
ENDBRANCH  70  71
ENDBRANCH   1  70
TORSDOF 17
ENDMDL
