MODEL 1
REMARK VINA RESULT:     -11.3      0.000      0.000
REMARK SMILES C[C@@H](C(=O)OCCOC(=O)c1ccc(-c2c3nc(c(-c4cccc(S(=O)(=O)[O-])c4F)c4ccc([nH]4)c(-c4cccc(S(=O)(=O)[O-])c4F)c4nc(c(-c5cccc(S(=O)(=O)[O-])c5F)c5ccc2[nH]5)C=C4)C=C3)cc1)c1ccc(C[C@H]2CCC[C@H]2O)cc1
REMARK SMILES IDX 6 1 5 2 3 3 4 4 2 5 1 6 74 7 75 8 86 9 76 10 85 11 77 12
REMARK SMILES IDX 78 13 79 14 80 15 83 16 81 17 82 18 84 19 7 21 8 22 9 23
REMARK SMILES IDX 10 24 11 25 12 26 73 27 13 28 72 29 14 30 15 31 16 32 66 33
REMARK SMILES IDX 17 34 71 35 65 36 67 37 18 38 70 39 64 40 63 41 19 43 51 44
REMARK SMILES IDX 31 45 50 46 32 47 35 48 49 49 68 50 33 51 34 52 48 54 69 55
REMARK SMILES IDX 36 56 20 57 21 58 29 59 22 60 24 61 30 62 23 63 25 64 26 65
REMARK SMILES IDX 27 66 28 67 52 68 53 69 61 70 54 71 56 72 62 73 55 74 57 75
REMARK SMILES IDX 58 76 59 77 60 78 37 79 38 80 46 81 39 82 41 83 47 84 40 85
REMARK SMILES IDX 42 86 43 87 44 88 45 89
REMARK H PARENT 84 20 67 42 35 53
REMARK Flexibility Score: inf
ROOT
ATOM      1  C   UNL A   1      31.594  28.469  27.183  1.00  0.00     0.274 C 
ENDROOT
BRANCH   1   2
ATOM      2  O   UNL A   1      32.536  27.426  26.848  1.00  0.00    -0.462 OA
BRANCH   2   3
ATOM      3  C   UNL A   1      31.995  26.350  26.205  1.00  0.00     0.313 C 
ATOM      4  O   UNL A   1      31.436  25.450  26.823  1.00  0.00    -0.252 OA
BRANCH   3   5
ATOM      5  C   UNL A   1      32.279  26.341  24.674  1.00  0.00     0.126 C 
ATOM      6  C   UNL A   1      33.698  26.852  24.382  1.00  0.00     0.025 C 
BRANCH   5   7
ATOM      7  C   UNL A   1      31.188  27.058  23.856  1.00  0.00    -0.034 A 
ATOM      8  C   UNL A   1      29.846  26.718  24.060  1.00  0.00     0.005 A 
ATOM      9  C   UNL A   1      31.437  28.088  22.932  1.00  0.00     0.005 A 
ATOM     10  C   UNL A   1      28.810  27.499  23.553  1.00  0.00     0.004 A 
ATOM     11  C   UNL A   1      30.382  28.810  22.338  1.00  0.00     0.004 A 
ATOM     12  C   UNL A   1      29.047  28.548  22.673  1.00  0.00    -0.048 A 
BRANCH  12  13
ATOM     13  C   UNL A   1      27.922  29.456  22.218  1.00  0.00     0.041 C 
BRANCH  13  14
ATOM     14  C   UNL A   1      27.842  30.904  22.733  1.00  0.00     0.022 C 
ATOM     15  C   UNL A   1      28.704  31.218  23.966  1.00  0.00     0.007 C 
ATOM     16  C   UNL A   1      28.047  32.076  21.749  1.00  0.00     0.117 C 
ATOM     17  C   UNL A   1      29.391  32.546  23.670  1.00  0.00     0.003 C 
ATOM     18  C   UNL A   1      28.494  33.229  22.644  1.00  0.00     0.032 C 
BRANCH  16  19
ATOM     19  O   UNL A   1      29.027  31.868  20.753  1.00  0.00    -0.393 OA
ATOM     20  H   UNL A   1      28.628  31.988  19.876  1.00  0.00     0.210 HD
ENDBRANCH  16  19
ENDBRANCH  13  14
ENDBRANCH  12  13
ENDBRANCH   5   7
ENDBRANCH   3   5
ENDBRANCH   2   3
ENDBRANCH   1   2
BRANCH   1  21
ATOM     21  C   UNL A   1      31.661  29.660  26.222  1.00  0.00     0.275 C 
BRANCH  21  22
ATOM     22  O   UNL A   1      32.995  30.186  26.077  1.00  0.00    -0.458 OA
BRANCH  22  23
ATOM     23  C   UNL A   1      33.287  31.232  26.888  1.00  0.00     0.338 C 
ATOM     24  O   UNL A   1      32.564  32.184  27.134  1.00  0.00    -0.246 OA
BRANCH  23  25
ATOM     25  C   UNL A   1      34.565  31.003  27.591  1.00  0.00     0.060 A 
ATOM     26  C   UNL A   1      34.826  29.695  27.994  1.00  0.00     0.016 A 
ATOM     27  C   UNL A   1      35.454  32.028  27.929  1.00  0.00     0.016 A 
ATOM     28  C   UNL A   1      35.983  29.396  28.706  1.00  0.00     0.010 A 
ATOM     29  C   UNL A   1      36.616  31.724  28.664  1.00  0.00     0.010 A 
ATOM     30  C   UNL A   1      36.889  30.402  29.051  1.00  0.00    -0.014 A 
BRANCH  30  31
ATOM     31  C   UNL A   1      38.067  30.028  29.872  1.00  0.00     0.031 A 
ATOM     32  C   UNL A   1      39.146  29.170  29.276  1.00  0.00     0.074 A 
ATOM     33  C   UNL A   1      38.238  30.550  31.102  1.00  0.00     0.049 A 
ATOM     34  N   UNL A   1      40.283  28.790  29.799  1.00  0.00    -0.248 NA
ATOM     35  C   UNL A   1      38.926  28.698  27.900  1.00  0.00     0.031 C 
ATOM     36  C   UNL A   1      37.324  31.485  31.752  1.00  0.00     0.029 A 
ATOM     37  N   UNL A   1      39.261  30.391  32.007  1.00  0.00    -0.354 N 
ATOM     38  C   UNL A   1      40.900  28.006  28.834  1.00  0.00     0.074 A 
ATOM     39  C   UNL A   1      40.025  27.989  27.681  1.00  0.00     0.031 C 
ATOM     40  C   UNL A   1      37.830  31.825  32.950  1.00  0.00     0.029 A 
ATOM     41  C   UNL A   1      39.085  31.109  33.168  1.00  0.00     0.049 A 
ATOM     42  H   UNL A   1      40.043  29.818  31.841  1.00  0.00     0.167 HD
ATOM     43  C   UNL A   1      42.083  27.350  28.903  1.00  0.00     0.034 A 
ATOM     44  C   UNL A   1      39.848  31.179  34.278  1.00  0.00     0.034 A 
ATOM     45  C   UNL A   1      42.962  27.362  30.041  1.00  0.00     0.049 A 
ATOM     46  C   UNL A   1      41.129  30.384  34.348  1.00  0.00     0.074 A 
ATOM     47  C   UNL A   1      44.163  26.694  30.203  1.00  0.00     0.029 A 
ATOM     48  N   UNL A   1      42.732  28.062  31.214  1.00  0.00    -0.354 N 
ATOM     49  N   UNL A   1      41.729  29.694  33.409  1.00  0.00    -0.248 NA
ATOM     50  C   UNL A   1      41.845  30.389  35.635  1.00  0.00     0.031 C 
ATOM     51  C   UNL A   1      44.651  26.974  31.484  1.00  0.00     0.029 A 
ATOM     52  C   UNL A   1      43.761  27.830  32.112  1.00  0.00     0.049 A 
ATOM     53  H   UNL A   1      41.953  28.638  31.385  1.00  0.00     0.167 HD
ATOM     54  C   UNL A   1      42.895  29.198  33.984  1.00  0.00     0.074 A 
ATOM     55  C   UNL A   1      42.939  29.699  35.340  1.00  0.00     0.031 C 
ATOM     56  C   UNL A   1      43.830  28.377  33.443  1.00  0.00     0.034 A 
BRANCH  43  57
ATOM     57  C   UNL A   1      42.484  26.533  27.708  1.00  0.00     0.023 A 
ATOM     58  C   UNL A   1      43.281  27.109  26.701  1.00  0.00     0.012 A 
ATOM     59  C   UNL A   1      42.103  25.182  27.609  1.00  0.00     0.148 A 
ATOM     60  C   UNL A   1      43.675  26.353  25.597  1.00  0.00     0.002 A 
ATOM     61  C   UNL A   1      42.526  24.427  26.523  1.00  0.00     0.091 A 
ATOM     62  F   UNL A   1      41.319  24.666  28.567  1.00  0.00    -0.205 F 
ATOM     63  C   UNL A   1      43.306  25.013  25.513  1.00  0.00     0.022 A 
BRANCH  61  64
ATOM     64  S   UNL A   1      42.146  22.679  26.364  1.00  0.00     0.127 S 
ATOM     65  O   UNL A   1      40.686  22.696  26.333  1.00  0.00    -0.237 OA
ATOM     66  O   UNL A   1      42.780  22.338  25.089  1.00  0.00    -0.237 OA
ATOM     67  O   UNL A   1      42.744  22.035  27.525  1.00  0.00    -0.744 OA
ENDBRANCH  61  64
ENDBRANCH  43  57
BRANCH  44  68
ATOM     68  C   UNL A   1      39.448  32.053  35.419  1.00  0.00     0.023 A 
ATOM     69  C   UNL A   1      38.570  31.549  36.400  1.00  0.00     0.012 A 
ATOM     70  C   UNL A   1      39.910  33.378  35.532  1.00  0.00     0.148 A 
ATOM     71  C   UNL A   1      38.139  32.356  37.453  1.00  0.00     0.002 A 
ATOM     72  C   UNL A   1      39.520  34.160  36.614  1.00  0.00     0.091 A 
ATOM     73  F   UNL A   1      40.710  33.860  34.570  1.00  0.00    -0.205 F 
ATOM     74  C   UNL A   1      38.622  33.657  37.568  1.00  0.00     0.022 A 
BRANCH  72  75
ATOM     75  S   UNL A   1      40.187  35.806  36.890  1.00  0.00     0.127 S 
ATOM     76  O   UNL A   1      39.698  36.528  35.718  1.00  0.00    -0.237 OA
ATOM     77  O   UNL A   1      39.557  36.188  38.155  1.00  0.00    -0.237 OA
ATOM     78  O   UNL A   1      41.630  35.627  36.973  1.00  0.00    -0.744 OA
ENDBRANCH  72  75
ENDBRANCH  44  68
BRANCH  56  79
ATOM     79  C   UNL A   1      44.992  27.960  34.310  1.00  0.00     0.023 A 
ATOM     80  C   UNL A   1      46.129  28.789  34.388  1.00  0.00     0.012 A 
ATOM     81  C   UNL A   1      44.923  26.807  35.116  1.00  0.00     0.148 A 
ATOM     82  C   UNL A   1      47.190  28.464  35.234  1.00  0.00     0.002 A 
ATOM     83  C   UNL A   1      45.966  26.512  35.991  1.00  0.00     0.091 A 
ATOM     84  F   UNL A   1      43.843  26.019  35.016  1.00  0.00    -0.205 F 
ATOM     85  C   UNL A   1      47.102  27.335  36.044  1.00  0.00     0.022 A 
BRANCH  83  86
ATOM     86  S   UNL A   1      45.896  25.131  37.139  1.00  0.00     0.127 S 
ATOM     87  O   UNL A   1      44.541  25.253  37.671  1.00  0.00    -0.237 OA
ATOM     88  O   UNL A   1      46.104  23.980  36.259  1.00  0.00    -0.237 OA
ATOM     89  O   UNL A   1      46.970  25.356  38.097  1.00  0.00    -0.744 OA
ENDBRANCH  83  86
ENDBRANCH  56  79
ENDBRANCH  30  31
ENDBRANCH  23  25
ENDBRANCH  22  23
ENDBRANCH  21  22
ENDBRANCH   1  21
TORSDOF 18
ENDMDL
MODEL 2
REMARK VINA RESULT:     -11.3      0.362      7.869
REMARK SMILES C[C@@H](C(=O)OCCOC(=O)c1ccc(-c2c3nc(c(-c4cccc(S(=O)(=O)[O-])c4F)c4ccc([nH]4)c(-c4cccc(S(=O)(=O)[O-])c4F)c4nc(c(-c5cccc(S(=O)(=O)[O-])c5F)c5ccc2[nH]5)C=C4)C=C3)cc1)c1ccc(C[C@H]2CCC[C@H]2O)cc1
REMARK SMILES IDX 6 1 5 2 3 3 4 4 2 5 1 6 74 7 75 8 86 9 76 10 85 11 77 12
REMARK SMILES IDX 78 13 79 14 80 15 83 16 81 17 82 18 84 19 7 21 8 22 9 23
REMARK SMILES IDX 10 24 11 25 12 26 73 27 13 28 72 29 14 30 15 31 16 32 66 33
REMARK SMILES IDX 17 34 71 35 65 36 67 37 18 38 70 39 64 40 63 41 19 43 51 44
REMARK SMILES IDX 31 45 50 46 32 47 35 48 49 49 68 50 33 51 34 52 48 54 69 55
REMARK SMILES IDX 36 56 20 57 21 58 29 59 22 60 24 61 30 62 23 63 25 64 26 65
REMARK SMILES IDX 27 66 28 67 52 68 53 69 61 70 54 71 56 72 62 73 55 74 57 75
REMARK SMILES IDX 58 76 59 77 60 78 37 79 38 80 46 81 39 82 41 83 47 84 40 85
REMARK SMILES IDX 42 86 43 87 44 88 45 89
REMARK H PARENT 84 20 67 42 35 53
REMARK Flexibility Score: inf
ROOT
ATOM      1  C   UNL A   1      31.828  28.465  27.187  1.00  0.00     0.274 C 
ENDROOT
BRANCH   1   2
ATOM      2  O   UNL A   1      32.644  27.580  26.389  1.00  0.00    -0.462 OA
BRANCH   2   3
ATOM      3  C   UNL A   1      32.039  26.408  26.034  1.00  0.00     0.313 C 
ATOM      4  O   UNL A   1      31.639  25.614  26.878  1.00  0.00    -0.252 OA
BRANCH   3   5
ATOM      5  C   UNL A   1      32.042  26.155  24.498  1.00  0.00     0.126 C 
ATOM      6  C   UNL A   1      33.449  26.360  23.916  1.00  0.00     0.025 C 
BRANCH   5   7
ATOM      7  C   UNL A   1      30.949  26.949  23.757  1.00  0.00    -0.034 A 
ATOM      8  C   UNL A   1      29.607  26.598  23.939  1.00  0.00     0.005 A 
ATOM      9  C   UNL A   1      31.198  28.057  22.927  1.00  0.00     0.005 A 
ATOM     10  C   UNL A   1      28.572  27.426  23.512  1.00  0.00     0.004 A 
ATOM     11  C   UNL A   1      30.142  28.835  22.409  1.00  0.00     0.004 A 
ATOM     12  C   UNL A   1      28.809  28.550  22.729  1.00  0.00    -0.048 A 
BRANCH  12  13
ATOM     13  C   UNL A   1      27.685  29.501  22.367  1.00  0.00     0.041 C 
BRANCH  13  14
ATOM     14  C   UNL A   1      27.732  30.966  22.834  1.00  0.00     0.022 C 
ATOM     15  C   UNL A   1      28.602  31.239  24.072  1.00  0.00     0.007 C 
ATOM     16  C   UNL A   1      28.059  32.081  21.818  1.00  0.00     0.117 C 
ATOM     17  C   UNL A   1      29.413  32.488  23.747  1.00  0.00     0.003 C 
ATOM     18  C   UNL A   1      28.599  33.216  22.684  1.00  0.00     0.032 C 
BRANCH  16  19
ATOM     19  O   UNL A   1      29.030  31.751  20.846  1.00  0.00    -0.393 OA
ATOM     20  H   UNL A   1      29.387  32.565  20.455  1.00  0.00     0.210 HD
ENDBRANCH  16  19
ENDBRANCH  13  14
ENDBRANCH  12  13
ENDBRANCH   5   7
ENDBRANCH   3   5
ENDBRANCH   2   3
ENDBRANCH   1   2
BRANCH   1  21
ATOM     21  C   UNL A   1      31.718  29.872  26.590  1.00  0.00     0.275 C 
BRANCH  21  22
ATOM     22  O   UNL A   1      33.001  30.446  26.274  1.00  0.00    -0.458 OA
BRANCH  22  23
ATOM     23  C   UNL A   1      33.377  31.476  27.071  1.00  0.00     0.338 C 
ATOM     24  O   UNL A   1      32.702  32.447  27.367  1.00  0.00    -0.246 OA
BRANCH  23  25
ATOM     25  C   UNL A   1      34.690  31.203  27.689  1.00  0.00     0.060 A 
ATOM     26  C   UNL A   1      34.942  29.882  28.051  1.00  0.00     0.016 A 
ATOM     27  C   UNL A   1      35.624  32.199  27.989  1.00  0.00     0.016 A 
ATOM     28  C   UNL A   1      36.133  29.541  28.684  1.00  0.00     0.010 A 
ATOM     29  C   UNL A   1      36.821  31.854  28.644  1.00  0.00     0.010 A 
ATOM     30  C   UNL A   1      37.083  30.518  28.990  1.00  0.00    -0.014 A 
BRANCH  30  31
ATOM     31  C   UNL A   1      38.300  30.100  29.730  1.00  0.00     0.031 A 
ATOM     32  C   UNL A   1      38.496  30.545  31.150  1.00  0.00     0.074 A 
ATOM     33  C   UNL A   1      39.167  29.225  29.183  1.00  0.00     0.049 A 
ATOM     34  N   UNL A   1      39.450  30.234  31.990  1.00  0.00    -0.248 NA
ATOM     35  C   UNL A   1      37.468  31.439  31.707  1.00  0.00     0.031 C 
ATOM     36  C   UNL A   1      39.034  28.628  27.857  1.00  0.00     0.029 A 
ATOM     37  N   UNL A   1      40.314  28.664  29.693  1.00  0.00    -0.354 N 
ATOM     38  C   UNL A   1      39.161  30.920  33.161  1.00  0.00     0.074 A 
ATOM     39  C   UNL A   1      37.925  31.640  32.935  1.00  0.00     0.031 C 
ATOM     40  C   UNL A   1      40.055  27.776  27.660  1.00  0.00     0.029 A 
ATOM     41  C   UNL A   1      40.932  27.790  28.829  1.00  0.00     0.049 A 
ATOM     42  H   UNL A   1      40.660  28.869  30.592  1.00  0.00     0.167 HD
ATOM     43  C   UNL A   1      39.863  30.957  34.318  1.00  0.00     0.034 A 
ATOM     44  C   UNL A   1      42.073  27.085  28.963  1.00  0.00     0.034 A 
ATOM     45  C   UNL A   1      41.089  30.244  34.556  1.00  0.00     0.049 A 
ATOM     46  C   UNL A   1      42.868  27.199  30.242  1.00  0.00     0.074 A 
ATOM     47  C   UNL A   1      41.881  30.256  35.690  1.00  0.00     0.029 A 
ATOM     48  N   UNL A   1      41.709  29.405  33.644  1.00  0.00    -0.354 N 
ATOM     49  N   UNL A   1      42.554  27.804  31.362  1.00  0.00    -0.248 NA
ATOM     50  C   UNL A   1      44.173  26.519  30.277  1.00  0.00     0.031 C 
ATOM     51  C   UNL A   1      42.993  29.440  35.457  1.00  0.00     0.029 A 
ATOM     52  C   UNL A   1      42.883  28.906  34.184  1.00  0.00     0.049 A 
ATOM     53  H   UNL A   1      41.366  29.195  32.746  1.00  0.00     0.167 HD
ATOM     54  C   UNL A   1      43.611  27.565  32.235  1.00  0.00     0.074 A 
ATOM     55  C   UNL A   1      44.556  26.728  31.529  1.00  0.00     0.031 C 
ATOM     56  C   UNL A   1      43.794  28.025  33.498  1.00  0.00     0.034 A 
BRANCH  43  57
ATOM     57  C   UNL A   1      39.328  31.829  35.418  1.00  0.00     0.023 A 
ATOM     58  C   UNL A   1      38.356  31.325  36.302  1.00  0.00     0.012 A 
ATOM     59  C   UNL A   1      39.823  33.135  35.595  1.00  0.00     0.148 A 
ATOM     60  C   UNL A   1      37.867  32.120  37.339  1.00  0.00     0.002 A 
ATOM     61  C   UNL A   1      39.355  33.909  36.649  1.00  0.00     0.091 A 
ATOM     62  F   UNL A   1      40.726  33.601  34.721  1.00  0.00    -0.205 F 
ATOM     63  C   UNL A   1      38.372  33.406  37.517  1.00  0.00     0.022 A 
BRANCH  61  64
ATOM     64  S   UNL A   1      39.991  35.554  36.987  1.00  0.00     0.127 S 
ATOM     65  O   UNL A   1      39.280  35.898  38.216  1.00  0.00    -0.237 OA
ATOM     66  O   UNL A   1      41.423  35.303  37.161  1.00  0.00    -0.237 OA
ATOM     67  O   UNL A   1      39.657  36.357  35.819  1.00  0.00    -0.744 OA
ENDBRANCH  61  64
ENDBRANCH  43  57
BRANCH  44  68
ATOM     68  C   UNL A   1      42.539  26.179  27.874  1.00  0.00     0.023 A 
ATOM     69  C   UNL A   1      43.477  26.653  26.935  1.00  0.00     0.012 A 
ATOM     70  C   UNL A   1      42.048  24.865  27.745  1.00  0.00     0.148 A 
ATOM     71  C   UNL A   1      43.897  25.848  25.877  1.00  0.00     0.002 A 
ATOM     72  C   UNL A   1      42.511  24.049  26.719  1.00  0.00     0.091 A 
ATOM     73  F   UNL A   1      41.123  24.441  28.617  1.00  0.00    -0.205 F 
ATOM     74  C   UNL A   1      43.424  24.542  25.774  1.00  0.00     0.022 A 
BRANCH  72  75
ATOM     75  S   UNL A   1      42.033  22.321  26.587  1.00  0.00     0.127 S 
ATOM     76  O   UNL A   1      42.538  21.774  27.845  1.00  0.00    -0.237 OA
ATOM     77  O   UNL A   1      40.574  22.408  26.497  1.00  0.00    -0.237 OA
ATOM     78  O   UNL A   1      42.677  21.835  25.375  1.00  0.00    -0.744 OA
ENDBRANCH  72  75
ENDBRANCH  44  68
BRANCH  56  79
ATOM     79  C   UNL A   1      45.062  27.637  34.216  1.00  0.00     0.023 A 
ATOM     80  C   UNL A   1      46.179  28.495  34.161  1.00  0.00     0.012 A 
ATOM     81  C   UNL A   1      45.122  26.480  35.018  1.00  0.00     0.148 A 
ATOM     82  C   UNL A   1      47.342  28.197  34.871  1.00  0.00     0.002 A 
ATOM     83  C   UNL A   1      46.270  26.211  35.759  1.00  0.00     0.091 A 
ATOM     84  F   UNL A   1      44.059  25.663  35.045  1.00  0.00    -0.205 F 
ATOM     85  C   UNL A   1      47.382  27.063  35.680  1.00  0.00     0.022 A 
BRANCH  83  86
ATOM     86  S   UNL A   1      46.375  24.826  36.899  1.00  0.00     0.127 S 
ATOM     87  O   UNL A   1      47.716  24.996  37.453  1.00  0.00    -0.237 OA
ATOM     88  O   UNL A   1      45.287  25.106  37.836  1.00  0.00    -0.237 OA
ATOM     89  O   UNL A   1      46.177  23.629  36.090  1.00  0.00    -0.744 OA
ENDBRANCH  83  86
ENDBRANCH  56  79
ENDBRANCH  30  31
ENDBRANCH  23  25
ENDBRANCH  22  23
ENDBRANCH  21  22
ENDBRANCH   1  21
TORSDOF 18
ENDMDL
MODEL 3
REMARK VINA RESULT:     -11.3      2.974      4.960
REMARK SMILES C[C@@H](C(=O)OCCOC(=O)c1ccc(-c2c3nc(c(-c4cccc(S(=O)(=O)[O-])c4F)c4ccc([nH]4)c(-c4cccc(S(=O)(=O)[O-])c4F)c4nc(c(-c5cccc(S(=O)(=O)[O-])c5F)c5ccc2[nH]5)C=C4)C=C3)cc1)c1ccc(C[C@H]2CCC[C@H]2O)cc1
REMARK SMILES IDX 6 1 5 2 3 3 4 4 2 5 1 6 74 7 75 8 86 9 76 10 85 11 77 12
REMARK SMILES IDX 78 13 79 14 80 15 83 16 81 17 82 18 84 19 7 21 8 22 9 23
REMARK SMILES IDX 10 24 11 25 12 26 73 27 13 28 72 29 14 30 15 31 16 32 66 33
REMARK SMILES IDX 17 34 71 35 65 36 67 37 18 38 70 39 64 40 63 41 19 43 51 44
REMARK SMILES IDX 31 45 50 46 32 47 35 48 49 49 68 50 33 51 34 52 48 54 69 55
REMARK SMILES IDX 36 56 20 57 21 58 29 59 22 60 24 61 30 62 23 63 25 64 26 65
REMARK SMILES IDX 27 66 28 67 52 68 53 69 61 70 54 71 56 72 62 73 55 74 57 75
REMARK SMILES IDX 58 76 59 77 60 78 37 79 38 80 46 81 39 82 41 83 47 84 40 85
REMARK SMILES IDX 42 86 43 87 44 88 45 89
REMARK H PARENT 84 20 67 42 35 53
REMARK Flexibility Score: inf
ROOT
ATOM      1  C   UNL A   1      31.093  28.542  24.775  1.00  0.00     0.274 C 
ENDROOT
BRANCH   1   2
ATOM      2  O   UNL A   1      31.924  27.441  24.347  1.00  0.00    -0.462 OA
BRANCH   2   3
ATOM      3  C   UNL A   1      31.700  26.265  25.004  1.00  0.00     0.313 C 
ATOM      4  O   UNL A   1      30.581  25.767  25.060  1.00  0.00    -0.252 OA
BRANCH   3   5
ATOM      5  C   UNL A   1      32.956  25.728  25.751  1.00  0.00     0.126 C 
ATOM      6  C   UNL A   1      34.176  26.618  25.471  1.00  0.00     0.025 C 
BRANCH   5   7
ATOM      7  C   UNL A   1      33.216  24.232  25.492  1.00  0.00    -0.034 A 
ATOM      8  C   UNL A   1      33.995  23.853  24.393  1.00  0.00     0.005 A 
ATOM      9  C   UNL A   1      32.760  23.192  26.322  1.00  0.00     0.005 A 
ATOM     10  C   UNL A   1      34.478  22.554  24.254  1.00  0.00     0.004 A 
ATOM     11  C   UNL A   1      33.169  21.859  26.116  1.00  0.00     0.004 A 
ATOM     12  C   UNL A   1      34.070  21.527  25.096  1.00  0.00    -0.048 A 
BRANCH  12  13
ATOM     13  C   UNL A   1      34.689  20.147  25.002  1.00  0.00     0.041 C 
BRANCH  13  14
ATOM     14  C   UNL A   1      33.842  18.951  24.532  1.00  0.00     0.022 C 
ATOM     15  C   UNL A   1      34.633  17.700  24.119  1.00  0.00     0.007 C 
ATOM     16  C   UNL A   1      32.670  18.456  25.407  1.00  0.00     0.117 C 
ATOM     17  C   UNL A   1      33.916  16.519  24.764  1.00  0.00     0.003 C 
ATOM     18  C   UNL A   1      32.487  17.002  24.981  1.00  0.00     0.032 C 
BRANCH  16  19
ATOM     19  O   UNL A   1      32.894  18.495  26.801  1.00  0.00    -0.393 OA
ATOM     20  H   UNL A   1      32.886  17.592  27.156  1.00  0.00     0.210 HD
ENDBRANCH  16  19
ENDBRANCH  13  14
ENDBRANCH  12  13
ENDBRANCH   5   7
ENDBRANCH   3   5
ENDBRANCH   2   3
ENDBRANCH   1   2
BRANCH   1  21
ATOM     21  C   UNL A   1      31.627  29.234  26.034  1.00  0.00     0.275 C 
BRANCH  21  22
ATOM     22  O   UNL A   1      32.753  30.091  25.765  1.00  0.00    -0.458 OA
BRANCH  22  23
ATOM     23  C   UNL A   1      32.936  31.091  26.662  1.00  0.00     0.338 C 
ATOM     24  O   UNL A   1      32.140  31.973  26.938  1.00  0.00    -0.246 OA
BRANCH  23  25
ATOM     25  C   UNL A   1      34.194  30.895  27.409  1.00  0.00     0.060 A 
ATOM     26  C   UNL A   1      34.573  29.577  27.651  1.00  0.00     0.016 A 
ATOM     27  C   UNL A   1      34.951  31.946  27.935  1.00  0.00     0.016 A 
ATOM     28  C   UNL A   1      35.718  29.298  28.391  1.00  0.00     0.010 A 
ATOM     29  C   UNL A   1      36.101  31.661  28.696  1.00  0.00     0.010 A 
ATOM     30  C   UNL A   1      36.493  30.332  28.922  1.00  0.00    -0.014 A 
BRANCH  30  31
ATOM     31  C   UNL A   1      37.662  29.966  29.761  1.00  0.00     0.031 A 
ATOM     32  C   UNL A   1      38.765  29.133  29.176  1.00  0.00     0.074 A 
ATOM     33  C   UNL A   1      37.802  30.477  31.000  1.00  0.00     0.049 A 
ATOM     34  N   UNL A   1      39.898  28.764  29.716  1.00  0.00    -0.248 NA
ATOM     35  C   UNL A   1      38.578  28.674  27.790  1.00  0.00     0.031 C 
ATOM     36  C   UNL A   1      36.861  31.390  31.644  1.00  0.00     0.029 A 
ATOM     37  N   UNL A   1      38.810  30.324  31.922  1.00  0.00    -0.354 N 
ATOM     38  C   UNL A   1      40.545  28.001  28.753  1.00  0.00     0.074 A 
ATOM     39  C   UNL A   1      39.691  27.984  27.584  1.00  0.00     0.031 C 
ATOM     40  C   UNL A   1      37.340  31.724  32.855  1.00  0.00     0.029 A 
ATOM     41  C   UNL A   1      38.602  31.025  33.088  1.00  0.00     0.049 A 
ATOM     42  H   UNL A   1      39.604  29.765  31.764  1.00  0.00     0.167 HD
ATOM     43  C   UNL A   1      41.736  27.363  28.837  1.00  0.00     0.034 A 
ATOM     44  C   UNL A   1      39.343  31.094  34.212  1.00  0.00     0.034 A 
ATOM     45  C   UNL A   1      42.594  27.375  29.990  1.00  0.00     0.049 A 
ATOM     46  C   UNL A   1      40.635  30.319  34.297  1.00  0.00     0.074 A 
ATOM     47  C   UNL A   1      43.803  26.725  30.167  1.00  0.00     0.029 A 
ATOM     48  N   UNL A   1      42.332  28.058  31.167  1.00  0.00    -0.354 N 
ATOM     49  N   UNL A   1      41.262  29.649  33.361  1.00  0.00    -0.248 NA
ATOM     50  C   UNL A   1      41.327  30.320  35.597  1.00  0.00     0.031 C 
ATOM     51  C   UNL A   1      44.262  26.998  31.460  1.00  0.00     0.029 A 
ATOM     52  C   UNL A   1      43.348  27.832  32.082  1.00  0.00     0.049 A 
ATOM     53  H   UNL A   1      41.540  28.620  31.330  1.00  0.00     0.167 HD
ATOM     54  C   UNL A   1      42.426  29.165  33.952  1.00  0.00     0.074 A 
ATOM     55  C   UNL A   1      42.437  29.650  35.315  1.00  0.00     0.031 C 
ATOM     56  C   UNL A   1      43.384  28.365  33.420  1.00  0.00     0.034 A 
BRANCH  43  57
ATOM     57  C   UNL A   1      42.173  26.567  27.640  1.00  0.00     0.023 A 
ATOM     58  C   UNL A   1      42.881  27.196  26.600  1.00  0.00     0.012 A 
ATOM     59  C   UNL A   1      41.913  25.185  27.572  1.00  0.00     0.148 A 
ATOM     60  C   UNL A   1      43.308  26.460  25.494  1.00  0.00     0.002 A 
ATOM     61  C   UNL A   1      42.369  24.453  26.483  1.00  0.00     0.091 A 
ATOM     62  F   UNL A   1      41.210  24.616  28.562  1.00  0.00    -0.205 F 
ATOM     63  C   UNL A   1      43.060  25.091  25.440  1.00  0.00     0.022 A 
BRANCH  61  64
ATOM     64  S   UNL A   1      42.145  22.676  26.360  1.00  0.00     0.127 S 
ATOM     65  O   UNL A   1      42.699  22.400  25.036  1.00  0.00    -0.237 OA
ATOM     66  O   UNL A   1      42.954  22.183  27.475  1.00  0.00    -0.237 OA
ATOM     67  O   UNL A   1      40.714  22.445  26.504  1.00  0.00    -0.744 OA
ENDBRANCH  61  64
ENDBRANCH  43  57
BRANCH  44  68
ATOM     68  C   UNL A   1      38.908  31.948  35.356  1.00  0.00     0.023 A 
ATOM     69  C   UNL A   1      39.149  33.336  35.311  1.00  0.00     0.012 A 
ATOM     70  C   UNL A   1      38.280  31.401  36.491  1.00  0.00     0.148 A 
ATOM     71  C   UNL A   1      38.798  34.156  36.383  1.00  0.00     0.002 A 
ATOM     72  C   UNL A   1      37.883  32.231  37.533  1.00  0.00     0.091 A 
ATOM     73  F   UNL A   1      38.096  30.074  36.541  1.00  0.00    -0.205 F 
ATOM     74  C   UNL A   1      38.155  33.607  37.490  1.00  0.00     0.022 A 
BRANCH  72  75
ATOM     75  S   UNL A   1      36.951  31.614  38.940  1.00  0.00     0.127 S 
ATOM     76  O   UNL A   1      35.788  32.499  38.941  1.00  0.00    -0.237 OA
ATOM     77  O   UNL A   1      36.671  30.232  38.546  1.00  0.00    -0.237 OA
ATOM     78  O   UNL A   1      37.848  31.739  40.081  1.00  0.00    -0.744 OA
ENDBRANCH  72  75
ENDBRANCH  44  68
BRANCH  56  79
ATOM     79  C   UNL A   1      44.536  27.956  34.303  1.00  0.00     0.023 A 
ATOM     80  C   UNL A   1      45.704  28.744  34.326  1.00  0.00     0.012 A 
ATOM     81  C   UNL A   1      44.430  26.855  35.177  1.00  0.00     0.148 A 
ATOM     82  C   UNL A   1      46.758  28.430  35.183  1.00  0.00     0.002 A 
ATOM     83  C   UNL A   1      45.468  26.574  36.061  1.00  0.00     0.091 A 
ATOM     84  F   UNL A   1      43.320  26.104  35.130  1.00  0.00    -0.205 F 
ATOM     85  C   UNL A   1      46.635  27.354  36.060  1.00  0.00     0.022 A 
BRANCH  83  86
ATOM     86  S   UNL A   1      45.355  25.266  37.289  1.00  0.00     0.127 S 
ATOM     87  O   UNL A   1      46.637  25.393  37.979  1.00  0.00    -0.237 OA
ATOM     88  O   UNL A   1      44.194  25.676  38.080  1.00  0.00    -0.237 OA
ATOM     89  O   UNL A   1      45.165  24.032  36.539  1.00  0.00    -0.744 OA
ENDBRANCH  83  86
ENDBRANCH  56  79
ENDBRANCH  30  31
ENDBRANCH  23  25
ENDBRANCH  22  23
ENDBRANCH  21  22
ENDBRANCH   1  21
TORSDOF 18
ENDMDL
