MODEL 1
REMARK VINA RESULT:      -7.1      0.000      0.000
REMARK SMILES NS(=O)(=O)c1ccc(-n2nc(NC(=O)NCCCCCCCCCCC(=O)OCCOC(=O)c3ccc(-c4c5nc(c(-c6cccc(S(=O)(=O)[O-])c6F)c6ccc([nH]6)c(-c6cccc(S(=O)(=O)[O-])c6F)c6nc(c(-c7cccc(S(=O)(=O)[O-])c7F)c7ccc4[nH]7)C=C6)C=C5)cc3)cc2-c2ccccc2)cc1
REMARK SMILES IDX 23 1 22 2 21 3 20 4 19 5 18 6 17 7 16 8 15 9 12 10 13 11
REMARK SMILES IDX 14 13 11 15 9 16 10 17 98 18 97 19 8 20 5 21 6 22 106 23
REMARK SMILES IDX 7 24 105 25 2 26 3 27 4 28 1 29 99 32 100 33 104 34 101 35
REMARK SMILES IDX 103 36 102 37 24 38 25 39 26 40 27 41 28 42 29 43 30 44
REMARK SMILES IDX 31 45 32 46 33 47 34 48 35 49 96 50 36 51 95 52 37 53 38 54
REMARK SMILES IDX 39 55 89 56 40 57 94 58 88 59 90 60 41 61 93 62 87 63 86 64
REMARK SMILES IDX 42 66 74 67 54 68 73 69 55 70 58 71 72 72 91 73 56 74 57 75
REMARK SMILES IDX 71 77 92 78 59 79 43 80 44 81 52 82 45 83 47 84 53 85 46 86
REMARK SMILES IDX 48 87 49 88 50 89 51 90 75 91 76 92 84 93 77 94 79 95 85 96
REMARK SMILES IDX 78 97 80 98 81 99 82 100 83 101 60 102 61 103 69 104 62 105
REMARK SMILES IDX 64 106 70 107 63 108 65 109 66 110 67 111 68 112
REMARK H PARENT 12 12 15 14 1 30 1 31 90 65 58 76
REMARK Flexibility Score: inf
ROOT
ATOM      1  C   UNL A   1      48.878  26.663  38.486  1.00  0.00     0.001 C 
ENDROOT
BRANCH   1   2
ATOM      2  C   UNL A   1      48.937  25.710  37.295  1.00  0.00     0.000 C 
BRANCH   2   3
ATOM      3  C   UNL A   1      49.312  26.429  36.003  1.00  0.00     0.000 C 
BRANCH   3   4
ATOM      4  C   UNL A   1      48.126  26.612  35.055  1.00  0.00     0.000 C 
BRANCH   4   5
ATOM      5  C   UNL A   1      47.839  28.071  34.679  1.00  0.00     0.000 C 
BRANCH   5   6
ATOM      6  C   UNL A   1      47.075  28.249  33.361  1.00  0.00     0.002 C 
BRANCH   6   7
ATOM      7  C   UNL A   1      47.853  28.960  32.257  1.00  0.00     0.021 C 
BRANCH   7   8
ATOM      8  C   UNL A   1      46.988  29.677  31.233  1.00  0.00     0.117 C 
BRANCH   8   9
ATOM      9  N   UNL A   1      47.567  30.885  30.690  1.00  0.00    -0.338 N 
ATOM     10  N   UNL A   1      47.147  30.582  28.368  1.00  0.00    -0.291 N 
ATOM     11  C   UNL A   1      47.678  31.276  29.401  1.00  0.00     0.320 C 
ATOM     12  H   UNL A   1      47.585  30.744  27.502  1.00  0.00     0.173 HD
ATOM     13  O   UNL A   1      48.401  32.246  29.152  1.00  0.00    -0.248 OA
ATOM     14  H   UNL A   1      47.933  31.512  31.354  1.00  0.00     0.165 HD
BRANCH  10  15
ATOM     15  C   UNL A   1      46.101  29.688  28.318  1.00  0.00     0.157 A 
ATOM     16  N   UNL A   1      44.996  27.950  27.826  1.00  0.00    -0.231 N 
ATOM     17  N   UNL A   1      46.219  28.363  28.218  1.00  0.00    -0.149 NA
ATOM     18  C   UNL A   1      44.027  28.899  28.135  1.00  0.00     0.076 A 
ATOM     19  C   UNL A   1      44.738  30.053  28.410  1.00  0.00     0.078 A 
BRANCH  16  20
ATOM     20  C   UNL A   1      44.837  26.722  27.126  1.00  0.00     0.065 A 
ATOM     21  C   UNL A   1      44.707  24.310  25.737  1.00  0.00     0.082 A 
ATOM     22  C   UNL A   1      44.871  24.297  27.124  1.00  0.00     0.024 A 
ATOM     23  C   UNL A   1      44.559  25.518  25.046  1.00  0.00     0.024 A 
ATOM     24  C   UNL A   1      44.933  25.503  27.818  1.00  0.00     0.030 A 
ATOM     25  C   UNL A   1      44.600  26.730  25.746  1.00  0.00     0.030 A 
BRANCH  21  26
ATOM     26  S   UNL A   1      44.741  22.770  24.865  1.00  0.00     0.238 S 
ATOM     27  O   UNL A   1      43.455  22.567  24.257  1.00  0.00    -0.207 OA
ATOM     28  O   UNL A   1      45.369  21.782  25.720  1.00  0.00    -0.207 OA
BRANCH  26  29
ATOM     29  N   UNL A   1      45.842  23.040  23.628  1.00  0.00    -0.225 NA
ATOM     30  H   UNL A   1      45.657  22.393  22.862  1.00  0.00     0.137 HD
ATOM     31  H   UNL A   1      46.788  22.892  23.977  1.00  0.00     0.137 HD
ENDBRANCH  26  29
ENDBRANCH  21  26
ENDBRANCH  16  20
BRANCH  18  32
ATOM     32  C   UNL A   1      42.593  28.617  28.143  1.00  0.00     0.000 A 
ATOM     33  C   UNL A   1      42.075  27.709  29.080  1.00  0.00     0.010 A 
ATOM     34  C   UNL A   1      41.738  29.166  27.183  1.00  0.00     0.010 A 
ATOM     35  C   UNL A   1      40.742  27.309  29.024  1.00  0.00     0.001 A 
ATOM     36  C   UNL A   1      40.397  28.774  27.136  1.00  0.00     0.001 A 
ATOM     37  C   UNL A   1      39.905  27.838  28.048  1.00  0.00     0.000 A 
ENDBRANCH  18  32
ENDBRANCH  10  15
ENDBRANCH   8   9
ENDBRANCH   7   8
ENDBRANCH   6   7
ENDBRANCH   5   6
ENDBRANCH   4   5
ENDBRANCH   3   4
ENDBRANCH   2   3
ENDBRANCH   1   2
BRANCH   1  38
ATOM     38  C   UNL A   1      47.485  26.731  39.115  1.00  0.00     0.012 C 
BRANCH  38  39
ATOM     39  C   UNL A   1      46.296  26.514  38.171  1.00  0.00     0.123 C 
BRANCH  39  40
ATOM     40  C   UNL A   1      44.984  26.005  38.745  1.00  0.00     0.305 C 
ATOM     41  O   UNL A   1      44.263  26.697  39.455  1.00  0.00    -0.252 OA
BRANCH  40  42
ATOM     42  O   UNL A   1      44.669  24.751  38.331  1.00  0.00    -0.462 OA
BRANCH  42  43
ATOM     43  C   UNL A   1      45.537  24.124  37.366  1.00  0.00     0.274 C 
BRANCH  43  44
ATOM     44  C   UNL A   1      44.737  23.464  36.252  1.00  0.00     0.275 C 
BRANCH  44  45
ATOM     45  O   UNL A   1      43.472  24.104  36.133  1.00  0.00    -0.458 OA
BRANCH  45  46
ATOM     46  C   UNL A   1      43.367  24.912  35.059  1.00  0.00     0.338 C 
ATOM     47  O   UNL A   1      43.509  24.603  33.888  1.00  0.00    -0.246 OA
BRANCH  46  48
ATOM     48  C   UNL A   1      43.234  26.297  35.490  1.00  0.00     0.060 A 
ATOM     49  C   UNL A   1      42.027  26.676  36.091  1.00  0.00     0.016 A 
ATOM     50  C   UNL A   1      44.103  27.209  34.886  1.00  0.00     0.016 A 
ATOM     51  C   UNL A   1      41.574  27.956  35.871  1.00  0.00     0.010 A 
ATOM     52  C   UNL A   1      43.630  28.464  34.632  1.00  0.00     0.010 A 
ATOM     53  C   UNL A   1      42.341  28.785  35.051  1.00  0.00    -0.014 A 
BRANCH  53  54
ATOM     54  C   UNL A   1      41.818  30.074  34.673  1.00  0.00     0.031 A 
ATOM     55  C   UNL A   1      41.040  30.007  33.420  1.00  0.00     0.074 A 
ATOM     56  C   UNL A   1      41.904  31.125  35.512  1.00  0.00     0.049 A 
ATOM     57  N   UNL A   1      41.344  30.514  32.273  1.00  0.00    -0.248 NA
ATOM     58  C   UNL A   1      39.902  29.070  33.380  1.00  0.00     0.031 C 
ATOM     59  C   UNL A   1      42.402  31.133  36.893  1.00  0.00     0.029 A 
ATOM     60  N   UNL A   1      41.402  32.377  35.362  1.00  0.00    -0.354 N 
ATOM     61  C   UNL A   1      40.277  30.171  31.446  1.00  0.00     0.074 A 
ATOM     62  C   UNL A   1      39.606  29.073  32.082  1.00  0.00     0.031 C 
ATOM     63  C   UNL A   1      41.936  32.234  37.524  1.00  0.00     0.029 A 
ATOM     64  C   UNL A   1      41.219  33.055  36.565  1.00  0.00     0.049 A 
ATOM     65  H   UNL A   1      41.188  32.770  34.485  1.00  0.00     0.167 HD
ATOM     66  C   UNL A   1      39.822  31.033  30.501  1.00  0.00     0.034 A 
ATOM     67  C   UNL A   1      40.437  34.147  36.757  1.00  0.00     0.034 A 
ATOM     68  C   UNL A   1      40.786  32.072  30.238  1.00  0.00     0.049 A 
ATOM     69  C   UNL A   1      40.184  34.745  35.423  1.00  0.00     0.074 A 
ATOM     70  C   UNL A   1      42.091  32.106  29.794  1.00  0.00     0.029 A 
ATOM     71  N   UNL A   1      40.546  33.287  30.832  1.00  0.00    -0.354 N 
ATOM     72  N   UNL A   1      41.119  35.275  34.685  1.00  0.00    -0.248 NA
ATOM     73  C   UNL A   1      38.982  34.338  34.712  1.00  0.00     0.031 C 
ATOM     74  C   UNL A   1      42.702  33.169  30.523  1.00  0.00     0.029 A 
ATOM     75  C   UNL A   1      41.728  33.766  31.327  1.00  0.00     0.049 A 
ATOM     76  H   UNL A   1      39.672  33.737  30.891  1.00  0.00     0.167 HD
ATOM     77  C   UNL A   1      40.827  34.843  33.396  1.00  0.00     0.074 A 
ATOM     78  C   UNL A   1      39.443  34.377  33.458  1.00  0.00     0.031 C 
ATOM     79  C   UNL A   1      41.827  34.620  32.492  1.00  0.00     0.034 A 
BRANCH  66  80
ATOM     80  C   UNL A   1      38.362  31.205  30.133  1.00  0.00     0.023 A 
ATOM     81  C   UNL A   1      37.975  30.742  28.856  1.00  0.00     0.012 A 
ATOM     82  C   UNL A   1      37.435  32.023  30.822  1.00  0.00     0.148 A 
ATOM     83  C   UNL A   1      36.765  31.128  28.272  1.00  0.00     0.002 A 
ATOM     84  C   UNL A   1      36.198  32.337  30.272  1.00  0.00     0.091 A 
ATOM     85  F   UNL A   1      37.777  32.630  31.960  1.00  0.00    -0.205 F 
ATOM     86  C   UNL A   1      35.873  31.922  28.982  1.00  0.00     0.022 A 
BRANCH  84  87
ATOM     87  S   UNL A   1      34.994  33.329  31.167  1.00  0.00     0.127 S 
ATOM     88  O   UNL A   1      34.276  33.974  30.072  1.00  0.00    -0.237 OA
ATOM     89  O   UNL A   1      34.239  32.300  31.885  1.00  0.00    -0.237 OA
ATOM     90  O   UNL A   1      35.771  34.209  32.030  1.00  0.00    -0.744 OA
ENDBRANCH  84  87
ENDBRANCH  66  80
BRANCH  67  91
ATOM     91  C   UNL A   1      39.642  34.529  37.949  1.00  0.00     0.023 A 
ATOM     92  C   UNL A   1      38.847  33.567  38.603  1.00  0.00     0.012 A 
ATOM     93  C   UNL A   1      39.870  35.760  38.606  1.00  0.00     0.148 A 
ATOM     94  C   UNL A   1      38.311  33.815  39.874  1.00  0.00     0.002 A 
ATOM     95  C   UNL A   1      39.326  36.008  39.863  1.00  0.00     0.091 A 
ATOM     96  F   UNL A   1      40.692  36.651  38.037  1.00  0.00    -0.205 F 
ATOM     97  C   UNL A   1      38.554  35.032  40.506  1.00  0.00     0.022 A 
BRANCH  95  98
ATOM     98  S   UNL A   1      39.614  37.547  40.747  1.00  0.00     0.127 S 
ATOM     99  O   UNL A   1      38.479  38.361  40.312  1.00  0.00    -0.237 OA
ATOM    100  O   UNL A   1      39.556  37.111  42.141  1.00  0.00    -0.237 OA
ATOM    101  O   UNL A   1      40.910  38.033  40.294  1.00  0.00    -0.744 OA
ENDBRANCH  95  98
ENDBRANCH  67  91
BRANCH  79 102
ATOM    102  C   UNL A   1      43.215  35.094  32.846  1.00  0.00     0.023 A 
ATOM    103  C   UNL A   1      43.628  36.432  32.670  1.00  0.00     0.012 A 
ATOM    104  C   UNL A   1      44.054  34.213  33.546  1.00  0.00     0.148 A 
ATOM    105  C   UNL A   1      44.858  36.875  33.166  1.00  0.00     0.002 A 
ATOM    106  C   UNL A   1      45.252  34.668  34.080  1.00  0.00     0.091 A 
ATOM    107  F   UNL A   1      43.641  32.947  33.712  1.00  0.00    -0.205 F 
ATOM    108  C   UNL A   1      45.663  35.996  33.883  1.00  0.00     0.022 A 
BRANCH 106 109
ATOM    109  S   UNL A   1      46.268  33.626  35.128  1.00  0.00     0.127 S 
ATOM    110  O   UNL A   1      47.264  34.572  35.625  1.00  0.00    -0.237 OA
ATOM    111  O   UNL A   1      45.308  33.164  36.133  1.00  0.00    -0.237 OA
ATOM    112  O   UNL A   1      46.784  32.569  34.268  1.00  0.00    -0.744 OA
ENDBRANCH 106 109
ENDBRANCH  79 102
ENDBRANCH  53  54
ENDBRANCH  46  48
ENDBRANCH  45  46
ENDBRANCH  44  45
ENDBRANCH  43  44
ENDBRANCH  42  43
ENDBRANCH  40  42
ENDBRANCH  39  40
ENDBRANCH  38  39
ENDBRANCH   1  38
TORSDOF 29
ENDMDL
MODEL 2
REMARK VINA RESULT:      -6.8      3.806     11.735
REMARK SMILES NS(=O)(=O)c1ccc(-n2nc(NC(=O)NCCCCCCCCCCC(=O)OCCOC(=O)c3ccc(-c4c5nc(c(-c6cccc(S(=O)(=O)[O-])c6F)c6ccc([nH]6)c(-c6cccc(S(=O)(=O)[O-])c6F)c6nc(c(-c7cccc(S(=O)(=O)[O-])c7F)c7ccc4[nH]7)C=C6)C=C5)cc3)cc2-c2ccccc2)cc1
REMARK SMILES IDX 23 1 22 2 21 3 20 4 19 5 18 6 17 7 16 8 15 9 12 10 13 11
REMARK SMILES IDX 14 13 11 15 9 16 10 17 98 18 97 19 8 20 5 21 6 22 106 23
REMARK SMILES IDX 7 24 105 25 2 26 3 27 4 28 1 29 99 32 100 33 104 34 101 35
REMARK SMILES IDX 103 36 102 37 24 38 25 39 26 40 27 41 28 42 29 43 30 44
REMARK SMILES IDX 31 45 32 46 33 47 34 48 35 49 96 50 36 51 95 52 37 53 38 54
REMARK SMILES IDX 39 55 89 56 40 57 94 58 88 59 90 60 41 61 93 62 87 63 86 64
REMARK SMILES IDX 42 66 74 67 54 68 73 69 55 70 58 71 72 72 91 73 56 74 57 75
REMARK SMILES IDX 71 77 92 78 59 79 43 80 44 81 52 82 45 83 47 84 53 85 46 86
REMARK SMILES IDX 48 87 49 88 50 89 51 90 75 91 76 92 84 93 77 94 79 95 85 96
REMARK SMILES IDX 78 97 80 98 81 99 82 100 83 101 60 102 61 103 69 104 62 105
REMARK SMILES IDX 64 106 70 107 63 108 65 109 66 110 67 111 68 112
REMARK H PARENT 12 12 15 14 1 30 1 31 90 65 58 76
REMARK Flexibility Score: inf
ROOT
ATOM      1  C   UNL A   1      41.751  32.553  37.279  1.00  0.00     0.001 C 
ENDROOT
BRANCH   1   2
ATOM      2  C   UNL A   1      41.453  33.647  38.300  1.00  0.00     0.000 C 
BRANCH   2   3
ATOM      3  C   UNL A   1      42.417  34.824  38.179  1.00  0.00     0.000 C 
BRANCH   3   4
ATOM      4  C   UNL A   1      41.722  36.180  38.304  1.00  0.00     0.000 C 
BRANCH   4   5
ATOM      5  C   UNL A   1      41.026  36.653  37.022  1.00  0.00     0.000 C 
BRANCH   5   6
ATOM      6  C   UNL A   1      41.619  36.081  35.728  1.00  0.00     0.002 C 
BRANCH   6   7
ATOM      7  C   UNL A   1      42.296  37.106  34.821  1.00  0.00     0.021 C 
BRANCH   7   8
ATOM      8  C   UNL A   1      43.573  36.617  34.157  1.00  0.00     0.117 C 
BRANCH   8   9
ATOM      9  N   UNL A   1      44.436  35.831  35.010  1.00  0.00    -0.338 N 
ATOM     10  N   UNL A   1      45.456  34.392  33.414  1.00  0.00    -0.291 N 
ATOM     11  C   UNL A   1      45.252  34.803  34.687  1.00  0.00     0.320 C 
ATOM     12  H   UNL A   1      45.751  33.457  33.331  1.00  0.00     0.173 HD
ATOM     13  O   UNL A   1      45.735  34.137  35.608  1.00  0.00    -0.248 OA
ATOM     14  H   UNL A   1      44.428  36.079  35.962  1.00  0.00     0.165 HD
BRANCH  10  15
ATOM     15  C   UNL A   1      45.322  35.054  32.214  1.00  0.00     0.157 A 
ATOM     16  N   UNL A   1      45.273  36.647  30.819  1.00  0.00    -0.231 N 
ATOM     17  N   UNL A   1      45.977  36.162  31.863  1.00  0.00    -0.149 NA
ATOM     18  C   UNL A   1      44.506  35.648  30.229  1.00  0.00     0.076 A 
ATOM     19  C   UNL A   1      44.491  34.621  31.155  1.00  0.00     0.078 A 
BRANCH  16  20
ATOM     20  C   UNL A   1      45.320  38.031  30.494  1.00  0.00     0.065 A 
ATOM     21  C   UNL A   1      45.424  40.778  30.037  1.00  0.00     0.082 A 
ATOM     22  C   UNL A   1      46.613  40.050  30.129  1.00  0.00     0.024 A 
ATOM     23  C   UNL A   1      44.184  40.134  30.122  1.00  0.00     0.024 A 
ATOM     24  C   UNL A   1      46.560  38.676  30.356  1.00  0.00     0.030 A 
ATOM     25  C   UNL A   1      44.131  38.751  30.327  1.00  0.00     0.030 A 
BRANCH  21  26
ATOM     26  S   UNL A   1      45.519  42.536  29.859  1.00  0.00     0.238 S 
ATOM     27  O   UNL A   1      45.400  43.128  31.164  1.00  0.00    -0.207 OA
ATOM     28  O   UNL A   1      44.679  42.923  28.743  1.00  0.00    -0.207 OA
BRANCH  26  29
ATOM     29  N   UNL A   1      47.091  42.796  29.334  1.00  0.00    -0.225 NA
ATOM     30  H   UNL A   1      47.181  43.751  28.990  1.00  0.00     0.137 HD
ATOM     31  H   UNL A   1      47.311  42.142  28.583  1.00  0.00     0.137 HD
ENDBRANCH  26  29
ENDBRANCH  21  26
ENDBRANCH  16  20
BRANCH  18  32
ATOM     32  C   UNL A   1      43.902  35.768  28.903  1.00  0.00     0.000 A 
ATOM     33  C   UNL A   1      42.504  35.798  28.783  1.00  0.00     0.010 A 
ATOM     34  C   UNL A   1      44.686  35.770  27.745  1.00  0.00     0.010 A 
ATOM     35  C   UNL A   1      41.895  35.768  27.531  1.00  0.00     0.001 A 
ATOM     36  C   UNL A   1      44.073  35.753  26.489  1.00  0.00     0.001 A 
ATOM     37  C   UNL A   1      42.681  35.740  26.384  1.00  0.00     0.000 A 
ENDBRANCH  18  32
ENDBRANCH  10  15
ENDBRANCH   8   9
ENDBRANCH   7   8
ENDBRANCH   6   7
ENDBRANCH   5   6
ENDBRANCH   4   5
ENDBRANCH   3   4
ENDBRANCH   2   3
ENDBRANCH   1   2
BRANCH   1  38
ATOM     38  C   UNL A   1      40.580  32.306  36.324  1.00  0.00     0.012 C 
BRANCH  38  39
ATOM     39  C   UNL A   1      40.738  32.839  34.896  1.00  0.00     0.123 C 
BRANCH  39  40
ATOM     40  C   UNL A   1      39.505  32.965  34.016  1.00  0.00     0.305 C 
ATOM     41  O   UNL A   1      39.560  33.366  32.859  1.00  0.00    -0.252 OA
BRANCH  40  42
ATOM     42  O   UNL A   1      38.371  32.522  34.617  1.00  0.00    -0.462 OA
BRANCH  42  43
ATOM     43  C   UNL A   1      37.674  31.419  34.004  1.00  0.00     0.274 C 
BRANCH  43  44
ATOM     44  C   UNL A   1      36.458  31.901  33.225  1.00  0.00     0.275 C 
BRANCH  44  45
ATOM     45  O   UNL A   1      36.128  30.947  32.222  1.00  0.00    -0.458 OA
BRANCH  45  46
ATOM     46  C   UNL A   1      36.160  31.440  30.967  1.00  0.00     0.338 C 
ATOM     47  O   UNL A   1      35.325  32.150  30.432  1.00  0.00    -0.246 OA
BRANCH  46  48
ATOM     48  C   UNL A   1      37.272  30.853  30.231  1.00  0.00     0.060 A 
ATOM     49  C   UNL A   1      37.276  29.462  30.064  1.00  0.00     0.016 A 
ATOM     50  C   UNL A   1      38.428  31.633  30.149  1.00  0.00     0.016 A 
ATOM     51  C   UNL A   1      38.492  28.820  30.051  1.00  0.00     0.010 A 
ATOM     52  C   UNL A   1      39.631  30.990  30.182  1.00  0.00     0.010 A 
ATOM     53  C   UNL A   1      39.639  29.597  30.222  1.00  0.00    -0.014 A 
BRANCH  53  54
ATOM     54  C   UNL A   1      40.914  28.940  30.371  1.00  0.00     0.031 A 
ATOM     55  C   UNL A   1      41.322  28.848  31.788  1.00  0.00     0.074 A 
ATOM     56  C   UNL A   1      41.506  28.339  29.322  1.00  0.00     0.049 A 
ATOM     57  N   UNL A   1      42.297  29.460  32.371  1.00  0.00    -0.248 NA
ATOM     58  C   UNL A   1      40.397  28.173  32.715  1.00  0.00     0.031 C 
ATOM     59  C   UNL A   1      40.964  28.154  27.969  1.00  0.00     0.029 A 
ATOM     60  N   UNL A   1      42.651  27.611  29.292  1.00  0.00    -0.354 N 
ATOM     61  C   UNL A   1      42.249  29.016  33.689  1.00  0.00     0.074 A 
ATOM     62  C   UNL A   1      40.931  28.489  33.893  1.00  0.00     0.031 C 
ATOM     63  C   UNL A   1      41.642  27.160  27.354  1.00  0.00     0.029 A 
ATOM     64  C   UNL A   1      42.728  26.730  28.217  1.00  0.00     0.049 A 
ATOM     65  H   UNL A   1      43.362  27.698  29.968  1.00  0.00     0.167 HD
ATOM     66  C   UNL A   1      43.390  28.790  34.391  1.00  0.00     0.034 A 
ATOM     67  C   UNL A   1      43.558  25.661  28.115  1.00  0.00     0.034 A 
ATOM     68  C   UNL A   1      44.522  29.421  33.759  1.00  0.00     0.049 A 
ATOM     69  C   UNL A   1      44.646  25.856  29.105  1.00  0.00     0.074 A 
ATOM     70  C   UNL A   1      44.859  30.715  33.421  1.00  0.00     0.029 A 
ATOM     71  N   UNL A   1      45.338  28.601  33.019  1.00  0.00    -0.354 N 
ATOM     72  N   UNL A   1      45.522  26.818  29.029  1.00  0.00    -0.248 NA
ATOM     73  C   UNL A   1      44.479  25.265  30.424  1.00  0.00     0.031 C 
ATOM     74  C   UNL A   1      45.555  30.604  32.182  1.00  0.00     0.029 A 
ATOM     75  C   UNL A   1      45.661  29.249  31.857  1.00  0.00     0.049 A 
ATOM     76  H   UNL A   1      45.639  27.701  33.279  1.00  0.00     0.167 HD
ATOM     77  C   UNL A   1      45.661  27.261  30.339  1.00  0.00     0.074 A 
ATOM     78  C   UNL A   1      45.093  26.194  31.161  1.00  0.00     0.031 C 
ATOM     79  C   UNL A   1      45.936  28.572  30.608  1.00  0.00     0.034 A 
BRANCH  66  80
ATOM     80  C   UNL A   1      43.573  27.661  35.384  1.00  0.00     0.023 A 
ATOM     81  C   UNL A   1      43.810  28.032  36.725  1.00  0.00     0.012 A 
ATOM     82  C   UNL A   1      43.805  26.305  35.048  1.00  0.00     0.148 A 
ATOM     83  C   UNL A   1      44.314  27.123  37.660  1.00  0.00     0.002 A 
ATOM     84  C   UNL A   1      44.227  25.386  36.000  1.00  0.00     0.091 A 
ATOM     85  F   UNL A   1      43.758  25.901  33.777  1.00  0.00    -0.205 F 
ATOM     86  C   UNL A   1      44.518  25.797  37.300  1.00  0.00     0.022 A 
BRANCH  84  87
ATOM     87  S   UNL A   1      44.469  23.650  35.591  1.00  0.00     0.127 S 
ATOM     88  O   UNL A   1      45.036  23.135  36.834  1.00  0.00    -0.237 OA
ATOM     89  O   UNL A   1      43.099  23.220  35.308  1.00  0.00    -0.237 OA
ATOM     90  O   UNL A   1      45.350  23.638  34.431  1.00  0.00    -0.744 OA
ENDBRANCH  84  87
ENDBRANCH  66  80
BRANCH  67  91
ATOM     91  C   UNL A   1      43.319  24.352  27.461  1.00  0.00     0.023 A 
ATOM     92  C   UNL A   1      42.042  23.761  27.515  1.00  0.00     0.012 A 
ATOM     93  C   UNL A   1      44.264  23.811  26.559  1.00  0.00     0.148 A 
ATOM     94  C   UNL A   1      41.710  22.680  26.687  1.00  0.00     0.002 A 
ATOM     95  C   UNL A   1      43.935  22.729  25.747  1.00  0.00     0.091 A 
ATOM     96  F   UNL A   1      45.453  24.414  26.434  1.00  0.00    -0.205 F 
ATOM     97  C   UNL A   1      42.654  22.167  25.801  1.00  0.00     0.022 A 
BRANCH  95  98
ATOM     98  S   UNL A   1      45.095  22.029  24.565  1.00  0.00     0.127 S 
ATOM     99  O   UNL A   1      46.297  21.867  25.383  1.00  0.00    -0.237 OA
ATOM    100  O   UNL A   1      44.433  20.779  24.196  1.00  0.00    -0.237 OA
ATOM    101  O   UNL A   1      45.223  23.012  23.498  1.00  0.00    -0.744 OA
ENDBRANCH  95  98
ENDBRANCH  67  91
BRANCH  79 102
ATOM    102  C   UNL A   1      46.334  29.459  29.452  1.00  0.00     0.023 A 
ATOM    103  C   UNL A   1      47.633  29.452  28.903  1.00  0.00     0.012 A 
ATOM    104  C   UNL A   1      45.322  30.170  28.790  1.00  0.00     0.148 A 
ATOM    105  C   UNL A   1      47.920  30.155  27.729  1.00  0.00     0.002 A 
ATOM    106  C   UNL A   1      45.597  30.826  27.597  1.00  0.00     0.091 A 
ATOM    107  F   UNL A   1      44.090  30.157  29.321  1.00  0.00    -0.205 F 
ATOM    108  C   UNL A   1      46.899  30.831  27.069  1.00  0.00     0.022 A 
BRANCH 106 109
ATOM    109  S   UNL A   1      44.301  31.597  26.628  1.00  0.00     0.127 S 
ATOM    110  O   UNL A   1      45.059  32.232  25.553  1.00  0.00    -0.237 OA
ATOM    111  O   UNL A   1      43.496  30.446  26.213  1.00  0.00    -0.237 OA
ATOM    112  O   UNL A   1      43.611  32.510  27.531  1.00  0.00    -0.744 OA
ENDBRANCH 106 109
ENDBRANCH  79 102
ENDBRANCH  53  54
ENDBRANCH  46  48
ENDBRANCH  45  46
ENDBRANCH  44  45
ENDBRANCH  43  44
ENDBRANCH  42  43
ENDBRANCH  40  42
ENDBRANCH  39  40
ENDBRANCH  38  39
ENDBRANCH   1  38
TORSDOF 29
ENDMDL
MODEL 3
REMARK VINA RESULT:      -6.6      3.691     11.219
REMARK SMILES NS(=O)(=O)c1ccc(-n2nc(NC(=O)NCCCCCCCCCCC(=O)OCCOC(=O)c3ccc(-c4c5nc(c(-c6cccc(S(=O)(=O)[O-])c6F)c6ccc([nH]6)c(-c6cccc(S(=O)(=O)[O-])c6F)c6nc(c(-c7cccc(S(=O)(=O)[O-])c7F)c7ccc4[nH]7)C=C6)C=C5)cc3)cc2-c2ccccc2)cc1
REMARK SMILES IDX 23 1 22 2 21 3 20 4 19 5 18 6 17 7 16 8 15 9 12 10 13 11
REMARK SMILES IDX 14 13 11 15 9 16 10 17 98 18 97 19 8 20 5 21 6 22 106 23
REMARK SMILES IDX 7 24 105 25 2 26 3 27 4 28 1 29 99 32 100 33 104 34 101 35
REMARK SMILES IDX 103 36 102 37 24 38 25 39 26 40 27 41 28 42 29 43 30 44
REMARK SMILES IDX 31 45 32 46 33 47 34 48 35 49 96 50 36 51 95 52 37 53 38 54
REMARK SMILES IDX 39 55 89 56 40 57 94 58 88 59 90 60 41 61 93 62 87 63 86 64
REMARK SMILES IDX 42 66 74 67 54 68 73 69 55 70 58 71 72 72 91 73 56 74 57 75
REMARK SMILES IDX 71 77 92 78 59 79 43 80 44 81 52 82 45 83 47 84 53 85 46 86
REMARK SMILES IDX 48 87 49 88 50 89 51 90 75 91 76 92 84 93 77 94 79 95 85 96
REMARK SMILES IDX 78 97 80 98 81 99 82 100 83 101 60 102 61 103 69 104 62 105
REMARK SMILES IDX 64 106 70 107 63 108 65 109 66 110 67 111 68 112
REMARK H PARENT 12 12 15 14 1 30 1 31 90 65 58 76
REMARK Flexibility Score: inf
ROOT
ATOM      1  C   UNL A   1      41.281  32.189  36.928  1.00  0.00     0.001 C 
ENDROOT
BRANCH   1   2
ATOM      2  C   UNL A   1      40.872  33.087  38.092  1.00  0.00     0.000 C 
BRANCH   2   3
ATOM      3  C   UNL A   1      41.968  34.082  38.462  1.00  0.00     0.000 C 
BRANCH   3   4
ATOM      4  C   UNL A   1      41.433  35.492  38.716  1.00  0.00     0.000 C 
BRANCH   4   5
ATOM      5  C   UNL A   1      41.315  36.358  37.454  1.00  0.00     0.000 C 
BRANCH   5   6
ATOM      6  C   UNL A   1      42.274  35.968  36.323  1.00  0.00     0.002 C 
BRANCH   6   7
ATOM      7  C   UNL A   1      43.502  36.865  36.182  1.00  0.00     0.021 C 
BRANCH   7   8
ATOM      8  C   UNL A   1      44.806  36.119  35.952  1.00  0.00     0.117 C 
BRANCH   8   9
ATOM      9  N   UNL A   1      44.947  34.897  36.712  1.00  0.00    -0.338 N 
ATOM     10  N   UNL A   1      45.809  33.430  35.050  1.00  0.00    -0.291 N 
ATOM     11  C   UNL A   1      45.357  33.677  36.301  1.00  0.00     0.320 C 
ATOM     12  H   UNL A   1      45.726  32.491  34.766  1.00  0.00     0.173 HD
ATOM     13  O   UNL A   1      45.195  32.724  37.070  1.00  0.00    -0.248 OA
ATOM     14  H   UNL A   1      44.710  34.963  37.664  1.00  0.00     0.165 HD
BRANCH  10  15
ATOM     15  C   UNL A   1      46.363  34.263  34.104  1.00  0.00     0.157 A 
ATOM     16  N   UNL A   1      46.681  35.220  32.242  1.00  0.00    -0.231 N 
ATOM     17  N   UNL A   1      45.706  34.826  33.088  1.00  0.00    -0.149 NA
ATOM     18  C   UNL A   1      47.897  35.343  32.905  1.00  0.00     0.076 A 
ATOM     19  C   UNL A   1      47.715  34.678  34.104  1.00  0.00     0.078 A 
BRANCH  16  20
ATOM     20  C   UNL A   1      46.411  35.385  30.855  1.00  0.00     0.065 A 
ATOM     21  C   UNL A   1      45.713  35.756  28.183  1.00  0.00     0.082 A 
ATOM     22  C   UNL A   1      46.197  36.836  28.924  1.00  0.00     0.024 A 
ATOM     23  C   UNL A   1      45.622  34.482  28.753  1.00  0.00     0.024 A 
ATOM     24  C   UNL A   1      46.548  36.649  30.260  1.00  0.00     0.030 A 
ATOM     25  C   UNL A   1      45.995  34.288  30.089  1.00  0.00     0.030 A 
BRANCH  21  26
ATOM     26  S   UNL A   1      45.171  36.044  26.523  1.00  0.00     0.238 S 
ATOM     27  O   UNL A   1      43.777  36.392  26.558  1.00  0.00    -0.207 OA
ATOM     28  O   UNL A   1      45.693  34.981  25.687  1.00  0.00    -0.207 OA
BRANCH  26  29
ATOM     29  N   UNL A   1      46.017  37.418  26.063  1.00  0.00    -0.225 NA
ATOM     30  H   UNL A   1      45.947  37.538  25.053  1.00  0.00     0.137 HD
ATOM     31  H   UNL A   1      46.997  37.316  26.325  1.00  0.00     0.137 HD
ENDBRANCH  26  29
ENDBRANCH  21  26
ENDBRANCH  16  20
BRANCH  18  32
ATOM     32  C   UNL A   1      49.049  36.056  32.356  1.00  0.00     0.000 A 
ATOM     33  C   UNL A   1      49.937  35.378  31.505  1.00  0.00     0.010 A 
ATOM     34  C   UNL A   1      49.332  37.374  32.725  1.00  0.00     0.010 A 
ATOM     35  C   UNL A   1      51.118  35.981  31.080  1.00  0.00     0.001 A 
ATOM     36  C   UNL A   1      50.511  37.983  32.286  1.00  0.00     0.001 A 
ATOM     37  C   UNL A   1      51.407  37.283  31.475  1.00  0.00     0.000 A 
ENDBRANCH  18  32
ENDBRANCH  10  15
ENDBRANCH   8   9
ENDBRANCH   7   8
ENDBRANCH   6   7
ENDBRANCH   5   6
ENDBRANCH   4   5
ENDBRANCH   3   4
ENDBRANCH   2   3
ENDBRANCH   1   2
BRANCH   1  38
ATOM     38  C   UNL A   1      40.200  32.098  35.848  1.00  0.00     0.012 C 
BRANCH  38  39
ATOM     39  C   UNL A   1      40.505  32.791  34.515  1.00  0.00     0.123 C 
BRANCH  39  40
ATOM     40  C   UNL A   1      39.399  32.916  33.480  1.00  0.00     0.305 C 
ATOM     41  O   UNL A   1      39.627  33.132  32.295  1.00  0.00    -0.252 OA
BRANCH  40  42
ATOM     42  O   UNL A   1      38.161  32.691  33.989  1.00  0.00    -0.462 OA
BRANCH  42  43
ATOM     43  C   UNL A   1      37.282  31.814  33.257  1.00  0.00     0.274 C 
BRANCH  43  44
ATOM     44  C   UNL A   1      36.144  32.589  32.609  1.00  0.00     0.275 C 
BRANCH  44  45
ATOM     45  O   UNL A   1      35.315  31.693  31.877  1.00  0.00    -0.458 OA
BRANCH  45  46
ATOM     46  C   UNL A   1      35.271  31.946  30.554  1.00  0.00     0.338 C 
ATOM     47  O   UNL A   1      34.443  32.616  29.959  1.00  0.00    -0.246 OA
BRANCH  46  48
ATOM     48  C   UNL A   1      36.269  31.143  29.861  1.00  0.00     0.060 A 
ATOM     49  C   UNL A   1      36.300  29.769  30.135  1.00  0.00     0.016 A 
ATOM     50  C   UNL A   1      37.365  31.841  29.349  1.00  0.00     0.016 A 
ATOM     51  C   UNL A   1      37.521  29.137  30.118  1.00  0.00     0.010 A 
ATOM     52  C   UNL A   1      38.581  31.223  29.377  1.00  0.00     0.010 A 
ATOM     53  C   UNL A   1      38.649  29.912  29.845  1.00  0.00    -0.014 A 
BRANCH  53  54
ATOM     54  C   UNL A   1      39.956  29.317  29.975  1.00  0.00     0.031 A 
ATOM     55  C   UNL A   1      40.462  29.397  31.361  1.00  0.00     0.074 A 
ATOM     56  C   UNL A   1      40.499  28.619  28.959  1.00  0.00     0.049 A 
ATOM     57  N   UNL A   1      41.449  30.102  31.801  1.00  0.00    -0.248 NA
ATOM     58  C   UNL A   1      39.628  28.804  32.421  1.00  0.00     0.031 C 
ATOM     59  C   UNL A   1      39.874  28.266  27.678  1.00  0.00     0.029 A 
ATOM     60  N   UNL A   1      41.667  27.928  28.929  1.00  0.00    -0.354 N 
ATOM     61  C   UNL A   1      41.508  29.808  33.161  1.00  0.00     0.074 A 
ATOM     62  C   UNL A   1      40.227  29.267  33.515  1.00  0.00     0.031 C 
ATOM     63  C   UNL A   1      40.548  27.230  27.130  1.00  0.00     0.029 A 
ATOM     64  C   UNL A   1      41.705  26.934  27.955  1.00  0.00     0.049 A 
ATOM     65  H   UNL A   1      42.417  28.113  29.539  1.00  0.00     0.167 HD
ATOM     66  C   UNL A   1      42.701  29.699  33.800  1.00  0.00     0.034 A 
ATOM     67  C   UNL A   1      42.567  25.887  27.913  1.00  0.00     0.034 A 
ATOM     68  C   UNL A   1      43.763  30.289  33.024  1.00  0.00     0.049 A 
ATOM     69  C   UNL A   1      43.711  26.226  28.796  1.00  0.00     0.074 A 
ATOM     70  C   UNL A   1      44.025  31.546  32.521  1.00  0.00     0.029 A 
ATOM     71  N   UNL A   1      44.558  29.416  32.322  1.00  0.00    -0.354 N 
ATOM     72  N   UNL A   1      44.542  27.200  28.551  1.00  0.00    -0.248 NA
ATOM     73  C   UNL A   1      43.656  25.783  30.180  1.00  0.00     0.031 C 
ATOM     74  C   UNL A   1      44.640  31.317  31.255  1.00  0.00     0.029 A 
ATOM     75  C   UNL A   1      44.777  29.939  31.076  1.00  0.00     0.049 A 
ATOM     76  H   UNL A   1      44.911  28.561  32.659  1.00  0.00     0.167 HD
ATOM     77  C   UNL A   1      44.751  27.793  29.791  1.00  0.00     0.074 A 
ATOM     78  C   UNL A   1      44.282  26.808  30.765  1.00  0.00     0.031 C 
ATOM     79  C   UNL A   1      44.993  29.134  29.893  1.00  0.00     0.034 A 
BRANCH  66  80
ATOM     80  C   UNL A   1      42.994  28.695  34.897  1.00  0.00     0.023 A 
ATOM     81  C   UNL A   1      43.578  29.204  36.078  1.00  0.00     0.012 A 
ATOM     82  C   UNL A   1      42.999  27.288  34.738  1.00  0.00     0.148 A 
ATOM     83  C   UNL A   1      44.190  28.364  37.013  1.00  0.00     0.002 A 
ATOM     84  C   UNL A   1      43.535  26.453  35.710  1.00  0.00     0.091 A 
ATOM     85  F   UNL A   1      42.612  26.732  33.589  1.00  0.00    -0.205 F 
ATOM     86  C   UNL A   1      44.165  26.988  36.833  1.00  0.00     0.022 A 
BRANCH  84  87
ATOM     87  S   UNL A   1      43.492  24.662  35.540  1.00  0.00     0.127 S 
ATOM     88  O   UNL A   1      44.253  24.241  36.712  1.00  0.00    -0.237 OA
ATOM     89  O   UNL A   1      42.055  24.394  35.602  1.00  0.00    -0.237 OA
ATOM     90  O   UNL A   1      44.097  24.374  34.246  1.00  0.00    -0.744 OA
ENDBRANCH  84  87
ENDBRANCH  66  80
BRANCH  67  91
ATOM     91  C   UNL A   1      42.336  24.505  27.428  1.00  0.00     0.023 A 
ATOM     92  C   UNL A   1      41.046  23.943  27.491  1.00  0.00     0.012 A 
ATOM     93  C   UNL A   1      43.314  23.836  26.657  1.00  0.00     0.148 A 
ATOM     94  C   UNL A   1      40.735  22.765  26.798  1.00  0.00     0.002 A 
ATOM     95  C   UNL A   1      43.006  22.660  25.979  1.00  0.00     0.091 A 
ATOM     96  F   UNL A   1      44.520  24.402  26.516  1.00  0.00    -0.205 F 
ATOM     97  C   UNL A   1      41.713  22.127  26.038  1.00  0.00     0.022 A 
BRANCH  95  98
ATOM     98  S   UNL A   1      44.210  21.793  24.964  1.00  0.00     0.127 S 
ATOM     99  O   UNL A   1      45.426  21.919  25.766  1.00  0.00    -0.237 OA
ATOM    100  O   UNL A   1      43.648  20.445  24.912  1.00  0.00    -0.237 OA
ATOM    101  O   UNL A   1      44.252  22.507  23.694  1.00  0.00    -0.744 OA
ENDBRANCH  95  98
ENDBRANCH  67  91
BRANCH  79 102
ATOM    102  C   UNL A   1      45.277  29.895  28.620  1.00  0.00     0.023 A 
ATOM    103  C   UNL A   1      44.253  30.335  27.756  1.00  0.00     0.012 A 
ATOM    104  C   UNL A   1      46.590  30.336  28.396  1.00  0.00     0.148 A 
ATOM    105  C   UNL A   1      44.536  31.182  26.680  1.00  0.00     0.002 A 
ATOM    106  C   UNL A   1      46.860  31.217  27.357  1.00  0.00     0.091 A 
ATOM    107  F   UNL A   1      47.549  29.915  29.234  1.00  0.00    -0.205 F 
ATOM    108  C   UNL A   1      45.838  31.634  26.489  1.00  0.00     0.022 A 
BRANCH 106 109
ATOM    109  S   UNL A   1      48.486  31.943  27.141  1.00  0.00     0.127 S 
ATOM    110  O   UNL A   1      48.244  32.929  26.091  1.00  0.00    -0.237 OA
ATOM    111  O   UNL A   1      48.752  32.511  28.464  1.00  0.00    -0.237 OA
ATOM    112  O   UNL A   1      49.373  30.846  26.776  1.00  0.00    -0.744 OA
ENDBRANCH 106 109
ENDBRANCH  79 102
ENDBRANCH  53  54
ENDBRANCH  46  48
ENDBRANCH  45  46
ENDBRANCH  44  45
ENDBRANCH  43  44
ENDBRANCH  42  43
ENDBRANCH  40  42
ENDBRANCH  39  40
ENDBRANCH  38  39
ENDBRANCH   1  38
TORSDOF 29
ENDMDL
