MODEL 1
REMARK VINA RESULT:     -14.1      0.000      0.000
REMARK SMILES Cc1ccccc1-c1c(Cl)ccc2c1C=C(C(=O)OCCOC(=O)c1ccc(-c3c4nc(c(-c5cccc(S(=O)(=O)[O-])c5F)c5ccc([nH]5)c(-c5cccc(S(=O)(=O)[O-])c5F)c5nc(c(-c6cccc(S(=O)(=O)[O-])c6F)c6ccc3[nH]6)C=C5)C=C4)cc1)[C@@H](C(F)(F)F)O2
REMARK SMILES IDX 21 1 20 2 19 3 17 4 18 5 16 6 8 7 9 8 14 9 10 10 11 11 13 12
REMARK SMILES IDX 15 13 12 14 93 15 88 16 7 17 1 18 2 19 3 20 4 21 6 22 5 23
REMARK SMILES IDX 89 24 90 25 91 26 92 27 22 28 23 29 24 30 25 31 26 32 87 33
REMARK SMILES IDX 27 34 86 35 28 36 29 37 30 38 80 39 31 40 85 41 79 42 81 43
REMARK SMILES IDX 32 44 84 45 78 46 77 47 33 49 65 50 45 51 64 52 46 53 49 54
REMARK SMILES IDX 63 55 82 56 47 57 48 58 62 60 83 61 50 62 34 63 35 64 43 65
REMARK SMILES IDX 36 66 38 67 44 68 37 69 39 70 40 71 41 72 42 73 66 74 67 75
REMARK SMILES IDX 75 76 68 77 70 78 76 79 69 80 71 81 72 82 73 83 74 84 51 85
REMARK SMILES IDX 52 86 60 87 53 88 55 89 61 90 54 91 56 92 57 93 58 94 59 95
REMARK H PARENT 81 48 49 59
REMARK Flexibility Score: inf
ROOT
ATOM      1  C   UNL A   1      34.160  30.774  27.246  1.00  0.00     0.275 C 
ENDROOT
BRANCH   1   2
ATOM      2  C   UNL A   1      32.979  29.796  27.196  1.00  0.00     0.275 C 
BRANCH   2   3
ATOM      3  O   UNL A   1      33.145  28.628  26.393  1.00  0.00    -0.459 OA
BRANCH   3   4
ATOM      4  C   UNL A   1      32.366  28.516  25.285  1.00  0.00     0.338 C 
ATOM      5  O   UNL A   1      32.065  29.416  24.524  1.00  0.00    -0.246 OA
BRANCH   4   6
ATOM      6  C   UNL A   1      31.883  27.123  25.188  1.00  0.00     0.087 C 
ATOM      7  C   UNL A   1      33.196  23.697  25.910  1.00  0.00     0.012 A 
ATOM      8  C   UNL A   1      32.703  22.668  26.765  1.00  0.00     0.049 A 
ATOM      9  C   UNL A   1      32.313  24.787  25.653  1.00  0.00     0.027 A 
ATOM     10  Cl  UNL A   1      33.732  21.425  27.414  1.00  0.00    -0.084 Cl
ATOM     11  C   UNL A   1      31.360  22.598  27.132  1.00  0.00     0.025 A 
ATOM     12  C   UNL A   1      30.955  24.686  26.016  1.00  0.00     0.128 A 
ATOM     13  C   UNL A   1      32.767  26.119  25.247  1.00  0.00     0.028 C 
ATOM     14  C   UNL A   1      30.476  23.565  26.684  1.00  0.00     0.049 A 
ATOM     15  O   UNL A   1      30.019  25.671  25.824  1.00  0.00    -0.475 OA
ATOM     16  C   UNL A   1      30.410  26.881  25.147  1.00  0.00     0.316 C 
BRANCH   7  17
ATOM     17  C   UNL A   1      34.469  23.449  25.155  1.00  0.00    -0.013 A 
ATOM     18  C   UNL A   1      33.507  22.715  22.868  1.00  0.00     0.045 C 
ATOM     19  C   UNL A   1      34.623  23.038  23.815  1.00  0.00    -0.043 A 
ATOM     20  C   UNL A   1      35.920  22.916  23.261  1.00  0.00     0.004 A 
ATOM     21  C   UNL A   1      37.061  23.238  23.986  1.00  0.00     0.000 A 
ATOM     22  C   UNL A   1      35.665  23.730  25.872  1.00  0.00     0.009 A 
ATOM     23  C   UNL A   1      36.935  23.655  25.297  1.00  0.00     0.001 A 
ENDBRANCH   7  17
BRANCH  16  24
ATOM     24  C   UNL A   1      29.910  26.837  23.700  1.00  0.00     0.430 C 
ATOM     25  F   UNL A   1      30.694  26.060  22.914  1.00  0.00    -0.167 F 
ATOM     26  F   UNL A   1      28.656  26.331  23.605  1.00  0.00    -0.167 F 
ATOM     27  F   UNL A   1      29.874  28.067  23.129  1.00  0.00    -0.167 F 
ENDBRANCH  16  24
ENDBRANCH   4   6
ENDBRANCH   3   4
ENDBRANCH   2   3
ENDBRANCH   1   2
BRANCH   1  28
ATOM     28  O   UNL A   1      35.469  30.235  27.545  1.00  0.00    -0.458 OA
BRANCH  28  29
ATOM     29  C   UNL A   1      36.192  30.481  28.682  1.00  0.00     0.338 C 
ATOM     30  O   UNL A   1      35.803  31.193  29.578  1.00  0.00    -0.246 OA
BRANCH  29  31
ATOM     31  C   UNL A   1      37.489  29.791  28.742  1.00  0.00     0.060 A 
ATOM     32  C   UNL A   1      37.749  28.877  29.767  1.00  0.00     0.016 A 
ATOM     33  C   UNL A   1      38.339  29.934  27.651  1.00  0.00     0.016 A 
ATOM     34  C   UNL A   1      38.785  27.960  29.602  1.00  0.00     0.010 A 
ATOM     35  C   UNL A   1      39.299  28.975  27.442  1.00  0.00     0.010 A 
ATOM     36  C   UNL A   1      39.520  27.984  28.411  1.00  0.00    -0.014 A 
BRANCH  36  37
ATOM     37  C   UNL A   1      40.767  27.248  28.243  1.00  0.00     0.031 A 
ATOM     38  C   UNL A   1      40.793  25.805  27.983  1.00  0.00     0.074 A 
ATOM     39  C   UNL A   1      41.875  27.986  28.458  1.00  0.00     0.049 A 
ATOM     40  N   UNL A   1      41.342  24.938  28.763  1.00  0.00    -0.248 NA
ATOM     41  C   UNL A   1      40.165  25.233  26.795  1.00  0.00     0.031 C 
ATOM     42  C   UNL A   1      43.273  27.628  28.359  1.00  0.00     0.029 A 
ATOM     43  N   UNL A   1      41.879  29.258  29.044  1.00  0.00    -0.354 N 
ATOM     44  C   UNL A   1      41.372  23.751  28.057  1.00  0.00     0.074 A 
ATOM     45  C   UNL A   1      40.520  23.947  26.905  1.00  0.00     0.031 C 
ATOM     46  C   UNL A   1      43.974  28.492  29.121  1.00  0.00     0.029 A 
ATOM     47  C   UNL A   1      43.024  29.357  29.822  1.00  0.00     0.049 A 
ATOM     48  H   UNL A   1      41.193  29.956  28.927  1.00  0.00     0.167 HD
ATOM     49  C   UNL A   1      42.340  22.815  28.275  1.00  0.00     0.034 A 
ATOM     50  C   UNL A   1      42.943  29.605  31.162  1.00  0.00     0.034 A 
ATOM     51  C   UNL A   1      43.417  23.420  29.052  1.00  0.00     0.049 A 
ATOM     52  C   UNL A   1      43.517  28.435  31.930  1.00  0.00     0.074 A 
ATOM     53  C   UNL A   1      44.503  24.152  28.595  1.00  0.00     0.029 A 
ATOM     54  N   UNL A   1      43.300  23.678  30.411  1.00  0.00    -0.354 N 
ATOM     55  N   UNL A   1      43.608  27.225  31.448  1.00  0.00    -0.248 NA
ATOM     56  C   UNL A   1      44.015  28.538  33.296  1.00  0.00     0.031 C 
ATOM     57  C   UNL A   1      44.995  24.923  29.666  1.00  0.00     0.029 A 
ATOM     58  C   UNL A   1      44.239  24.631  30.787  1.00  0.00     0.049 A 
ATOM     59  H   UNL A   1      42.651  23.252  31.017  1.00  0.00     0.167 HD
ATOM     60  C   UNL A   1      44.160  26.400  32.393  1.00  0.00     0.074 A 
ATOM     61  C   UNL A   1      44.407  27.274  33.529  1.00  0.00     0.031 C 
ATOM     62  C   UNL A   1      44.375  25.067  32.165  1.00  0.00     0.034 A 
BRANCH  49  63
ATOM     63  C   UNL A   1      42.546  21.641  27.336  1.00  0.00     0.023 A 
ATOM     64  C   UNL A   1      41.825  20.453  27.583  1.00  0.00     0.012 A 
ATOM     65  C   UNL A   1      43.458  21.619  26.254  1.00  0.00     0.148 A 
ATOM     66  C   UNL A   1      42.081  19.266  26.892  1.00  0.00     0.002 A 
ATOM     67  C   UNL A   1      43.741  20.422  25.584  1.00  0.00     0.091 A 
ATOM     68  F   UNL A   1      44.063  22.762  25.893  1.00  0.00    -0.205 F 
ATOM     69  C   UNL A   1      43.062  19.242  25.914  1.00  0.00     0.022 A 
BRANCH  67  70
ATOM     70  S   UNL A   1      45.049  20.265  24.355  1.00  0.00     0.127 S 
ATOM     71  O   UNL A   1      44.639  21.246  23.348  1.00  0.00    -0.237 OA
ATOM     72  O   UNL A   1      46.242  20.636  25.113  1.00  0.00    -0.237 OA
ATOM     73  O   UNL A   1      45.006  18.883  23.893  1.00  0.00    -0.744 OA
ENDBRANCH  67  70
ENDBRANCH  49  63
BRANCH  50  74
ATOM     74  C   UNL A   1      41.760  30.422  31.626  1.00  0.00     0.023 A 
ATOM     75  C   UNL A   1      41.515  31.684  31.020  1.00  0.00     0.012 A 
ATOM     76  C   UNL A   1      40.753  29.902  32.449  1.00  0.00     0.148 A 
ATOM     77  C   UNL A   1      40.274  32.328  31.124  1.00  0.00     0.002 A 
ATOM     78  C   UNL A   1      39.518  30.554  32.552  1.00  0.00     0.091 A 
ATOM     79  F   UNL A   1      40.966  28.749  33.096  1.00  0.00    -0.205 F 
ATOM     80  C   UNL A   1      39.261  31.748  31.871  1.00  0.00     0.022 A 
BRANCH  78  81
ATOM     81  S   UNL A   1      38.181  29.726  33.401  1.00  0.00     0.127 S 
ATOM     82  O   UNL A   1      38.437  30.002  34.813  1.00  0.00    -0.237 OA
ATOM     83  O   UNL A   1      37.022  30.419  32.862  1.00  0.00    -0.237 OA
ATOM     84  O   UNL A   1      38.360  28.336  33.000  1.00  0.00    -0.744 OA
ENDBRANCH  78  81
ENDBRANCH  50  74
BRANCH  62  85
ATOM     85  C   UNL A   1      44.855  24.068  33.190  1.00  0.00     0.023 A 
ATOM     86  C   UNL A   1      44.089  22.949  33.558  1.00  0.00     0.012 A 
ATOM     87  C   UNL A   1      46.167  24.156  33.728  1.00  0.00     0.148 A 
ATOM     88  C   UNL A   1      44.563  22.004  34.474  1.00  0.00     0.002 A 
ATOM     89  C   UNL A   1      46.675  23.155  34.546  1.00  0.00     0.091 A 
ATOM     90  F   UNL A   1      46.927  25.232  33.477  1.00  0.00    -0.205 F 
ATOM     91  C   UNL A   1      45.864  22.095  34.952  1.00  0.00     0.022 A 
BRANCH  89  92
ATOM     92  S   UNL A   1      48.419  23.123  34.984  1.00  0.00     0.127 S 
ATOM     93  O   UNL A   1      48.503  24.183  35.986  1.00  0.00    -0.237 OA
ATOM     94  O   UNL A   1      48.586  21.770  35.517  1.00  0.00    -0.237 OA
ATOM     95  O   UNL A   1      49.131  23.361  33.736  1.00  0.00    -0.744 OA
ENDBRANCH  89  92
ENDBRANCH  62  85
ENDBRANCH  36  37
ENDBRANCH  29  31
ENDBRANCH  28  29
ENDBRANCH   1  28
TORSDOF 16
ENDMDL
MODEL 2
REMARK VINA RESULT:     -13.9      4.695     10.362
REMARK SMILES Cc1ccccc1-c1c(Cl)ccc2c1C=C(C(=O)OCCOC(=O)c1ccc(-c3c4nc(c(-c5cccc(S(=O)(=O)[O-])c5F)c5ccc([nH]5)c(-c5cccc(S(=O)(=O)[O-])c5F)c5nc(c(-c6cccc(S(=O)(=O)[O-])c6F)c6ccc3[nH]6)C=C5)C=C4)cc1)[C@@H](C(F)(F)F)O2
REMARK SMILES IDX 21 1 20 2 19 3 17 4 18 5 16 6 8 7 9 8 14 9 10 10 11 11 13 12
REMARK SMILES IDX 15 13 12 14 93 15 88 16 7 17 1 18 2 19 3 20 4 21 6 22 5 23
REMARK SMILES IDX 89 24 90 25 91 26 92 27 22 28 23 29 24 30 25 31 26 32 87 33
REMARK SMILES IDX 27 34 86 35 28 36 29 37 30 38 80 39 31 40 85 41 79 42 81 43
REMARK SMILES IDX 32 44 84 45 78 46 77 47 33 49 65 50 45 51 64 52 46 53 49 54
REMARK SMILES IDX 63 55 82 56 47 57 48 58 62 60 83 61 50 62 34 63 35 64 43 65
REMARK SMILES IDX 36 66 38 67 44 68 37 69 39 70 40 71 41 72 42 73 66 74 67 75
REMARK SMILES IDX 75 76 68 77 70 78 76 79 69 80 71 81 72 82 73 83 74 84 51 85
REMARK SMILES IDX 52 86 60 87 53 88 55 89 61 90 54 91 56 92 57 93 58 94 59 95
REMARK H PARENT 81 48 49 59
REMARK Flexibility Score: inf
ROOT
ATOM      1  C   UNL A   1      38.663  22.485  26.231  1.00  0.00     0.275 C 
ENDROOT
BRANCH   1   2
ATOM      2  C   UNL A   1      37.523  22.247  25.232  1.00  0.00     0.275 C 
BRANCH   2   3
ATOM      3  O   UNL A   1      36.906  23.405  24.670  1.00  0.00    -0.459 OA
BRANCH   3   4
ATOM      4  C   UNL A   1      36.113  23.224  23.582  1.00  0.00     0.338 C 
ATOM      5  O   UNL A   1      36.490  23.067  22.436  1.00  0.00    -0.246 OA
BRANCH   4   6
ATOM      6  C   UNL A   1      34.702  23.319  24.007  1.00  0.00     0.087 C 
ATOM      7  C   UNL A   1      32.104  25.986  24.354  1.00  0.00     0.012 A 
ATOM      8  C   UNL A   1      30.811  26.114  23.768  1.00  0.00     0.049 A 
ATOM      9  C   UNL A   1      32.736  24.715  24.229  1.00  0.00     0.027 A 
ATOM     10  Cl  UNL A   1      30.025  27.653  23.572  1.00  0.00    -0.084 Cl
ATOM     11  C   UNL A   1      30.096  25.005  23.316  1.00  0.00     0.025 A 
ATOM     12  C   UNL A   1      31.989  23.604  23.788  1.00  0.00     0.128 A 
ATOM     13  C   UNL A   1      34.186  24.520  24.299  1.00  0.00     0.028 C 
ATOM     14  C   UNL A   1      30.660  23.744  23.407  1.00  0.00     0.049 A 
ATOM     15  O   UNL A   1      32.493  22.339  23.623  1.00  0.00    -0.475 OA
ATOM     16  C   UNL A   1      33.865  22.083  23.981  1.00  0.00     0.316 C 
BRANCH   7  17
ATOM     17  C   UNL A   1      32.590  27.083  25.258  1.00  0.00    -0.013 A 
ATOM     18  C   UNL A   1      34.113  28.382  23.619  1.00  0.00     0.045 C 
ATOM     19  C   UNL A   1      33.455  28.151  24.946  1.00  0.00    -0.043 A 
ATOM     20  C   UNL A   1      33.751  29.126  25.927  1.00  0.00     0.004 A 
ATOM     21  C   UNL A   1      33.174  29.094  27.192  1.00  0.00     0.000 A 
ATOM     22  C   UNL A   1      32.053  27.066  26.575  1.00  0.00     0.009 A 
ATOM     23  C   UNL A   1      32.314  28.063  27.517  1.00  0.00     0.001 A 
ENDBRANCH   7  17
BRANCH  16  24
ATOM     24  C   UNL A   1      33.912  21.371  25.336  1.00  0.00     0.430 C 
ATOM     25  F   UNL A   1      34.323  22.195  26.331  1.00  0.00    -0.167 F 
ATOM     26  F   UNL A   1      32.698  20.900  25.711  1.00  0.00    -0.167 F 
ATOM     27  F   UNL A   1      34.754  20.307  25.331  1.00  0.00    -0.167 F 
ENDBRANCH  16  24
ENDBRANCH   4   6
ENDBRANCH   3   4
ENDBRANCH   2   3
ENDBRANCH   1   2
BRANCH   1  28
ATOM     28  O   UNL A   1      38.913  23.846  26.655  1.00  0.00    -0.458 OA
BRANCH  28  29
ATOM     29  C   UNL A   1      40.148  24.419  26.813  1.00  0.00     0.338 C 
ATOM     30  O   UNL A   1      41.167  23.930  26.385  1.00  0.00    -0.246 OA
BRANCH  29  31
ATOM     31  C   UNL A   1      40.139  25.698  27.536  1.00  0.00     0.060 A 
ATOM     32  C   UNL A   1      40.425  26.887  26.860  1.00  0.00     0.016 A 
ATOM     33  C   UNL A   1      39.651  25.692  28.838  1.00  0.00     0.016 A 
ATOM     34  C   UNL A   1      40.040  28.096  27.434  1.00  0.00     0.010 A 
ATOM     35  C   UNL A   1      39.185  26.872  29.366  1.00  0.00     0.010 A 
ATOM     36  C   UNL A   1      39.372  28.073  28.665  1.00  0.00    -0.014 A 
BRANCH  36  37
ATOM     37  C   UNL A   1      39.152  29.273  29.462  1.00  0.00     0.031 A 
ATOM     38  C   UNL A   1      38.131  30.266  29.112  1.00  0.00     0.074 A 
ATOM     39  C   UNL A   1      40.036  29.436  30.467  1.00  0.00     0.049 A 
ATOM     40  N   UNL A   1      38.386  31.497  28.825  1.00  0.00    -0.248 NA
ATOM     41  C   UNL A   1      36.716  29.914  29.048  1.00  0.00     0.031 C 
ATOM     42  C   UNL A   1      40.125  30.466  31.477  1.00  0.00     0.029 A 
ATOM     43  N   UNL A   1      41.220  28.700  30.608  1.00  0.00    -0.354 N 
ATOM     44  C   UNL A   1      37.166  32.146  28.802  1.00  0.00     0.074 A 
ATOM     45  C   UNL A   1      36.159  31.109  28.814  1.00  0.00     0.031 C 
ATOM     46  C   UNL A   1      41.399  30.495  31.924  1.00  0.00     0.029 A 
ATOM     47  C   UNL A   1      42.184  29.555  31.123  1.00  0.00     0.049 A 
ATOM     48  H   UNL A   1      41.346  27.750  30.382  1.00  0.00     0.167 HD
ATOM     49  C   UNL A   1      37.058  33.470  29.110  1.00  0.00     0.034 A 
ATOM     50  C   UNL A   1      43.344  29.795  30.444  1.00  0.00     0.034 A 
ATOM     51  C   UNL A   1      38.294  33.911  29.749  1.00  0.00     0.049 A 
ATOM     52  C   UNL A   1      43.422  31.260  30.075  1.00  0.00     0.074 A 
ATOM     53  C   UNL A   1      38.646  33.830  31.088  1.00  0.00     0.029 A 
ATOM     54  N   UNL A   1      39.464  34.129  29.036  1.00  0.00    -0.354 N 
ATOM     55  N   UNL A   1      42.381  32.040  29.975  1.00  0.00    -0.248 NA
ATOM     56  C   UNL A   1      44.673  31.948  29.781  1.00  0.00     0.031 C 
ATOM     57  C   UNL A   1      40.050  33.916  31.178  1.00  0.00     0.029 A 
ATOM     58  C   UNL A   1      40.551  34.093  29.901  1.00  0.00     0.049 A 
ATOM     59  H   UNL A   1      39.517  34.286  28.066  1.00  0.00     0.167 HD
ATOM     60  C   UNL A   1      42.788  33.299  29.617  1.00  0.00     0.074 A 
ATOM     61  C   UNL A   1      44.235  33.191  29.519  1.00  0.00     0.031 C 
ATOM     62  C   UNL A   1      41.906  34.330  29.436  1.00  0.00     0.034 A 
BRANCH  49  63
ATOM     63  C   UNL A   1      35.712  34.129  29.351  1.00  0.00     0.023 A 
ATOM     64  C   UNL A   1      35.051  34.721  28.253  1.00  0.00     0.012 A 
ATOM     65  C   UNL A   1      35.085  34.253  30.614  1.00  0.00     0.148 A 
ATOM     66  C   UNL A   1      33.906  35.507  28.404  1.00  0.00     0.002 A 
ATOM     67  C   UNL A   1      33.958  35.068  30.773  1.00  0.00     0.091 A 
ATOM     68  F   UNL A   1      35.601  33.591  31.661  1.00  0.00    -0.205 F 
ATOM     69  C   UNL A   1      33.377  35.707  29.669  1.00  0.00     0.022 A 
BRANCH  67  70
ATOM     70  S   UNL A   1      33.241  35.458  32.379  1.00  0.00     0.127 S 
ATOM     71  O   UNL A   1      32.866  34.132  32.874  1.00  0.00    -0.237 OA
ATOM     72  O   UNL A   1      34.361  36.075  33.086  1.00  0.00    -0.237 OA
ATOM     73  O   UNL A   1      32.108  36.337  32.115  1.00  0.00    -0.744 OA
ENDBRANCH  67  70
ENDBRANCH  49  63
BRANCH  50  74
ATOM     74  C   UNL A   1      43.856  28.675  29.569  1.00  0.00     0.023 A 
ATOM     75  C   UNL A   1      44.037  27.385  30.137  1.00  0.00     0.012 A 
ATOM     76  C   UNL A   1      43.936  28.775  28.174  1.00  0.00     0.148 A 
ATOM     77  C   UNL A   1      44.156  26.235  29.344  1.00  0.00     0.002 A 
ATOM     78  C   UNL A   1      44.060  27.622  27.389  1.00  0.00     0.091 A 
ATOM     79  F   UNL A   1      43.842  29.981  27.597  1.00  0.00    -0.205 F 
ATOM     80  C   UNL A   1      44.140  26.350  27.963  1.00  0.00     0.022 A 
BRANCH  78  81
ATOM     81  S   UNL A   1      43.898  27.772  25.615  1.00  0.00     0.127 S 
ATOM     82  O   UNL A   1      43.495  26.435  25.184  1.00  0.00    -0.237 OA
ATOM     83  O   UNL A   1      42.849  28.773  25.503  1.00  0.00    -0.237 OA
ATOM     84  O   UNL A   1      45.237  28.177  25.205  1.00  0.00    -0.744 OA
ENDBRANCH  78  81
ENDBRANCH  50  74
BRANCH  62  85
ATOM     85  C   UNL A   1      42.256  35.705  28.920  1.00  0.00     0.023 A 
ATOM     86  C   UNL A   1      41.672  36.238  27.758  1.00  0.00     0.012 A 
ATOM     87  C   UNL A   1      43.101  36.566  29.670  1.00  0.00     0.148 A 
ATOM     88  C   UNL A   1      41.969  37.530  27.315  1.00  0.00     0.002 A 
ATOM     89  C   UNL A   1      43.301  37.886  29.288  1.00  0.00     0.091 A 
ATOM     90  F   UNL A   1      43.748  36.102  30.749  1.00  0.00    -0.205 F 
ATOM     91  C   UNL A   1      42.766  38.363  28.090  1.00  0.00     0.022 A 
BRANCH  89  92
ATOM     92  S   UNL A   1      44.126  39.047  30.386  1.00  0.00     0.127 S 
ATOM     93  O   UNL A   1      45.513  38.594  30.323  1.00  0.00    -0.237 OA
ATOM     94  O   UNL A   1      43.876  40.333  29.732  1.00  0.00    -0.237 OA
ATOM     95  O   UNL A   1      43.458  38.896  31.672  1.00  0.00    -0.744 OA
ENDBRANCH  89  92
ENDBRANCH  62  85
ENDBRANCH  36  37
ENDBRANCH  29  31
ENDBRANCH  28  29
ENDBRANCH   1  28
TORSDOF 16
ENDMDL
MODEL 3
REMARK VINA RESULT:     -13.9      4.736     10.470
REMARK SMILES Cc1ccccc1-c1c(Cl)ccc2c1C=C(C(=O)OCCOC(=O)c1ccc(-c3c4nc(c(-c5cccc(S(=O)(=O)[O-])c5F)c5ccc([nH]5)c(-c5cccc(S(=O)(=O)[O-])c5F)c5nc(c(-c6cccc(S(=O)(=O)[O-])c6F)c6ccc3[nH]6)C=C5)C=C4)cc1)[C@@H](C(F)(F)F)O2
REMARK SMILES IDX 21 1 20 2 19 3 17 4 18 5 16 6 8 7 9 8 14 9 10 10 11 11 13 12
REMARK SMILES IDX 15 13 12 14 93 15 88 16 7 17 1 18 2 19 3 20 4 21 6 22 5 23
REMARK SMILES IDX 89 24 90 25 91 26 92 27 22 28 23 29 24 30 25 31 26 32 87 33
REMARK SMILES IDX 27 34 86 35 28 36 29 37 30 38 80 39 31 40 85 41 79 42 81 43
REMARK SMILES IDX 32 44 84 45 78 46 77 47 33 49 65 50 45 51 64 52 46 53 49 54
REMARK SMILES IDX 63 55 82 56 47 57 48 58 62 60 83 61 50 62 34 63 35 64 43 65
REMARK SMILES IDX 36 66 38 67 44 68 37 69 39 70 40 71 41 72 42 73 66 74 67 75
REMARK SMILES IDX 75 76 68 77 70 78 76 79 69 80 71 81 72 82 73 83 74 84 51 85
REMARK SMILES IDX 52 86 60 87 53 88 55 89 61 90 54 91 56 92 57 93 58 94 59 95
REMARK H PARENT 81 48 49 59
REMARK Flexibility Score: inf
ROOT
ATOM      1  C   UNL A   1      37.802  23.703  25.797  1.00  0.00     0.275 C 
ENDROOT
BRANCH   1   2
ATOM      2  C   UNL A   1      37.614  22.255  25.326  1.00  0.00     0.275 C 
BRANCH   2   3
ATOM      3  O   UNL A   1      36.340  21.917  24.779  1.00  0.00    -0.459 OA
BRANCH   3   4
ATOM      4  C   UNL A   1      35.247  22.145  25.554  1.00  0.00     0.338 C 
ATOM      5  O   UNL A   1      35.096  21.789  26.707  1.00  0.00    -0.246 OA
BRANCH   4   6
ATOM      6  C   UNL A   1      34.231  22.843  24.739  1.00  0.00     0.087 C 
ATOM      7  C   UNL A   1      33.265  26.374  23.977  1.00  0.00     0.012 A 
ATOM      8  C   UNL A   1      33.175  27.072  22.737  1.00  0.00     0.049 A 
ATOM      9  C   UNL A   1      33.402  24.957  23.901  1.00  0.00     0.027 A 
ATOM     10  Cl  UNL A   1      33.296  28.803  22.632  1.00  0.00    -0.084 Cl
ATOM     11  C   UNL A   1      32.982  26.402  21.530  1.00  0.00     0.025 A 
ATOM     12  C   UNL A   1      33.184  24.299  22.673  1.00  0.00     0.128 A 
ATOM     13  C   UNL A   1      33.993  24.141  24.964  1.00  0.00     0.028 C 
ATOM     14  C   UNL A   1      32.904  25.020  21.518  1.00  0.00     0.049 A 
ATOM     15  O   UNL A   1      33.294  22.946  22.481  1.00  0.00    -0.475 OA
ATOM     16  C   UNL A   1      33.590  22.103  23.612  1.00  0.00     0.316 C 
BRANCH   7  17
ATOM     17  C   UNL A   1      32.961  27.123  25.242  1.00  0.00    -0.013 A 
ATOM     18  C   UNL A   1      30.536  26.330  25.670  1.00  0.00     0.045 C 
ATOM     19  C   UNL A   1      31.777  27.099  26.007  1.00  0.00    -0.043 A 
ATOM     20  C   UNL A   1      31.704  27.835  27.214  1.00  0.00     0.004 A 
ATOM     21  C   UNL A   1      32.789  28.554  27.702  1.00  0.00     0.000 A 
ATOM     22  C   UNL A   1      34.033  27.903  25.759  1.00  0.00     0.009 A 
ATOM     23  C   UNL A   1      33.964  28.582  26.976  1.00  0.00     0.001 A 
ENDBRANCH   7  17
BRANCH  16  24
ATOM     24  C   UNL A   1      32.304  21.414  24.081  1.00  0.00     0.430 C 
ATOM     25  F   UNL A   1      32.151  20.188  23.523  1.00  0.00    -0.167 F 
ATOM     26  F   UNL A   1      32.282  21.225  25.423  1.00  0.00    -0.167 F 
ATOM     27  F   UNL A   1      31.193  22.129  23.773  1.00  0.00    -0.167 F 
ENDBRANCH  16  24
ENDBRANCH   4   6
ENDBRANCH   3   4
ENDBRANCH   2   3
ENDBRANCH   1   2
BRANCH   1  28
ATOM     28  O   UNL A   1      38.563  23.924  27.008  1.00  0.00    -0.458 OA
BRANCH  28  29
ATOM     29  C   UNL A   1      39.802  24.505  27.076  1.00  0.00     0.338 C 
ATOM     30  O   UNL A   1      40.797  24.009  26.602  1.00  0.00    -0.246 OA
BRANCH  29  31
ATOM     31  C   UNL A   1      39.829  25.804  27.764  1.00  0.00     0.060 A 
ATOM     32  C   UNL A   1      40.152  26.965  27.056  1.00  0.00     0.016 A 
ATOM     33  C   UNL A   1      39.338  25.849  29.064  1.00  0.00     0.016 A 
ATOM     34  C   UNL A   1      39.800  28.200  27.595  1.00  0.00     0.010 A 
ATOM     35  C   UNL A   1      38.905  27.056  29.557  1.00  0.00     0.010 A 
ATOM     36  C   UNL A   1      39.129  28.231  28.823  1.00  0.00    -0.014 A 
BRANCH  36  37
ATOM     37  C   UNL A   1      38.942  29.459  29.586  1.00  0.00     0.031 A 
ATOM     38  C   UNL A   1      37.934  30.459  29.221  1.00  0.00     0.074 A 
ATOM     39  C   UNL A   1      39.844  29.636  30.573  1.00  0.00     0.049 A 
ATOM     40  N   UNL A   1      38.205  31.675  28.892  1.00  0.00    -0.248 NA
ATOM     41  C   UNL A   1      36.511  30.130  29.189  1.00  0.00     0.031 C 
ATOM     42  C   UNL A   1      39.967  30.696  31.549  1.00  0.00     0.029 A 
ATOM     43  N   UNL A   1      41.017  28.884  30.719  1.00  0.00    -0.354 N 
ATOM     44  C   UNL A   1      36.997  32.345  28.867  1.00  0.00     0.074 A 
ATOM     45  C   UNL A   1      35.972  31.327  28.926  1.00  0.00     0.031 C 
ATOM     46  C   UNL A   1      41.247  30.715  31.976  1.00  0.00     0.029 A 
ATOM     47  C   UNL A   1      42.004  29.738  31.192  1.00  0.00     0.049 A 
ATOM     48  H   UNL A   1      41.123  27.926  30.521  1.00  0.00     0.167 HD
ATOM     49  C   UNL A   1      36.916  33.680  29.135  1.00  0.00     0.034 A 
ATOM     50  C   UNL A   1      43.157  29.935  30.489  1.00  0.00     0.034 A 
ATOM     51  C   UNL A   1      38.169  34.118  29.742  1.00  0.00     0.049 A 
ATOM     52  C   UNL A   1      43.255  31.387  30.074  1.00  0.00     0.074 A 
ATOM     53  C   UNL A   1      38.541  34.071  31.078  1.00  0.00     0.029 A 
ATOM     54  N   UNL A   1      39.332  34.293  29.005  1.00  0.00    -0.354 N 
ATOM     55  N   UNL A   1      42.226  32.182  29.965  1.00  0.00    -0.248 NA
ATOM     56  C   UNL A   1      44.514  32.043  29.740  1.00  0.00     0.031 C 
ATOM     57  C   UNL A   1      39.947  34.135  31.144  1.00  0.00     0.029 A 
ATOM     58  C   UNL A   1      40.432  34.264  29.855  1.00  0.00     0.049 A 
ATOM     59  H   UNL A   1      39.373  34.419  28.030  1.00  0.00     0.167 HD
ATOM     60  C   UNL A   1      42.650  33.422  29.562  1.00  0.00     0.074 A 
ATOM     61  C   UNL A   1      44.093  33.285  29.446  1.00  0.00     0.031 C 
ATOM     62  C   UNL A   1      41.783  34.462  29.363  1.00  0.00     0.034 A 
BRANCH  49  63
ATOM     63  C   UNL A   1      35.587  34.370  29.376  1.00  0.00     0.023 A 
ATOM     64  C   UNL A   1      34.962  35.016  28.287  1.00  0.00     0.012 A 
ATOM     65  C   UNL A   1      34.941  34.471  30.631  1.00  0.00     0.148 A 
ATOM     66  C   UNL A   1      33.838  35.830  28.445  1.00  0.00     0.002 A 
ATOM     67  C   UNL A   1      33.835  35.314  30.798  1.00  0.00     0.091 A 
ATOM     68  F   UNL A   1      35.420  33.761  31.665  1.00  0.00    -0.205 F 
ATOM     69  C   UNL A   1      33.293  36.005  29.707  1.00  0.00     0.022 A 
BRANCH  67  70
ATOM     70  S   UNL A   1      33.102  35.672  32.405  1.00  0.00     0.127 S 
ATOM     71  O   UNL A   1      31.912  36.440  32.030  1.00  0.00    -0.237 OA
ATOM     72  O   UNL A   1      32.822  34.338  32.931  1.00  0.00    -0.237 OA
ATOM     73  O   UNL A   1      34.098  36.439  33.142  1.00  0.00    -0.744 OA
ENDBRANCH  67  70
ENDBRANCH  49  63
BRANCH  50  74
ATOM     74  C   UNL A   1      43.637  28.780  29.642  1.00  0.00     0.023 A 
ATOM     75  C   UNL A   1      43.793  27.502  30.245  1.00  0.00     0.012 A 
ATOM     76  C   UNL A   1      43.707  28.840  28.245  1.00  0.00     0.148 A 
ATOM     77  C   UNL A   1      43.878  26.329  29.483  1.00  0.00     0.002 A 
ATOM     78  C   UNL A   1      43.798  27.663  27.491  1.00  0.00     0.091 A 
ATOM     79  F   UNL A   1      43.635  30.031  27.635  1.00  0.00    -0.205 F 
ATOM     80  C   UNL A   1      43.853  26.406  28.100  1.00  0.00     0.022 A 
BRANCH  78  81
ATOM     81  S   UNL A   1      43.624  27.767  25.715  1.00  0.00     0.127 S 
ATOM     82  O   UNL A   1      44.954  28.158  25.254  1.00  0.00    -0.237 OA
ATOM     83  O   UNL A   1      43.257  26.402  25.378  1.00  0.00    -0.237 OA
ATOM     84  O   UNL A   1      42.590  28.784  25.554  1.00  0.00    -0.744 OA
ENDBRANCH  78  81
ENDBRANCH  50  74
BRANCH  62  85
ATOM     85  C   UNL A   1      42.149  35.814  28.799  1.00  0.00     0.023 A 
ATOM     86  C   UNL A   1      41.604  36.295  27.597  1.00  0.00     0.012 A 
ATOM     87  C   UNL A   1      42.968  36.709  29.538  1.00  0.00     0.148 A 
ATOM     88  C   UNL A   1      41.915  37.568  27.107  1.00  0.00     0.002 A 
ATOM     89  C   UNL A   1      43.179  38.012  29.106  1.00  0.00     0.091 A 
ATOM     90  F   UNL A   1      43.579  36.294  30.658  1.00  0.00    -0.205 F 
ATOM     91  C   UNL A   1      42.685  38.434  27.872  1.00  0.00     0.022 A 
BRANCH  89  92
ATOM     92  S   UNL A   1      43.967  39.221  30.179  1.00  0.00     0.127 S 
ATOM     93  O   UNL A   1      45.383  38.912  30.002  1.00  0.00    -0.237 OA
ATOM     94  O   UNL A   1      43.543  40.491  29.587  1.00  0.00    -0.237 OA
ATOM     95  O   UNL A   1      43.415  38.972  31.504  1.00  0.00    -0.744 OA
ENDBRANCH  89  92
ENDBRANCH  62  85
ENDBRANCH  36  37
ENDBRANCH  29  31
ENDBRANCH  28  29
ENDBRANCH   1  28
TORSDOF 16
ENDMDL
