MODEL 1
REMARK VINA RESULT:     -12.1      0.000      0.000
REMARK SMILES Cc1nn(C(C)C)c(C)c1S(=O)(=O)Nc1cccc(C(=O)OCCOC(=O)c2ccc(-c3c4nc(c(-c5cccc(S(=O)(=O)[O-])c5F)c5ccc([nH]5)c(-c5cccc(S(=O)(=O)[O-])c5F)c5nc(c(-c6cccc(S(=O)(=O)[O-])c6F)c6ccc3[nH]6)C=C5)C=C4)cc2)c1C
REMARK SMILES IDX 23 1 22 2 20 3 21 4 19 5 15 6 16 7 91 8 17 9 92 10 18 11
REMARK SMILES IDX 14 12 11 14 12 15 13 16 10 17 1 18 2 19 3 20 4 21 8 22 9 23
REMARK SMILES IDX 5 24 6 25 7 26 24 27 25 28 26 29 27 30 28 31 29 32 90 33
REMARK SMILES IDX 30 34 89 35 31 36 32 37 33 38 83 39 34 40 88 41 82 42 84 43
REMARK SMILES IDX 35 44 87 45 81 46 80 47 36 49 68 50 48 51 67 52 49 53 52 54
REMARK SMILES IDX 66 55 85 56 50 57 51 58 65 60 86 61 53 62 37 63 38 64 46 65
REMARK SMILES IDX 39 66 41 67 47 68 40 69 42 70 43 71 44 72 45 73 69 74 70 75
REMARK SMILES IDX 78 76 71 77 73 78 79 79 72 80 74 81 75 82 76 83 77 84 54 85
REMARK SMILES IDX 55 86 63 87 56 88 58 89 64 90 57 91 59 92 60 93 61 94 62 95
REMARK H PARENT 14 13 84 48 52 59
REMARK Flexibility Score: inf
ROOT
ATOM      1  C   UNL A   1      42.934  18.450  25.805  1.00  0.00     0.275 C 
ENDROOT
BRANCH   1   2
ATOM      2  O   UNL A   1      42.034  19.482  25.366  1.00  0.00    -0.458 OA
BRANCH   2   3
ATOM      3  C   UNL A   1      40.913  19.846  26.299  1.00  0.00     0.338 C 
ATOM      4  O   UNL A   1      41.048  18.898  27.139  1.00  0.00    -0.246 OA
BRANCH   3   5
ATOM      5  C   UNL A   1      39.568  21.534  26.192  1.00  0.00     0.065 A 
ATOM      6  C   UNL A   1      37.362  23.040  25.310  1.00  0.00     0.053 A 
ATOM      7  C   UNL A   1      37.679  24.129  26.078  1.00  0.00     0.027 A 
ATOM      8  C   UNL A   1      38.099  21.749  25.487  1.00  0.00    -0.012 A 
ATOM      9  C   UNL A   1      38.863  24.097  26.772  1.00  0.00     0.003 A 
ATOM     10  C   UNL A   1      37.056  20.643  25.083  1.00  0.00     0.047 C 
ATOM     11  C   UNL A   1      39.734  22.962  26.745  1.00  0.00     0.016 A 
BRANCH   6  12
ATOM     12  N   UNL A   1      36.264  23.163  24.389  1.00  0.00    -0.279 N 
ATOM     13  H   UNL A   1      36.534  23.190  23.442  1.00  0.00     0.180 HD
BRANCH  12  14
ATOM     14  S   UNL A   1      34.614  23.271  24.631  1.00  0.00     0.265 S 
ATOM     15  O   UNL A   1      34.400  23.478  26.052  1.00  0.00    -0.201 OA
ATOM     16  O   UNL A   1      34.113  22.048  24.030  1.00  0.00    -0.201 OA
BRANCH  14  17
ATOM     17  C   UNL A   1      33.624  24.500  23.920  1.00  0.00     0.131 A 
ATOM     18  C   UNL A   1      33.063  23.663  21.476  1.00  0.00     0.070 C 
ATOM     19  C   UNL A   1      33.074  24.573  22.621  1.00  0.00     0.080 A 
ATOM     20  N   UNL A   1      32.535  25.763  22.376  1.00  0.00    -0.176 NA
ATOM     21  N   UNL A   1      32.740  26.478  23.476  1.00  0.00    -0.266 N 
ATOM     22  C   UNL A   1      33.375  25.769  24.467  1.00  0.00     0.056 A 
ATOM     23  C   UNL A   1      33.717  26.380  25.779  1.00  0.00     0.068 C 
BRANCH  21  24
ATOM     24  C   UNL A   1      32.407  27.899  23.390  1.00  0.00     0.101 C 
ATOM     25  C   UNL A   1      33.611  28.693  22.862  1.00  0.00     0.033 C 
ATOM     26  C   UNL A   1      31.187  28.117  22.491  1.00  0.00     0.033 C 
ENDBRANCH  21  24
ENDBRANCH  14  17
ENDBRANCH  12  14
ENDBRANCH   6  12
ENDBRANCH   3   5
ENDBRANCH   2   3
ENDBRANCH   1   2
BRANCH   1  27
ATOM     27  C   UNL A   1      44.378  18.970  25.716  1.00  0.00     0.275 C 
BRANCH  27  28
ATOM     28  O   UNL A   1      44.585  20.131  24.867  1.00  0.00    -0.458 OA
BRANCH  28  29
ATOM     29  C   UNL A   1      44.906  21.319  25.457  1.00  0.00     0.338 C 
ATOM     30  O   UNL A   1      46.025  21.672  25.780  1.00  0.00    -0.246 OA
BRANCH  29  31
ATOM     31  C   UNL A   1      43.673  22.040  25.846  1.00  0.00     0.060 A 
ATOM     32  C   UNL A   1      43.234  23.415  24.771  1.00  0.00     0.016 A 
ATOM     33  C   UNL A   1      43.451  22.187  27.617  1.00  0.00     0.016 A 
ATOM     34  C   UNL A   1      42.593  25.008  25.499  1.00  0.00     0.010 A 
ATOM     35  C   UNL A   1      42.855  23.771  28.340  1.00  0.00     0.010 A 
ATOM     36  C   UNL A   1      42.459  25.184  27.285  1.00  0.00    -0.014 A 
BRANCH  36  37
ATOM     37  C   UNL A   1      42.769  26.458  27.980  1.00  0.00     0.031 A 
ATOM     38  C   UNL A   1      41.623  27.338  28.325  1.00  0.00     0.074 A 
ATOM     39  C   UNL A   1      43.997  26.705  28.518  1.00  0.00     0.049 A 
ATOM     40  N   UNL A   1      41.721  28.445  28.968  1.00  0.00    -0.248 NA
ATOM     41  C   UNL A   1      40.244  27.049  27.937  1.00  0.00     0.031 C 
ATOM     42  C   UNL A   1      44.308  27.579  29.656  1.00  0.00     0.029 A 
ATOM     43  N   UNL A   1      45.261  26.250  28.158  1.00  0.00    -0.354 N 
ATOM     44  C   UNL A   1      40.462  28.963  29.174  1.00  0.00     0.074 A 
ATOM     45  C   UNL A   1      39.570  28.046  28.522  1.00  0.00     0.031 C 
ATOM     46  C   UNL A   1      45.637  27.746  29.767  1.00  0.00     0.029 A 
ATOM     47  C   UNL A   1      46.257  27.129  28.613  1.00  0.00     0.049 A 
ATOM     48  H   UNL A   1      45.434  25.423  27.653  1.00  0.00     0.167 HD
ATOM     49  C   UNL A   1      40.353  30.101  29.912  1.00  0.00     0.034 A 
ATOM     50  C   UNL A   1      47.136  27.784  27.784  1.00  0.00     0.034 A 
ATOM     51  C   UNL A   1      41.683  30.716  30.046  1.00  0.00     0.049 A 
ATOM     52  C   UNL A   1      46.822  29.290  27.687  1.00  0.00     0.074 A 
ATOM     53  C   UNL A   1      42.657  30.664  31.025  1.00  0.00     0.029 A 
ATOM     54  N   UNL A   1      42.296  31.224  28.902  1.00  0.00    -0.354 N 
ATOM     55  N   UNL A   1      45.830  29.881  28.296  1.00  0.00    -0.248 NA
ATOM     56  C   UNL A   1      47.550  30.224  26.822  1.00  0.00     0.031 C 
ATOM     57  C   UNL A   1      43.891  31.031  30.424  1.00  0.00     0.029 A 
ATOM     58  C   UNL A   1      43.659  31.380  29.104  1.00  0.00     0.049 A 
ATOM     59  H   UNL A   1      41.825  31.443  28.065  1.00  0.00     0.167 HD
ATOM     60  C   UNL A   1      45.636  31.130  27.763  1.00  0.00     0.074 A 
ATOM     61  C   UNL A   1      46.780  31.323  26.891  1.00  0.00     0.031 C 
ATOM     62  C   UNL A   1      44.519  31.875  28.030  1.00  0.00     0.034 A 
BRANCH  49  63
ATOM     63  C   UNL A   1      39.128  30.626  30.645  1.00  0.00     0.023 A 
ATOM     64  C   UNL A   1      38.974  30.198  31.986  1.00  0.00     0.012 A 
ATOM     65  C   UNL A   1      38.054  31.386  30.116  1.00  0.00     0.148 A 
ATOM     66  C   UNL A   1      37.818  30.444  32.735  1.00  0.00     0.002 A 
ATOM     67  C   UNL A   1      36.903  31.651  30.872  1.00  0.00     0.091 A 
ATOM     68  F   UNL A   1      38.106  31.842  28.865  1.00  0.00    -0.205 F 
ATOM     69  C   UNL A   1      36.776  31.165  32.175  1.00  0.00     0.022 A 
BRANCH  67  70
ATOM     70  S   UNL A   1      35.494  32.582  30.233  1.00  0.00     0.127 S 
ATOM     71  O   UNL A   1      34.489  32.372  31.275  1.00  0.00    -0.237 OA
ATOM     72  O   UNL A   1      36.021  33.945  30.167  1.00  0.00    -0.237 OA
ATOM     73  O   UNL A   1      35.158  31.995  28.941  1.00  0.00    -0.744 OA
ENDBRANCH  67  70
ENDBRANCH  49  63
BRANCH  50  74
ATOM     74  C   UNL A   1      47.542  26.964  26.592  1.00  0.00     0.023 A 
ATOM     75  C   UNL A   1      47.035  27.344  25.327  1.00  0.00     0.012 A 
ATOM     76  C   UNL A   1      48.760  26.290  26.656  1.00  0.00     0.148 A 
ATOM     77  C   UNL A   1      47.871  27.322  24.207  1.00  0.00     0.002 A 
ATOM     78  C   UNL A   1      49.619  26.364  25.581  1.00  0.00     0.091 A 
ATOM     79  F   UNL A   1      49.155  25.702  27.788  1.00  0.00    -0.205 F 
ATOM     80  C   UNL A   1      49.187  26.877  24.349  1.00  0.00     0.022 A 
BRANCH  78  81
ATOM     81  S   UNL A   1      51.366  26.204  25.982  1.00  0.00     0.127 S 
ATOM     82  O   UNL A   1      52.010  26.659  24.753  1.00  0.00    -0.237 OA
ATOM     83  O   UNL A   1      51.508  27.116  27.111  1.00  0.00    -0.237 OA
ATOM     84  O   UNL A   1      51.525  24.781  26.256  1.00  0.00    -0.744 OA
ENDBRANCH  78  81
ENDBRANCH  50  74
BRANCH  62  85
ATOM     85  C   UNL A   1      44.162  33.178  27.337  1.00  0.00     0.023 A 
ATOM     86  C   UNL A   1      43.903  33.261  25.954  1.00  0.00     0.012 A 
ATOM     87  C   UNL A   1      43.970  34.363  28.093  1.00  0.00     0.148 A 
ATOM     88  C   UNL A   1      43.591  34.478  25.335  1.00  0.00     0.002 A 
ATOM     89  C   UNL A   1      43.527  35.537  27.492  1.00  0.00     0.091 A 
ATOM     90  F   UNL A   1      44.248  34.371  29.403  1.00  0.00    -0.205 F 
ATOM     91  C   UNL A   1      43.387  35.614  26.106  1.00  0.00     0.022 A 
BRANCH  89  92
ATOM     92  S   UNL A   1      42.983  36.942  28.473  1.00  0.00     0.127 S 
ATOM     93  O   UNL A   1      42.542  37.879  27.441  1.00  0.00    -0.237 OA
ATOM     94  O   UNL A   1      41.900  36.361  29.271  1.00  0.00    -0.237 OA
ATOM     95  O   UNL A   1      44.144  37.350  29.251  1.00  0.00    -0.744 OA
ENDBRANCH  89  92
ENDBRANCH  62  85
ENDBRANCH  36  37
ENDBRANCH  29  31
ENDBRANCH  28  29
ENDBRANCH  27  28
ENDBRANCH   1  27
TORSDOF 18
ENDMDL
MODEL 2
REMARK VINA RESULT:     -12.0      3.916     10.406
REMARK SMILES Cc1nn(C(C)C)c(C)c1S(=O)(=O)Nc1cccc(C(=O)OCCOC(=O)c2ccc(-c3c4nc(c(-c5cccc(S(=O)(=O)[O-])c5F)c5ccc([nH]5)c(-c5cccc(S(=O)(=O)[O-])c5F)c5nc(c(-c6cccc(S(=O)(=O)[O-])c6F)c6ccc3[nH]6)C=C5)C=C4)cc2)c1C
REMARK SMILES IDX 23 1 22 2 20 3 21 4 19 5 15 6 16 7 91 8 17 9 92 10 18 11
REMARK SMILES IDX 14 12 11 14 12 15 13 16 10 17 1 18 2 19 3 20 4 21 8 22 9 23
REMARK SMILES IDX 5 24 6 25 7 26 24 27 25 28 26 29 27 30 28 31 29 32 90 33
REMARK SMILES IDX 30 34 89 35 31 36 32 37 33 38 83 39 34 40 88 41 82 42 84 43
REMARK SMILES IDX 35 44 87 45 81 46 80 47 36 49 68 50 48 51 67 52 49 53 52 54
REMARK SMILES IDX 66 55 85 56 50 57 51 58 65 60 86 61 53 62 37 63 38 64 46 65
REMARK SMILES IDX 39 66 41 67 47 68 40 69 42 70 43 71 44 72 45 73 69 74 70 75
REMARK SMILES IDX 78 76 71 77 73 78 79 79 72 80 74 81 75 82 76 83 77 84 54 85
REMARK SMILES IDX 55 86 63 87 56 88 58 89 64 90 57 91 59 92 60 93 61 94 62 95
REMARK H PARENT 14 13 84 48 52 59
REMARK Flexibility Score: inf
ROOT
ATOM      1  C   UNL A   1      33.930  33.368  27.942  1.00  0.00     0.275 C 
ENDROOT
BRANCH   1   2
ATOM      2  O   UNL A   1      33.039  32.242  27.881  1.00  0.00    -0.458 OA
BRANCH   2   3
ATOM      3  C   UNL A   1      33.450  31.100  26.993  1.00  0.00     0.338 C 
ATOM      4  O   UNL A   1      34.710  31.282  27.018  1.00  0.00    -0.246 OA
BRANCH   3   5
ATOM      5  C   UNL A   1      32.199  29.611  26.051  1.00  0.00     0.065 A 
ATOM      6  C   UNL A   1      30.866  27.151  25.762  1.00  0.00     0.053 A 
ATOM      7  C   UNL A   1      30.370  27.458  24.522  1.00  0.00     0.027 A 
ATOM      8  C   UNL A   1      31.548  28.198  26.584  1.00  0.00    -0.012 A 
ATOM      9  C   UNL A   1      30.782  28.634  23.944  1.00  0.00     0.003 A 
ATOM     10  C   UNL A   1      31.281  27.765  28.073  1.00  0.00     0.047 C 
ATOM     11  C   UNL A   1      31.665  29.543  24.608  1.00  0.00     0.016 A 
BRANCH   6  12
ATOM     12  N   UNL A   1      30.646  25.820  26.263  1.00  0.00    -0.279 N 
ATOM     13  H   UNL A   1      29.820  25.720  26.789  1.00  0.00     0.180 HD
BRANCH  12  14
ATOM     14  S   UNL A   1      31.537  24.414  26.117  1.00  0.00     0.265 S 
ATOM     15  O   UNL A   1      30.949  23.642  25.038  1.00  0.00    -0.201 OA
ATOM     16  O   UNL A   1      31.501  23.861  27.459  1.00  0.00    -0.201 OA
BRANCH  14  17
ATOM     17  C   UNL A   1      33.222  24.391  25.721  1.00  0.00     0.131 A 
ATOM     18  C   UNL A   1      33.490  25.903  23.570  1.00  0.00     0.070 C 
ATOM     19  C   UNL A   1      33.903  25.005  24.648  1.00  0.00     0.080 A 
ATOM     20  N   UNL A   1      35.166  24.597  24.561  1.00  0.00    -0.176 NA
ATOM     21  N   UNL A   1      35.320  23.712  25.541  1.00  0.00    -0.266 N 
ATOM     22  C   UNL A   1      34.188  23.553  26.304  1.00  0.00     0.056 A 
ATOM     23  C   UNL A   1      34.133  22.601  27.444  1.00  0.00     0.068 C 
BRANCH  21  24
ATOM     24  C   UNL A   1      36.578  22.967  25.541  1.00  0.00     0.101 C 
ATOM     25  C   UNL A   1      36.936  22.536  24.112  1.00  0.00     0.033 C 
ATOM     26  C   UNL A   1      37.706  23.808  26.146  1.00  0.00     0.033 C 
ENDBRANCH  21  24
ENDBRANCH  14  17
ENDBRANCH  12  14
ENDBRANCH   6  12
ENDBRANCH   3   5
ENDBRANCH   2   3
ENDBRANCH   1   2
BRANCH   1  27
ATOM     27  C   UNL A   1      34.373  33.580  29.399  1.00  0.00     0.275 C 
BRANCH  27  28
ATOM     28  O   UNL A   1      34.742  32.381  30.133  1.00  0.00    -0.458 OA
BRANCH  28  29
ATOM     29  C   UNL A   1      36.067  32.082  30.267  1.00  0.00     0.338 C 
ATOM     30  O   UNL A   1      36.940  32.861  30.601  1.00  0.00    -0.246 OA
BRANCH  29  31
ATOM     31  C   UNL A   1      36.334  30.723  29.744  1.00  0.00     0.060 A 
ATOM     32  C   UNL A   1      36.721  29.495  31.002  1.00  0.00     0.016 A 
ATOM     33  C   UNL A   1      37.214  30.710  28.185  1.00  0.00     0.016 A 
ATOM     34  C   UNL A   1      38.067  28.239  30.704  1.00  0.00     0.010 A 
ATOM     35  C   UNL A   1      38.569  29.496  27.905  1.00  0.00     0.010 A 
ATOM     36  C   UNL A   1      39.012  28.288  29.173  1.00  0.00    -0.014 A 
BRANCH  36  37
ATOM     37  C   UNL A   1      40.467  27.996  29.132  1.00  0.00     0.031 A 
ATOM     38  C   UNL A   1      40.871  26.615  28.762  1.00  0.00     0.074 A 
ATOM     39  C   UNL A   1      41.402  28.987  29.167  1.00  0.00     0.049 A 
ATOM     40  N   UNL A   1      42.086  26.220  28.634  1.00  0.00    -0.248 NA
ATOM     41  C   UNL A   1      39.914  25.534  28.530  1.00  0.00     0.031 C 
ATOM     42  C   UNL A   1      42.755  28.953  28.597  1.00  0.00     0.029 A 
ATOM     43  N   UNL A   1      41.371  30.253  29.744  1.00  0.00    -0.354 N 
ATOM     44  C   UNL A   1      42.095  24.908  28.216  1.00  0.00     0.074 A 
ATOM     45  C   UNL A   1      40.711  24.528  28.152  1.00  0.00     0.031 C 
ATOM     46  C   UNL A   1      43.462  30.019  29.009  1.00  0.00     0.029 A 
ATOM     47  C   UNL A   1      42.671  30.717  30.000  1.00  0.00     0.049 A 
ATOM     48  H   UNL A   1      40.548  30.756  29.944  1.00  0.00     0.167 HD
ATOM     49  C   UNL A   1      43.297  24.333  27.947  1.00  0.00     0.034 A 
ATOM     50  C   UNL A   1      43.136  31.036  31.253  1.00  0.00     0.034 A 
ATOM     51  C   UNL A   1      44.368  25.175  28.501  1.00  0.00     0.049 A 
ATOM     52  C   UNL A   1      44.148  29.997  31.773  1.00  0.00     0.074 A 
ATOM     53  C   UNL A   1      45.179  26.155  27.959  1.00  0.00     0.029 A 
ATOM     54  N   UNL A   1      44.463  25.303  29.885  1.00  0.00    -0.354 N 
ATOM     55  N   UNL A   1      44.512  28.926  31.122  1.00  0.00    -0.248 NA
ATOM     56  C   UNL A   1      44.755  30.042  33.108  1.00  0.00     0.031 C 
ATOM     57  C   UNL A   1      45.667  26.951  29.031  1.00  0.00     0.029 A 
ATOM     58  C   UNL A   1      45.219  26.414  30.226  1.00  0.00     0.049 A 
ATOM     59  H   UNL A   1      44.049  24.687  30.533  1.00  0.00     0.167 HD
ATOM     60  C   UNL A   1      45.161  28.065  31.969  1.00  0.00     0.074 A 
ATOM     61  C   UNL A   1      45.347  28.838  33.183  1.00  0.00     0.031 C 
ATOM     62  C   UNL A   1      45.433  26.767  31.628  1.00  0.00     0.034 A 
BRANCH  49  63
ATOM     63  C   UNL A   1      43.576  23.111  27.085  1.00  0.00     0.023 A 
ATOM     64  C   UNL A   1      44.471  23.303  26.004  1.00  0.00     0.012 A 
ATOM     65  C   UNL A   1      42.957  21.837  27.150  1.00  0.00     0.148 A 
ATOM     66  C   UNL A   1      44.692  22.335  25.019  1.00  0.00     0.002 A 
ATOM     67  C   UNL A   1      43.193  20.857  26.174  1.00  0.00     0.091 A 
ATOM     68  F   UNL A   1      42.104  21.554  28.134  1.00  0.00    -0.205 F 
ATOM     69  C   UNL A   1      44.046  21.112  25.098  1.00  0.00     0.022 A 
BRANCH  67  70
ATOM     70  S   UNL A   1      42.401  19.235  26.191  1.00  0.00     0.127 S 
ATOM     71  O   UNL A   1      41.047  19.549  25.731  1.00  0.00    -0.237 OA
ATOM     72  O   UNL A   1      43.206  18.481  25.231  1.00  0.00    -0.237 OA
ATOM     73  O   UNL A   1      42.476  18.750  27.564  1.00  0.00    -0.744 OA
ENDBRANCH  67  70
ENDBRANCH  49  63
BRANCH  50  74
ATOM     74  C   UNL A   1      42.082  31.650  32.132  1.00  0.00     0.023 A 
ATOM     75  C   UNL A   1      41.380  30.795  33.014  1.00  0.00     0.012 A 
ATOM     76  C   UNL A   1      42.223  32.996  32.466  1.00  0.00     0.148 A 
ATOM     77  C   UNL A   1      41.106  31.215  34.318  1.00  0.00     0.002 A 
ATOM     78  C   UNL A   1      42.050  33.377  33.779  1.00  0.00     0.091 A 
ATOM     79  F   UNL A   1      42.657  33.880  31.564  1.00  0.00    -0.205 F 
ATOM     80  C   UNL A   1      41.492  32.496  34.717  1.00  0.00     0.022 A 
BRANCH  78  81
ATOM     81  S   UNL A   1      42.976  34.837  34.282  1.00  0.00     0.127 S 
ATOM     82  O   UNL A   1      42.981  34.715  35.737  1.00  0.00    -0.237 OA
ATOM     83  O   UNL A   1      44.273  34.611  33.653  1.00  0.00    -0.237 OA
ATOM     84  O   UNL A   1      42.176  35.942  33.771  1.00  0.00    -0.744 OA
ENDBRANCH  78  81
ENDBRANCH  50  74
BRANCH  62  85
ATOM     85  C   UNL A   1      45.984  25.720  32.579  1.00  0.00     0.023 A 
ATOM     86  C   UNL A   1      47.364  25.548  32.808  1.00  0.00     0.012 A 
ATOM     87  C   UNL A   1      45.106  24.932  33.366  1.00  0.00     0.148 A 
ATOM     88  C   UNL A   1      47.849  24.563  33.679  1.00  0.00     0.002 A 
ATOM     89  C   UNL A   1      45.591  24.052  34.328  1.00  0.00     0.091 A 
ATOM     90  F   UNL A   1      43.783  25.005  33.164  1.00  0.00    -0.205 F 
ATOM     91  C   UNL A   1      46.963  23.826  34.451  1.00  0.00     0.022 A 
BRANCH  89  92
ATOM     92  S   UNL A   1      44.500  23.290  35.536  1.00  0.00     0.127 S 
ATOM     93  O   UNL A   1      43.502  22.651  34.680  1.00  0.00    -0.237 OA
ATOM     94  O   UNL A   1      45.399  22.359  36.222  1.00  0.00    -0.237 OA
ATOM     95  O   UNL A   1      44.019  24.381  36.372  1.00  0.00    -0.744 OA
ENDBRANCH  89  92
ENDBRANCH  62  85
ENDBRANCH  36  37
ENDBRANCH  29  31
ENDBRANCH  28  29
ENDBRANCH  27  28
ENDBRANCH   1  27
TORSDOF 18
ENDMDL
MODEL 3
REMARK VINA RESULT:     -11.5      3.970     10.392
REMARK SMILES Cc1nn(C(C)C)c(C)c1S(=O)(=O)Nc1cccc(C(=O)OCCOC(=O)c2ccc(-c3c4nc(c(-c5cccc(S(=O)(=O)[O-])c5F)c5ccc([nH]5)c(-c5cccc(S(=O)(=O)[O-])c5F)c5nc(c(-c6cccc(S(=O)(=O)[O-])c6F)c6ccc3[nH]6)C=C5)C=C4)cc2)c1C
REMARK SMILES IDX 23 1 22 2 20 3 21 4 19 5 15 6 16 7 91 8 17 9 92 10 18 11
REMARK SMILES IDX 14 12 11 14 12 15 13 16 10 17 1 18 2 19 3 20 4 21 8 22 9 23
REMARK SMILES IDX 5 24 6 25 7 26 24 27 25 28 26 29 27 30 28 31 29 32 90 33
REMARK SMILES IDX 30 34 89 35 31 36 32 37 33 38 83 39 34 40 88 41 82 42 84 43
REMARK SMILES IDX 35 44 87 45 81 46 80 47 36 49 68 50 48 51 67 52 49 53 52 54
REMARK SMILES IDX 66 55 85 56 50 57 51 58 65 60 86 61 53 62 37 63 38 64 46 65
REMARK SMILES IDX 39 66 41 67 47 68 40 69 42 70 43 71 44 72 45 73 69 74 70 75
REMARK SMILES IDX 78 76 71 77 73 78 79 79 72 80 74 81 75 82 76 83 77 84 54 85
REMARK SMILES IDX 55 86 63 87 56 88 58 89 64 90 57 91 59 92 60 93 61 94 62 95
REMARK H PARENT 14 13 84 48 52 59
REMARK Flexibility Score: inf
ROOT
ATOM      1  C   UNL A   1      32.908  31.163  27.497  1.00  0.00     0.275 C 
ENDROOT
BRANCH   1   2
ATOM      2  O   UNL A   1      32.970  30.751  26.121  1.00  0.00    -0.458 OA
BRANCH   2   3
ATOM      3  C   UNL A   1      31.799  29.967  25.595  1.00  0.00     0.338 C 
ATOM      4  O   UNL A   1      30.984  30.931  25.425  1.00  0.00    -0.246 OA
BRANCH   3   5
ATOM      5  C   UNL A   1      31.664  27.844  25.218  1.00  0.00     0.065 A 
ATOM      6  C   UNL A   1      32.589  25.222  24.787  1.00  0.00     0.053 A 
ATOM      7  C   UNL A   1      31.333  24.711  24.594  1.00  0.00     0.027 A 
ATOM      8  C   UNL A   1      32.767  26.626  25.275  1.00  0.00    -0.012 A 
ATOM      9  C   UNL A   1      30.282  25.594  24.560  1.00  0.00     0.003 A 
ATOM     10  C   UNL A   1      34.126  26.597  26.066  1.00  0.00     0.047 C 
ATOM     11  C   UNL A   1      30.460  27.000  24.758  1.00  0.00     0.016 A 
BRANCH   6  12
ATOM     12  N   UNL A   1      33.712  24.349  24.572  1.00  0.00    -0.279 N 
ATOM     13  H   UNL A   1      34.104  24.413  23.671  1.00  0.00     0.180 HD
BRANCH  12  14
ATOM     14  S   UNL A   1      34.470  23.244  25.570  1.00  0.00     0.265 S 
ATOM     15  O   UNL A   1      33.877  23.377  26.889  1.00  0.00    -0.201 OA
ATOM     16  O   UNL A   1      35.877  23.571  25.413  1.00  0.00    -0.201 OA
BRANCH  14  17
ATOM     17  C   UNL A   1      34.426  21.535  25.308  1.00  0.00     0.131 A 
ATOM     18  C   UNL A   1      36.931  20.790  24.910  1.00  0.00     0.070 C 
ATOM     19  C   UNL A   1      35.480  20.641  25.018  1.00  0.00     0.080 A 
ATOM     20  N   UNL A   1      35.031  19.434  24.685  1.00  0.00    -0.176 NA
ATOM     21  N   UNL A   1      33.706  19.524  24.730  1.00  0.00    -0.266 N 
ATOM     22  C   UNL A   1      33.266  20.764  25.125  1.00  0.00     0.056 A 
ATOM     23  C   UNL A   1      31.819  21.091  25.229  1.00  0.00     0.068 C 
BRANCH  21  24
ATOM     24  C   UNL A   1      32.967  18.373  24.216  1.00  0.00     0.101 C 
ATOM     25  C   UNL A   1      32.443  18.670  22.803  1.00  0.00     0.033 C 
ATOM     26  C   UNL A   1      33.848  17.121  24.207  1.00  0.00     0.033 C 
ENDBRANCH  21  24
ENDBRANCH  14  17
ENDBRANCH  12  14
ENDBRANCH   6  12
ENDBRANCH   3   5
ENDBRANCH   2   3
ENDBRANCH   1   2
BRANCH   1  27
ATOM     27  C   UNL A   1      33.527  32.564  27.632  1.00  0.00     0.275 C 
BRANCH  27  28
ATOM     28  O   UNL A   1      34.139  32.869  28.914  1.00  0.00    -0.458 OA
BRANCH  28  29
ATOM     29  C   UNL A   1      35.470  32.619  29.076  1.00  0.00     0.338 C 
ATOM     30  O   UNL A   1      36.362  33.444  29.001  1.00  0.00    -0.246 OA
BRANCH  29  31
ATOM     31  C   UNL A   1      35.706  31.159  29.147  1.00  0.00     0.060 A 
ATOM     32  C   UNL A   1      36.279  30.567  30.747  1.00  0.00     0.016 A 
ATOM     33  C   UNL A   1      36.385  30.463  27.643  1.00  0.00     0.016 A 
ATOM     34  C   UNL A   1      37.610  29.263  30.843  1.00  0.00     0.010 A 
ATOM     35  C   UNL A   1      37.725  29.205  27.736  1.00  0.00     0.010 A 
ATOM     36  C   UNL A   1      38.355  28.633  29.331  1.00  0.00    -0.014 A 
BRANCH  36  37
ATOM     37  C   UNL A   1      39.800  28.309  29.236  1.00  0.00     0.031 A 
ATOM     38  C   UNL A   1      40.159  26.905  28.908  1.00  0.00     0.074 A 
ATOM     39  C   UNL A   1      40.754  29.281  29.187  1.00  0.00     0.049 A 
ATOM     40  N   UNL A   1      41.359  26.480  28.742  1.00  0.00    -0.248 NA
ATOM     41  C   UNL A   1      39.172  25.837  28.766  1.00  0.00     0.031 C 
ATOM     42  C   UNL A   1      42.079  29.193  28.558  1.00  0.00     0.029 A 
ATOM     43  N   UNL A   1      40.775  30.570  29.710  1.00  0.00    -0.354 N 
ATOM     44  C   UNL A   1      41.323  25.151  28.381  1.00  0.00     0.074 A 
ATOM     45  C   UNL A   1      39.931  24.798  28.395  1.00  0.00     0.031 C 
ATOM     46  C   UNL A   1      42.825  30.260  28.892  1.00  0.00     0.029 A 
ATOM     47  C   UNL A   1      42.094  31.016  29.887  1.00  0.00     0.049 A 
ATOM     48  H   UNL A   1      39.972  31.098  29.925  1.00  0.00     0.167 HD
ATOM     49  C   UNL A   1      42.501  24.539  28.082  1.00  0.00     0.034 A 
ATOM     50  C   UNL A   1      42.622  31.377  31.103  1.00  0.00     0.034 A 
ATOM     51  C   UNL A   1      43.612  25.381  28.551  1.00  0.00     0.049 A 
ATOM     52  C   UNL A   1      43.637  30.339  31.621  1.00  0.00     0.074 A 
ATOM     53  C   UNL A   1      44.417  26.320  27.931  1.00  0.00     0.029 A 
ATOM     54  N   UNL A   1      43.773  25.564  29.923  1.00  0.00    -0.354 N 
ATOM     55  N   UNL A   1      43.949  29.234  31.000  1.00  0.00    -0.248 NA
ATOM     56  C   UNL A   1      44.306  30.426  32.924  1.00  0.00     0.031 C 
ATOM     57  C   UNL A   1      44.968  27.149  28.946  1.00  0.00     0.029 A 
ATOM     58  C   UNL A   1      44.565  26.672  30.181  1.00  0.00     0.049 A 
ATOM     59  H   UNL A   1      43.377  24.985  30.614  1.00  0.00     0.167 HD
ATOM     60  C   UNL A   1      44.620  28.395  31.854  1.00  0.00     0.074 A 
ATOM     61  C   UNL A   1      44.876  29.215  33.024  1.00  0.00     0.031 C 
ATOM     62  C   UNL A   1      44.851  27.079  31.557  1.00  0.00     0.034 A 
BRANCH  49  63
ATOM     63  C   UNL A   1      42.716  23.277  27.262  1.00  0.00     0.023 A 
ATOM     64  C   UNL A   1      42.048  22.116  27.719  1.00  0.00     0.012 A 
ATOM     65  C   UNL A   1      43.602  23.086  26.171  1.00  0.00     0.148 A 
ATOM     66  C   UNL A   1      42.282  20.843  27.186  1.00  0.00     0.002 A 
ATOM     67  C   UNL A   1      43.823  21.814  25.621  1.00  0.00     0.091 A 
ATOM     68  F   UNL A   1      44.273  24.118  25.662  1.00  0.00    -0.205 F 
ATOM     69  C   UNL A   1      43.177  20.690  26.140  1.00  0.00     0.022 A 
BRANCH  67  70
ATOM     70  S   UNL A   1      44.967  21.513  24.257  1.00  0.00     0.127 S 
ATOM     71  O   UNL A   1      46.261  21.819  24.869  1.00  0.00    -0.237 OA
ATOM     72  O   UNL A   1      44.753  20.094  23.974  1.00  0.00    -0.237 OA
ATOM     73  O   UNL A   1      44.579  22.416  23.181  1.00  0.00    -0.744 OA
ENDBRANCH  67  70
ENDBRANCH  49  63
BRANCH  50  74
ATOM     74  C   UNL A   1      41.623  32.050  32.002  1.00  0.00     0.023 A 
ATOM     75  C   UNL A   1      40.657  31.234  32.639  1.00  0.00     0.012 A 
ATOM     76  C   UNL A   1      41.999  33.247  32.606  1.00  0.00     0.148 A 
ATOM     77  C   UNL A   1      40.323  31.469  33.976  1.00  0.00     0.002 A 
ATOM     78  C   UNL A   1      41.754  33.421  33.950  1.00  0.00     0.091 A 
ATOM     79  F   UNL A   1      42.713  34.155  31.934  1.00  0.00    -0.205 F 
ATOM     80  C   UNL A   1      40.916  32.539  34.649  1.00  0.00     0.022 A 
BRANCH  78  81
ATOM     81  S   UNL A   1      42.897  34.520  34.803  1.00  0.00     0.127 S 
ATOM     82  O   UNL A   1      42.500  34.359  36.199  1.00  0.00    -0.237 OA
ATOM     83  O   UNL A   1      44.192  33.935  34.473  1.00  0.00    -0.237 OA
ATOM     84  O   UNL A   1      42.598  35.829  34.237  1.00  0.00    -0.744 OA
ENDBRANCH  78  81
ENDBRANCH  50  74
BRANCH  62  85
ATOM     85  C   UNL A   1      45.424  26.061  32.525  1.00  0.00     0.023 A 
ATOM     86  C   UNL A   1      46.802  25.772  32.603  1.00  0.00     0.012 A 
ATOM     87  C   UNL A   1      44.587  25.427  33.480  1.00  0.00     0.148 A 
ATOM     88  C   UNL A   1      47.305  24.817  33.494  1.00  0.00     0.002 A 
ATOM     89  C   UNL A   1      45.112  24.582  34.452  1.00  0.00     0.091 A 
ATOM     90  F   UNL A   1      43.261  25.614  33.432  1.00  0.00    -0.205 F 
ATOM     91  C   UNL A   1      46.464  24.233  34.431  1.00  0.00     0.022 A 
BRANCH  89  92
ATOM     92  S   UNL A   1      44.121  24.029  35.846  1.00  0.00     0.127 S 
ATOM     93  O   UNL A   1      43.032  23.318  35.179  1.00  0.00    -0.237 OA
ATOM     94  O   UNL A   1      45.058  23.166  36.569  1.00  0.00    -0.237 OA
ATOM     95  O   UNL A   1      43.747  25.239  36.565  1.00  0.00    -0.744 OA
ENDBRANCH  89  92
ENDBRANCH  62  85
ENDBRANCH  36  37
ENDBRANCH  29  31
ENDBRANCH  28  29
ENDBRANCH  27  28
ENDBRANCH   1  27
TORSDOF 18
ENDMDL
