MODEL 1
REMARK VINA RESULT:     -11.2      0.000      0.000
REMARK SMILES CO[C@H]1CN(C(=O)c2cn(C(C)C)cc(C(=O)OCCOC(=O)c3ccc(-c4c5nc(c(-c6cccc(S(=O)(=O)[O-])c6F)c6ccc([nH]6)c(-c6cccc(S(=O)(=O)[O-])c6F)c6nc(c(-c7cccc(S(=O)(=O)[O-])c7F)c7ccc4[nH]7)C=C6)C=C5)cc3)c2=O)CC[C@H]1[NH3+]
REMARK SMILES IDX 19 1 18 2 16 3 17 4 15 5 8 6 9 7 87 8 10 9 88 10 14 11 6 12
REMARK SMILES IDX 7 13 5 14 3 15 4 16 91 17 90 18 89 19 2 20 1 21 92 22 11 26
REMARK SMILES IDX 12 27 13 28 20 29 21 30 22 31 23 32 24 33 25 34 86 35 26 36
REMARK SMILES IDX 85 37 27 38 28 39 29 40 79 41 30 42 84 43 78 44 80 45 31 46
REMARK SMILES IDX 83 47 77 48 76 49 32 51 64 52 44 53 63 54 45 55 48 56 62 57
REMARK SMILES IDX 81 58 46 59 47 60 61 62 82 63 49 64 33 65 34 66 42 67 35 68
REMARK SMILES IDX 37 69 43 70 36 71 38 72 39 73 40 74 41 75 65 76 66 77 74 78
REMARK SMILES IDX 67 79 69 80 75 81 68 82 70 83 71 84 72 85 73 86 50 87 51 88
REMARK SMILES IDX 59 89 52 90 54 91 60 92 53 93 55 94 56 95 57 96 58 97
REMARK H PARENT 92 23 92 24 92 25 80 50 48 61
REMARK Flexibility Score: inf
ROOT
ATOM      1  C   UNL A   1      33.314  29.628  25.879  1.00  0.00     0.275 C 
ENDROOT
BRANCH   1   2
ATOM      2  O   UNL A   1      33.155  28.569  26.842  1.00  0.00    -0.458 OA
BRANCH   2   3
ATOM      3  C   UNL A   1      32.070  27.769  26.707  1.00  0.00     0.343 C 
ATOM      4  O   UNL A   1      31.247  27.533  27.580  1.00  0.00    -0.246 OA
BRANCH   3   5
ATOM      5  C   UNL A   1      31.931  27.300  25.319  1.00  0.00     0.124 A 
ATOM      6  C   UNL A   1      32.419  25.815  23.336  1.00  0.00     0.104 A 
ATOM      7  C   UNL A   1      31.425  26.442  22.685  1.00  0.00     0.103 A 
ATOM      8  C   UNL A   1      32.833  26.313  24.677  1.00  0.00     0.208 A 
ATOM      9  N   UNL A   1      30.688  27.488  23.231  1.00  0.00    -0.350 N 
ATOM     10  O   UNL A   1      33.807  25.841  25.256  1.00  0.00    -0.288 OA
ATOM     11  C   UNL A   1      30.914  27.772  24.576  1.00  0.00     0.105 A 
BRANCH   6  12
ATOM     12  C   UNL A   1      32.962  24.572  22.754  1.00  0.00     0.259 C 
ATOM     13  O   UNL A   1      33.447  24.582  21.624  1.00  0.00    -0.269 OA
BRANCH  12  14
ATOM     14  N   UNL A   1      32.826  23.415  23.518  1.00  0.00    -0.335 N 
ATOM     15  C   UNL A   1      33.848  22.217  25.460  1.00  0.00     0.195 C 
ATOM     16  C   UNL A   1      33.929  22.551  23.962  1.00  0.00     0.158 C 
ATOM     17  C   UNL A   1      32.442  21.673  25.837  1.00  0.00     0.213 C 
ATOM     18  C   UNL A   1      31.359  22.637  25.327  1.00  0.00     0.089 C 
ATOM     19  C   UNL A   1      31.491  22.932  23.837  1.00  0.00     0.126 C 
BRANCH  15  20
ATOM     20  O   UNL A   1      34.909  21.295  25.748  1.00  0.00    -0.373 OA
ATOM     21  C   UNL A   1      36.202  21.877  25.668  1.00  0.00     0.195 C 
ENDBRANCH  15  20
BRANCH  17  22
ATOM     22  N   UNL A   1      32.196  20.294  25.380  1.00  0.00    -0.353 N 
ATOM     23  H   UNL A   1      31.195  20.157  25.242  1.00  0.00     0.344 HD
ATOM     24  H   UNL A   1      32.537  19.636  26.080  1.00  0.00     0.344 HD
ATOM     25  H   UNL A   1      32.685  20.137  24.498  1.00  0.00     0.344 HD
ENDBRANCH  17  22
ENDBRANCH  12  14
ENDBRANCH   6  12
BRANCH   9  26
ATOM     26  C   UNL A   1      29.672  28.265  22.468  1.00  0.00     0.080 C 
ATOM     27  C   UNL A   1      28.298  28.206  23.136  1.00  0.00     0.031 C 
ATOM     28  C   UNL A   1      30.141  29.698  22.250  1.00  0.00     0.031 C 
ENDBRANCH   9  26
ENDBRANCH   3   5
ENDBRANCH   2   3
ENDBRANCH   1   2
BRANCH   1  29
ATOM     29  C   UNL A   1      32.568  30.882  26.334  1.00  0.00     0.275 C 
BRANCH  29  30
ATOM     30  O   UNL A   1      32.974  31.249  27.665  1.00  0.00    -0.458 OA
BRANCH  30  31
ATOM     31  C   UNL A   1      33.801  32.315  27.755  1.00  0.00     0.338 C 
ATOM     32  O   UNL A   1      33.525  33.492  27.581  1.00  0.00    -0.246 OA
BRANCH  31  33
ATOM     33  C   UNL A   1      35.101  31.854  28.257  1.00  0.00     0.060 A 
ATOM     34  C   UNL A   1      36.240  32.649  28.222  1.00  0.00     0.016 A 
ATOM     35  C   UNL A   1      35.146  30.596  28.848  1.00  0.00     0.016 A 
ATOM     36  C   UNL A   1      37.432  32.147  28.762  1.00  0.00     0.010 A 
ATOM     37  C   UNL A   1      36.305  30.126  29.452  1.00  0.00     0.010 A 
ATOM     38  C   UNL A   1      37.475  30.883  29.392  1.00  0.00    -0.014 A 
BRANCH  38  39
ATOM     39  C   UNL A   1      38.725  30.362  30.008  1.00  0.00     0.031 A 
ATOM     40  C   UNL A   1      39.195  30.850  31.357  1.00  0.00     0.074 A 
ATOM     41  C   UNL A   1      39.482  29.485  29.318  1.00  0.00     0.049 A 
ATOM     42  N   UNL A   1      40.242  30.471  32.046  1.00  0.00    -0.248 NA
ATOM     43  C   UNL A   1      38.419  31.923  32.003  1.00  0.00     0.031 C 
ATOM     44  C   UNL A   1      39.218  29.035  27.951  1.00  0.00     0.029 A 
ATOM     45  N   UNL A   1      40.626  28.815  29.673  1.00  0.00    -0.354 N 
ATOM     46  C   UNL A   1      40.271  31.278  33.178  1.00  0.00     0.074 A 
ATOM     47  C   UNL A   1      39.158  32.195  33.070  1.00  0.00     0.031 C 
ATOM     48  C   UNL A   1      40.137  28.120  27.604  1.00  0.00     0.029 A 
ATOM     49  C   UNL A   1      41.064  27.931  28.715  1.00  0.00     0.049 A 
ATOM     50  H   UNL A   1      41.089  28.954  30.531  1.00  0.00     0.167 HD
ATOM     51  C   UNL A   1      41.116  31.231  34.234  1.00  0.00     0.034 A 
ATOM     52  C   UNL A   1      42.078  27.044  28.737  1.00  0.00     0.034 A 
ATOM     53  C   UNL A   1      42.158  30.255  34.390  1.00  0.00     0.049 A 
ATOM     54  C   UNL A   1      42.921  26.918  29.975  1.00  0.00     0.074 A 
ATOM     55  C   UNL A   1      42.982  30.047  35.482  1.00  0.00     0.029 A 
ATOM     56  N   UNL A   1      42.508  29.314  33.436  1.00  0.00    -0.354 N 
ATOM     57  N   UNL A   1      42.830  27.584  31.100  1.00  0.00    -0.248 NA
ATOM     58  C   UNL A   1      43.983  25.901  29.960  1.00  0.00     0.031 C 
ATOM     59  C   UNL A   1      43.827  28.971  35.191  1.00  0.00     0.029 A 
ATOM     60  C   UNL A   1      43.530  28.515  33.918  1.00  0.00     0.049 A 
ATOM     61  H   UNL A   1      42.092  29.226  32.549  1.00  0.00     0.167 HD
ATOM     62  C   UNL A   1      43.812  27.061  31.931  1.00  0.00     0.074 A 
ATOM     63  C   UNL A   1      44.472  26.006  31.190  1.00  0.00     0.031 C 
ATOM     64  C   UNL A   1      44.147  27.438  33.188  1.00  0.00     0.034 A 
BRANCH  51  65
ATOM     65  C   UNL A   1      40.885  32.192  35.370  1.00  0.00     0.023 A 
ATOM     66  C   UNL A   1      41.712  33.327  35.478  1.00  0.00     0.012 A 
ATOM     67  C   UNL A   1      39.803  32.034  36.258  1.00  0.00     0.148 A 
ATOM     68  C   UNL A   1      41.479  34.284  36.464  1.00  0.00     0.002 A 
ATOM     69  C   UNL A   1      39.558  33.008  37.220  1.00  0.00     0.091 A 
ATOM     70  F   UNL A   1      39.035  30.941  36.140  1.00  0.00    -0.205 F 
ATOM     71  C   UNL A   1      40.399  34.130  37.328  1.00  0.00     0.022 A 
BRANCH  69  72
ATOM     72  S   UNL A   1      38.160  32.940  38.347  1.00  0.00     0.127 S 
ATOM     73  O   UNL A   1      38.103  34.320  38.829  1.00  0.00    -0.237 OA
ATOM     74  O   UNL A   1      37.065  32.559  37.455  1.00  0.00    -0.237 OA
ATOM     75  O   UNL A   1      38.503  31.948  39.356  1.00  0.00    -0.744 OA
ENDBRANCH  69  72
ENDBRANCH  51  65
BRANCH  52  76
ATOM     76  C   UNL A   1      42.257  26.122  27.584  1.00  0.00     0.023 A 
ATOM     77  C   UNL A   1      43.022  26.553  26.483  1.00  0.00     0.012 A 
ATOM     78  C   UNL A   1      41.757  24.807  27.608  1.00  0.00     0.148 A 
ATOM     79  C   UNL A   1      43.282  25.690  25.419  1.00  0.00     0.002 A 
ATOM     80  C   UNL A   1      42.052  23.941  26.562  1.00  0.00     0.091 A 
ATOM     81  F   UNL A   1      41.030  24.426  28.668  1.00  0.00    -0.205 F 
ATOM     82  C   UNL A   1      42.807  24.382  25.464  1.00  0.00     0.022 A 
BRANCH  80  83
ATOM     83  S   UNL A   1      41.579  22.208  26.578  1.00  0.00     0.127 S 
ATOM     84  O   UNL A   1      40.123  22.297  26.496  1.00  0.00    -0.237 OA
ATOM     85  O   UNL A   1      42.235  21.708  25.370  1.00  0.00    -0.237 OA
ATOM     86  O   UNL A   1      42.106  21.665  27.822  1.00  0.00    -0.744 OA
ENDBRANCH  80  83
ENDBRANCH  52  76
BRANCH  64  87
ATOM     87  C   UNL A   1      45.282  26.722  33.862  1.00  0.00     0.023 A 
ATOM     88  C   UNL A   1      46.576  27.273  33.787  1.00  0.00     0.012 A 
ATOM     89  C   UNL A   1      45.049  25.594  34.671  1.00  0.00     0.148 A 
ATOM     90  C   UNL A   1      47.627  26.705  34.507  1.00  0.00     0.002 A 
ATOM     91  C   UNL A   1      46.093  25.053  35.409  1.00  0.00     0.091 A 
ATOM     92  F   UNL A   1      43.808  25.086  34.716  1.00  0.00    -0.205 F 
ATOM     93  C   UNL A   1      47.383  25.605  35.326  1.00  0.00     0.022 A 
BRANCH  91  94
ATOM     94  S   UNL A   1      45.867  23.683  36.550  1.00  0.00     0.127 S 
ATOM     95  O   UNL A   1      44.901  24.241  37.496  1.00  0.00    -0.237 OA
ATOM     96  O   UNL A   1      45.333  22.638  35.676  1.00  0.00    -0.237 OA
ATOM     97  O   UNL A   1      47.183  23.397  37.104  1.00  0.00    -0.744 OA
ENDBRANCH  91  94
ENDBRANCH  64  87
ENDBRANCH  38  39
ENDBRANCH  31  33
ENDBRANCH  30  31
ENDBRANCH  29  30
ENDBRANCH   1  29
TORSDOF 19
ENDMDL
MODEL 2
REMARK VINA RESULT:     -11.0      1.956      3.412
REMARK SMILES CO[C@H]1CN(C(=O)c2cn(C(C)C)cc(C(=O)OCCOC(=O)c3ccc(-c4c5nc(c(-c6cccc(S(=O)(=O)[O-])c6F)c6ccc([nH]6)c(-c6cccc(S(=O)(=O)[O-])c6F)c6nc(c(-c7cccc(S(=O)(=O)[O-])c7F)c7ccc4[nH]7)C=C6)C=C5)cc3)c2=O)CC[C@H]1[NH3+]
REMARK SMILES IDX 19 1 18 2 16 3 17 4 15 5 8 6 9 7 87 8 10 9 88 10 14 11 6 12
REMARK SMILES IDX 7 13 5 14 3 15 4 16 91 17 90 18 89 19 2 20 1 21 92 22 11 26
REMARK SMILES IDX 12 27 13 28 20 29 21 30 22 31 23 32 24 33 25 34 86 35 26 36
REMARK SMILES IDX 85 37 27 38 28 39 29 40 79 41 30 42 84 43 78 44 80 45 31 46
REMARK SMILES IDX 83 47 77 48 76 49 32 51 64 52 44 53 63 54 45 55 48 56 62 57
REMARK SMILES IDX 81 58 46 59 47 60 61 62 82 63 49 64 33 65 34 66 42 67 35 68
REMARK SMILES IDX 37 69 43 70 36 71 38 72 39 73 40 74 41 75 65 76 66 77 74 78
REMARK SMILES IDX 67 79 69 80 75 81 68 82 70 83 71 84 72 85 73 86 50 87 51 88
REMARK SMILES IDX 59 89 52 90 54 91 60 92 53 93 55 94 56 95 57 96 58 97
REMARK H PARENT 92 23 92 24 92 25 80 50 48 61
REMARK Flexibility Score: inf
ROOT
ATOM      1  C   UNL A   1      32.560  27.960  24.517  1.00  0.00     0.275 C 
ENDROOT
BRANCH   1   2
ATOM      2  O   UNL A   1      33.678  27.076  24.309  1.00  0.00    -0.458 OA
BRANCH   2   3
ATOM      3  C   UNL A   1      33.516  26.073  23.414  1.00  0.00     0.343 C 
ATOM      4  O   UNL A   1      33.256  26.213  22.227  1.00  0.00    -0.246 OA
BRANCH   3   5
ATOM      5  C   UNL A   1      33.814  24.768  24.025  1.00  0.00     0.124 A 
ATOM      6  C   UNL A   1      33.258  22.488  24.959  1.00  0.00     0.104 A 
ATOM      7  C   UNL A   1      34.579  22.259  25.050  1.00  0.00     0.103 A 
ATOM      8  C   UNL A   1      32.785  23.843  24.560  1.00  0.00     0.208 A 
ATOM      9  N   UNL A   1      35.548  23.197  24.705  1.00  0.00    -0.350 N 
ATOM     10  O   UNL A   1      31.591  24.126  24.573  1.00  0.00    -0.288 OA
ATOM     11  C   UNL A   1      35.095  24.363  24.093  1.00  0.00     0.105 A 
BRANCH   6  12
ATOM     12  C   UNL A   1      32.337  21.347  25.121  1.00  0.00     0.259 C 
ATOM     13  O   UNL A   1      31.280  21.492  25.733  1.00  0.00    -0.269 OA
BRANCH  12  14
ATOM     14  N   UNL A   1      32.767  20.123  24.614  1.00  0.00    -0.335 N 
ATOM     15  C   UNL A   1      32.587  17.662  25.019  1.00  0.00     0.195 C 
ATOM     16  C   UNL A   1      33.250  18.989  25.416  1.00  0.00     0.158 C 
ATOM     17  C   UNL A   1      32.682  17.424  23.485  1.00  0.00     0.213 C 
ATOM     18  C   UNL A   1      32.161  18.662  22.735  1.00  0.00     0.089 C 
ATOM     19  C   UNL A   1      32.856  19.947  23.173  1.00  0.00     0.126 C 
BRANCH  15  20
ATOM     20  O   UNL A   1      33.208  16.627  25.793  1.00  0.00    -0.373 OA
ATOM     21  C   UNL A   1      32.517  15.388  25.742  1.00  0.00     0.195 C 
ENDBRANCH  15  20
BRANCH  17  22
ATOM     22  N   UNL A   1      34.029  17.042  23.027  1.00  0.00    -0.353 N 
ATOM     23  H   UNL A   1      34.579  16.719  23.822  1.00  0.00     0.344 HD
ATOM     24  H   UNL A   1      34.486  17.849  22.602  1.00  0.00     0.344 HD
ATOM     25  H   UNL A   1      33.953  16.292  22.338  1.00  0.00     0.344 HD
ENDBRANCH  17  22
ENDBRANCH  12  14
ENDBRANCH   6  12
BRANCH   9  26
ATOM     26  C   UNL A   1      37.007  22.990  24.922  1.00  0.00     0.080 C 
ATOM     27  C   UNL A   1      37.502  23.726  26.168  1.00  0.00     0.031 C 
ATOM     28  C   UNL A   1      37.340  21.503  24.966  1.00  0.00     0.031 C 
ENDBRANCH   9  26
ENDBRANCH   3   5
ENDBRANCH   2   3
ENDBRANCH   1   2
BRANCH   1  29
ATOM     29  C   UNL A   1      33.045  29.351  24.924  1.00  0.00     0.275 C 
BRANCH  29  30
ATOM     30  O   UNL A   1      32.423  29.754  26.158  1.00  0.00    -0.458 OA
BRANCH  30  31
ATOM     31  C   UNL A   1      32.905  30.887  26.716  1.00  0.00     0.338 C 
ATOM     32  O   UNL A   1      32.402  32.001  26.701  1.00  0.00    -0.246 OA
BRANCH  31  33
ATOM     33  C   UNL A   1      34.095  30.547  27.506  1.00  0.00     0.060 A 
ATOM     34  C   UNL A   1      34.317  29.273  28.012  1.00  0.00     0.016 A 
ATOM     35  C   UNL A   1      35.051  31.542  27.676  1.00  0.00     0.016 A 
ATOM     36  C   UNL A   1      35.501  29.022  28.719  1.00  0.00     0.010 A 
ATOM     37  C   UNL A   1      36.259  31.279  28.309  1.00  0.00     0.010 A 
ATOM     38  C   UNL A   1      36.490  30.020  28.867  1.00  0.00    -0.014 A 
BRANCH  38  39
ATOM     39  C   UNL A   1      37.769  29.750  29.576  1.00  0.00     0.031 A 
ATOM     40  C   UNL A   1      38.038  30.317  30.949  1.00  0.00     0.074 A 
ATOM     41  C   UNL A   1      38.729  29.038  28.953  1.00  0.00     0.049 A 
ATOM     42  N   UNL A   1      39.087  30.148  31.715  1.00  0.00    -0.248 NA
ATOM     43  C   UNL A   1      37.024  31.218  31.526  1.00  0.00     0.031 C 
ATOM     44  C   UNL A   1      38.655  28.546  27.576  1.00  0.00     0.029 A 
ATOM     45  N   UNL A   1      39.952  28.602  29.396  1.00  0.00    -0.354 N 
ATOM     46  C   UNL A   1      38.877  30.942  32.836  1.00  0.00     0.074 A 
ATOM     47  C   UNL A   1      37.618  31.627  32.639  1.00  0.00     0.031 C 
ATOM     48  C   UNL A   1      39.757  27.829  27.306  1.00  0.00     0.029 A 
ATOM     49  C   UNL A   1      40.621  27.821  28.482  1.00  0.00     0.049 A 
ATOM     50  H   UNL A   1      40.317  28.826  30.282  1.00  0.00     0.167 HD
ATOM     51  C   UNL A   1      39.637  31.059  33.950  1.00  0.00     0.034 A 
ATOM     52  C   UNL A   1      41.783  27.147  28.587  1.00  0.00     0.034 A 
ATOM     53  C   UNL A   1      40.835  30.303  34.191  1.00  0.00     0.049 A 
ATOM     54  C   UNL A   1      42.544  27.185  29.882  1.00  0.00     0.074 A 
ATOM     55  C   UNL A   1      41.603  30.257  35.341  1.00  0.00     0.029 A 
ATOM     56  N   UNL A   1      41.428  29.450  33.276  1.00  0.00    -0.354 N 
ATOM     57  N   UNL A   1      42.245  27.819  30.989  1.00  0.00    -0.248 NA
ATOM     58  C   UNL A   1      43.781  26.394  29.955  1.00  0.00     0.031 C 
ATOM     59  C   UNL A   1      42.659  29.366  35.124  1.00  0.00     0.029 A 
ATOM     60  C   UNL A   1      42.548  28.863  33.838  1.00  0.00     0.049 A 
ATOM     61  H   UNL A   1      41.101  29.284  32.363  1.00  0.00     0.167 HD
ATOM     62  C   UNL A   1      43.247  27.495  31.894  1.00  0.00     0.074 A 
ATOM     63  C   UNL A   1      44.151  26.589  31.215  1.00  0.00     0.031 C 
ATOM     64  C   UNL A   1      43.412  27.928  33.167  1.00  0.00     0.034 A 
BRANCH  51  65
ATOM     65  C   UNL A   1      39.144  31.955  35.055  1.00  0.00     0.023 A 
ATOM     66  C   UNL A   1      38.192  31.453  35.964  1.00  0.00     0.012 A 
ATOM     67  C   UNL A   1      39.688  33.238  35.258  1.00  0.00     0.148 A 
ATOM     68  C   UNL A   1      37.773  32.219  37.049  1.00  0.00     0.002 A 
ATOM     69  C   UNL A   1      39.288  33.986  36.360  1.00  0.00     0.091 A 
ATOM     70  F   UNL A   1      40.587  33.698  34.375  1.00  0.00    -0.205 F 
ATOM     71  C   UNL A   1      38.326  33.480  37.252  1.00  0.00     0.022 A 
BRANCH  69  72
ATOM     72  S   UNL A   1      39.978  35.598  36.752  1.00  0.00     0.127 S 
ATOM     73  O   UNL A   1      39.293  35.914  38.006  1.00  0.00    -0.237 OA
ATOM     74  O   UNL A   1      41.402  35.296  36.893  1.00  0.00    -0.237 OA
ATOM     75  O   UNL A   1      39.643  36.464  35.630  1.00  0.00    -0.744 OA
ENDBRANCH  69  72
ENDBRANCH  51  65
BRANCH  52  76
ATOM     76  C   UNL A   1      42.219  26.280  27.460  1.00  0.00     0.023 A 
ATOM     77  C   UNL A   1      43.064  26.823  26.473  1.00  0.00     0.012 A 
ATOM     78  C   UNL A   1      41.881  24.915  27.409  1.00  0.00     0.148 A 
ATOM     79  C   UNL A   1      43.561  26.021  25.446  1.00  0.00     0.002 A 
ATOM     80  C   UNL A   1      42.411  24.113  26.404  1.00  0.00     0.091 A 
ATOM     81  F   UNL A   1      41.073  24.427  28.361  1.00  0.00    -0.205 F 
ATOM     82  C   UNL A   1      43.244  24.665  25.419  1.00  0.00     0.022 A 
BRANCH  80  83
ATOM     83  S   UNL A   1      42.150  22.337  26.345  1.00  0.00     0.127 S 
ATOM     84  O   UNL A   1      42.583  21.928  27.679  1.00  0.00    -0.237 OA
ATOM     85  O   UNL A   1      40.708  22.254  26.113  1.00  0.00    -0.237 OA
ATOM     86  O   UNL A   1      42.969  21.853  25.243  1.00  0.00    -0.744 OA
ENDBRANCH  80  83
ENDBRANCH  52  76
BRANCH  64  87
ATOM     87  C   UNL A   1      44.613  27.444  33.928  1.00  0.00     0.023 A 
ATOM     88  C   UNL A   1      45.797  28.207  33.892  1.00  0.00     0.012 A 
ATOM     89  C   UNL A   1      44.531  26.323  34.777  1.00  0.00     0.148 A 
ATOM     90  C   UNL A   1      46.887  27.857  34.687  1.00  0.00     0.002 A 
ATOM     91  C   UNL A   1      45.609  25.999  35.589  1.00  0.00     0.091 A 
ATOM     92  F   UNL A   1      43.395  25.611  34.784  1.00  0.00    -0.205 F 
ATOM     93  C   UNL A   1      46.788  26.763  35.544  1.00  0.00     0.022 A 
BRANCH  91  94
ATOM     94  S   UNL A   1      45.556  24.655  36.780  1.00  0.00     0.127 S 
ATOM     95  O   UNL A   1      45.375  23.494  35.909  1.00  0.00    -0.237 OA
ATOM     96  O   UNL A   1      46.874  24.746  37.410  1.00  0.00    -0.237 OA
ATOM     97  O   UNL A   1      44.439  24.945  37.667  1.00  0.00    -0.744 OA
ENDBRANCH  91  94
ENDBRANCH  64  87
ENDBRANCH  38  39
ENDBRANCH  31  33
ENDBRANCH  30  31
ENDBRANCH  29  30
ENDBRANCH   1  29
TORSDOF 19
ENDMDL
MODEL 3
REMARK VINA RESULT:     -10.9      4.931      9.903
REMARK SMILES CO[C@H]1CN(C(=O)c2cn(C(C)C)cc(C(=O)OCCOC(=O)c3ccc(-c4c5nc(c(-c6cccc(S(=O)(=O)[O-])c6F)c6ccc([nH]6)c(-c6cccc(S(=O)(=O)[O-])c6F)c6nc(c(-c7cccc(S(=O)(=O)[O-])c7F)c7ccc4[nH]7)C=C6)C=C5)cc3)c2=O)CC[C@H]1[NH3+]
REMARK SMILES IDX 19 1 18 2 16 3 17 4 15 5 8 6 9 7 87 8 10 9 88 10 14 11 6 12
REMARK SMILES IDX 7 13 5 14 3 15 4 16 91 17 90 18 89 19 2 20 1 21 92 22 11 26
REMARK SMILES IDX 12 27 13 28 20 29 21 30 22 31 23 32 24 33 25 34 86 35 26 36
REMARK SMILES IDX 85 37 27 38 28 39 29 40 79 41 30 42 84 43 78 44 80 45 31 46
REMARK SMILES IDX 83 47 77 48 76 49 32 51 64 52 44 53 63 54 45 55 48 56 62 57
REMARK SMILES IDX 81 58 46 59 47 60 61 62 82 63 49 64 33 65 34 66 42 67 35 68
REMARK SMILES IDX 37 69 43 70 36 71 38 72 39 73 40 74 41 75 65 76 66 77 74 78
REMARK SMILES IDX 67 79 69 80 75 81 68 82 70 83 71 84 72 85 73 86 50 87 51 88
REMARK SMILES IDX 59 89 52 90 54 91 60 92 53 93 55 94 56 95 57 96 58 97
REMARK H PARENT 92 23 92 24 92 25 80 50 48 61
REMARK Flexibility Score: inf
ROOT
ATOM      1  C   UNL A   1      35.696  22.515  25.937  1.00  0.00     0.275 C 
ENDROOT
BRANCH   1   2
ATOM      2  O   UNL A   1      34.863  22.363  27.102  1.00  0.00    -0.458 OA
BRANCH   2   3
ATOM      3  C   UNL A   1      33.664  21.756  26.931  1.00  0.00     0.343 C 
ATOM      4  O   UNL A   1      33.285  20.751  27.514  1.00  0.00    -0.246 OA
BRANCH   3   5
ATOM      5  C   UNL A   1      32.804  22.537  26.026  1.00  0.00     0.124 A 
ATOM      6  C   UNL A   1      31.291  24.453  25.380  1.00  0.00     0.104 A 
ATOM      7  C   UNL A   1      31.322  23.985  24.121  1.00  0.00     0.103 A 
ATOM      8  C   UNL A   1      31.936  23.657  26.462  1.00  0.00     0.208 A 
ATOM      9  N   UNL A   1      32.003  22.832  23.744  1.00  0.00    -0.350 N 
ATOM     10  O   UNL A   1      31.835  23.990  27.639  1.00  0.00    -0.288 OA
ATOM     11  C   UNL A   1      32.810  22.242  24.714  1.00  0.00     0.105 A 
BRANCH   6  12
ATOM     12  C   UNL A   1      30.744  25.803  25.613  1.00  0.00     0.259 C 
ATOM     13  O   UNL A   1      29.527  25.977  25.639  1.00  0.00    -0.269 OA
BRANCH  12  14
ATOM     14  N   UNL A   1      31.668  26.839  25.725  1.00  0.00    -0.335 N 
ATOM     15  C   UNL A   1      32.534  28.834  24.493  1.00  0.00     0.195 C 
ATOM     16  C   UNL A   1      32.560  27.307  24.654  1.00  0.00     0.158 C 
ATOM     17  C   UNL A   1      32.772  29.546  25.854  1.00  0.00     0.213 C 
ATOM     18  C   UNL A   1      31.801  28.987  26.908  1.00  0.00     0.089 C 
ATOM     19  C   UNL A   1      31.871  27.468  27.021  1.00  0.00     0.126 C 
BRANCH  15  20
ATOM     20  O   UNL A   1      33.510  29.173  23.498  1.00  0.00    -0.373 OA
ATOM     21  C   UNL A   1      33.609  28.217  22.452  1.00  0.00     0.195 C 
ENDBRANCH  15  20
BRANCH  17  22
ATOM     22  N   UNL A   1      34.168  29.484  26.321  1.00  0.00    -0.353 N 
ATOM     23  H   UNL A   1      34.604  28.630  25.973  1.00  0.00     0.344 HD
ATOM     24  H   UNL A   1      34.188  29.485  27.340  1.00  0.00     0.344 HD
ATOM     25  H   UNL A   1      34.679  30.295  25.969  1.00  0.00     0.344 HD
ENDBRANCH  17  22
ENDBRANCH  12  14
ENDBRANCH   6  12
BRANCH   9  26
ATOM     26  C   UNL A   1      31.935  22.246  22.376  1.00  0.00     0.080 C 
ATOM     27  C   UNL A   1      32.890  22.951  21.413  1.00  0.00     0.031 C 
ATOM     28  C   UNL A   1      32.174  20.742  22.422  1.00  0.00     0.031 C 
ENDBRANCH   9  26
ENDBRANCH   3   5
ENDBRANCH   2   3
ENDBRANCH   1   2
BRANCH   1  29
ATOM     29  C   UNL A   1      36.434  21.213  25.632  1.00  0.00     0.275 C 
BRANCH  29  30
ATOM     30  O   UNL A   1      37.735  21.494  25.083  1.00  0.00    -0.458 OA
BRANCH  30  31
ATOM     31  C   UNL A   1      38.788  21.092  25.829  1.00  0.00     0.338 C 
ATOM     32  O   UNL A   1      39.233  19.960  25.946  1.00  0.00    -0.246 OA
BRANCH  31  33
ATOM     33  C   UNL A   1      39.442  22.281  26.389  1.00  0.00     0.060 A 
ATOM     34  C   UNL A   1      40.487  22.199  27.301  1.00  0.00     0.016 A 
ATOM     35  C   UNL A   1      39.023  23.519  25.915  1.00  0.00     0.016 A 
ATOM     36  C   UNL A   1      41.084  23.384  27.753  1.00  0.00     0.010 A 
ATOM     37  C   UNL A   1      39.662  24.691  26.303  1.00  0.00     0.010 A 
ATOM     38  C   UNL A   1      40.685  24.643  27.252  1.00  0.00    -0.014 A 
BRANCH  38  39
ATOM     39  C   UNL A   1      41.343  25.901  27.692  1.00  0.00     0.031 A 
ATOM     40  C   UNL A   1      42.779  26.200  27.335  1.00  0.00     0.074 A 
ATOM     41  C   UNL A   1      40.663  26.760  28.478  1.00  0.00     0.049 A 
ATOM     42  N   UNL A   1      43.489  27.265  27.612  1.00  0.00    -0.248 NA
ATOM     43  C   UNL A   1      43.532  25.162  26.608  1.00  0.00     0.031 C 
ATOM     44  C   UNL A   1      39.318  26.532  29.010  1.00  0.00     0.029 A 
ATOM     45  N   UNL A   1      41.007  27.997  28.963  1.00  0.00    -0.354 N 
ATOM     46  C   UNL A   1      44.768  27.012  27.131  1.00  0.00     0.074 A 
ATOM     47  C   UNL A   1      44.753  25.677  26.576  1.00  0.00     0.031 C 
ATOM     48  C   UNL A   1      38.929  27.617  29.698  1.00  0.00     0.029 A 
ATOM     49  C   UNL A   1      39.999  28.609  29.671  1.00  0.00     0.049 A 
ATOM     50  H   UNL A   1      41.890  28.406  28.819  1.00  0.00     0.167 HD
ATOM     51  C   UNL A   1      45.845  27.831  27.109  1.00  0.00     0.034 A 
ATOM     52  C   UNL A   1      39.929  29.841  30.211  1.00  0.00     0.034 A 
ATOM     53  C   UNL A   1      45.833  29.193  27.568  1.00  0.00     0.049 A 
ATOM     54  C   UNL A   1      41.091  30.781  30.058  1.00  0.00     0.074 A 
ATOM     55  C   UNL A   1      46.837  30.140  27.470  1.00  0.00     0.029 A 
ATOM     56  N   UNL A   1      44.760  29.805  28.193  1.00  0.00    -0.354 N 
ATOM     57  N   UNL A   1      42.237  30.575  29.458  1.00  0.00    -0.248 NA
ATOM     58  C   UNL A   1      40.941  32.129  30.626  1.00  0.00     0.031 C 
ATOM     59  C   UNL A   1      46.366  31.332  28.030  1.00  0.00     0.029 A 
ATOM     60  C   UNL A   1      45.073  31.123  28.478  1.00  0.00     0.049 A 
ATOM     61  H   UNL A   1      43.903  29.369  28.402  1.00  0.00     0.167 HD
ATOM     62  C   UNL A   1      42.941  31.768  29.564  1.00  0.00     0.074 A 
ATOM     63  C   UNL A   1      42.083  32.701  30.265  1.00  0.00     0.031 C 
ATOM     64  C   UNL A   1      44.193  32.054  29.135  1.00  0.00     0.034 A 
BRANCH  51  65
ATOM     65  C   UNL A   1      47.109  27.324  26.467  1.00  0.00     0.023 A 
ATOM     66  C   UNL A   1      47.387  27.686  25.134  1.00  0.00     0.012 A 
ATOM     67  C   UNL A   1      48.060  26.586  27.199  1.00  0.00     0.148 A 
ATOM     68  C   UNL A   1      48.585  27.308  24.531  1.00  0.00     0.002 A 
ATOM     69  C   UNL A   1      49.266  26.238  26.600  1.00  0.00     0.091 A 
ATOM     70  F   UNL A   1      47.770  26.246  28.463  1.00  0.00    -0.205 F 
ATOM     71  C   UNL A   1      49.527  26.594  25.265  1.00  0.00     0.022 A 
BRANCH  69  72
ATOM     72  S   UNL A   1      50.576  25.368  27.470  1.00  0.00     0.127 S 
ATOM     73  O   UNL A   1      51.568  25.194  26.409  1.00  0.00    -0.237 OA
ATOM     74  O   UNL A   1      50.950  26.333  28.504  1.00  0.00    -0.237 OA
ATOM     75  O   UNL A   1      49.981  24.136  27.967  1.00  0.00    -0.744 OA
ENDBRANCH  69  72
ENDBRANCH  51  65
BRANCH  52  76
ATOM     76  C   UNL A   1      38.653  30.285  30.835  1.00  0.00     0.023 A 
ATOM     77  C   UNL A   1      38.484  30.123  32.223  1.00  0.00     0.012 A 
ATOM     78  C   UNL A   1      37.658  30.940  30.087  1.00  0.00     0.148 A 
ATOM     79  C   UNL A   1      37.338  30.600  32.858  1.00  0.00     0.002 A 
ATOM     80  C   UNL A   1      36.536  31.447  30.732  1.00  0.00     0.091 A 
ATOM     81  F   UNL A   1      37.845  31.078  28.767  1.00  0.00    -0.205 F 
ATOM     82  C   UNL A   1      36.370  31.272  32.115  1.00  0.00     0.022 A 
BRANCH  80  83
ATOM     83  S   UNL A   1      35.288  32.420  29.883  1.00  0.00     0.127 S 
ATOM     84  O   UNL A   1      34.385  32.767  30.978  1.00  0.00    -0.237 OA
ATOM     85  O   UNL A   1      36.081  33.535  29.362  1.00  0.00    -0.237 OA
ATOM     86  O   UNL A   1      34.730  31.545  28.861  1.00  0.00    -0.744 OA
ENDBRANCH  80  83
ENDBRANCH  52  76
BRANCH  64  87
ATOM     87  C   UNL A   1      44.737  33.427  29.408  1.00  0.00     0.023 A 
ATOM     88  C   UNL A   1      45.412  33.665  30.621  1.00  0.00     0.012 A 
ATOM     89  C   UNL A   1      44.701  34.431  28.421  1.00  0.00     0.148 A 
ATOM     90  C   UNL A   1      46.040  34.889  30.851  1.00  0.00     0.002 A 
ATOM     91  C   UNL A   1      45.355  35.635  28.644  1.00  0.00     0.091 A 
ATOM     92  F   UNL A   1      44.045  34.178  27.279  1.00  0.00    -0.205 F 
ATOM     93  C   UNL A   1      46.022  35.866  29.859  1.00  0.00     0.022 A 
BRANCH  91  94
ATOM     94  S   UNL A   1      45.455  36.929  27.402  1.00  0.00     0.127 S 
ATOM     95  O   UNL A   1      44.042  37.225  27.168  1.00  0.00    -0.237 OA
ATOM     96  O   UNL A   1      46.191  37.979  28.107  1.00  0.00    -0.237 OA
ATOM     97  O   UNL A   1      46.163  36.348  26.269  1.00  0.00    -0.744 OA
ENDBRANCH  91  94
ENDBRANCH  64  87
ENDBRANCH  38  39
ENDBRANCH  31  33
ENDBRANCH  30  31
ENDBRANCH  29  30
ENDBRANCH   1  29
TORSDOF 19
ENDMDL
