MODEL 1
REMARK VINA RESULT:     -10.6      0.000      0.000
REMARK SMILES O=C(Cn1cnc2c(S)ncnc21)OCCOC(=O)c1ccc(-c2c3nc(c(-c4cccc(S(=O)(=O)[O-])c4F)c4ccc([nH]4)c(-c4cccc(S(=O)(=O)[O-])c4F)c4nc(c(-c5cccc(S(=O)(=O)[O-])c5F)c5ccc2[nH]5)C=C4)C=C3)cc1
REMARK SMILES IDX 16 1 15 2 14 3 2 4 1 5 3 6 4 7 5 8 13 9 6 10 7 11 12 12 8 13
REMARK SMILES IDX 11 14 10 15 9 16 17 18 18 19 19 20 20 21 21 22 82 23 22 24
REMARK SMILES IDX 81 25 23 26 24 27 25 28 75 29 26 30 80 31 74 32 76 33 27 34
REMARK SMILES IDX 79 35 73 36 72 37 28 39 60 40 40 41 59 42 41 43 44 44 58 45
REMARK SMILES IDX 77 46 42 47 43 48 57 50 78 51 45 52 29 53 30 54 38 55 31 56
REMARK SMILES IDX 33 57 39 58 32 59 34 60 35 61 36 62 37 63 61 64 62 65 70 66
REMARK SMILES IDX 63 67 65 68 71 69 64 70 66 71 67 72 68 73 69 74 46 75 47 76
REMARK SMILES IDX 55 77 48 78 50 79 56 80 49 81 51 82 52 83 53 84 54 85
REMARK H PARENT 9 17 76 38 44 49
REMARK Flexibility Score: inf
ROOT
ATOM      1  C   UNL A   1      34.930  33.804  28.767  1.00  0.00     0.275 C 
ENDROOT
BRANCH   1   2
ATOM      2  C   UNL A   1      33.986  34.901  29.244  1.00  0.00     0.274 C 
BRANCH   2   3
ATOM      3  O   UNL A   1      33.407  34.701  30.549  1.00  0.00    -0.461 OA
BRANCH   3   4
ATOM      4  C   UNL A   1      33.352  35.655  31.512  1.00  0.00     0.326 C 
ATOM      5  O   UNL A   1      32.343  36.355  31.616  1.00  0.00    -0.250 OA
BRANCH   4   6
ATOM      6  C   UNL A   1      34.571  35.952  32.353  1.00  0.00     0.247 C 
BRANCH   6   7
ATOM      7  N   UNL A   1      35.115  34.777  32.994  1.00  0.00    -0.304 N 
ATOM      8  C   UNL A   1      34.427  33.826  33.693  1.00  0.00     0.202 A 
ATOM      9  C   UNL A   1      36.442  34.468  33.070  1.00  0.00     0.164 A 
ATOM     10  N   UNL A   1      35.221  32.851  34.086  1.00  0.00    -0.232 NA
ATOM     11  C   UNL A   1      36.489  33.230  33.687  1.00  0.00     0.140 A 
ATOM     12  N   UNL A   1      37.475  35.189  32.610  1.00  0.00    -0.217 NA
ATOM     13  C   UNL A   1      37.757  32.654  33.758  1.00  0.00     0.124 A 
ATOM     14  C   UNL A   1      38.640  34.536  32.745  1.00  0.00     0.225 A 
ATOM     15  N   UNL A   1      38.838  33.311  33.262  1.00  0.00    -0.228 NA
BRANCH  13  16
ATOM     16  S   UNL A   1      37.996  31.048  34.428  1.00  0.00    -0.121 SA
ATOM     17  H   UNL A   1      37.535  31.019  35.708  1.00  0.00     0.110 HD
ENDBRANCH  13  16
ENDBRANCH   6   7
ENDBRANCH   4   6
ENDBRANCH   3   4
ENDBRANCH   2   3
ENDBRANCH   1   2
BRANCH   1  18
ATOM     18  O   UNL A   1      35.973  33.555  29.689  1.00  0.00    -0.458 OA
BRANCH  18  19
ATOM     19  C   UNL A   1      36.130  32.270  30.068  1.00  0.00     0.338 C 
ATOM     20  O   UNL A   1      35.431  31.635  30.848  1.00  0.00    -0.246 OA
BRANCH  19  21
ATOM     21  C   UNL A   1      37.361  31.772  29.454  1.00  0.00     0.060 A 
ATOM     22  C   UNL A   1      37.249  30.606  28.700  1.00  0.00     0.016 A 
ATOM     23  C   UNL A   1      38.601  32.270  29.895  1.00  0.00     0.016 A 
ATOM     24  C   UNL A   1      38.339  29.774  28.660  1.00  0.00     0.010 A 
ATOM     25  C   UNL A   1      39.682  31.432  29.869  1.00  0.00     0.010 A 
ATOM     26  C   UNL A   1      39.491  30.156  29.359  1.00  0.00    -0.014 A 
BRANCH  26  27
ATOM     27  C   UNL A   1      40.544  29.185  29.505  1.00  0.00     0.031 A 
ATOM     28  C   UNL A   1      40.765  28.842  30.919  1.00  0.00     0.074 A 
ATOM     29  C   UNL A   1      41.185  28.659  28.445  1.00  0.00     0.049 A 
ATOM     30  N   UNL A   1      41.712  29.286  31.675  1.00  0.00    -0.248 NA
ATOM     31  C   UNL A   1      39.684  28.158  31.641  1.00  0.00     0.031 C 
ATOM     32  C   UNL A   1      40.839  28.754  27.023  1.00  0.00     0.029 A 
ATOM     33  N   UNL A   1      42.244  27.811  28.439  1.00  0.00    -0.354 N 
ATOM     34  C   UNL A   1      41.489  28.690  32.909  1.00  0.00     0.074 A 
ATOM     35  C   UNL A   1      40.119  28.255  32.898  1.00  0.00     0.031 C 
ATOM     36  C   UNL A   1      41.508  27.794  26.339  1.00  0.00     0.029 A 
ATOM     37  C   UNL A   1      42.424  27.122  27.244  1.00  0.00     0.049 A 
ATOM     38  H   UNL A   1      42.836  27.693  29.216  1.00  0.00     0.167 HD
ATOM     39  C   UNL A   1      42.539  28.321  33.688  1.00  0.00     0.034 A 
ATOM     40  C   UNL A   1      43.213  26.030  27.070  1.00  0.00     0.034 A 
ATOM     41  C   UNL A   1      43.755  28.969  33.249  1.00  0.00     0.049 A 
ATOM     42  C   UNL A   1      44.195  26.031  28.181  1.00  0.00     0.074 A 
ATOM     43  C   UNL A   1      44.174  30.278  33.116  1.00  0.00     0.029 A 
ATOM     44  N   UNL A   1      44.604  28.214  32.476  1.00  0.00    -0.354 N 
ATOM     45  N   UNL A   1      45.117  26.942  28.322  1.00  0.00    -0.248 NA
ATOM     46  C   UNL A   1      43.852  25.291  29.387  1.00  0.00     0.031 C 
ATOM     47  C   UNL A   1      44.970  30.294  31.932  1.00  0.00     0.029 A 
ATOM     48  C   UNL A   1      45.054  28.989  31.442  1.00  0.00     0.049 A 
ATOM     49  H   UNL A   1      44.846  27.274  32.638  1.00  0.00     0.167 HD
ATOM     50  C   UNL A   1      45.121  27.215  29.684  1.00  0.00     0.074 A 
ATOM     51  C   UNL A   1      44.400  26.100  30.299  1.00  0.00     0.031 C 
ATOM     52  C   UNL A   1      45.434  28.461  30.148  1.00  0.00     0.034 A 
BRANCH  39  53
ATOM     53  C   UNL A   1      42.582  27.068  34.538  1.00  0.00     0.023 A 
ATOM     54  C   UNL A   1      42.138  27.202  35.872  1.00  0.00     0.012 A 
ATOM     55  C   UNL A   1      43.274  25.877  34.215  1.00  0.00     0.148 A 
ATOM     56  C   UNL A   1      42.444  26.250  36.849  1.00  0.00     0.002 A 
ATOM     57  C   UNL A   1      43.513  24.898  35.172  1.00  0.00     0.091 A 
ATOM     58  F   UNL A   1      43.824  25.713  33.012  1.00  0.00    -0.205 F 
ATOM     59  C   UNL A   1      43.134  25.097  36.500  1.00  0.00     0.022 A 
BRANCH  57  60
ATOM     60  S   UNL A   1      44.364  23.366  34.766  1.00  0.00     0.127 S 
ATOM     61  O   UNL A   1      43.416  22.741  33.848  1.00  0.00    -0.237 OA
ATOM     62  O   UNL A   1      45.590  23.868  34.146  1.00  0.00    -0.237 OA
ATOM     63  O   UNL A   1      44.573  22.677  36.033  1.00  0.00    -0.744 OA
ENDBRANCH  57  60
ENDBRANCH  39  53
BRANCH  40  64
ATOM     64  C   UNL A   1      42.977  24.808  26.258  1.00  0.00     0.023 A 
ATOM     65  C   UNL A   1      43.962  24.387  25.338  1.00  0.00     0.012 A 
ATOM     66  C   UNL A   1      41.966  23.888  26.610  1.00  0.00     0.148 A 
ATOM     67  C   UNL A   1      43.970  23.082  24.829  1.00  0.00     0.002 A 
ATOM     68  C   UNL A   1      41.980  22.590  26.105  1.00  0.00     0.091 A 
ATOM     69  F   UNL A   1      41.046  24.254  27.512  1.00  0.00    -0.205 F 
ATOM     70  C   UNL A   1      42.988  22.178  25.225  1.00  0.00     0.022 A 
BRANCH  68  71
ATOM     71  S   UNL A   1      40.781  21.349  26.615  1.00  0.00     0.127 S 
ATOM     72  O   UNL A   1      39.553  21.844  25.992  1.00  0.00    -0.237 OA
ATOM     73  O   UNL A   1      41.328  20.137  26.014  1.00  0.00    -0.237 OA
ATOM     74  O   UNL A   1      40.770  21.379  28.073  1.00  0.00    -0.744 OA
ENDBRANCH  68  71
ENDBRANCH  40  64
BRANCH  52  75
ATOM     75  C   UNL A   1      46.019  29.457  29.177  1.00  0.00     0.023 A 
ATOM     76  C   UNL A   1      47.376  29.438  28.787  1.00  0.00     0.012 A 
ATOM     77  C   UNL A   1      45.128  30.302  28.493  1.00  0.00     0.148 A 
ATOM     78  C   UNL A   1      47.831  30.250  27.742  1.00  0.00     0.002 A 
ATOM     79  C   UNL A   1      45.572  31.065  27.423  1.00  0.00     0.091 A 
ATOM     80  F   UNL A   1      43.844  30.308  28.879  1.00  0.00    -0.205 F 
ATOM     81  C   UNL A   1      46.925  31.051  27.049  1.00  0.00     0.022 A 
BRANCH  79  82
ATOM     82  S   UNL A   1      44.430  31.999  26.402  1.00  0.00     0.127 S 
ATOM     83  O   UNL A   1      44.011  33.064  27.311  1.00  0.00    -0.237 OA
ATOM     84  O   UNL A   1      45.285  32.436  25.298  1.00  0.00    -0.237 OA
ATOM     85  O   UNL A   1      43.384  31.063  26.010  1.00  0.00    -0.744 OA
ENDBRANCH  79  82
ENDBRANCH  52  75
ENDBRANCH  26  27
ENDBRANCH  19  21
ENDBRANCH  18  19
ENDBRANCH   1  18
TORSDOF 16
ENDMDL
MODEL 2
REMARK VINA RESULT:     -10.4      4.966      9.670
REMARK SMILES O=C(Cn1cnc2c(S)ncnc21)OCCOC(=O)c1ccc(-c2c3nc(c(-c4cccc(S(=O)(=O)[O-])c4F)c4ccc([nH]4)c(-c4cccc(S(=O)(=O)[O-])c4F)c4nc(c(-c5cccc(S(=O)(=O)[O-])c5F)c5ccc2[nH]5)C=C4)C=C3)cc1
REMARK SMILES IDX 16 1 15 2 14 3 2 4 1 5 3 6 4 7 5 8 13 9 6 10 7 11 12 12 8 13
REMARK SMILES IDX 11 14 10 15 9 16 17 18 18 19 19 20 20 21 21 22 82 23 22 24
REMARK SMILES IDX 81 25 23 26 24 27 25 28 75 29 26 30 80 31 74 32 76 33 27 34
REMARK SMILES IDX 79 35 73 36 72 37 28 39 60 40 40 41 59 42 41 43 44 44 58 45
REMARK SMILES IDX 77 46 42 47 43 48 57 50 78 51 45 52 29 53 30 54 38 55 31 56
REMARK SMILES IDX 33 57 39 58 32 59 34 60 35 61 36 62 37 63 61 64 62 65 70 66
REMARK SMILES IDX 63 67 65 68 71 69 64 70 66 71 67 72 68 73 69 74 46 75 47 76
REMARK SMILES IDX 55 77 48 78 50 79 56 80 49 81 51 82 52 83 53 84 54 85
REMARK H PARENT 9 17 76 38 44 49
REMARK Flexibility Score: inf
ROOT
ATOM      1  C   UNL A   1      31.782  31.411  26.485  1.00  0.00     0.275 C 
ENDROOT
BRANCH   1   2
ATOM      2  C   UNL A   1      31.862  29.947  26.069  1.00  0.00     0.274 C 
BRANCH   2   3
ATOM      3  O   UNL A   1      31.002  29.562  24.977  1.00  0.00    -0.461 OA
BRANCH   3   4
ATOM      4  C   UNL A   1      31.448  29.051  23.802  1.00  0.00     0.326 C 
ATOM      5  O   UNL A   1      30.634  28.668  22.960  1.00  0.00    -0.250 OA
BRANCH   4   6
ATOM      6  C   UNL A   1      32.926  28.823  23.588  1.00  0.00     0.247 C 
BRANCH   6   7
ATOM      7  N   UNL A   1      33.334  27.467  23.874  1.00  0.00    -0.304 N 
ATOM      8  C   UNL A   1      33.875  26.996  25.036  1.00  0.00     0.202 A 
ATOM      9  C   UNL A   1      33.318  26.436  22.978  1.00  0.00     0.164 A 
ATOM     10  N   UNL A   1      34.068  25.693  24.984  1.00  0.00    -0.232 NA
ATOM     11  C   UNL A   1      33.706  25.323  23.702  1.00  0.00     0.140 A 
ATOM     12  N   UNL A   1      32.962  26.485  21.686  1.00  0.00    -0.217 NA
ATOM     13  C   UNL A   1      33.640  24.115  23.008  1.00  0.00     0.124 A 
ATOM     14  C   UNL A   1      32.948  25.266  21.125  1.00  0.00     0.225 A 
ATOM     15  N   UNL A   1      33.236  24.091  21.711  1.00  0.00    -0.228 NA
BRANCH  13  16
ATOM     16  S   UNL A   1      34.010  22.588  23.792  1.00  0.00    -0.121 SA
ATOM     17  H   UNL A   1      34.943  21.920  23.062  1.00  0.00     0.110 HD
ENDBRANCH  13  16
ENDBRANCH   6   7
ENDBRANCH   4   6
ENDBRANCH   3   4
ENDBRANCH   2   3
ENDBRANCH   1   2
BRANCH   1  18
ATOM     18  O   UNL A   1      32.763  31.752  27.444  1.00  0.00    -0.458 OA
BRANCH  18  19
ATOM     19  C   UNL A   1      32.800  33.048  27.815  1.00  0.00     0.338 C 
ATOM     20  O   UNL A   1      32.001  33.928  27.519  1.00  0.00    -0.246 OA
BRANCH  19  21
ATOM     21  C   UNL A   1      34.036  33.260  28.569  1.00  0.00     0.060 A 
ATOM     22  C   UNL A   1      35.024  34.012  27.938  1.00  0.00     0.016 A 
ATOM     23  C   UNL A   1      34.298  32.464  29.699  1.00  0.00     0.016 A 
ATOM     24  C   UNL A   1      36.329  33.720  28.243  1.00  0.00     0.010 A 
ATOM     25  C   UNL A   1      35.600  32.161  29.989  1.00  0.00     0.010 A 
ATOM     26  C   UNL A   1      36.582  32.705  29.174  1.00  0.00    -0.014 A 
BRANCH  26  27
ATOM     27  C   UNL A   1      37.939  32.246  29.320  1.00  0.00     0.031 A 
ATOM     28  C   UNL A   1      38.078  30.841  28.905  1.00  0.00     0.074 A 
ATOM     29  C   UNL A   1      38.926  33.055  29.749  1.00  0.00     0.049 A 
ATOM     30  N   UNL A   1      38.146  29.816  29.685  1.00  0.00    -0.248 NA
ATOM     31  C   UNL A   1      37.848  30.513  27.491  1.00  0.00     0.031 C 
ATOM     32  C   UNL A   1      38.909  34.511  29.921  1.00  0.00     0.029 A 
ATOM     33  N   UNL A   1      40.217  32.737  30.015  1.00  0.00    -0.354 N 
ATOM     34  C   UNL A   1      38.256  28.727  28.830  1.00  0.00     0.074 A 
ATOM     35  C   UNL A   1      37.796  29.181  27.547  1.00  0.00     0.031 C 
ATOM     36  C   UNL A   1      40.185  34.962  30.005  1.00  0.00     0.029 A 
ATOM     37  C   UNL A   1      41.086  33.823  30.036  1.00  0.00     0.049 A 
ATOM     38  H   UNL A   1      40.515  31.813  30.180  1.00  0.00     0.167 HD
ATOM     39  C   UNL A   1      39.022  27.660  29.180  1.00  0.00     0.034 A 
ATOM     40  C   UNL A   1      42.441  33.755  29.995  1.00  0.00     0.034 A 
ATOM     41  C   UNL A   1      39.307  27.678  30.598  1.00  0.00     0.049 A 
ATOM     42  C   UNL A   1      42.814  32.388  30.436  1.00  0.00     0.074 A 
ATOM     43  C   UNL A   1      38.548  27.649  31.751  1.00  0.00     0.029 A 
ATOM     44  N   UNL A   1      40.543  28.152  30.965  1.00  0.00    -0.354 N 
ATOM     45  N   UNL A   1      42.612  31.945  31.646  1.00  0.00    -0.248 NA
ATOM     46  C   UNL A   1      42.972  31.367  29.411  1.00  0.00     0.031 C 
ATOM     47  C   UNL A   1      39.221  28.516  32.660  1.00  0.00     0.029 A 
ATOM     48  C   UNL A   1      40.389  28.975  32.046  1.00  0.00     0.049 A 
ATOM     49  H   UNL A   1      41.396  27.936  30.524  1.00  0.00     0.167 HD
ATOM     50  C   UNL A   1      42.149  30.649  31.462  1.00  0.00     0.074 A 
ATOM     51  C   UNL A   1      42.489  30.315  30.078  1.00  0.00     0.031 C 
ATOM     52  C   UNL A   1      41.266  30.089  32.341  1.00  0.00     0.034 A 
BRANCH  39  53
ATOM     53  C   UNL A   1      39.877  26.862  28.218  1.00  0.00     0.023 A 
ATOM     54  C   UNL A   1      39.852  25.458  28.376  1.00  0.00     0.012 A 
ATOM     55  C   UNL A   1      40.893  27.389  27.386  1.00  0.00     0.148 A 
ATOM     56  C   UNL A   1      40.833  24.636  27.814  1.00  0.00     0.002 A 
ATOM     57  C   UNL A   1      41.823  26.562  26.769  1.00  0.00     0.091 A 
ATOM     58  F   UNL A   1      41.060  28.706  27.267  1.00  0.00    -0.205 F 
ATOM     59  C   UNL A   1      41.821  25.189  27.010  1.00  0.00     0.022 A 
BRANCH  57  60
ATOM     60  S   UNL A   1      43.098  27.219  25.683  1.00  0.00     0.127 S 
ATOM     61  O   UNL A   1      42.299  27.942  24.699  1.00  0.00    -0.237 OA
ATOM     62  O   UNL A   1      43.861  28.061  26.604  1.00  0.00    -0.237 OA
ATOM     63  O   UNL A   1      43.831  26.063  25.183  1.00  0.00    -0.744 OA
ENDBRANCH  57  60
ENDBRANCH  39  53
BRANCH  40  64
ATOM     64  C   UNL A   1      43.415  34.619  29.279  1.00  0.00     0.023 A 
ATOM     65  C   UNL A   1      43.703  34.360  27.921  1.00  0.00     0.012 A 
ATOM     66  C   UNL A   1      43.801  35.869  29.809  1.00  0.00     0.148 A 
ATOM     67  C   UNL A   1      44.305  35.329  27.109  1.00  0.00     0.002 A 
ATOM     68  C   UNL A   1      44.397  36.832  28.997  1.00  0.00     0.091 A 
ATOM     69  F   UNL A   1      43.501  36.150  31.084  1.00  0.00    -0.205 F 
ATOM     70  C   UNL A   1      44.638  36.571  27.643  1.00  0.00     0.022 A 
BRANCH  68  71
ATOM     71  S   UNL A   1      44.800  38.479  29.599  1.00  0.00     0.127 S 
ATOM     72  O   UNL A   1      45.447  39.075  28.430  1.00  0.00    -0.237 OA
ATOM     73  O   UNL A   1      43.480  39.018  29.910  1.00  0.00    -0.237 OA
ATOM     74  O   UNL A   1      45.685  38.282  30.740  1.00  0.00    -0.744 OA
ENDBRANCH  68  71
ENDBRANCH  40  64
BRANCH  52  75
ATOM     75  C   UNL A   1      41.005  30.807  33.643  1.00  0.00     0.023 A 
ATOM     76  C   UNL A   1      41.862  30.701  34.760  1.00  0.00     0.012 A 
ATOM     77  C   UNL A   1      39.979  31.766  33.664  1.00  0.00     0.148 A 
ATOM     78  C   UNL A   1      41.692  31.530  35.874  1.00  0.00     0.002 A 
ATOM     79  C   UNL A   1      39.846  32.623  34.747  1.00  0.00     0.091 A 
ATOM     80  F   UNL A   1      39.173  31.850  32.595  1.00  0.00    -0.205 F 
ATOM     81  C   UNL A   1      40.694  32.504  35.860  1.00  0.00     0.022 A 
BRANCH  79  82
ATOM     82  S   UNL A   1      38.680  33.986  34.725  1.00  0.00     0.127 S 
ATOM     83  O   UNL A   1      39.071  34.702  33.512  1.00  0.00    -0.237 OA
ATOM     84  O   UNL A   1      37.394  33.295  34.642  1.00  0.00    -0.237 OA
ATOM     85  O   UNL A   1      38.886  34.711  35.973  1.00  0.00    -0.744 OA
ENDBRANCH  79  82
ENDBRANCH  52  75
ENDBRANCH  26  27
ENDBRANCH  19  21
ENDBRANCH  18  19
ENDBRANCH   1  18
TORSDOF 16
ENDMDL
MODEL 3
REMARK VINA RESULT:     -10.3      4.440      9.034
REMARK SMILES O=C(Cn1cnc2c(S)ncnc21)OCCOC(=O)c1ccc(-c2c3nc(c(-c4cccc(S(=O)(=O)[O-])c4F)c4ccc([nH]4)c(-c4cccc(S(=O)(=O)[O-])c4F)c4nc(c(-c5cccc(S(=O)(=O)[O-])c5F)c5ccc2[nH]5)C=C4)C=C3)cc1
REMARK SMILES IDX 16 1 15 2 14 3 2 4 1 5 3 6 4 7 5 8 13 9 6 10 7 11 12 12 8 13
REMARK SMILES IDX 11 14 10 15 9 16 17 18 18 19 19 20 20 21 21 22 82 23 22 24
REMARK SMILES IDX 81 25 23 26 24 27 25 28 75 29 26 30 80 31 74 32 76 33 27 34
REMARK SMILES IDX 79 35 73 36 72 37 28 39 60 40 40 41 59 42 41 43 44 44 58 45
REMARK SMILES IDX 77 46 42 47 43 48 57 50 78 51 45 52 29 53 30 54 38 55 31 56
REMARK SMILES IDX 33 57 39 58 32 59 34 60 35 61 36 62 37 63 61 64 62 65 70 66
REMARK SMILES IDX 63 67 65 68 71 69 64 70 66 71 67 72 68 73 69 74 46 75 47 76
REMARK SMILES IDX 55 77 48 78 50 79 56 80 49 81 51 82 52 83 53 84 54 85
REMARK H PARENT 9 17 76 38 44 49
REMARK Flexibility Score: inf
ROOT
ATOM      1  C   UNL A   1      31.681  31.542  26.876  1.00  0.00     0.275 C 
ENDROOT
BRANCH   1   2
ATOM      2  C   UNL A   1      31.874  30.495  25.785  1.00  0.00     0.274 C 
BRANCH   2   3
ATOM      3  O   UNL A   1      33.063  29.686  25.901  1.00  0.00    -0.461 OA
BRANCH   3   4
ATOM      4  C   UNL A   1      33.200  28.657  26.775  1.00  0.00     0.326 C 
ATOM      5  O   UNL A   1      34.145  28.654  27.565  1.00  0.00    -0.250 OA
BRANCH   4   6
ATOM      6  C   UNL A   1      32.284  27.459  26.681  1.00  0.00     0.247 C 
BRANCH   6   7
ATOM      7  N   UNL A   1      32.881  26.346  25.978  1.00  0.00    -0.304 N 
ATOM      8  C   UNL A   1      33.848  26.402  25.016  1.00  0.00     0.202 A 
ATOM      9  C   UNL A   1      32.506  25.040  26.113  1.00  0.00     0.164 A 
ATOM     10  N   UNL A   1      34.216  25.196  24.633  1.00  0.00    -0.232 NA
ATOM     11  C   UNL A   1      33.394  24.328  25.326  1.00  0.00     0.140 A 
ATOM     12  N   UNL A   1      31.518  24.550  26.875  1.00  0.00    -0.217 NA
ATOM     13  C   UNL A   1      33.275  22.940  25.411  1.00  0.00     0.124 A 
ATOM     14  C   UNL A   1      31.497  23.208  26.866  1.00  0.00     0.225 A 
ATOM     15  N   UNL A   1      32.327  22.381  26.207  1.00  0.00    -0.228 NA
BRANCH  13  16
ATOM     16  S   UNL A   1      34.374  21.874  24.552  1.00  0.00    -0.121 SA
ATOM     17  H   UNL A   1      34.831  22.501  23.434  1.00  0.00     0.110 HD
ENDBRANCH  13  16
ENDBRANCH   6   7
ENDBRANCH   4   6
ENDBRANCH   3   4
ENDBRANCH   2   3
ENDBRANCH   1   2
BRANCH   1  18
ATOM     18  O   UNL A   1      32.906  31.952  27.449  1.00  0.00    -0.458 OA
BRANCH  18  19
ATOM     19  C   UNL A   1      32.942  33.215  27.922  1.00  0.00     0.338 C 
ATOM     20  O   UNL A   1      32.142  34.115  27.697  1.00  0.00    -0.246 OA
BRANCH  19  21
ATOM     21  C   UNL A   1      34.178  33.368  28.690  1.00  0.00     0.060 A 
ATOM     22  C   UNL A   1      35.192  34.110  28.088  1.00  0.00     0.016 A 
ATOM     23  C   UNL A   1      34.410  32.531  29.796  1.00  0.00     0.016 A 
ATOM     24  C   UNL A   1      36.486  33.770  28.391  1.00  0.00     0.010 A 
ATOM     25  C   UNL A   1      35.700  32.181  30.085  1.00  0.00     0.010 A 
ATOM     26  C   UNL A   1      36.703  32.720  29.293  1.00  0.00    -0.014 A 
BRANCH  26  27
ATOM     27  C   UNL A   1      38.045  32.219  29.433  1.00  0.00     0.031 A 
ATOM     28  C   UNL A   1      38.145  30.821  28.981  1.00  0.00     0.074 A 
ATOM     29  C   UNL A   1      39.053  32.986  29.887  1.00  0.00     0.049 A 
ATOM     30  N   UNL A   1      38.179  29.774  29.733  1.00  0.00    -0.248 NA
ATOM     31  C   UNL A   1      37.913  30.537  27.558  1.00  0.00     0.031 C 
ATOM     32  C   UNL A   1      39.079  34.437  30.098  1.00  0.00     0.029 A 
ATOM     33  N   UNL A   1      40.333  32.623  30.151  1.00  0.00    -0.354 N 
ATOM     34  C   UNL A   1      38.262  28.706  28.851  1.00  0.00     0.074 A 
ATOM     35  C   UNL A   1      37.821  29.207  27.578  1.00  0.00     0.031 C 
ATOM     36  C   UNL A   1      40.366  34.847  30.200  1.00  0.00     0.029 A 
ATOM     37  C   UNL A   1      41.233  33.682  30.205  1.00  0.00     0.049 A 
ATOM     38  H   UNL A   1      40.603  31.687  30.293  1.00  0.00     0.167 HD
ATOM     39  C   UNL A   1      38.994  27.608  29.176  1.00  0.00     0.034 A 
ATOM     40  C   UNL A   1      42.587  33.575  30.169  1.00  0.00     0.034 A 
ATOM     41  C   UNL A   1      39.271  27.580  30.594  1.00  0.00     0.049 A 
ATOM     42  C   UNL A   1      42.916  32.186  30.574  1.00  0.00     0.074 A 
ATOM     43  C   UNL A   1      38.505  27.542  31.743  1.00  0.00     0.029 A 
ATOM     44  N   UNL A   1      40.519  28.007  30.980  1.00  0.00    -0.354 N 
ATOM     45  N   UNL A   1      42.695  31.718  31.771  1.00  0.00    -0.248 NA
ATOM     46  C   UNL A   1      43.050  31.189  29.523  1.00  0.00     0.031 C 
ATOM     47  C   UNL A   1      39.199  28.365  32.678  1.00  0.00     0.029 A 
ATOM     48  C   UNL A   1      40.383  28.806  32.082  1.00  0.00     0.049 A 
ATOM     49  H   UNL A   1      41.368  27.778  30.537  1.00  0.00     0.167 HD
ATOM     50  C   UNL A   1      42.195  30.441  31.551  1.00  0.00     0.074 A 
ATOM     51  C   UNL A   1      42.533  30.134  30.160  1.00  0.00     0.031 C 
ATOM     52  C   UNL A   1      41.291  29.885  32.410  1.00  0.00     0.034 A 
BRANCH  39  53
ATOM     53  C   UNL A   1      39.830  26.810  28.197  1.00  0.00     0.023 A 
ATOM     54  C   UNL A   1      39.776  25.404  28.328  1.00  0.00     0.012 A 
ATOM     55  C   UNL A   1      40.855  27.332  27.373  1.00  0.00     0.148 A 
ATOM     56  C   UNL A   1      40.739  24.573  27.748  1.00  0.00     0.002 A 
ATOM     57  C   UNL A   1      41.767  26.498  26.738  1.00  0.00     0.091 A 
ATOM     58  F   UNL A   1      41.050  28.647  27.279  1.00  0.00    -0.205 F 
ATOM     59  C   UNL A   1      41.736  25.120  26.953  1.00  0.00     0.022 A 
BRANCH  57  60
ATOM     60  S   UNL A   1      43.054  27.149  25.662  1.00  0.00     0.127 S 
ATOM     61  O   UNL A   1      42.268  27.909  24.696  1.00  0.00    -0.237 OA
ATOM     62  O   UNL A   1      43.837  27.954  26.598  1.00  0.00    -0.237 OA
ATOM     63  O   UNL A   1      43.760  25.987  25.136  1.00  0.00    -0.744 OA
ENDBRANCH  57  60
ENDBRANCH  39  53
BRANCH  40  64
ATOM     64  C   UNL A   1      43.589  34.429  29.480  1.00  0.00     0.023 A 
ATOM     65  C   UNL A   1      44.487  35.200  30.249  1.00  0.00     0.012 A 
ATOM     66  C   UNL A   1      43.884  34.240  28.112  1.00  0.00     0.148 A 
ATOM     67  C   UNL A   1      45.661  35.720  29.689  1.00  0.00     0.002 A 
ATOM     68  C   UNL A   1      45.055  34.755  27.560  1.00  0.00     0.091 A 
ATOM     69  F   UNL A   1      43.066  33.477  27.375  1.00  0.00    -0.205 F 
ATOM     70  C   UNL A   1      45.953  35.484  28.349  1.00  0.00     0.022 A 
BRANCH  68  71
ATOM     71  S   UNL A   1      45.530  34.443  25.853  1.00  0.00     0.127 S 
ATOM     72  O   UNL A   1      46.089  33.094  25.939  1.00  0.00    -0.237 OA
ATOM     73  O   UNL A   1      44.247  34.532  25.163  1.00  0.00    -0.237 OA
ATOM     74  O   UNL A   1      46.501  35.476  25.514  1.00  0.00    -0.744 OA
ENDBRANCH  68  71
ENDBRANCH  40  64
BRANCH  52  75
ATOM     75  C   UNL A   1      41.044  30.575  33.730  1.00  0.00     0.023 A 
ATOM     76  C   UNL A   1      41.905  30.433  34.840  1.00  0.00     0.012 A 
ATOM     77  C   UNL A   1      40.029  31.545  33.778  1.00  0.00     0.148 A 
ATOM     78  C   UNL A   1      41.750  31.239  35.973  1.00  0.00     0.002 A 
ATOM     79  C   UNL A   1      39.912  32.378  34.881  1.00  0.00     0.091 A 
ATOM     80  F   UNL A   1      39.220  31.664  32.715  1.00  0.00    -0.205 F 
ATOM     81  C   UNL A   1      40.763  32.224  35.986  1.00  0.00     0.022 A 
BRANCH  79  82
ATOM     82  S   UNL A   1      38.762  33.755  34.896  1.00  0.00     0.127 S 
ATOM     83  O   UNL A   1      37.473  33.078  34.772  1.00  0.00    -0.237 OA
ATOM     84  O   UNL A   1      39.014  34.359  36.204  1.00  0.00    -0.237 OA
ATOM     85  O   UNL A   1      39.134  34.602  33.769  1.00  0.00    -0.744 OA
ENDBRANCH  79  82
ENDBRANCH  52  75
ENDBRANCH  26  27
ENDBRANCH  19  21
ENDBRANCH  18  19
ENDBRANCH   1  18
TORSDOF 16
ENDMDL
