MODEL 1
REMARK VINA RESULT:     -11.5      0.000      0.000
REMARK SMILES O=C(OCCOC(=O)c1[nH]nc2c1CCC2)c1ccc(-c2c3nc(c(-c4cccc(S(=O)(=O)[O-])c4F)c4ccc([nH]4)c(-c4cccc(S(=O)(=O)[O-])c4F)c4nc(c(-c5cccc(S(=O)(=O)[O-])c5F)c5ccc2[nH]5)C=C4)C=C3)cc1
REMARK SMILES IDX 3 1 2 2 1 3 17 4 18 5 79 6 19 7 78 8 20 9 21 10 22 11 72 12
REMARK SMILES IDX 23 13 77 14 71 15 73 16 24 17 76 18 70 19 69 20 25 22 57 23
REMARK SMILES IDX 37 24 56 25 38 26 41 27 55 28 74 29 39 30 40 31 54 33 75 34
REMARK SMILES IDX 42 35 26 36 27 37 35 38 28 39 30 40 36 41 29 42 31 43 32 44
REMARK SMILES IDX 33 45 34 46 58 47 59 48 67 49 60 50 62 51 68 52 61 53 63 54
REMARK SMILES IDX 64 55 65 56 66 57 43 58 44 59 52 60 45 61 47 62 53 63 46 64
REMARK SMILES IDX 48 65 49 66 50 67 51 68 4 69 5 70 6 71 7 72 8 73 9 74 10 75
REMARK SMILES IDX 13 76 11 77 12 79 14 80 16 81 15 82
REMARK H PARENT 73 21 41 32 10 78
REMARK Flexibility Score: inf
ROOT
ATOM      1  O   UNL A   1      42.214  18.737  25.407  1.00  0.00    -0.458 OA
ENDROOT
BRANCH   1   2
ATOM      2  C   UNL A   1      41.098  19.399  25.785  1.00  0.00     0.338 C 
ATOM      3  O   UNL A   1      39.989  18.887  25.852  1.00  0.00    -0.246 OA
BRANCH   2   4
ATOM      4  C   UNL A   1      41.364  20.709  26.407  1.00  0.00     0.060 A 
ATOM      5  C   UNL A   1      41.743  21.839  25.678  1.00  0.00     0.016 A 
ATOM      6  C   UNL A   1      41.188  20.785  27.795  1.00  0.00     0.016 A 
ATOM      7  C   UNL A   1      42.056  23.009  26.346  1.00  0.00     0.010 A 
ATOM      8  C   UNL A   1      41.473  21.961  28.462  1.00  0.00     0.010 A 
ATOM      9  C   UNL A   1      41.952  23.051  27.739  1.00  0.00    -0.014 A 
BRANCH   9  10
ATOM     10  C   UNL A   1      42.160  24.330  28.404  1.00  0.00     0.031 A 
ATOM     11  C   UNL A   1      41.060  25.299  28.145  1.00  0.00     0.074 A 
ATOM     12  C   UNL A   1      43.165  24.533  29.280  1.00  0.00     0.049 A 
ATOM     13  N   UNL A   1      41.130  26.419  27.501  1.00  0.00    -0.248 NA
ATOM     14  C   UNL A   1      39.683  24.886  28.466  1.00  0.00     0.031 C 
ATOM     15  C   UNL A   1      44.109  23.529  29.783  1.00  0.00     0.029 A 
ATOM     16  N   UNL A   1      43.469  25.634  30.026  1.00  0.00    -0.354 N 
ATOM     17  C   UNL A   1      39.856  26.979  27.605  1.00  0.00     0.074 A 
ATOM     18  C   UNL A   1      38.978  25.903  27.971  1.00  0.00     0.031 C 
ATOM     19  C   UNL A   1      44.678  23.985  30.921  1.00  0.00     0.029 A 
ATOM     20  C   UNL A   1      44.244  25.350  31.152  1.00  0.00     0.049 A 
ATOM     21  H   UNL A   1      43.169  26.542  29.792  1.00  0.00     0.167 HD
ATOM     22  C   UNL A   1      39.707  28.328  27.716  1.00  0.00     0.034 A 
ATOM     23  C   UNL A   1      44.442  26.148  32.235  1.00  0.00     0.034 A 
ATOM     24  C   UNL A   1      40.890  29.013  27.244  1.00  0.00     0.049 A 
ATOM     25  C   UNL A   1      44.097  27.530  31.834  1.00  0.00     0.074 A 
ATOM     26  C   UNL A   1      41.623  29.017  26.074  1.00  0.00     0.029 A 
ATOM     27  N   UNL A   1      41.709  29.554  28.203  1.00  0.00    -0.354 N 
ATOM     28  N   UNL A   1      44.786  28.219  30.971  1.00  0.00    -0.248 NA
ATOM     29  C   UNL A   1      42.735  27.980  32.059  1.00  0.00     0.031 C 
ATOM     30  C   UNL A   1      42.984  29.116  26.493  1.00  0.00     0.029 A 
ATOM     31  C   UNL A   1      43.002  29.257  27.881  1.00  0.00     0.049 A 
ATOM     32  H   UNL A   1      41.415  30.069  28.989  1.00  0.00     0.167 HD
ATOM     33  C   UNL A   1      43.818  28.843  30.195  1.00  0.00     0.074 A 
ATOM     34  C   UNL A   1      42.588  28.758  30.983  1.00  0.00     0.031 C 
ATOM     35  C   UNL A   1      44.040  29.087  28.870  1.00  0.00     0.034 A 
BRANCH  22  36
ATOM     36  C   UNL A   1      38.741  29.010  28.683  1.00  0.00     0.023 A 
ATOM     37  C   UNL A   1      38.022  30.119  28.175  1.00  0.00     0.012 A 
ATOM     38  C   UNL A   1      38.737  28.850  30.089  1.00  0.00     0.148 A 
ATOM     39  C   UNL A   1      37.454  31.080  29.017  1.00  0.00     0.002 A 
ATOM     40  C   UNL A   1      38.113  29.773  30.922  1.00  0.00     0.091 A 
ATOM     41  F   UNL A   1      39.420  27.862  30.663  1.00  0.00    -0.205 F 
ATOM     42  C   UNL A   1      37.508  30.913  30.394  1.00  0.00     0.022 A 
BRANCH  40  43
ATOM     43  S   UNL A   1      38.112  29.589  32.713  1.00  0.00     0.127 S 
ATOM     44  O   UNL A   1      37.269  30.711  33.117  1.00  0.00    -0.237 OA
ATOM     45  O   UNL A   1      37.506  28.268  32.869  1.00  0.00    -0.237 OA
ATOM     46  O   UNL A   1      39.507  29.662  33.125  1.00  0.00    -0.744 OA
ENDBRANCH  40  43
ENDBRANCH  22  36
BRANCH  23  47
ATOM     47  C   UNL A   1      44.654  25.797  33.662  1.00  0.00     0.023 A 
ATOM     48  C   UNL A   1      45.966  25.590  34.143  1.00  0.00     0.012 A 
ATOM     49  C   UNL A   1      43.621  25.952  34.611  1.00  0.00     0.148 A 
ATOM     50  C   UNL A   1      46.242  25.576  35.516  1.00  0.00     0.002 A 
ATOM     51  C   UNL A   1      43.898  25.929  35.975  1.00  0.00     0.091 A 
ATOM     52  F   UNL A   1      42.381  26.217  34.179  1.00  0.00    -0.205 F 
ATOM     53  C   UNL A   1      45.210  25.754  36.433  1.00  0.00     0.022 A 
BRANCH  51  54
ATOM     54  S   UNL A   1      42.618  26.173  37.216  1.00  0.00     0.127 S 
ATOM     55  O   UNL A   1      42.033  27.448  36.800  1.00  0.00    -0.237 OA
ATOM     56  O   UNL A   1      41.764  25.008  37.002  1.00  0.00    -0.237 OA
ATOM     57  O   UNL A   1      43.312  26.224  38.497  1.00  0.00    -0.744 OA
ENDBRANCH  51  54
ENDBRANCH  23  47
BRANCH  35  58
ATOM     58  C   UNL A   1      45.446  28.959  28.349  1.00  0.00     0.023 A 
ATOM     59  C   UNL A   1      45.997  27.739  27.903  1.00  0.00     0.012 A 
ATOM     60  C   UNL A   1      46.182  30.141  28.171  1.00  0.00     0.148 A 
ATOM     61  C   UNL A   1      47.265  27.700  27.318  1.00  0.00     0.002 A 
ATOM     62  C   UNL A   1      47.420  30.106  27.546  1.00  0.00     0.091 A 
ATOM     63  F   UNL A   1      45.644  31.292  28.602  1.00  0.00    -0.205 F 
ATOM     64  C   UNL A   1      47.972  28.886  27.127  1.00  0.00     0.022 A 
BRANCH  62  65
ATOM     65  S   UNL A   1      48.311  31.616  27.170  1.00  0.00     0.127 S 
ATOM     66  O   UNL A   1      48.488  32.204  28.495  1.00  0.00    -0.237 OA
ATOM     67  O   UNL A   1      49.539  31.113  26.553  1.00  0.00    -0.237 OA
ATOM     68  O   UNL A   1      47.455  32.367  26.258  1.00  0.00    -0.744 OA
ENDBRANCH  62  65
ENDBRANCH  35  58
ENDBRANCH   9  10
ENDBRANCH   2   4
ENDBRANCH   1   2
BRANCH   1  69
ATOM     69  C   UNL A   1      43.058  18.125  26.402  1.00  0.00     0.275 C 
BRANCH  69  70
ATOM     70  C   UNL A   1      44.561  18.168  26.133  1.00  0.00     0.275 C 
BRANCH  70  71
ATOM     71  O   UNL A   1      44.834  18.850  24.901  1.00  0.00    -0.457 OA
BRANCH  71  72
ATOM     72  C   UNL A   1      45.884  19.714  24.911  1.00  0.00     0.356 C 
ATOM     73  O   UNL A   1      47.049  19.425  25.186  1.00  0.00    -0.244 OA
BRANCH  72  74
ATOM     74  C   UNL A   1      45.419  21.001  24.535  1.00  0.00     0.146 A 
ATOM     75  N   UNL A   1      44.806  21.303  23.336  1.00  0.00    -0.271 N 
ATOM     76  C   UNL A   1      45.477  22.194  25.198  1.00  0.00     0.008 A 
ATOM     77  N   UNL A   1      44.462  22.615  23.212  1.00  0.00    -0.180 NA
ATOM     78  H   UNL A   1      44.633  20.634  22.636  1.00  0.00     0.190 HD
ATOM     79  C   UNL A   1      44.881  23.125  24.359  1.00  0.00     0.066 A 
ATOM     80  C   UNL A   1      46.004  22.789  26.429  1.00  0.00     0.040 C 
ATOM     81  C   UNL A   1      44.914  24.494  24.902  1.00  0.00     0.059 C 
ATOM     82  C   UNL A   1      45.418  24.239  26.368  1.00  0.00     0.011 C 
ENDBRANCH  72  74
ENDBRANCH  71  72
ENDBRANCH  70  71
ENDBRANCH  69  70
ENDBRANCH   1  69
TORSDOF 14
ENDMDL
MODEL 2
REMARK VINA RESULT:     -11.3      1.421      1.744
REMARK SMILES O=C(OCCOC(=O)c1[nH]nc2c1CCC2)c1ccc(-c2c3nc(c(-c4cccc(S(=O)(=O)[O-])c4F)c4ccc([nH]4)c(-c4cccc(S(=O)(=O)[O-])c4F)c4nc(c(-c5cccc(S(=O)(=O)[O-])c5F)c5ccc2[nH]5)C=C4)C=C3)cc1
REMARK SMILES IDX 3 1 2 2 1 3 17 4 18 5 79 6 19 7 78 8 20 9 21 10 22 11 72 12
REMARK SMILES IDX 23 13 77 14 71 15 73 16 24 17 76 18 70 19 69 20 25 22 57 23
REMARK SMILES IDX 37 24 56 25 38 26 41 27 55 28 74 29 39 30 40 31 54 33 75 34
REMARK SMILES IDX 42 35 26 36 27 37 35 38 28 39 30 40 36 41 29 42 31 43 32 44
REMARK SMILES IDX 33 45 34 46 58 47 59 48 67 49 60 50 62 51 68 52 61 53 63 54
REMARK SMILES IDX 64 55 65 56 66 57 43 58 44 59 52 60 45 61 47 62 53 63 46 64
REMARK SMILES IDX 48 65 49 66 50 67 51 68 4 69 5 70 6 71 7 72 8 73 9 74 10 75
REMARK SMILES IDX 13 76 11 77 12 79 14 80 16 81 15 82
REMARK H PARENT 73 21 41 32 10 78
REMARK Flexibility Score: inf
ROOT
ATOM      1  O   UNL A   1      42.101  18.692  25.382  1.00  0.00    -0.458 OA
ENDROOT
BRANCH   1   2
ATOM      2  C   UNL A   1      40.995  19.391  25.721  1.00  0.00     0.338 C 
ATOM      3  O   UNL A   1      39.867  18.917  25.744  1.00  0.00    -0.246 OA
BRANCH   2   4
ATOM      4  C   UNL A   1      41.282  20.689  26.359  1.00  0.00     0.060 A 
ATOM      5  C   UNL A   1      41.818  21.779  25.668  1.00  0.00     0.016 A 
ATOM      6  C   UNL A   1      40.960  20.798  27.719  1.00  0.00     0.016 A 
ATOM      7  C   UNL A   1      42.136  22.935  26.359  1.00  0.00     0.010 A 
ATOM      8  C   UNL A   1      41.252  21.961  28.405  1.00  0.00     0.010 A 
ATOM      9  C   UNL A   1      41.883  23.005  27.731  1.00  0.00    -0.014 A 
BRANCH   9  10
ATOM     10  C   UNL A   1      42.105  24.276  28.406  1.00  0.00     0.031 A 
ATOM     11  C   UNL A   1      41.018  25.260  28.152  1.00  0.00     0.074 A 
ATOM     12  C   UNL A   1      43.112  24.460  29.285  1.00  0.00     0.049 A 
ATOM     13  N   UNL A   1      41.103  26.384  27.516  1.00  0.00    -0.248 NA
ATOM     14  C   UNL A   1      39.636  24.862  28.468  1.00  0.00     0.031 C 
ATOM     15  C   UNL A   1      44.042  23.441  29.782  1.00  0.00     0.029 A 
ATOM     16  N   UNL A   1      43.428  25.551  30.039  1.00  0.00    -0.354 N 
ATOM     17  C   UNL A   1      39.836  26.959  27.622  1.00  0.00     0.074 A 
ATOM     18  C   UNL A   1      38.944  25.891  27.979  1.00  0.00     0.031 C 
ATOM     19  C   UNL A   1      44.614  23.882  30.924  1.00  0.00     0.029 A 
ATOM     20  C   UNL A   1      44.196  25.251  31.165  1.00  0.00     0.049 A 
ATOM     21  H   UNL A   1      43.139  26.465  29.811  1.00  0.00     0.167 HD
ATOM     22  C   UNL A   1      39.703  28.309  27.743  1.00  0.00     0.034 A 
ATOM     23  C   UNL A   1      44.403  26.038  32.254  1.00  0.00     0.034 A 
ATOM     24  C   UNL A   1      40.895  28.982  27.278  1.00  0.00     0.049 A 
ATOM     25  C   UNL A   1      44.076  27.426  31.862  1.00  0.00     0.074 A 
ATOM     26  C   UNL A   1      41.631  28.986  26.109  1.00  0.00     0.029 A 
ATOM     27  N   UNL A   1      41.720  29.507  28.242  1.00  0.00    -0.354 N 
ATOM     28  N   UNL A   1      44.775  28.114  31.005  1.00  0.00    -0.248 NA
ATOM     29  C   UNL A   1      42.719  27.892  32.088  1.00  0.00     0.031 C 
ATOM     30  C   UNL A   1      42.992  29.065  26.531  1.00  0.00     0.029 A 
ATOM     31  C   UNL A   1      43.009  29.196  27.920  1.00  0.00     0.049 A 
ATOM     32  H   UNL A   1      41.430  30.019  29.032  1.00  0.00     0.167 HD
ATOM     33  C   UNL A   1      43.816  28.755  30.233  1.00  0.00     0.074 A 
ATOM     34  C   UNL A   1      42.583  28.679  31.018  1.00  0.00     0.031 C 
ATOM     35  C   UNL A   1      44.043  29.006  28.910  1.00  0.00     0.034 A 
BRANCH  22  36
ATOM     36  C   UNL A   1      38.744  28.996  28.713  1.00  0.00     0.023 A 
ATOM     37  C   UNL A   1      38.051  30.126  28.217  1.00  0.00     0.012 A 
ATOM     38  C   UNL A   1      38.727  28.815  30.117  1.00  0.00     0.148 A 
ATOM     39  C   UNL A   1      37.496  31.087  29.069  1.00  0.00     0.002 A 
ATOM     40  C   UNL A   1      38.116  29.738  30.959  1.00  0.00     0.091 A 
ATOM     41  F   UNL A   1      39.385  27.805  30.681  1.00  0.00    -0.205 F 
ATOM     42  C   UNL A   1      37.537  30.897  30.443  1.00  0.00     0.022 A 
BRANCH  40  43
ATOM     43  S   UNL A   1      38.097  29.528  32.746  1.00  0.00     0.127 S 
ATOM     44  O   UNL A   1      39.518  29.640  33.064  1.00  0.00    -0.237 OA
ATOM     45  O   UNL A   1      37.275  30.663  33.163  1.00  0.00    -0.237 OA
ATOM     46  O   UNL A   1      37.492  28.227  32.992  1.00  0.00    -0.744 OA
ENDBRANCH  40  43
ENDBRANCH  22  36
BRANCH  23  47
ATOM     47  C   UNL A   1      44.608  25.674  33.678  1.00  0.00     0.023 A 
ATOM     48  C   UNL A   1      43.490  25.438  34.507  1.00  0.00     0.012 A 
ATOM     49  C   UNL A   1      45.876  25.273  34.152  1.00  0.00     0.148 A 
ATOM     50  C   UNL A   1      43.625  24.792  35.744  1.00  0.00     0.002 A 
ATOM     51  C   UNL A   1      46.008  24.639  35.385  1.00  0.00     0.091 A 
ATOM     52  F   UNL A   1      46.941  25.424  33.355  1.00  0.00    -0.205 F 
ATOM     53  C   UNL A   1      44.882  24.385  36.179  1.00  0.00     0.022 A 
BRANCH  51  54
ATOM     54  S   UNL A   1      47.597  24.065  36.002  1.00  0.00     0.127 S 
ATOM     55  O   UNL A   1      48.418  25.271  35.889  1.00  0.00    -0.237 OA
ATOM     56  O   UNL A   1      47.267  23.675  37.370  1.00  0.00    -0.237 OA
ATOM     57  O   UNL A   1      48.000  22.983  35.114  1.00  0.00    -0.744 OA
ENDBRANCH  51  54
ENDBRANCH  23  47
BRANCH  35  58
ATOM     58  C   UNL A   1      45.449  28.864  28.391  1.00  0.00     0.023 A 
ATOM     59  C   UNL A   1      45.991  27.637  27.953  1.00  0.00     0.012 A 
ATOM     60  C   UNL A   1      46.193  30.040  28.205  1.00  0.00     0.148 A 
ATOM     61  C   UNL A   1      47.259  27.585  27.368  1.00  0.00     0.002 A 
ATOM     62  C   UNL A   1      47.431  29.992  27.580  1.00  0.00     0.091 A 
ATOM     63  F   UNL A   1      45.663  31.198  28.627  1.00  0.00    -0.205 F 
ATOM     64  C   UNL A   1      47.974  28.764  27.170  1.00  0.00     0.022 A 
BRANCH  62  65
ATOM     65  S   UNL A   1      48.332  31.492  27.194  1.00  0.00     0.127 S 
ATOM     66  O   UNL A   1      49.546  30.968  26.574  1.00  0.00    -0.237 OA
ATOM     67  O   UNL A   1      47.423  32.180  26.277  1.00  0.00    -0.237 OA
ATOM     68  O   UNL A   1      48.523  32.181  28.466  1.00  0.00    -0.744 OA
ENDBRANCH  62  65
ENDBRANCH  35  58
ENDBRANCH   9  10
ENDBRANCH   2   4
ENDBRANCH   1   2
BRANCH   1  69
ATOM     69  C   UNL A   1      42.929  18.116  26.411  1.00  0.00     0.275 C 
BRANCH  69  70
ATOM     70  C   UNL A   1      44.438  18.280  26.235  1.00  0.00     0.275 C 
BRANCH  70  71
ATOM     71  O   UNL A   1      44.733  18.927  24.990  1.00  0.00    -0.457 OA
BRANCH  71  72
ATOM     72  C   UNL A   1      45.819  19.746  24.979  1.00  0.00     0.356 C 
ATOM     73  O   UNL A   1      46.972  19.415  25.258  1.00  0.00    -0.244 OA
BRANCH  72  74
ATOM     74  C   UNL A   1      45.407  21.043  24.577  1.00  0.00     0.146 A 
ATOM     75  N   UNL A   1      44.840  21.352  23.357  1.00  0.00    -0.271 N 
ATOM     76  C   UNL A   1      45.483  22.241  25.230  1.00  0.00     0.008 A 
ATOM     77  N   UNL A   1      44.541  22.673  23.210  1.00  0.00    -0.180 NA
ATOM     78  H   UNL A   1      44.666  20.681  22.659  1.00  0.00     0.190 HD
ATOM     79  C   UNL A   1      44.942  23.182  24.364  1.00  0.00     0.066 A 
ATOM     80  C   UNL A   1      45.992  22.833  26.470  1.00  0.00     0.040 C 
ATOM     81  C   UNL A   1      45.003  24.555  24.895  1.00  0.00     0.059 C 
ATOM     82  C   UNL A   1      45.454  24.300  26.378  1.00  0.00     0.011 C 
ENDBRANCH  72  74
ENDBRANCH  71  72
ENDBRANCH  70  71
ENDBRANCH  69  70
ENDBRANCH   1  69
TORSDOF 14
ENDMDL
MODEL 3
REMARK VINA RESULT:     -11.0      4.788     12.155
REMARK SMILES O=C(OCCOC(=O)c1[nH]nc2c1CCC2)c1ccc(-c2c3nc(c(-c4cccc(S(=O)(=O)[O-])c4F)c4ccc([nH]4)c(-c4cccc(S(=O)(=O)[O-])c4F)c4nc(c(-c5cccc(S(=O)(=O)[O-])c5F)c5ccc2[nH]5)C=C4)C=C3)cc1
REMARK SMILES IDX 3 1 2 2 1 3 17 4 18 5 79 6 19 7 78 8 20 9 21 10 22 11 72 12
REMARK SMILES IDX 23 13 77 14 71 15 73 16 24 17 76 18 70 19 69 20 25 22 57 23
REMARK SMILES IDX 37 24 56 25 38 26 41 27 55 28 74 29 39 30 40 31 54 33 75 34
REMARK SMILES IDX 42 35 26 36 27 37 35 38 28 39 30 40 36 41 29 42 31 43 32 44
REMARK SMILES IDX 33 45 34 46 58 47 59 48 67 49 60 50 62 51 68 52 61 53 63 54
REMARK SMILES IDX 64 55 65 56 66 57 43 58 44 59 52 60 45 61 47 62 53 63 46 64
REMARK SMILES IDX 48 65 49 66 50 67 51 68 4 69 5 70 6 71 7 72 8 73 9 74 10 75
REMARK SMILES IDX 13 76 11 77 12 79 14 80 16 81 15 82
REMARK H PARENT 73 21 41 32 10 78
REMARK Flexibility Score: inf
ROOT
ATOM      1  O   UNL A   1      32.544  35.237  29.468  1.00  0.00    -0.458 OA
ENDROOT
BRANCH   1   2
ATOM      2  C   UNL A   1      32.892  34.235  28.631  1.00  0.00     0.338 C 
ATOM      3  O   UNL A   1      32.265  33.938  27.622  1.00  0.00    -0.246 OA
BRANCH   2   4
ATOM      4  C   UNL A   1      34.255  33.719  28.852  1.00  0.00     0.060 A 
ATOM      5  C   UNL A   1      35.405  34.489  28.656  1.00  0.00     0.016 A 
ATOM      6  C   UNL A   1      34.354  32.398  29.307  1.00  0.00     0.016 A 
ATOM      7  C   UNL A   1      36.650  33.905  28.804  1.00  0.00     0.010 A 
ATOM      8  C   UNL A   1      35.597  31.821  29.482  1.00  0.00     0.010 A 
ATOM      9  C   UNL A   1      36.738  32.564  29.183  1.00  0.00    -0.014 A 
BRANCH   9  10
ATOM     10  C   UNL A   1      38.057  32.013  29.459  1.00  0.00     0.031 A 
ATOM     11  C   UNL A   1      38.173  30.579  29.077  1.00  0.00     0.074 A 
ATOM     12  C   UNL A   1      39.088  32.779  29.869  1.00  0.00     0.049 A 
ATOM     13  N   UNL A   1      38.357  29.565  29.859  1.00  0.00    -0.248 NA
ATOM     14  C   UNL A   1      37.852  30.204  27.689  1.00  0.00     0.031 C 
ATOM     15  C   UNL A   1      39.102  34.240  29.992  1.00  0.00     0.029 A 
ATOM     16  N   UNL A   1      40.387  32.442  30.116  1.00  0.00    -0.354 N 
ATOM     17  C   UNL A   1      38.470  28.464  29.009  1.00  0.00     0.074 A 
ATOM     18  C   UNL A   1      37.908  28.874  27.753  1.00  0.00     0.031 C 
ATOM     19  C   UNL A   1      40.383  34.672  30.016  1.00  0.00     0.029 A 
ATOM     20  C   UNL A   1      41.269  33.522  30.043  1.00  0.00     0.049 A 
ATOM     21  H   UNL A   1      40.674  31.524  30.324  1.00  0.00     0.167 HD
ATOM     22  C   UNL A   1      39.320  27.445  29.315  1.00  0.00     0.034 A 
ATOM     23  C   UNL A   1      42.622  33.471  29.928  1.00  0.00     0.034 A 
ATOM     24  C   UNL A   1      39.641  27.454  30.725  1.00  0.00     0.049 A 
ATOM     25  C   UNL A   1      43.051  32.122  30.354  1.00  0.00     0.074 A 
ATOM     26  C   UNL A   1      38.914  27.430  31.899  1.00  0.00     0.029 A 
ATOM     27  N   UNL A   1      40.893  27.900  31.067  1.00  0.00    -0.354 N 
ATOM     28  N   UNL A   1      42.957  31.693  31.580  1.00  0.00    -0.248 NA
ATOM     29  C   UNL A   1      43.171  31.095  29.334  1.00  0.00     0.031 C 
ATOM     30  C   UNL A   1      39.616  28.304  32.784  1.00  0.00     0.029 A 
ATOM     31  C   UNL A   1      40.773  28.740  32.137  1.00  0.00     0.049 A 
ATOM     32  H   UNL A   1      41.735  27.657  30.617  1.00  0.00     0.167 HD
ATOM     33  C   UNL A   1      42.502  30.389  31.442  1.00  0.00     0.074 A 
ATOM     34  C   UNL A   1      42.768  30.039  30.047  1.00  0.00     0.031 C 
ATOM     35  C   UNL A   1      41.678  29.837  32.381  1.00  0.00     0.034 A 
BRANCH  22  36
ATOM     36  C   UNL A   1      40.242  26.762  28.308  1.00  0.00     0.023 A 
ATOM     37  C   UNL A   1      40.474  25.379  28.504  1.00  0.00     0.012 A 
ATOM     38  C   UNL A   1      41.119  27.425  27.416  1.00  0.00     0.148 A 
ATOM     39  C   UNL A   1      41.587  24.731  27.959  1.00  0.00     0.002 A 
ATOM     40  C   UNL A   1      42.187  26.761  26.822  1.00  0.00     0.091 A 
ATOM     41  F   UNL A   1      41.007  28.734  27.198  1.00  0.00    -0.205 F 
ATOM     42  C   UNL A   1      42.451  25.425  27.124  1.00  0.00     0.022 A 
BRANCH  40  43
ATOM     43  S   UNL A   1      43.318  27.594  25.697  1.00  0.00     0.127 S 
ATOM     44  O   UNL A   1      43.884  28.622  26.566  1.00  0.00    -0.237 OA
ATOM     45  O   UNL A   1      44.230  26.506  25.344  1.00  0.00    -0.237 OA
ATOM     46  O   UNL A   1      42.503  28.076  24.591  1.00  0.00    -0.744 OA
ENDBRANCH  40  43
ENDBRANCH  22  36
BRANCH  23  47
ATOM     47  C   UNL A   1      43.563  34.389  29.238  1.00  0.00     0.023 A 
ATOM     48  C   UNL A   1      44.195  35.420  29.967  1.00  0.00     0.012 A 
ATOM     49  C   UNL A   1      44.067  34.086  27.954  1.00  0.00     0.148 A 
ATOM     50  C   UNL A   1      45.310  36.096  29.454  1.00  0.00     0.002 A 
ATOM     51  C   UNL A   1      45.170  34.765  27.444  1.00  0.00     0.091 A 
ATOM     52  F   UNL A   1      43.528  33.068  27.272  1.00  0.00    -0.205 F 
ATOM     53  C   UNL A   1      45.803  35.762  28.196  1.00  0.00     0.022 A 
BRANCH  51  54
ATOM     54  S   UNL A   1      45.875  34.374  25.835  1.00  0.00     0.127 S 
ATOM     55  O   UNL A   1      44.712  34.501  24.957  1.00  0.00    -0.237 OA
ATOM     56  O   UNL A   1      46.877  35.425  25.681  1.00  0.00    -0.237 OA
ATOM     57  O   UNL A   1      46.393  33.017  25.948  1.00  0.00    -0.744 OA
ENDBRANCH  51  54
ENDBRANCH  23  47
BRANCH  35  58
ATOM     58  C   UNL A   1      41.532  30.544  33.702  1.00  0.00     0.023 A 
ATOM     59  C   UNL A   1      42.408  30.342  34.789  1.00  0.00     0.012 A 
ATOM     60  C   UNL A   1      40.561  31.554  33.792  1.00  0.00     0.148 A 
ATOM     61  C   UNL A   1      42.297  31.113  35.949  1.00  0.00     0.002 A 
ATOM     62  C   UNL A   1      40.484  32.351  34.926  1.00  0.00     0.091 A 
ATOM     63  F   UNL A   1      39.735  31.733  32.750  1.00  0.00    -0.205 F 
ATOM     64  C   UNL A   1      41.343  32.126  36.013  1.00  0.00     0.022 A 
BRANCH  62  65
ATOM     65  S   UNL A   1      39.357  33.742  35.005  1.00  0.00     0.127 S 
ATOM     66  O   UNL A   1      38.064  33.079  35.160  1.00  0.00    -0.237 OA
ATOM     67  O   UNL A   1      39.824  34.460  36.192  1.00  0.00    -0.237 OA
ATOM     68  O   UNL A   1      39.542  34.477  33.759  1.00  0.00    -0.744 OA
ENDBRANCH  62  65
ENDBRANCH  35  58
ENDBRANCH   9  10
ENDBRANCH   2   4
ENDBRANCH   1   2
BRANCH   1  69
ATOM     69  C   UNL A   1      32.813  36.605  29.102  1.00  0.00     0.275 C 
BRANCH  69  70
ATOM     70  C   UNL A   1      33.548  37.451  30.140  1.00  0.00     0.275 C 
BRANCH  70  71
ATOM     71  O   UNL A   1      32.817  37.483  31.373  1.00  0.00    -0.457 OA
BRANCH  71  72
ATOM     72  C   UNL A   1      33.526  37.207  32.501  1.00  0.00     0.356 C 
ATOM     73  O   UNL A   1      34.003  38.041  33.271  1.00  0.00    -0.244 OA
BRANCH  72  74
ATOM     74  C   UNL A   1      33.613  35.798  32.651  1.00  0.00     0.146 A 
ATOM     75  N   UNL A   1      32.540  34.956  32.864  1.00  0.00    -0.271 N 
ATOM     76  C   UNL A   1      34.701  34.972  32.654  1.00  0.00     0.008 A 
ATOM     77  N   UNL A   1      32.888  33.646  32.986  1.00  0.00    -0.180 NA
ATOM     78  H   UNL A   1      31.610  35.273  32.921  1.00  0.00     0.190 HD
ATOM     79  C   UNL A   1      34.204  33.690  32.851  1.00  0.00     0.066 A 
ATOM     80  C   UNL A   1      36.164  35.012  32.585  1.00  0.00     0.040 C 
ATOM     81  C   UNL A   1      35.262  32.670  32.942  1.00  0.00     0.059 C 
ATOM     82  C   UNL A   1      36.530  33.492  32.513  1.00  0.00     0.011 C 
ENDBRANCH  72  74
ENDBRANCH  71  72
ENDBRANCH  70  71
ENDBRANCH  69  70
ENDBRANCH   1  69
TORSDOF 14
ENDMDL
