MODEL 1
REMARK VINA RESULT:     -12.0      0.000      0.000
REMARK SMILES Cc1cscc1C(=O)Nc1cc(Br)ccc1C(=O)OCCOC(=O)c1ccc(-c2c3nc(c(-c4cccc(S(=O)(=O)[O-])c4F)c4ccc([nH]4)c(-c4cccc(S(=O)(=O)[O-])c4F)c4nc(c(-c5cccc(S(=O)(=O)[O-])c5F)c5ccc2[nH]5)C=C4)C=C3)cc1
REMARK SMILES IDX 21 1 20 2 19 3 17 4 18 5 16 6 10 7 11 8 12 9 15 10 13 11
REMARK SMILES IDX 14 12 9 13 7 14 8 15 6 17 1 18 2 19 3 20 4 21 5 22 22 23
REMARK SMILES IDX 23 24 24 25 25 26 26 27 87 28 27 29 86 30 28 31 29 32 30 33
REMARK SMILES IDX 80 34 31 35 85 36 79 37 81 38 32 39 84 40 78 41 77 42 33 44
REMARK SMILES IDX 65 45 45 46 64 47 46 48 49 49 63 50 82 51 47 52 48 53 62 55
REMARK SMILES IDX 83 56 50 57 34 58 35 59 43 60 36 61 38 62 44 63 37 64 39 65
REMARK SMILES IDX 40 66 41 67 42 68 66 69 67 70 75 71 68 72 70 73 76 74 69 75
REMARK SMILES IDX 71 76 72 77 73 78 74 79 51 80 52 81 60 82 53 83 55 84 61 85
REMARK SMILES IDX 54 86 56 87 57 88 58 89 59 90
REMARK H PARENT 9 16 81 43 49 54
REMARK Flexibility Score: inf
ROOT
ATOM      1  C   UNL A   1      36.387  20.950  25.277  1.00  0.00     0.275 C 
ENDROOT
BRANCH   1   2
ATOM      2  C   UNL A   1      35.157  21.837  25.064  1.00  0.00     0.275 C 
BRANCH   2   3
ATOM      3  O   UNL A   1      35.285  23.130  25.701  1.00  0.00    -0.458 OA
BRANCH   3   4
ATOM      4  C   UNL A   1      34.272  23.492  26.535  1.00  0.00     0.340 C 
ATOM      5  O   UNL A   1      33.928  22.878  27.525  1.00  0.00    -0.246 OA
BRANCH   4   6
ATOM      6  C   UNL A   1      33.593  24.763  26.118  1.00  0.00     0.083 A 
ATOM      7  C   UNL A   1      32.236  25.070  26.343  1.00  0.00     0.057 A 
ATOM      8  C   UNL A   1      31.774  26.368  26.079  1.00  0.00     0.042 A 
ATOM      9  C   UNL A   1      32.599  27.294  25.437  1.00  0.00     0.020 A 
ATOM     10  C   UNL A   1      34.400  25.706  25.453  1.00  0.00     0.019 A 
ATOM     11  Br  UNL A   1      31.940  29.016  25.025  1.00  0.00    -0.051 Br
ATOM     12  C   UNL A   1      33.892  26.948  25.070  1.00  0.00     0.017 A 
BRANCH   7  13
ATOM     13  N   UNL A   1      31.368  24.084  26.829  1.00  0.00    -0.321 N 
ATOM     14  C   UNL A   1      30.793  22.974  26.263  1.00  0.00     0.256 C 
ATOM     15  O   UNL A   1      29.855  22.470  26.887  1.00  0.00    -0.269 OA
ATOM     16  H   UNL A   1      31.120  24.214  27.773  1.00  0.00     0.170 HD
BRANCH  14  17
ATOM     17  C   UNL A   1      31.274  22.353  25.016  1.00  0.00     0.053 A 
ATOM     18  C   UNL A   1      31.192  24.242  23.130  1.00  0.00     0.046 C 
ATOM     19  C   UNL A   1      31.447  22.863  23.658  1.00  0.00    -0.028 A 
ATOM     20  C   UNL A   1      31.948  21.881  22.815  1.00  0.00     0.069 A 
ATOM     21  S   UNL A   1      32.337  20.435  23.616  1.00  0.00    -0.151 S 
ATOM     22  C   UNL A   1      31.802  21.069  25.099  1.00  0.00     0.079 A 
ENDBRANCH  14  17
ENDBRANCH   7  13
ENDBRANCH   4   6
ENDBRANCH   3   4
ENDBRANCH   2   3
ENDBRANCH   1   2
BRANCH   1  23
ATOM     23  O   UNL A   1      37.607  21.671  25.028  1.00  0.00    -0.458 OA
BRANCH  23  24
ATOM     24  C   UNL A   1      38.661  21.262  25.768  1.00  0.00     0.338 C 
ATOM     25  O   UNL A   1      39.169  20.151  25.780  1.00  0.00    -0.246 OA
BRANCH  24  26
ATOM     26  C   UNL A   1      39.269  22.401  26.467  1.00  0.00     0.060 A 
ATOM     27  C   UNL A   1      38.801  23.662  26.116  1.00  0.00     0.016 A 
ATOM     28  C   UNL A   1      40.384  22.268  27.289  1.00  0.00     0.016 A 
ATOM     29  C   UNL A   1      39.486  24.801  26.507  1.00  0.00     0.010 A 
ATOM     30  C   UNL A   1      41.027  23.425  27.756  1.00  0.00     0.010 A 
ATOM     31  C   UNL A   1      40.607  24.704  27.342  1.00  0.00    -0.014 A 
BRANCH  31  32
ATOM     32  C   UNL A   1      41.333  25.946  27.737  1.00  0.00     0.031 A 
ATOM     33  C   UNL A   1      40.644  27.011  28.549  1.00  0.00     0.074 A 
ATOM     34  C   UNL A   1      42.624  26.112  27.383  1.00  0.00     0.049 A 
ATOM     35  N   UNL A   1      41.070  28.203  28.878  1.00  0.00    -0.248 NA
ATOM     36  C   UNL A   1      39.292  26.704  29.046  1.00  0.00     0.031 C 
ATOM     37  C   UNL A   1      43.419  25.153  26.611  1.00  0.00     0.029 A 
ATOM     38  N   UNL A   1      43.495  27.148  27.616  1.00  0.00    -0.354 N 
ATOM     39  C   UNL A   1      40.015  28.817  29.543  1.00  0.00     0.074 A 
ATOM     40  C   UNL A   1      38.931  27.859  29.585  1.00  0.00     0.031 C 
ATOM     41  C   UNL A   1      44.660  25.633  26.452  1.00  0.00     0.029 A 
ATOM     42  C   UNL A   1      44.726  26.972  27.023  1.00  0.00     0.049 A 
ATOM     43  H   UNL A   1      43.263  27.939  28.154  1.00  0.00     0.167 HD
ATOM     44  C   UNL A   1      39.955  30.064  30.071  1.00  0.00     0.034 A 
ATOM     45  C   UNL A   1      45.773  27.808  26.896  1.00  0.00     0.034 A 
ATOM     46  C   UNL A   1      41.059  30.989  30.083  1.00  0.00     0.049 A 
ATOM     47  C   UNL A   1      45.683  29.185  27.491  1.00  0.00     0.074 A 
ATOM     48  C   UNL A   1      41.116  32.251  30.648  1.00  0.00     0.029 A 
ATOM     49  N   UNL A   1      42.295  30.757  29.500  1.00  0.00    -0.354 N 
ATOM     50  N   UNL A   1      44.698  29.725  28.166  1.00  0.00    -0.248 NA
ATOM     51  C   UNL A   1      46.850  30.059  27.321  1.00  0.00     0.031 C 
ATOM     52  C   UNL A   1      42.375  32.797  30.374  1.00  0.00     0.029 A 
ATOM     53  C   UNL A   1      43.117  31.858  29.676  1.00  0.00     0.049 A 
ATOM     54  H   UNL A   1      42.551  29.931  29.028  1.00  0.00     0.167 HD
ATOM     55  C   UNL A   1      45.135  30.995  28.521  1.00  0.00     0.074 A 
ATOM     56  C   UNL A   1      46.483  31.131  28.009  1.00  0.00     0.031 C 
ATOM     57  C   UNL A   1      44.472  31.966  29.197  1.00  0.00     0.034 A 
BRANCH  44  58
ATOM     58  C   UNL A   1      38.648  30.511  30.678  1.00  0.00     0.023 A 
ATOM     59  C   UNL A   1      38.385  30.294  32.045  1.00  0.00     0.012 A 
ATOM     60  C   UNL A   1      37.695  31.192  29.893  1.00  0.00     0.148 A 
ATOM     61  C   UNL A   1      37.180  30.710  32.612  1.00  0.00     0.002 A 
ATOM     62  C   UNL A   1      36.518  31.648  30.477  1.00  0.00     0.091 A 
ATOM     63  F   UNL A   1      37.952  31.373  28.590  1.00  0.00    -0.205 F 
ATOM     64  C   UNL A   1      36.252  31.395  31.832  1.00  0.00     0.022 A 
BRANCH  62  65
ATOM     65  S   UNL A   1      35.300  32.612  29.573  1.00  0.00     0.127 S 
ATOM     66  O   UNL A   1      36.101  33.749  29.121  1.00  0.00    -0.237 OA
ATOM     67  O   UNL A   1      34.902  31.687  28.513  1.00  0.00    -0.237 OA
ATOM     68  O   UNL A   1      34.249  32.929  30.530  1.00  0.00    -0.744 OA
ENDBRANCH  62  65
ENDBRANCH  44  58
BRANCH  45  69
ATOM     69  C   UNL A   1      46.989  27.362  26.159  1.00  0.00     0.023 A 
ATOM     70  C   UNL A   1      47.908  26.498  26.782  1.00  0.00     0.012 A 
ATOM     71  C   UNL A   1      47.208  27.749  24.821  1.00  0.00     0.148 A 
ATOM     72  C   UNL A   1      49.032  26.041  26.093  1.00  0.00     0.002 A 
ATOM     73  C   UNL A   1      48.292  27.238  24.120  1.00  0.00     0.091 A 
ATOM     74  F   UNL A   1      46.330  28.586  24.250  1.00  0.00    -0.205 F 
ATOM     75  C   UNL A   1      49.216  26.398  24.759  1.00  0.00     0.022 A 
BRANCH  73  76
ATOM     76  S   UNL A   1      48.522  27.524  22.361  1.00  0.00     0.127 S 
ATOM     77  O   UNL A   1      48.650  26.161  21.852  1.00  0.00    -0.237 OA
ATOM     78  O   UNL A   1      47.277  28.203  22.003  1.00  0.00    -0.237 OA
ATOM     79  O   UNL A   1      49.714  28.355  22.249  1.00  0.00    -0.744 OA
ENDBRANCH  73  76
ENDBRANCH  45  69
BRANCH  57  80
ATOM     80  C   UNL A   1      45.209  33.253  29.462  1.00  0.00     0.023 A 
ATOM     81  C   UNL A   1      45.939  33.415  30.656  1.00  0.00     0.012 A 
ATOM     82  C   UNL A   1      45.226  34.278  28.496  1.00  0.00     0.148 A 
ATOM     83  C   UNL A   1      46.644  34.592  30.900  1.00  0.00     0.002 A 
ATOM     84  C   UNL A   1      45.974  35.426  28.722  1.00  0.00     0.091 A 
ATOM     85  F   UNL A   1      44.509  34.112  27.376  1.00  0.00    -0.205 F 
ATOM     86  C   UNL A   1      46.672  35.591  29.930  1.00  0.00     0.022 A 
BRANCH  84  87
ATOM     87  S   UNL A   1      46.148  36.721  27.490  1.00  0.00     0.127 S 
ATOM     88  O   UNL A   1      44.784  37.244  27.415  1.00  0.00    -0.237 OA
ATOM     89  O   UNL A   1      47.114  37.620  28.121  1.00  0.00    -0.237 OA
ATOM     90  O   UNL A   1      46.631  36.064  26.283  1.00  0.00    -0.744 OA
ENDBRANCH  84  87
ENDBRANCH  57  80
ENDBRANCH  31  32
ENDBRANCH  24  26
ENDBRANCH  23  24
ENDBRANCH   1  23
TORSDOF 16
ENDMDL
MODEL 2
REMARK VINA RESULT:     -11.9      5.495      9.944
REMARK SMILES Cc1cscc1C(=O)Nc1cc(Br)ccc1C(=O)OCCOC(=O)c1ccc(-c2c3nc(c(-c4cccc(S(=O)(=O)[O-])c4F)c4ccc([nH]4)c(-c4cccc(S(=O)(=O)[O-])c4F)c4nc(c(-c5cccc(S(=O)(=O)[O-])c5F)c5ccc2[nH]5)C=C4)C=C3)cc1
REMARK SMILES IDX 21 1 20 2 19 3 17 4 18 5 16 6 10 7 11 8 12 9 15 10 13 11
REMARK SMILES IDX 14 12 9 13 7 14 8 15 6 17 1 18 2 19 3 20 4 21 5 22 22 23
REMARK SMILES IDX 23 24 24 25 25 26 26 27 87 28 27 29 86 30 28 31 29 32 30 33
REMARK SMILES IDX 80 34 31 35 85 36 79 37 81 38 32 39 84 40 78 41 77 42 33 44
REMARK SMILES IDX 65 45 45 46 64 47 46 48 49 49 63 50 82 51 47 52 48 53 62 55
REMARK SMILES IDX 83 56 50 57 34 58 35 59 43 60 36 61 38 62 44 63 37 64 39 65
REMARK SMILES IDX 40 66 41 67 42 68 66 69 67 70 75 71 68 72 70 73 76 74 69 75
REMARK SMILES IDX 71 76 72 77 73 78 74 79 51 80 52 81 60 82 53 83 55 84 61 85
REMARK SMILES IDX 54 86 56 87 57 88 58 89 59 90
REMARK H PARENT 9 16 81 43 49 54
REMARK Flexibility Score: inf
ROOT
ATOM      1  C   UNL A   1      31.848  29.631  26.580  1.00  0.00     0.275 C 
ENDROOT
BRANCH   1   2
ATOM      2  C   UNL A   1      31.886  28.264  25.890  1.00  0.00     0.275 C 
BRANCH   2   3
ATOM      3  O   UNL A   1      33.165  27.603  26.033  1.00  0.00    -0.458 OA
BRANCH   3   4
ATOM      4  C   UNL A   1      33.746  27.166  24.883  1.00  0.00     0.340 C 
ATOM      5  O   UNL A   1      34.098  27.875  23.961  1.00  0.00    -0.246 OA
BRANCH   4   6
ATOM      6  C   UNL A   1      33.931  25.677  24.847  1.00  0.00     0.083 A 
ATOM      7  C   UNL A   1      34.041  24.900  23.677  1.00  0.00     0.057 A 
ATOM      8  C   UNL A   1      34.405  23.550  23.781  1.00  0.00     0.042 A 
ATOM      9  C   UNL A   1      34.486  22.936  25.033  1.00  0.00     0.020 A 
ATOM     10  C   UNL A   1      33.999  25.032  26.097  1.00  0.00     0.019 A 
ATOM     11  Br  UNL A   1      34.910  21.098  25.154  1.00  0.00    -0.051 Br
ATOM     12  C   UNL A   1      34.226  23.658  26.189  1.00  0.00     0.017 A 
BRANCH   7  13
ATOM     13  N   UNL A   1      33.790  25.482  22.427  1.00  0.00    -0.321 N 
ATOM     14  C   UNL A   1      32.644  25.880  21.787  1.00  0.00     0.256 C 
ATOM     15  O   UNL A   1      32.745  26.099  20.576  1.00  0.00    -0.269 OA
ATOM     16  H   UNL A   1      34.606  25.637  21.899  1.00  0.00     0.170 HD
BRANCH  14  17
ATOM     17  C   UNL A   1      31.360  26.103  22.477  1.00  0.00     0.053 A 
ATOM     18  C   UNL A   1      30.756  23.828  23.738  1.00  0.00     0.046 C 
ATOM     19  C   UNL A   1      30.521  25.245  23.310  1.00  0.00    -0.028 A 
ATOM     20  C   UNL A   1      29.391  25.921  23.746  1.00  0.00     0.069 A 
ATOM     21  S   UNL A   1      29.373  27.562  23.308  1.00  0.00    -0.151 S 
ATOM     22  C   UNL A   1      30.851  27.396  22.485  1.00  0.00     0.079 A 
ENDBRANCH  14  17
ENDBRANCH   7  13
ENDBRANCH   4   6
ENDBRANCH   3   4
ENDBRANCH   2   3
ENDBRANCH   1   2
BRANCH   1  23
ATOM     23  O   UNL A   1      32.910  30.485  26.119  1.00  0.00    -0.458 OA
BRANCH  23  24
ATOM     24  C   UNL A   1      33.281  31.443  26.998  1.00  0.00     0.338 C 
ATOM     25  O   UNL A   1      32.584  32.333  27.459  1.00  0.00    -0.246 OA
BRANCH  24  26
ATOM     26  C   UNL A   1      34.638  31.183  27.494  1.00  0.00     0.060 A 
ATOM     27  C   UNL A   1      34.922  29.872  27.861  1.00  0.00     0.016 A 
ATOM     28  C   UNL A   1      35.542  32.203  27.777  1.00  0.00     0.016 A 
ATOM     29  C   UNL A   1      36.064  29.575  28.587  1.00  0.00     0.010 A 
ATOM     30  C   UNL A   1      36.739  31.888  28.437  1.00  0.00     0.010 A 
ATOM     31  C   UNL A   1      36.998  30.577  28.881  1.00  0.00    -0.014 A 
BRANCH  31  32
ATOM     32  C   UNL A   1      38.212  30.233  29.677  1.00  0.00     0.031 A 
ATOM     33  C   UNL A   1      39.269  29.324  29.106  1.00  0.00     0.074 A 
ATOM     34  C   UNL A   1      38.379  30.753  30.910  1.00  0.00     0.049 A 
ATOM     35  N   UNL A   1      40.324  28.816  29.689  1.00  0.00    -0.248 NA
ATOM     36  C   UNL A   1      39.116  28.920  27.698  1.00  0.00     0.031 C 
ATOM     37  C   UNL A   1      37.442  31.660  31.579  1.00  0.00     0.029 A 
ATOM     38  N   UNL A   1      39.388  30.588  31.827  1.00  0.00    -0.354 N 
ATOM     39  C   UNL A   1      40.910  27.971  28.754  1.00  0.00     0.074 A 
ATOM     40  C   UNL A   1      40.102  28.046  27.556  1.00  0.00     0.031 C 
ATOM     41  C   UNL A   1      37.927  31.987  32.784  1.00  0.00     0.029 A 
ATOM     42  C   UNL A   1      39.157  31.241  33.017  1.00  0.00     0.049 A 
ATOM     43  H   UNL A   1      40.198  30.057  31.651  1.00  0.00     0.167 HD
ATOM     44  C   UNL A   1      42.020  27.204  28.881  1.00  0.00     0.034 A 
ATOM     45  C   UNL A   1      39.821  31.204  34.188  1.00  0.00     0.034 A 
ATOM     46  C   UNL A   1      42.857  27.182  30.053  1.00  0.00     0.049 A 
ATOM     47  C   UNL A   1      41.049  30.348  34.303  1.00  0.00     0.074 A 
ATOM     48  C   UNL A   1      44.036  26.486  30.254  1.00  0.00     0.029 A 
ATOM     49  N   UNL A   1      42.603  27.883  31.222  1.00  0.00    -0.354 N 
ATOM     50  N   UNL A   1      41.619  29.602  33.389  1.00  0.00    -0.248 NA
ATOM     51  C   UNL A   1      41.732  30.339  35.603  1.00  0.00     0.031 C 
ATOM     52  C   UNL A   1      44.474  26.737  31.559  1.00  0.00     0.029 A 
ATOM     53  C   UNL A   1      43.592  27.623  32.156  1.00  0.00     0.049 A 
ATOM     54  H   UNL A   1      41.831  28.478  31.368  1.00  0.00     0.167 HD
ATOM     55  C   UNL A   1      42.741  29.051  33.996  1.00  0.00     0.074 A 
ATOM     56  C   UNL A   1      42.784  29.573  35.346  1.00  0.00     0.031 C 
ATOM     57  C   UNL A   1      43.645  28.181  33.484  1.00  0.00     0.034 A 
BRANCH  44  58
ATOM     58  C   UNL A   1      42.397  26.312  27.723  1.00  0.00     0.023 A 
ATOM     59  C   UNL A   1      43.264  26.780  26.716  1.00  0.00     0.012 A 
ATOM     60  C   UNL A   1      41.924  24.986  27.663  1.00  0.00     0.148 A 
ATOM     61  C   UNL A   1      43.621  25.958  25.646  1.00  0.00     0.002 A 
ATOM     62  C   UNL A   1      42.323  24.156  26.620  1.00  0.00     0.091 A 
ATOM     63  F   UNL A   1      41.085  24.562  28.618  1.00  0.00    -0.205 F 
ATOM     64  C   UNL A   1      43.159  24.645  25.604  1.00  0.00     0.022 A 
BRANCH  62  65
ATOM     65  S   UNL A   1      41.848  22.426  26.524  1.00  0.00     0.127 S 
ATOM     66  O   UNL A   1      42.544  21.996  25.313  1.00  0.00    -0.237 OA
ATOM     67  O   UNL A   1      42.398  21.887  27.767  1.00  0.00    -0.237 OA
ATOM     68  O   UNL A   1      40.393  22.413  26.448  1.00  0.00    -0.744 OA
ENDBRANCH  62  65
ENDBRANCH  44  58
BRANCH  45  69
ATOM     69  C   UNL A   1      39.318  31.996  35.346  1.00  0.00     0.023 A 
ATOM     70  C   UNL A   1      38.430  31.407  36.265  1.00  0.00     0.012 A 
ATOM     71  C   UNL A   1      39.762  33.316  35.570  1.00  0.00     0.148 A 
ATOM     72  C   UNL A   1      37.979  32.122  37.375  1.00  0.00     0.002 A 
ATOM     73  C   UNL A   1      39.362  33.998  36.711  1.00  0.00     0.091 A 
ATOM     74  F   UNL A   1      40.594  33.866  34.674  1.00  0.00    -0.205 F 
ATOM     75  C   UNL A   1      38.456  33.410  37.606  1.00  0.00     0.022 A 
BRANCH  73  76
ATOM     76  S   UNL A   1      40.042  35.598  37.164  1.00  0.00     0.127 S 
ATOM     77  O   UNL A   1      39.678  36.415  36.010  1.00  0.00    -0.237 OA
ATOM     78  O   UNL A   1      39.306  35.899  38.392  1.00  0.00    -0.237 OA
ATOM     79  O   UNL A   1      41.470  35.379  37.359  1.00  0.00    -0.744 OA
ENDBRANCH  73  76
ENDBRANCH  45  69
BRANCH  57  80
ATOM     80  C   UNL A   1      44.788  27.765  34.373  1.00  0.00     0.023 A 
ATOM     81  C   UNL A   1      45.963  28.542  34.422  1.00  0.00     0.012 A 
ATOM     82  C   UNL A   1      44.671  26.636  35.205  1.00  0.00     0.148 A 
ATOM     83  C   UNL A   1      47.016  28.179  35.260  1.00  0.00     0.002 A 
ATOM     84  C   UNL A   1      45.702  26.310  36.076  1.00  0.00     0.091 A 
ATOM     85  F   UNL A   1      43.553  25.899  35.129  1.00  0.00    -0.205 F 
ATOM     86  C   UNL A   1      46.882  27.073  36.094  1.00  0.00     0.022 A 
BRANCH  84  87
ATOM     87  S   UNL A   1      45.578  24.962  37.257  1.00  0.00     0.127 S 
ATOM     88  O   UNL A   1      44.381  25.336  38.009  1.00  0.00    -0.237 OA
ATOM     89  O   UNL A   1      45.411  23.801  36.383  1.00  0.00    -0.237 OA
ATOM     90  O   UNL A   1      46.822  24.975  38.015  1.00  0.00    -0.744 OA
ENDBRANCH  84  87
ENDBRANCH  57  80
ENDBRANCH  31  32
ENDBRANCH  24  26
ENDBRANCH  23  24
ENDBRANCH   1  23
TORSDOF 16
ENDMDL
MODEL 3
REMARK VINA RESULT:     -11.8      1.611      2.367
REMARK SMILES Cc1cscc1C(=O)Nc1cc(Br)ccc1C(=O)OCCOC(=O)c1ccc(-c2c3nc(c(-c4cccc(S(=O)(=O)[O-])c4F)c4ccc([nH]4)c(-c4cccc(S(=O)(=O)[O-])c4F)c4nc(c(-c5cccc(S(=O)(=O)[O-])c5F)c5ccc2[nH]5)C=C4)C=C3)cc1
REMARK SMILES IDX 21 1 20 2 19 3 17 4 18 5 16 6 10 7 11 8 12 9 15 10 13 11
REMARK SMILES IDX 14 12 9 13 7 14 8 15 6 17 1 18 2 19 3 20 4 21 5 22 22 23
REMARK SMILES IDX 23 24 24 25 25 26 26 27 87 28 27 29 86 30 28 31 29 32 30 33
REMARK SMILES IDX 80 34 31 35 85 36 79 37 81 38 32 39 84 40 78 41 77 42 33 44
REMARK SMILES IDX 65 45 45 46 64 47 46 48 49 49 63 50 82 51 47 52 48 53 62 55
REMARK SMILES IDX 83 56 50 57 34 58 35 59 43 60 36 61 38 62 44 63 37 64 39 65
REMARK SMILES IDX 40 66 41 67 42 68 66 69 67 70 75 71 68 72 70 73 76 74 69 75
REMARK SMILES IDX 71 76 72 77 73 78 74 79 51 80 52 81 60 82 53 83 55 84 61 85
REMARK SMILES IDX 54 86 56 87 57 88 58 89 59 90
REMARK H PARENT 9 16 81 43 49 54
REMARK Flexibility Score: inf
ROOT
ATOM      1  C   UNL A   1      36.760  20.716  25.373  1.00  0.00     0.275 C 
ENDROOT
BRANCH   1   2
ATOM      2  C   UNL A   1      35.615  21.296  24.539  1.00  0.00     0.275 C 
BRANCH   2   3
ATOM      3  O   UNL A   1      35.818  22.690  24.206  1.00  0.00    -0.458 OA
BRANCH   3   4
ATOM      4  C   UNL A   1      35.424  23.595  25.142  1.00  0.00     0.340 C 
ATOM      5  O   UNL A   1      36.146  24.418  25.668  1.00  0.00    -0.246 OA
BRANCH   4   6
ATOM      6  C   UNL A   1      33.966  23.493  25.481  1.00  0.00     0.083 A 
ATOM      7  C   UNL A   1      32.908  23.583  24.554  1.00  0.00     0.057 A 
ATOM      8  C   UNL A   1      31.603  23.278  24.969  1.00  0.00     0.042 A 
ATOM      9  C   UNL A   1      31.327  23.059  26.321  1.00  0.00     0.020 A 
ATOM     10  C   UNL A   1      33.659  23.290  26.840  1.00  0.00     0.019 A 
ATOM     11  Br  UNL A   1      29.552  22.717  26.874  1.00  0.00    -0.051 Br
ATOM     12  C   UNL A   1      32.341  23.122  27.266  1.00  0.00     0.017 A 
BRANCH   7  13
ATOM     13  N   UNL A   1      33.169  23.970  23.233  1.00  0.00    -0.321 N 
ATOM     14  C   UNL A   1      32.752  25.025  22.462  1.00  0.00     0.256 C 
ATOM     15  O   UNL A   1      32.947  24.922  21.247  1.00  0.00    -0.269 OA
ATOM     16  H   UNL A   1      33.778  23.358  22.761  1.00  0.00     0.170 HD
BRANCH  14  17
ATOM     17  C   UNL A   1      32.154  26.254  23.015  1.00  0.00     0.053 A 
ATOM     18  C   UNL A   1      33.779  27.094  24.961  1.00  0.00     0.046 C 
ATOM     19  C   UNL A   1      32.562  27.157  24.089  1.00  0.00    -0.028 A 
ATOM     20  C   UNL A   1      31.661  28.201  24.234  1.00  0.00     0.069 A 
ATOM     21  S   UNL A   1      30.437  28.208  23.056  1.00  0.00    -0.151 S 
ATOM     22  C   UNL A   1      31.055  26.789  22.353  1.00  0.00     0.079 A 
ENDBRANCH  14  17
ENDBRANCH   7  13
ENDBRANCH   4   6
ENDBRANCH   3   4
ENDBRANCH   2   3
ENDBRANCH   1   2
BRANCH   1  23
ATOM     23  O   UNL A   1      38.016  21.342  25.053  1.00  0.00    -0.458 OA
BRANCH  23  24
ATOM     24  C   UNL A   1      39.039  20.993  25.864  1.00  0.00     0.338 C 
ATOM     25  O   UNL A   1      39.573  19.898  25.952  1.00  0.00    -0.246 OA
BRANCH  24  26
ATOM     26  C   UNL A   1      39.581  22.177  26.542  1.00  0.00     0.060 A 
ATOM     27  C   UNL A   1      39.129  23.411  26.088  1.00  0.00     0.016 A 
ATOM     28  C   UNL A   1      40.631  22.105  27.453  1.00  0.00     0.016 A 
ATOM     29  C   UNL A   1      39.770  24.579  26.466  1.00  0.00     0.010 A 
ATOM     30  C   UNL A   1      41.225  23.295  27.901  1.00  0.00     0.010 A 
ATOM     31  C   UNL A   1      40.825  24.543  27.386  1.00  0.00    -0.014 A 
BRANCH  31  32
ATOM     32  C   UNL A   1      41.507  25.815  27.765  1.00  0.00     0.031 A 
ATOM     33  C   UNL A   1      40.790  26.853  28.589  1.00  0.00     0.074 A 
ATOM     34  C   UNL A   1      42.784  26.033  27.386  1.00  0.00     0.049 A 
ATOM     35  N   UNL A   1      41.173  28.063  28.908  1.00  0.00    -0.248 NA
ATOM     36  C   UNL A   1      39.462  26.491  29.112  1.00  0.00     0.031 C 
ATOM     37  C   UNL A   1      43.602  25.106  26.601  1.00  0.00     0.029 A 
ATOM     38  N   UNL A   1      43.615  27.105  27.601  1.00  0.00    -0.354 N 
ATOM     39  C   UNL A   1      40.107  28.634  29.592  1.00  0.00     0.074 A 
ATOM     40  C   UNL A   1      39.064  27.632  29.656  1.00  0.00     0.031 C 
ATOM     41  C   UNL A   1      44.819  25.636  26.418  1.00  0.00     0.029 A 
ATOM     42  C   UNL A   1      44.840  26.978  26.985  1.00  0.00     0.049 A 
ATOM     43  H   UNL A   1      43.361  27.887  28.143  1.00  0.00     0.167 HD
ATOM     44  C   UNL A   1      40.006  29.879  30.119  1.00  0.00     0.034 A 
ATOM     45  C   UNL A   1      45.850  27.857  26.837  1.00  0.00     0.034 A 
ATOM     46  C   UNL A   1      41.070  30.849  30.108  1.00  0.00     0.049 A 
ATOM     47  C   UNL A   1      45.714  29.230  27.432  1.00  0.00     0.074 A 
ATOM     48  C   UNL A   1      41.085  32.113  30.670  1.00  0.00     0.029 A 
ATOM     49  N   UNL A   1      42.303  30.666  29.502  1.00  0.00    -0.354 N 
ATOM     50  N   UNL A   1      44.721  29.730  28.124  1.00  0.00    -0.248 NA
ATOM     51  C   UNL A   1      46.840  30.151  27.238  1.00  0.00     0.031 C 
ATOM     52  C   UNL A   1      42.315  32.709  30.372  1.00  0.00     0.029 A 
ATOM     53  C   UNL A   1      43.083  31.801  29.660  1.00  0.00     0.049 A 
ATOM     54  H   UNL A   1      42.584  29.850  29.027  1.00  0.00     0.167 HD
ATOM     55  C   UNL A   1      45.111  31.019  28.469  1.00  0.00     0.074 A 
ATOM     56  C   UNL A   1      46.443  31.209  27.931  1.00  0.00     0.031 C 
ATOM     57  C   UNL A   1      44.422  31.963  29.155  1.00  0.00     0.034 A 
BRANCH  44  58
ATOM     58  C   UNL A   1      38.692  30.272  30.750  1.00  0.00     0.023 A 
ATOM     59  C   UNL A   1      38.424  29.955  32.096  1.00  0.00     0.012 A 
ATOM     60  C   UNL A   1      37.740  31.005  30.012  1.00  0.00     0.148 A 
ATOM     61  C   UNL A   1      37.214  30.321  32.686  1.00  0.00     0.002 A 
ATOM     62  C   UNL A   1      36.557  31.410  30.621  1.00  0.00     0.091 A 
ATOM     63  F   UNL A   1      38.001  31.282  28.727  1.00  0.00    -0.205 F 
ATOM     64  C   UNL A   1      36.286  31.057  31.953  1.00  0.00     0.022 A 
BRANCH  62  65
ATOM     65  S   UNL A   1      35.338  32.431  29.784  1.00  0.00     0.127 S 
ATOM     66  O   UNL A   1      34.910  31.550  28.699  1.00  0.00    -0.237 OA
ATOM     67  O   UNL A   1      34.339  32.637  30.832  1.00  0.00    -0.237 OA
ATOM     68  O   UNL A   1      36.042  33.637  29.370  1.00  0.00    -0.744 OA
ENDBRANCH  62  65
ENDBRANCH  44  58
BRANCH  45  69
ATOM     69  C   UNL A   1      47.068  27.460  26.077  1.00  0.00     0.023 A 
ATOM     70  C   UNL A   1      48.062  26.683  26.703  1.00  0.00     0.012 A 
ATOM     71  C   UNL A   1      47.220  27.803  24.718  1.00  0.00     0.148 A 
ATOM     72  C   UNL A   1      49.191  26.271  25.995  1.00  0.00     0.002 A 
ATOM     73  C   UNL A   1      48.313  27.335  24.002  1.00  0.00     0.091 A 
ATOM     74  F   UNL A   1      46.272  28.559  24.145  1.00  0.00    -0.205 F 
ATOM     75  C   UNL A   1      49.310  26.583  24.643  1.00  0.00     0.022 A 
BRANCH  73  76
ATOM     76  S   UNL A   1      48.470  27.561  22.227  1.00  0.00     0.127 S 
ATOM     77  O   UNL A   1      49.620  28.457  22.140  1.00  0.00    -0.237 OA
ATOM     78  O   UNL A   1      48.717  26.193  21.771  1.00  0.00    -0.237 OA
ATOM     79  O   UNL A   1      47.198  28.120  21.786  1.00  0.00    -0.744 OA
ENDBRANCH  73  76
ENDBRANCH  45  69
BRANCH  57  80
ATOM     80  C   UNL A   1      45.111  33.280  29.404  1.00  0.00     0.023 A 
ATOM     81  C   UNL A   1      45.897  33.457  30.559  1.00  0.00     0.012 A 
ATOM     82  C   UNL A   1      45.024  34.320  28.459  1.00  0.00     0.148 A 
ATOM     83  C   UNL A   1      46.558  34.663  30.787  1.00  0.00     0.002 A 
ATOM     84  C   UNL A   1      45.728  35.499  28.666  1.00  0.00     0.091 A 
ATOM     85  F   UNL A   1      44.254  34.138  27.377  1.00  0.00    -0.205 F 
ATOM     86  C   UNL A   1      46.483  35.678  29.836  1.00  0.00     0.022 A 
BRANCH  84  87
ATOM     87  S   UNL A   1      45.770  36.822  27.451  1.00  0.00     0.127 S 
ATOM     88  O   UNL A   1      46.309  36.131  26.280  1.00  0.00    -0.237 OA
ATOM     89  O   UNL A   1      44.358  37.190  27.346  1.00  0.00    -0.237 OA
ATOM     90  O   UNL A   1      46.625  37.858  28.014  1.00  0.00    -0.744 OA
ENDBRANCH  84  87
ENDBRANCH  57  80
ENDBRANCH  31  32
ENDBRANCH  24  26
ENDBRANCH  23  24
ENDBRANCH   1  23
TORSDOF 16
ENDMDL
