MODEL 1
REMARK VINA RESULT:     -10.8      0.000      0.000
REMARK SMILES CS(=O)(=O)CC[C@H](NC(=O)Cc1ccn[nH]1)C(=O)OCCOC(=O)c1ccc(-c2c3nc(c(-c4cccc(S(=O)(=O)[O-])c4F)c4ccc([nH]4)c(-c4cccc(S(=O)(=O)[O-])c4F)c4nc(c(-c5cccc(S(=O)(=O)[O-])c5F)c5ccc2[nH]5)C=C4)C=C3)cc1
REMARK SMILES IDX 20 1 19 2 17 3 18 4 7 5 6 6 5 7 2 8 1 9 3 10 4 11 8 12 9 13
REMARK SMILES IDX 10 15 11 16 12 17 13 18 16 19 14 20 15 21 21 23 22 24 23 25
REMARK SMILES IDX 24 26 25 27 26 28 87 29 27 30 86 31 28 32 29 33 30 34 80 35
REMARK SMILES IDX 31 36 85 37 79 38 81 39 32 40 84 41 78 42 77 43 33 45 65 46
REMARK SMILES IDX 45 47 64 48 46 49 49 50 63 51 82 52 47 53 48 54 62 56 83 57
REMARK SMILES IDX 50 58 34 59 35 60 43 61 36 62 38 63 44 64 37 65 39 66 40 67
REMARK SMILES IDX 41 68 42 69 66 70 67 71 75 72 68 73 70 74 76 75 69 76 71 77
REMARK SMILES IDX 72 78 73 79 74 80 51 81 52 82 60 83 53 84 55 85 61 86 54 87
REMARK SMILES IDX 56 88 57 89 58 90 59 91
REMARK H PARENT 8 14 16 22 81 44 49 55
REMARK Flexibility Score: inf
ROOT
ATOM      1  C   UNL A   1      34.781  20.920  24.897  1.00  0.00     0.274 C 
ENDROOT
BRANCH   1   2
ATOM      2  O   UNL A   1      33.720  21.890  25.080  1.00  0.00    -0.461 OA
BRANCH   2   3
ATOM      3  C   UNL A   1      32.468  21.445  24.804  1.00  0.00     0.328 C 
ATOM      4  O   UNL A   1      32.079  20.303  25.043  1.00  0.00    -0.250 OA
BRANCH   3   5
ATOM      5  C   UNL A   1      31.517  22.520  24.220  1.00  0.00     0.193 C 
BRANCH   5   6
ATOM      6  C   UNL A   1      32.388  23.469  23.359  1.00  0.00     0.053 C 
BRANCH   6   7
ATOM      7  C   UNL A   1      31.640  24.666  22.781  1.00  0.00     0.139 C 
BRANCH   7   8
ATOM      8  S   UNL A   1      32.637  25.777  21.797  1.00  0.00     0.147 S 
ATOM      9  C   UNL A   1      32.314  27.374  22.507  1.00  0.00     0.158 C 
ATOM     10  O   UNL A   1      32.084  25.787  20.457  1.00  0.00    -0.229 OA
ATOM     11  O   UNL A   1      34.039  25.450  21.996  1.00  0.00    -0.229 OA
ENDBRANCH   7   8
ENDBRANCH   6   7
ENDBRANCH   5   6
BRANCH   5  12
ATOM     12  N   UNL A   1      30.667  23.295  25.134  1.00  0.00    -0.342 N 
ATOM     13  C   UNL A   1      30.905  24.158  26.160  1.00  0.00     0.226 C 
ATOM     14  H   UNL A   1      29.706  23.161  24.965  1.00  0.00     0.164 HD
ATOM     15  O   UNL A   1      29.910  24.523  26.801  1.00  0.00    -0.275 OA
BRANCH  13  16
ATOM     16  C   UNL A   1      32.266  24.722  26.534  1.00  0.00     0.155 C 
BRANCH  16  17
ATOM     17  C   UNL A   1      32.368  26.208  26.500  1.00  0.00     0.044 A 
ATOM     18  C   UNL A   1      33.361  27.071  26.081  1.00  0.00     0.045 A 
ATOM     19  N   UNL A   1      31.447  27.012  27.109  1.00  0.00    -0.282 N 
ATOM     20  C   UNL A   1      32.874  28.362  26.373  1.00  0.00     0.135 A 
ATOM     21  N   UNL A   1      31.661  28.322  26.924  1.00  0.00    -0.184 NA
ATOM     22  H   UNL A   1      30.694  26.661  27.637  1.00  0.00     0.190 HD
ENDBRANCH  16  17
ENDBRANCH  13  16
ENDBRANCH   5  12
ENDBRANCH   3   5
ENDBRANCH   2   3
ENDBRANCH   1   2
BRANCH   1  23
ATOM     23  C   UNL A   1      36.028  21.256  25.732  1.00  0.00     0.275 C 
BRANCH  23  24
ATOM     24  O   UNL A   1      37.214  21.516  24.946  1.00  0.00    -0.458 OA
BRANCH  24  25
ATOM     25  C   UNL A   1      38.364  21.318  25.608  1.00  0.00     0.338 C 
ATOM     26  O   UNL A   1      39.065  20.314  25.573  1.00  0.00    -0.246 OA
BRANCH  25  27
ATOM     27  C   UNL A   1      38.837  22.424  26.428  1.00  0.00     0.060 A 
ATOM     28  C   UNL A   1      38.368  23.692  26.073  1.00  0.00     0.016 A 
ATOM     29  C   UNL A   1      40.003  22.270  27.180  1.00  0.00     0.016 A 
ATOM     30  C   UNL A   1      39.118  24.812  26.408  1.00  0.00     0.010 A 
ATOM     31  C   UNL A   1      40.709  23.407  27.581  1.00  0.00     0.010 A 
ATOM     32  C   UNL A   1      40.289  24.684  27.175  1.00  0.00    -0.014 A 
BRANCH  32  33
ATOM     33  C   UNL A   1      41.019  25.900  27.612  1.00  0.00     0.031 A 
ATOM     34  C   UNL A   1      40.364  26.961  28.451  1.00  0.00     0.074 A 
ATOM     35  C   UNL A   1      42.299  26.043  27.218  1.00  0.00     0.049 A 
ATOM     36  N   UNL A   1      40.822  28.142  28.778  1.00  0.00    -0.248 NA
ATOM     37  C   UNL A   1      39.024  26.668  28.984  1.00  0.00     0.031 C 
ATOM     38  C   UNL A   1      43.039  25.071  26.411  1.00  0.00     0.029 A 
ATOM     39  N   UNL A   1      43.200  27.053  27.433  1.00  0.00    -0.354 N 
ATOM     40  C   UNL A   1      39.816  28.755  29.514  1.00  0.00     0.074 A 
ATOM     41  C   UNL A   1      38.721  27.810  29.595  1.00  0.00     0.031 C 
ATOM     42  C   UNL A   1      44.286  25.516  26.218  1.00  0.00     0.029 A 
ATOM     43  C   UNL A   1      44.411  26.840  26.818  1.00  0.00     0.049 A 
ATOM     44  H   UNL A   1      43.001  27.850  27.974  1.00  0.00     0.167 HD
ATOM     45  C   UNL A   1      39.816  29.986  30.079  1.00  0.00     0.034 A 
ATOM     46  C   UNL A   1      45.494  27.631  26.713  1.00  0.00     0.034 A 
ATOM     47  C   UNL A   1      40.936  30.893  30.048  1.00  0.00     0.049 A 
ATOM     48  C   UNL A   1      45.466  28.985  27.351  1.00  0.00     0.074 A 
ATOM     49  C   UNL A   1      41.034  32.159  30.601  1.00  0.00     0.029 A 
ATOM     50  N   UNL A   1      42.158  30.626  29.449  1.00  0.00    -0.354 N 
ATOM     51  N   UNL A   1      44.513  29.538  28.062  1.00  0.00    -0.248 NA
ATOM     52  C   UNL A   1      46.659  29.824  27.182  1.00  0.00     0.031 C 
ATOM     53  C   UNL A   1      42.318  32.653  30.344  1.00  0.00     0.029 A 
ATOM     54  C   UNL A   1      43.018  31.698  29.626  1.00  0.00     0.049 A 
ATOM     55  H   UNL A   1      42.381  29.796  28.968  1.00  0.00     0.167 HD
ATOM     56  C   UNL A   1      44.992  30.788  28.428  1.00  0.00     0.074 A 
ATOM     57  C   UNL A   1      46.332  30.898  27.890  1.00  0.00     0.031 C 
ATOM     58  C   UNL A   1      44.365  31.769  29.123  1.00  0.00     0.034 A 
BRANCH  45  59
ATOM     59  C   UNL A   1      38.589  30.424  30.832  1.00  0.00     0.023 A 
ATOM     60  C   UNL A   1      38.521  30.205  32.222  1.00  0.00     0.012 A 
ATOM     61  C   UNL A   1      37.560  31.145  30.194  1.00  0.00     0.148 A 
ATOM     62  C   UNL A   1      37.445  30.691  32.965  1.00  0.00     0.002 A 
ATOM     63  C   UNL A   1      36.503  31.649  30.946  1.00  0.00     0.091 A 
ATOM     64  F   UNL A   1      37.629  31.322  28.867  1.00  0.00    -0.205 F 
ATOM     65  C   UNL A   1      36.444  31.422  32.331  1.00  0.00     0.022 A 
BRANCH  63  66
ATOM     66  S   UNL A   1      35.205  32.656  30.218  1.00  0.00     0.127 S 
ATOM     67  O   UNL A   1      34.718  31.785  29.150  1.00  0.00    -0.237 OA
ATOM     68  O   UNL A   1      34.274  32.830  31.334  1.00  0.00    -0.237 OA
ATOM     69  O   UNL A   1      35.857  33.884  29.784  1.00  0.00    -0.744 OA
ENDBRANCH  63  66
ENDBRANCH  45  59
BRANCH  46  70
ATOM     70  C   UNL A   1      46.692  27.122  25.992  1.00  0.00     0.023 A 
ATOM     71  C   UNL A   1      46.850  27.417  24.625  1.00  0.00     0.012 A 
ATOM     72  C   UNL A   1      47.729  26.458  26.675  1.00  0.00     0.148 A 
ATOM     73  C   UNL A   1      48.021  27.060  23.954  1.00  0.00     0.002 A 
ATOM     74  C   UNL A   1      48.919  26.169  26.018  1.00  0.00     0.091 A 
ATOM     75  F   UNL A   1      47.558  26.161  27.973  1.00  0.00    -0.205 F 
ATOM     76  C   UNL A   1      49.063  26.454  24.654  1.00  0.00     0.022 A 
BRANCH  74  77
ATOM     77  S   UNL A   1      50.342  25.576  26.942  1.00  0.00     0.127 S 
ATOM     78  O   UNL A   1      49.828  24.352  27.547  1.00  0.00    -0.237 OA
ATOM     79  O   UNL A   1      51.346  25.370  25.897  1.00  0.00    -0.237 OA
ATOM     80  O   UNL A   1      50.657  26.671  27.852  1.00  0.00    -0.744 OA
ENDBRANCH  74  77
ENDBRANCH  46  70
BRANCH  58  81
ATOM     81  C   UNL A   1      45.124  33.048  29.332  1.00  0.00     0.023 A 
ATOM     82  C   UNL A   1      45.929  33.183  30.480  1.00  0.00     0.012 A 
ATOM     83  C   UNL A   1      45.083  34.086  28.385  1.00  0.00     0.148 A 
ATOM     84  C   UNL A   1      46.669  34.346  30.691  1.00  0.00     0.002 A 
ATOM     85  C   UNL A   1      45.846  35.231  28.588  1.00  0.00     0.091 A 
ATOM     86  F   UNL A   1      44.287  33.950  27.314  1.00  0.00    -0.205 F 
ATOM     87  C   UNL A   1      46.635  35.365  29.741  1.00  0.00     0.022 A 
BRANCH  85  88
ATOM     88  S   UNL A   1      45.897  36.553  27.374  1.00  0.00     0.127 S 
ATOM     89  O   UNL A   1      44.516  37.029  27.389  1.00  0.00    -0.237 OA
ATOM     90  O   UNL A   1      46.869  37.483  27.952  1.00  0.00    -0.237 OA
ATOM     91  O   UNL A   1      46.340  35.923  26.136  1.00  0.00    -0.744 OA
ENDBRANCH  85  88
ENDBRANCH  58  81
ENDBRANCH  32  33
ENDBRANCH  25  27
ENDBRANCH  24  25
ENDBRANCH  23  24
ENDBRANCH   1  23
TORSDOF 20
ENDMDL
MODEL 2
REMARK VINA RESULT:     -10.7      2.265      8.283
REMARK SMILES CS(=O)(=O)CC[C@H](NC(=O)Cc1ccn[nH]1)C(=O)OCCOC(=O)c1ccc(-c2c3nc(c(-c4cccc(S(=O)(=O)[O-])c4F)c4ccc([nH]4)c(-c4cccc(S(=O)(=O)[O-])c4F)c4nc(c(-c5cccc(S(=O)(=O)[O-])c5F)c5ccc2[nH]5)C=C4)C=C3)cc1
REMARK SMILES IDX 20 1 19 2 17 3 18 4 7 5 6 6 5 7 2 8 1 9 3 10 4 11 8 12 9 13
REMARK SMILES IDX 10 15 11 16 12 17 13 18 16 19 14 20 15 21 21 23 22 24 23 25
REMARK SMILES IDX 24 26 25 27 26 28 87 29 27 30 86 31 28 32 29 33 30 34 80 35
REMARK SMILES IDX 31 36 85 37 79 38 81 39 32 40 84 41 78 42 77 43 33 45 65 46
REMARK SMILES IDX 45 47 64 48 46 49 49 50 63 51 82 52 47 53 48 54 62 56 83 57
REMARK SMILES IDX 50 58 34 59 35 60 43 61 36 62 38 63 44 64 37 65 39 66 40 67
REMARK SMILES IDX 41 68 42 69 66 70 67 71 75 72 68 73 70 74 76 75 69 76 71 77
REMARK SMILES IDX 72 78 73 79 74 80 51 81 52 82 60 83 53 84 55 85 61 86 54 87
REMARK SMILES IDX 56 88 57 89 58 90 59 91
REMARK H PARENT 8 14 16 22 81 44 49 55
REMARK Flexibility Score: inf
ROOT
ATOM      1  C   UNL A   1      37.090  19.686  24.998  1.00  0.00     0.274 C 
ENDROOT
BRANCH   1   2
ATOM      2  O   UNL A   1      37.094  21.056  24.527  1.00  0.00    -0.461 OA
BRANCH   2   3
ATOM      3  C   UNL A   1      36.139  21.860  25.061  1.00  0.00     0.328 C 
ATOM      4  O   UNL A   1      36.301  22.529  26.080  1.00  0.00    -0.250 OA
BRANCH   3   5
ATOM      5  C   UNL A   1      34.828  21.936  24.240  1.00  0.00     0.193 C 
BRANCH   5   6
ATOM      6  C   UNL A   1      34.722  23.382  23.696  1.00  0.00     0.053 C 
BRANCH   6   7
ATOM      7  C   UNL A   1      33.656  23.581  22.622  1.00  0.00     0.139 C 
BRANCH   7   8
ATOM      8  S   UNL A   1      33.124  25.271  22.388  1.00  0.00     0.147 S 
ATOM      9  C   UNL A   1      31.377  25.210  22.712  1.00  0.00     0.158 C 
ATOM     10  O   UNL A   1      33.286  25.589  20.983  1.00  0.00    -0.229 OA
ATOM     11  O   UNL A   1      33.758  26.107  23.395  1.00  0.00    -0.229 OA
ENDBRANCH   7   8
ENDBRANCH   6   7
ENDBRANCH   5   6
BRANCH   5  12
ATOM     12  N   UNL A   1      33.564  21.533  24.871  1.00  0.00    -0.342 N 
ATOM     13  C   UNL A   1      32.628  20.579  24.614  1.00  0.00     0.226 C 
ATOM     14  H   UNL A   1      33.345  22.077  25.663  1.00  0.00     0.164 HD
ATOM     15  O   UNL A   1      31.602  20.628  25.306  1.00  0.00    -0.275 OA
BRANCH  13  16
ATOM     16  C   UNL A   1      32.772  19.461  23.594  1.00  0.00     0.155 C 
BRANCH  16  17
ATOM     17  C   UNL A   1      33.111  18.125  24.161  1.00  0.00     0.044 A 
ATOM     18  C   UNL A   1      34.239  17.332  24.085  1.00  0.00     0.045 A 
ATOM     19  N   UNL A   1      32.175  17.335  24.764  1.00  0.00    -0.282 N 
ATOM     20  C   UNL A   1      33.906  16.152  24.781  1.00  0.00     0.135 A 
ATOM     21  N   UNL A   1      32.668  16.197  25.271  1.00  0.00    -0.184 NA
ATOM     22  H   UNL A   1      31.223  17.580  24.822  1.00  0.00     0.190 HD
ENDBRANCH  16  17
ENDBRANCH  13  16
ENDBRANCH   5  12
ENDBRANCH   3   5
ENDBRANCH   2   3
ENDBRANCH   1   2
BRANCH   1  23
ATOM     23  C   UNL A   1      38.496  19.204  25.394  1.00  0.00     0.275 C 
BRANCH  23  24
ATOM     24  O   UNL A   1      39.498  20.246  25.407  1.00  0.00    -0.458 OA
BRANCH  24  25
ATOM     25  C   UNL A   1      40.186  20.330  26.556  1.00  0.00     0.338 C 
ATOM     26  O   UNL A   1      40.703  19.404  27.169  1.00  0.00    -0.246 OA
BRANCH  25  27
ATOM     27  C   UNL A   1      40.356  21.665  27.114  1.00  0.00     0.060 A 
ATOM     28  C   UNL A   1      39.799  22.712  26.373  1.00  0.00     0.016 A 
ATOM     29  C   UNL A   1      41.376  21.897  28.037  1.00  0.00     0.016 A 
ATOM     30  C   UNL A   1      40.324  23.990  26.503  1.00  0.00     0.010 A 
ATOM     31  C   UNL A   1      41.846  23.200  28.219  1.00  0.00     0.010 A 
ATOM     32  C   UNL A   1      41.344  24.252  27.434  1.00  0.00    -0.014 A 
BRANCH  32  33
ATOM     33  C   UNL A   1      41.819  25.644  27.633  1.00  0.00     0.031 A 
ATOM     34  C   UNL A   1      43.164  26.102  27.146  1.00  0.00     0.074 A 
ATOM     35  C   UNL A   1      41.008  26.499  28.286  1.00  0.00     0.049 A 
ATOM     36  N   UNL A   1      43.776  27.234  27.380  1.00  0.00    -0.248 NA
ATOM     37  C   UNL A   1      43.928  25.172  26.299  1.00  0.00     0.031 C 
ATOM     38  C   UNL A   1      39.675  26.166  28.793  1.00  0.00     0.029 A 
ATOM     39  N   UNL A   1      41.182  27.811  28.641  1.00  0.00    -0.354 N 
ATOM     40  C   UNL A   1      45.011  27.142  26.752  1.00  0.00     0.074 A 
ATOM     41  C   UNL A   1      45.062  25.842  26.117  1.00  0.00     0.031 C 
ATOM     42  C   UNL A   1      39.141  27.248  29.371  1.00  0.00     0.029 A 
ATOM     43  C   UNL A   1      40.121  28.328  29.347  1.00  0.00     0.049 A 
ATOM     44  H   UNL A   1      41.984  28.332  28.412  1.00  0.00     0.167 HD
ATOM     45  C   UNL A   1      46.002  28.065  26.702  1.00  0.00     0.034 A 
ATOM     46  C   UNL A   1      39.962  29.522  29.945  1.00  0.00     0.034 A 
ATOM     47  C   UNL A   1      45.915  29.382  27.283  1.00  0.00     0.049 A 
ATOM     48  C   UNL A   1      41.073  30.523  29.870  1.00  0.00     0.074 A 
ATOM     49  C   UNL A   1      46.864  30.390  27.275  1.00  0.00     0.029 A 
ATOM     50  N   UNL A   1      44.811  29.881  27.957  1.00  0.00    -0.354 N 
ATOM     51  N   UNL A   1      42.226  30.425  29.253  1.00  0.00    -0.248 NA
ATOM     52  C   UNL A   1      40.865  31.800  30.565  1.00  0.00     0.031 C 
ATOM     53  C   UNL A   1      46.329  31.501  27.937  1.00  0.00     0.029 A 
ATOM     54  C   UNL A   1      45.050  31.184  28.363  1.00  0.00     0.049 A 
ATOM     55  H   UNL A   1      43.978  29.381  28.124  1.00  0.00     0.167 HD
ATOM     56  C   UNL A   1      42.880  31.627  29.480  1.00  0.00     0.074 A 
ATOM     57  C   UNL A   1      41.982  32.451  30.264  1.00  0.00     0.031 C 
ATOM     58  C   UNL A   1      44.125  32.004  29.100  1.00  0.00     0.034 A 
BRANCH  45  59
ATOM     59  C   UNL A   1      47.260  27.720  25.951  1.00  0.00     0.023 A 
ATOM     60  C   UNL A   1      48.321  27.099  26.638  1.00  0.00     0.012 A 
ATOM     61  C   UNL A   1      47.352  27.905  24.558  1.00  0.00     0.148 A 
ATOM     62  C   UNL A   1      49.458  26.672  25.951  1.00  0.00     0.002 A 
ATOM     63  C   UNL A   1      48.477  27.453  23.875  1.00  0.00     0.091 A 
ATOM     64  F   UNL A   1      46.343  28.521  23.925  1.00  0.00    -0.205 F 
ATOM     65  C   UNL A   1      49.531  26.838  24.571  1.00  0.00     0.022 A 
BRANCH  63  66
ATOM     66  S   UNL A   1      48.624  27.570  22.088  1.00  0.00     0.127 S 
ATOM     67  O   UNL A   1      48.766  26.165  21.710  1.00  0.00    -0.237 OA
ATOM     68  O   UNL A   1      47.349  28.178  21.704  1.00  0.00    -0.237 OA
ATOM     69  O   UNL A   1      49.787  28.412  21.843  1.00  0.00    -0.744 OA
ENDBRANCH  63  66
ENDBRANCH  45  59
BRANCH  46  70
ATOM     70  C   UNL A   1      38.677  29.818  30.635  1.00  0.00     0.023 A 
ATOM     71  C   UNL A   1      38.503  29.412  31.971  1.00  0.00     0.012 A 
ATOM     72  C   UNL A   1      37.683  30.603  30.021  1.00  0.00     0.148 A 
ATOM     73  C   UNL A   1      37.360  29.783  32.680  1.00  0.00     0.002 A 
ATOM     74  C   UNL A   1      36.582  31.027  30.756  1.00  0.00     0.091 A 
ATOM     75  F   UNL A   1      37.849  30.967  28.740  1.00  0.00    -0.205 F 
ATOM     76  C   UNL A   1      36.410  30.608  32.081  1.00  0.00     0.022 A 
BRANCH  74  77
ATOM     77  S   UNL A   1      35.453  32.247  30.072  1.00  0.00     0.127 S 
ATOM     78  O   UNL A   1      34.942  31.565  28.889  1.00  0.00    -0.237 OA
ATOM     79  O   UNL A   1      34.477  32.426  31.148  1.00  0.00    -0.237 OA
ATOM     80  O   UNL A   1      36.292  33.418  29.839  1.00  0.00    -0.744 OA
ENDBRANCH  74  77
ENDBRANCH  46  70
BRANCH  58  81
ATOM     81  C   UNL A   1      44.589  33.365  29.535  1.00  0.00     0.023 A 
ATOM     82  C   UNL A   1      45.328  33.486  30.727  1.00  0.00     0.012 A 
ATOM     83  C   UNL A   1      44.339  34.506  28.751  1.00  0.00     0.148 A 
ATOM     84  C   UNL A   1      45.797  34.731  31.145  1.00  0.00     0.002 A 
ATOM     85  C   UNL A   1      44.835  35.740  29.159  1.00  0.00     0.091 A 
ATOM     86  F   UNL A   1      43.607  34.374  27.635  1.00  0.00    -0.205 F 
ATOM     87  C   UNL A   1      45.558  35.855  30.356  1.00  0.00     0.022 A 
BRANCH  85  88
ATOM     88  S   UNL A   1      44.618  37.216  28.159  1.00  0.00     0.127 S 
ATOM     89  O   UNL A   1      45.182  36.796  26.878  1.00  0.00    -0.237 OA
ATOM     90  O   UNL A   1      43.164  37.391  28.156  1.00  0.00    -0.237 OA
ATOM     91  O   UNL A   1      45.343  38.267  28.861  1.00  0.00    -0.744 OA
ENDBRANCH  85  88
ENDBRANCH  58  81
ENDBRANCH  32  33
ENDBRANCH  25  27
ENDBRANCH  24  25
ENDBRANCH  23  24
ENDBRANCH   1  23
TORSDOF 20
ENDMDL
MODEL 3
REMARK VINA RESULT:     -10.5      4.865      9.864
REMARK SMILES CS(=O)(=O)CC[C@H](NC(=O)Cc1ccn[nH]1)C(=O)OCCOC(=O)c1ccc(-c2c3nc(c(-c4cccc(S(=O)(=O)[O-])c4F)c4ccc([nH]4)c(-c4cccc(S(=O)(=O)[O-])c4F)c4nc(c(-c5cccc(S(=O)(=O)[O-])c5F)c5ccc2[nH]5)C=C4)C=C3)cc1
REMARK SMILES IDX 20 1 19 2 17 3 18 4 7 5 6 6 5 7 2 8 1 9 3 10 4 11 8 12 9 13
REMARK SMILES IDX 10 15 11 16 12 17 13 18 16 19 14 20 15 21 21 23 22 24 23 25
REMARK SMILES IDX 24 26 25 27 26 28 87 29 27 30 86 31 28 32 29 33 30 34 80 35
REMARK SMILES IDX 31 36 85 37 79 38 81 39 32 40 84 41 78 42 77 43 33 45 65 46
REMARK SMILES IDX 45 47 64 48 46 49 49 50 63 51 82 52 47 53 48 54 62 56 83 57
REMARK SMILES IDX 50 58 34 59 35 60 43 61 36 62 38 63 44 64 37 65 39 66 40 67
REMARK SMILES IDX 41 68 42 69 66 70 67 71 75 72 68 73 70 74 76 75 69 76 71 77
REMARK SMILES IDX 72 78 73 79 74 80 51 81 52 82 60 83 53 84 55 85 61 86 54 87
REMARK SMILES IDX 56 88 57 89 58 90 59 91
REMARK H PARENT 8 14 16 22 81 44 49 55
REMARK Flexibility Score: inf
ROOT
ATOM      1  C   UNL A   1      31.675  28.290  26.103  1.00  0.00     0.274 C 
ENDROOT
BRANCH   1   2
ATOM      2  O   UNL A   1      32.728  27.295  26.115  1.00  0.00    -0.461 OA
BRANCH   2   3
ATOM      3  C   UNL A   1      32.311  26.003  26.059  1.00  0.00     0.328 C 
ATOM      4  O   UNL A   1      31.440  25.534  26.788  1.00  0.00    -0.250 OA
BRANCH   3   5
ATOM      5  C   UNL A   1      32.973  25.162  24.939  1.00  0.00     0.193 C 
BRANCH   5   6
ATOM      6  C   UNL A   1      34.473  25.031  25.303  1.00  0.00     0.053 C 
BRANCH   6   7
ATOM      7  C   UNL A   1      35.254  24.051  24.433  1.00  0.00     0.139 C 
BRANCH   7   8
ATOM      8  S   UNL A   1      36.231  22.854  25.332  1.00  0.00     0.147 S 
ATOM      9  C   UNL A   1      37.420  23.849  26.201  1.00  0.00     0.158 C 
ATOM     10  O   UNL A   1      36.963  22.069  24.358  1.00  0.00    -0.229 OA
ATOM     11  O   UNL A   1      35.379  22.187  26.303  1.00  0.00    -0.229 OA
ENDBRANCH   7   8
ENDBRANCH   6   7
ENDBRANCH   5   6
BRANCH   5  12
ATOM     12  N   UNL A   1      32.822  25.588  23.541  1.00  0.00    -0.342 N 
ATOM     13  C   UNL A   1      31.781  26.029  22.783  1.00  0.00     0.226 C 
ATOM     14  H   UNL A   1      33.668  25.545  23.038  1.00  0.00     0.164 HD
ATOM     15  O   UNL A   1      32.014  26.170  21.575  1.00  0.00    -0.275 OA
BRANCH  13  16
ATOM     16  C   UNL A   1      30.403  26.393  23.312  1.00  0.00     0.155 C 
BRANCH  16  17
ATOM     17  C   UNL A   1      29.888  27.723  22.880  1.00  0.00     0.044 A 
ATOM     18  C   UNL A   1      28.680  28.365  23.062  1.00  0.00     0.045 A 
ATOM     19  N   UNL A   1      30.568  28.511  21.996  1.00  0.00    -0.282 N 
ATOM     20  C   UNL A   1      28.796  29.576  22.350  1.00  0.00     0.135 A 
ATOM     21  N   UNL A   1      29.990  29.699  21.771  1.00  0.00    -0.184 NA
ATOM     22  H   UNL A   1      31.407  28.232  21.564  1.00  0.00     0.190 HD
ENDBRANCH  16  17
ENDBRANCH  13  16
ENDBRANCH   5  12
ENDBRANCH   3   5
ENDBRANCH   2   3
ENDBRANCH   1   2
BRANCH   1  23
ATOM     23  C   UNL A   1      31.991  29.482  27.021  1.00  0.00     0.275 C 
BRANCH  23  24
ATOM     24  O   UNL A   1      32.562  30.622  26.336  1.00  0.00    -0.458 OA
BRANCH  24  25
ATOM     25  C   UNL A   1      33.190  31.488  27.145  1.00  0.00     0.338 C 
ATOM     26  O   UNL A   1      32.704  32.483  27.671  1.00  0.00    -0.246 OA
BRANCH  25  27
ATOM     27  C   UNL A   1      34.584  31.197  27.449  1.00  0.00     0.060 A 
ATOM     28  C   UNL A   1      34.882  29.861  27.730  1.00  0.00     0.016 A 
ATOM     29  C   UNL A   1      35.422  32.228  27.876  1.00  0.00     0.016 A 
ATOM     30  C   UNL A   1      35.988  29.561  28.513  1.00  0.00     0.010 A 
ATOM     31  C   UNL A   1      36.577  31.913  28.597  1.00  0.00     0.010 A 
ATOM     32  C   UNL A   1      36.854  30.581  28.945  1.00  0.00    -0.014 A 
BRANCH  32  33
ATOM     33  C   UNL A   1      38.088  30.230  29.691  1.00  0.00     0.031 A 
ATOM     34  C   UNL A   1      39.130  29.312  29.117  1.00  0.00     0.074 A 
ATOM     35  C   UNL A   1      38.248  30.749  30.924  1.00  0.00     0.049 A 
ATOM     36  N   UNL A   1      40.178  28.795  29.706  1.00  0.00    -0.248 NA
ATOM     37  C   UNL A   1      38.977  28.914  27.709  1.00  0.00     0.031 C 
ATOM     38  C   UNL A   1      37.305  31.659  31.577  1.00  0.00     0.029 A 
ATOM     39  N   UNL A   1      39.247  30.584  31.848  1.00  0.00    -0.354 N 
ATOM     40  C   UNL A   1      40.785  27.976  28.763  1.00  0.00     0.074 A 
ATOM     41  C   UNL A   1      39.993  28.071  27.555  1.00  0.00     0.031 C 
ATOM     42  C   UNL A   1      37.779  31.994  32.783  1.00  0.00     0.029 A 
ATOM     43  C   UNL A   1      39.017  31.261  33.023  1.00  0.00     0.049 A 
ATOM     44  H   UNL A   1      40.049  30.037  31.687  1.00  0.00     0.167 HD
ATOM     45  C   UNL A   1      41.908  27.228  28.895  1.00  0.00     0.034 A 
ATOM     46  C   UNL A   1      39.701  31.267  34.181  1.00  0.00     0.034 A 
ATOM     47  C   UNL A   1      42.725  27.193  30.082  1.00  0.00     0.049 A 
ATOM     48  C   UNL A   1      40.939  30.433  34.296  1.00  0.00     0.074 A 
ATOM     49  C   UNL A   1      43.886  26.472  30.306  1.00  0.00     0.029 A 
ATOM     50  N   UNL A   1      42.480  27.920  31.236  1.00  0.00    -0.354 N 
ATOM     51  N   UNL A   1      41.510  29.682  33.385  1.00  0.00    -0.248 NA
ATOM     52  C   UNL A   1      41.633  30.448  35.589  1.00  0.00     0.031 C 
ATOM     53  C   UNL A   1      44.347  26.772  31.594  1.00  0.00     0.029 A 
ATOM     54  C   UNL A   1      43.471  27.674  32.173  1.00  0.00     0.049 A 
ATOM     55  H   UNL A   1      41.714  28.524  31.372  1.00  0.00     0.167 HD
ATOM     56  C   UNL A   1      42.632  29.138  33.993  1.00  0.00     0.074 A 
ATOM     57  C   UNL A   1      42.680  29.671  35.339  1.00  0.00     0.031 C 
ATOM     58  C   UNL A   1      43.527  28.251  33.490  1.00  0.00     0.034 A 
BRANCH  45  59
ATOM     59  C   UNL A   1      42.365  26.416  27.713  1.00  0.00     0.023 A 
ATOM     60  C   UNL A   1      43.247  26.997  26.782  1.00  0.00     0.012 A 
ATOM     61  C   UNL A   1      42.015  25.058  27.582  1.00  0.00     0.148 A 
ATOM     62  C   UNL A   1      43.771  26.240  25.733  1.00  0.00     0.002 A 
ATOM     63  C   UNL A   1      42.561  24.303  26.549  1.00  0.00     0.091 A 
ATOM     64  F   UNL A   1      41.154  24.529  28.463  1.00  0.00    -0.205 F 
ATOM     65  C   UNL A   1      43.438  24.892  25.624  1.00  0.00     0.022 A 
BRANCH  63  66
ATOM     66  S   UNL A   1      42.235  22.544  26.374  1.00  0.00     0.127 S 
ATOM     67  O   UNL A   1      40.775  22.518  26.312  1.00  0.00    -0.237 OA
ATOM     68  O   UNL A   1      42.905  22.221  25.113  1.00  0.00    -0.237 OA
ATOM     69  O   UNL A   1      42.829  21.915  27.546  1.00  0.00    -0.744 OA
ENDBRANCH  63  66
ENDBRANCH  45  59
BRANCH  46  70
ATOM     70  C   UNL A   1      39.220  32.125  35.298  1.00  0.00     0.023 A 
ATOM     71  C   UNL A   1      38.398  31.564  36.292  1.00  0.00     0.012 A 
ATOM     72  C   UNL A   1      39.671  33.450  35.447  1.00  0.00     0.148 A 
ATOM     73  C   UNL A   1      38.034  32.310  37.414  1.00  0.00     0.002 A 
ATOM     74  C   UNL A   1      39.363  34.162  36.600  1.00  0.00     0.091 A 
ATOM     75  F   UNL A   1      40.437  33.983  34.482  1.00  0.00    -0.205 F 
ATOM     76  C   UNL A   1      38.533  33.601  37.579  1.00  0.00     0.022 A 
BRANCH  74  77
ATOM     77  S   UNL A   1      40.153  35.743  36.927  1.00  0.00     0.127 S 
ATOM     78  O   UNL A   1      39.702  36.551  35.800  1.00  0.00    -0.237 OA
ATOM     79  O   UNL A   1      39.592  36.126  38.223  1.00  0.00    -0.237 OA
ATOM     80  O   UNL A   1      41.577  35.426  36.974  1.00  0.00    -0.744 OA
ENDBRANCH  74  77
ENDBRANCH  46  70
BRANCH  58  81
ATOM     81  C   UNL A   1      44.628  27.801  34.407  1.00  0.00     0.023 A 
ATOM     82  C   UNL A   1      45.817  28.554  34.468  1.00  0.00     0.012 A 
ATOM     83  C   UNL A   1      44.475  26.674  35.235  1.00  0.00     0.148 A 
ATOM     84  C   UNL A   1      46.848  28.180  35.328  1.00  0.00     0.002 A 
ATOM     85  C   UNL A   1      45.496  26.324  36.112  1.00  0.00     0.091 A 
ATOM     86  F   UNL A   1      43.348  25.953  35.139  1.00  0.00    -0.205 F 
ATOM     87  C   UNL A   1      46.684  27.071  36.156  1.00  0.00     0.022 A 
BRANCH  85  88
ATOM     88  S   UNL A   1      45.324  24.946  37.250  1.00  0.00     0.127 S 
ATOM     89  O   UNL A   1      44.883  23.874  36.360  1.00  0.00    -0.237 OA
ATOM     90  O   UNL A   1      46.684  24.785  37.769  1.00  0.00    -0.237 OA
ATOM     91  O   UNL A   1      44.355  25.386  38.246  1.00  0.00    -0.744 OA
ENDBRANCH  85  88
ENDBRANCH  58  81
ENDBRANCH  32  33
ENDBRANCH  25  27
ENDBRANCH  24  25
ENDBRANCH  23  24
ENDBRANCH   1  23
TORSDOF 20
ENDMDL
