MODEL 1
REMARK VINA RESULT:     -11.2      0.000      0.000
REMARK SMILES CCN(CC(C)(C)O)C(=O)Nc1ccc(C(=O)OCCOC(=O)c2ccc(-c3c4nc(c(-c5cccc(S(=O)(=O)[O-])c5F)c5ccc([nH]5)c(-c5cccc(S(=O)(=O)[O-])c5F)c5nc(c(-c6cccc(S(=O)(=O)[O-])c6F)c6ccc3[nH]6)C=C5)C=C4)cc2)c(O)c1
REMARK SMILES IDX 19 1 18 2 16 3 17 4 15 5 12 6 13 7 89 8 14 9 87 10 11 11
REMARK SMILES IDX 9 12 10 13 3 15 2 16 1 17 4 18 5 19 6 20 7 21 8 22 88 24
REMARK SMILES IDX 20 26 21 27 22 28 23 29 24 30 25 31 86 32 26 33 85 34 27 35
REMARK SMILES IDX 28 36 29 37 79 38 30 39 84 40 78 41 80 42 31 43 83 44 77 45
REMARK SMILES IDX 76 46 32 48 64 49 44 50 63 51 45 52 48 53 62 54 81 55 46 56
REMARK SMILES IDX 47 57 61 59 82 60 49 61 33 62 34 63 42 64 35 65 37 66 43 67
REMARK SMILES IDX 36 68 38 69 39 70 40 71 41 72 65 73 66 74 74 75 67 76 69 77
REMARK SMILES IDX 75 78 68 79 70 80 71 81 72 82 73 83 50 84 51 85 59 86 52 87
REMARK SMILES IDX 54 88 60 89 53 90 55 91 56 92 57 93 58 94
REMARK H PARENT 11 14 8 23 88 25 80 47 48 58
REMARK Flexibility Score: inf
ROOT
ATOM      1  C   UNL A   1      31.632  29.485  24.839  1.00  0.00     0.275 C 
ENDROOT
BRANCH   1   2
ATOM      2  O   UNL A   1      30.775  28.355  25.106  1.00  0.00    -0.458 OA
BRANCH   2   3
ATOM      3  C   UNL A   1      31.329  27.354  25.833  1.00  0.00     0.342 C 
ATOM      4  O   UNL A   1      31.032  27.050  26.982  1.00  0.00    -0.246 OA
BRANCH   3   5
ATOM      5  C   UNL A   1      32.290  26.579  25.011  1.00  0.00     0.101 A 
ATOM      6  C   UNL A   1      34.139  24.859  23.765  1.00  0.00     0.046 A 
ATOM      7  C   UNL A   1      34.484  25.547  24.918  1.00  0.00     0.027 A 
ATOM      8  C   UNL A   1      32.932  25.178  23.135  1.00  0.00     0.073 A 
ATOM      9  C   UNL A   1      33.563  26.378  25.558  1.00  0.00     0.022 A 
ATOM     10  C   UNL A   1      32.007  26.022  23.759  1.00  0.00     0.132 A 
BRANCH   6  11
ATOM     11  N   UNL A   1      34.970  23.911  23.162  1.00  0.00    -0.308 N 
ATOM     12  C   UNL A   1      35.778  22.898  23.562  1.00  0.00     0.321 C 
ATOM     13  O   UNL A   1      36.670  22.612  22.751  1.00  0.00    -0.248 OA
ATOM     14  H   UNL A   1      34.971  24.003  22.182  1.00  0.00     0.171 HD
BRANCH  12  15
ATOM     15  N   UNL A   1      35.558  22.118  24.675  1.00  0.00    -0.322 N 
BRANCH  15  16
ATOM     16  C   UNL A   1      36.659  22.082  25.655  1.00  0.00     0.118 C 
ATOM     17  C   UNL A   1      37.220  23.473  25.941  1.00  0.00     0.027 C 
ENDBRANCH  15  16
BRANCH  15  18
ATOM     18  C   UNL A   1      34.514  21.106  24.916  1.00  0.00     0.155 C 
BRANCH  18  19
ATOM     19  C   UNL A   1      33.466  21.475  26.023  1.00  0.00     0.077 C 
ATOM     20  C   UNL A   1      33.773  22.717  26.868  1.00  0.00     0.043 C 
ATOM     21  C   UNL A   1      32.101  21.634  25.370  1.00  0.00     0.043 C 
BRANCH  19  22
ATOM     22  O   UNL A   1      33.350  20.369  26.932  1.00  0.00    -0.389 OA
ATOM     23  H   UNL A   1      32.930  19.621  26.480  1.00  0.00     0.211 HD
ENDBRANCH  19  22
ENDBRANCH  18  19
ENDBRANCH  15  18
ENDBRANCH  12  15
ENDBRANCH   6  11
BRANCH  10  24
ATOM     24  O   UNL A   1      30.846  26.246  23.070  1.00  0.00    -0.507 OA
ATOM     25  H   UNL A   1      30.188  26.809  23.429  1.00  0.00     0.293 HD
ENDBRANCH  10  24
ENDBRANCH   3   5
ENDBRANCH   2   3
ENDBRANCH   1   2
BRANCH   1  26
ATOM     26  C   UNL A   1      31.259  30.669  25.733  1.00  0.00     0.275 C 
BRANCH  26  27
ATOM     27  O   UNL A   1      31.996  30.640  26.970  1.00  0.00    -0.458 OA
BRANCH  27  28
ATOM     28  C   UNL A   1      32.737  31.742  27.232  1.00  0.00     0.338 C 
ATOM     29  O   UNL A   1      32.343  32.898  27.262  1.00  0.00    -0.246 OA
BRANCH  28  30
ATOM     30  C   UNL A   1      34.150  31.389  27.463  1.00  0.00     0.060 A 
ATOM     31  C   UNL A   1      34.540  30.057  27.483  1.00  0.00     0.016 A 
ATOM     32  C   UNL A   1      35.053  32.380  27.861  1.00  0.00     0.016 A 
ATOM     33  C   UNL A   1      35.783  29.720  28.040  1.00  0.00     0.010 A 
ATOM     34  C   UNL A   1      36.322  32.029  28.352  1.00  0.00     0.010 A 
ATOM     35  C   UNL A   1      36.675  30.684  28.556  1.00  0.00    -0.014 A 
BRANCH  35  36
ATOM     36  C   UNL A   1      37.864  30.299  29.419  1.00  0.00     0.031 A 
ATOM     37  C   UNL A   1      39.009  29.459  28.855  1.00  0.00     0.074 A 
ATOM     38  C   UNL A   1      38.011  30.733  30.692  1.00  0.00     0.049 A 
ATOM     39  N   UNL A   1      39.994  28.864  29.490  1.00  0.00    -0.248 NA
ATOM     40  C   UNL A   1      39.045  29.242  27.399  1.00  0.00     0.031 C 
ATOM     41  C   UNL A   1      37.061  31.565  31.425  1.00  0.00     0.029 A 
ATOM     42  N   UNL A   1      39.039  30.545  31.596  1.00  0.00    -0.354 N 
ATOM     43  C   UNL A   1      40.677  28.109  28.537  1.00  0.00     0.074 A 
ATOM     44  C   UNL A   1      40.015  28.346  27.273  1.00  0.00     0.031 C 
ATOM     45  C   UNL A   1      37.578  31.887  32.619  1.00  0.00     0.029 A 
ATOM     46  C   UNL A   1      38.843  31.181  32.802  1.00  0.00     0.049 A 
ATOM     47  H   UNL A   1      39.838  30.006  31.396  1.00  0.00     0.167 HD
ATOM     48  C   UNL A   1      41.759  27.301  28.682  1.00  0.00     0.034 A 
ATOM     49  C   UNL A   1      39.553  31.173  33.952  1.00  0.00     0.034 A 
ATOM     50  C   UNL A   1      42.544  27.179  29.883  1.00  0.00     0.049 A 
ATOM     51  C   UNL A   1      40.793  30.331  34.074  1.00  0.00     0.074 A 
ATOM     52  C   UNL A   1      43.679  26.409  30.094  1.00  0.00     0.029 A 
ATOM     53  N   UNL A   1      42.321  27.878  31.056  1.00  0.00    -0.354 N 
ATOM     54  N   UNL A   1      41.383  29.595  33.167  1.00  0.00    -0.248 NA
ATOM     55  C   UNL A   1      41.460  30.313  35.387  1.00  0.00     0.031 C 
ATOM     56  C   UNL A   1      44.147  26.652  31.389  1.00  0.00     0.029 A 
ATOM     57  C   UNL A   1      43.305  27.574  31.985  1.00  0.00     0.049 A 
ATOM     58  H   UNL A   1      41.573  28.500  31.209  1.00  0.00     0.167 HD
ATOM     59  C   UNL A   1      42.487  29.029  33.798  1.00  0.00     0.074 A 
ATOM     60  C   UNL A   1      42.513  29.543  35.150  1.00  0.00     0.031 C 
ATOM     61  C   UNL A   1      43.376  28.131  33.308  1.00  0.00     0.034 A 
BRANCH  48  62
ATOM     62  C   UNL A   1      42.209  26.487  27.493  1.00  0.00     0.023 A 
ATOM     63  C   UNL A   1      43.075  27.050  26.537  1.00  0.00     0.012 A 
ATOM     64  C   UNL A   1      41.861  25.123  27.392  1.00  0.00     0.148 A 
ATOM     65  C   UNL A   1      43.569  26.276  25.486  1.00  0.00     0.002 A 
ATOM     66  C   UNL A   1      42.392  24.348  26.367  1.00  0.00     0.091 A 
ATOM     67  F   UNL A   1      41.023  24.606  28.303  1.00  0.00    -0.205 F 
ATOM     68  C   UNL A   1      43.239  24.924  25.408  1.00  0.00     0.022 A 
BRANCH  66  69
ATOM     69  S   UNL A   1      42.096  22.578  26.249  1.00  0.00     0.127 S 
ATOM     70  O   UNL A   1      42.695  22.094  27.491  1.00  0.00    -0.237 OA
ATOM     71  O   UNL A   1      40.635  22.505  26.210  1.00  0.00    -0.237 OA
ATOM     72  O   UNL A   1      42.753  22.147  25.023  1.00  0.00    -0.744 OA
ENDBRANCH  66  69
ENDBRANCH  48  62
BRANCH  49  73
ATOM     73  C   UNL A   1      39.093  31.999  35.107  1.00  0.00     0.023 A 
ATOM     74  C   UNL A   1      38.214  31.441  36.056  1.00  0.00     0.012 A 
ATOM     75  C   UNL A   1      39.559  33.313  35.296  1.00  0.00     0.148 A 
ATOM     76  C   UNL A   1      37.803  32.182  37.166  1.00  0.00     0.002 A 
ATOM     77  C   UNL A   1      39.212  34.013  36.445  1.00  0.00     0.091 A 
ATOM     78  F   UNL A   1      40.355  33.849  34.361  1.00  0.00    -0.205 F 
ATOM     79  C   UNL A   1      38.320  33.459  37.372  1.00  0.00     0.022 A 
BRANCH  77  80
ATOM     80  S   UNL A   1      40.008  35.570  36.858  1.00  0.00     0.127 S 
ATOM     81  O   UNL A   1      39.430  35.869  38.163  1.00  0.00    -0.237 OA
ATOM     82  O   UNL A   1      41.424  35.200  36.879  1.00  0.00    -0.237 OA
ATOM     83  O   UNL A   1      39.653  36.473  35.770  1.00  0.00    -0.744 OA
ENDBRANCH  77  80
ENDBRANCH  49  73
BRANCH  61  84
ATOM     84  C   UNL A   1      44.471  27.653  34.226  1.00  0.00     0.023 A 
ATOM     85  C   UNL A   1      45.681  28.372  34.290  1.00  0.00     0.012 A 
ATOM     86  C   UNL A   1      44.288  26.533  35.060  1.00  0.00     0.148 A 
ATOM     87  C   UNL A   1      46.704  27.967  35.147  1.00  0.00     0.002 A 
ATOM     88  C   UNL A   1      45.300  26.156  35.939  1.00  0.00     0.091 A 
ATOM     89  F   UNL A   1      43.140  25.846  34.971  1.00  0.00    -0.205 F 
ATOM     90  C   UNL A   1      46.510  26.867  35.979  1.00  0.00     0.022 A 
BRANCH  88  91
ATOM     91  S   UNL A   1      45.103  24.793  37.094  1.00  0.00     0.127 S 
ATOM     92  O   UNL A   1      45.043  23.644  36.193  1.00  0.00    -0.237 OA
ATOM     93  O   UNL A   1      46.326  24.876  37.894  1.00  0.00    -0.237 OA
ATOM     94  O   UNL A   1      43.882  25.079  37.835  1.00  0.00    -0.744 OA
ENDBRANCH  88  91
ENDBRANCH  61  84
ENDBRANCH  35  36
ENDBRANCH  28  30
ENDBRANCH  27  28
ENDBRANCH  26  27
ENDBRANCH   1  26
TORSDOF 21
ENDMDL
MODEL 2
REMARK VINA RESULT:     -11.0      4.762     10.143
REMARK SMILES CCN(CC(C)(C)O)C(=O)Nc1ccc(C(=O)OCCOC(=O)c2ccc(-c3c4nc(c(-c5cccc(S(=O)(=O)[O-])c5F)c5ccc([nH]5)c(-c5cccc(S(=O)(=O)[O-])c5F)c5nc(c(-c6cccc(S(=O)(=O)[O-])c6F)c6ccc3[nH]6)C=C5)C=C4)cc2)c(O)c1
REMARK SMILES IDX 19 1 18 2 16 3 17 4 15 5 12 6 13 7 89 8 14 9 87 10 11 11
REMARK SMILES IDX 9 12 10 13 3 15 2 16 1 17 4 18 5 19 6 20 7 21 8 22 88 24
REMARK SMILES IDX 20 26 21 27 22 28 23 29 24 30 25 31 86 32 26 33 85 34 27 35
REMARK SMILES IDX 28 36 29 37 79 38 30 39 84 40 78 41 80 42 31 43 83 44 77 45
REMARK SMILES IDX 76 46 32 48 64 49 44 50 63 51 45 52 48 53 62 54 81 55 46 56
REMARK SMILES IDX 47 57 61 59 82 60 49 61 33 62 34 63 42 64 35 65 37 66 43 67
REMARK SMILES IDX 36 68 38 69 39 70 40 71 41 72 65 73 66 74 74 75 67 76 69 77
REMARK SMILES IDX 75 78 68 79 70 80 71 81 72 82 73 83 50 84 51 85 59 86 52 87
REMARK SMILES IDX 54 88 60 89 53 90 55 91 56 92 57 93 58 94
REMARK H PARENT 11 14 8 23 88 25 80 47 48 58
REMARK Flexibility Score: inf
ROOT
ATOM      1  C   UNL A   1      35.401  20.103  24.988  1.00  0.00     0.275 C 
ENDROOT
BRANCH   1   2
ATOM      2  O   UNL A   1      35.043  21.440  24.579  1.00  0.00    -0.458 OA
BRANCH   2   3
ATOM      3  C   UNL A   1      34.755  22.307  25.581  1.00  0.00     0.342 C 
ATOM      4  O   UNL A   1      34.902  22.096  26.778  1.00  0.00    -0.246 OA
BRANCH   3   5
ATOM      5  C   UNL A   1      34.328  23.617  25.033  1.00  0.00     0.101 A 
ATOM      6  C   UNL A   1      33.789  26.265  24.242  1.00  0.00     0.046 A 
ATOM      7  C   UNL A   1      33.566  25.863  25.549  1.00  0.00     0.027 A 
ATOM      8  C   UNL A   1      34.106  25.292  23.289  1.00  0.00     0.073 A 
ATOM      9  C   UNL A   1      33.859  24.559  25.956  1.00  0.00     0.022 A 
ATOM     10  C   UNL A   1      34.386  23.978  23.683  1.00  0.00     0.132 A 
BRANCH   6  11
ATOM     11  N   UNL A   1      33.646  27.588  23.814  1.00  0.00    -0.308 N 
ATOM     12  C   UNL A   1      32.690  28.344  23.220  1.00  0.00     0.321 C 
ATOM     13  O   UNL A   1      33.130  29.330  22.612  1.00  0.00    -0.248 OA
ATOM     14  H   UNL A   1      34.459  28.114  23.991  1.00  0.00     0.171 HD
BRANCH  12  15
ATOM     15  N   UNL A   1      31.336  28.168  23.394  1.00  0.00    -0.322 N 
BRANCH  15  16
ATOM     16  C   UNL A   1      30.758  26.982  22.738  1.00  0.00     0.118 C 
ATOM     17  C   UNL A   1      29.946  26.127  23.708  1.00  0.00     0.027 C 
ENDBRANCH  15  16
BRANCH  15  18
ATOM     18  C   UNL A   1      30.329  29.114  23.906  1.00  0.00     0.155 C 
BRANCH  18  19
ATOM     19  C   UNL A   1      29.586  29.958  22.812  1.00  0.00     0.077 C 
ATOM     20  C   UNL A   1      28.292  29.358  22.248  1.00  0.00     0.043 C 
ATOM     21  C   UNL A   1      29.296  31.342  23.375  1.00  0.00     0.043 C 
BRANCH  19  22
ATOM     22  O   UNL A   1      30.474  30.155  21.701  1.00  0.00    -0.389 OA
ATOM     23  H   UNL A   1      30.242  30.977  21.243  1.00  0.00     0.211 HD
ENDBRANCH  19  22
ENDBRANCH  18  19
ENDBRANCH  15  18
ENDBRANCH  12  15
ENDBRANCH   6  11
BRANCH  10  24
ATOM     24  O   UNL A   1      34.713  23.112  22.675  1.00  0.00    -0.507 OA
ATOM     25  H   UNL A   1      35.598  23.061  22.369  1.00  0.00     0.293 HD
ENDBRANCH  10  24
ENDBRANCH   3   5
ENDBRANCH   2   3
ENDBRANCH   1   2
BRANCH   1  26
ATOM     26  C   UNL A   1      36.905  19.875  24.835  1.00  0.00     0.275 C 
BRANCH  26  27
ATOM     27  O   UNL A   1      37.639  21.101  25.022  1.00  0.00    -0.458 OA
BRANCH  27  28
ATOM     28  C   UNL A   1      38.840  20.973  25.633  1.00  0.00     0.338 C 
ATOM     29  O   UNL A   1      39.583  20.004  25.589  1.00  0.00    -0.246 OA
BRANCH  28  30
ATOM     30  C   UNL A   1      39.166  22.176  26.422  1.00  0.00     0.060 A 
ATOM     31  C   UNL A   1      38.571  23.391  26.114  1.00  0.00     0.016 A 
ATOM     32  C   UNL A   1      40.218  22.133  27.341  1.00  0.00     0.016 A 
ATOM     33  C   UNL A   1      39.134  24.572  26.622  1.00  0.00     0.010 A 
ATOM     34  C   UNL A   1      40.725  23.321  27.895  1.00  0.00     0.010 A 
ATOM     35  C   UNL A   1      40.266  24.578  27.463  1.00  0.00    -0.014 A 
BRANCH  35  36
ATOM     36  C   UNL A   1      41.042  25.849  27.759  1.00  0.00     0.031 A 
ATOM     37  C   UNL A   1      40.461  26.937  28.662  1.00  0.00     0.074 A 
ATOM     38  C   UNL A   1      42.301  26.056  27.309  1.00  0.00     0.049 A 
ATOM     39  N   UNL A   1      40.882  28.167  28.858  1.00  0.00    -0.248 NA
ATOM     40  C   UNL A   1      39.244  26.613  29.425  1.00  0.00     0.031 C 
ATOM     41  C   UNL A   1      43.063  25.146  26.458  1.00  0.00     0.029 A 
ATOM     42  N   UNL A   1      43.177  27.103  27.525  1.00  0.00    -0.354 N 
ATOM     43  C   UNL A   1      39.920  28.788  29.654  1.00  0.00     0.074 A 
ATOM     44  C   UNL A   1      38.909  27.792  29.932  1.00  0.00     0.031 C 
ATOM     45  C   UNL A   1      44.306  25.621  26.296  1.00  0.00     0.029 A 
ATOM     46  C   UNL A   1      44.403  26.939  26.919  1.00  0.00     0.049 A 
ATOM     47  H   UNL A   1      42.945  27.894  28.063  1.00  0.00     0.167 HD
ATOM     48  C   UNL A   1      39.875  30.061  30.126  1.00  0.00     0.034 A 
ATOM     49  C   UNL A   1      45.475  27.753  26.817  1.00  0.00     0.034 A 
ATOM     50  C   UNL A   1      40.942  31.022  30.014  1.00  0.00     0.049 A 
ATOM     51  C   UNL A   1      45.439  29.135  27.410  1.00  0.00     0.074 A 
ATOM     52  C   UNL A   1      40.984  32.320  30.502  1.00  0.00     0.029 A 
ATOM     53  N   UNL A   1      42.172  30.784  29.427  1.00  0.00    -0.354 N 
ATOM     54  N   UNL A   1      44.496  29.706  28.116  1.00  0.00    -0.248 NA
ATOM     55  C   UNL A   1      46.617  29.989  27.181  1.00  0.00     0.031 C 
ATOM     56  C   UNL A   1      42.242  32.861  30.219  1.00  0.00     0.029 A 
ATOM     57  C   UNL A   1      42.985  31.899  29.558  1.00  0.00     0.049 A 
ATOM     58  H   UNL A   1      42.431  29.945  28.981  1.00  0.00     0.167 HD
ATOM     59  C   UNL A   1      44.966  30.981  28.416  1.00  0.00     0.074 A 
ATOM     60  C   UNL A   1      46.296  31.085  27.856  1.00  0.00     0.031 C 
ATOM     61  C   UNL A   1      44.331  31.989  29.062  1.00  0.00     0.034 A 
BRANCH  48  62
ATOM     62  C   UNL A   1      38.632  30.510  30.855  1.00  0.00     0.023 A 
ATOM     63  C   UNL A   1      38.547  30.378  32.254  1.00  0.00     0.012 A 
ATOM     64  C   UNL A   1      37.598  31.171  30.159  1.00  0.00     0.148 A 
ATOM     65  C   UNL A   1      37.442  30.875  32.946  1.00  0.00     0.002 A 
ATOM     66  C   UNL A   1      36.521  31.702  30.861  1.00  0.00     0.091 A 
ATOM     67  F   UNL A   1      37.688  31.275  28.825  1.00  0.00    -0.205 F 
ATOM     68  C   UNL A   1      36.437  31.548  32.253  1.00  0.00     0.022 A 
BRANCH  66  69
ATOM     69  S   UNL A   1      35.232  32.666  30.058  1.00  0.00     0.127 S 
ATOM     70  O   UNL A   1      35.993  33.800  29.537  1.00  0.00    -0.237 OA
ATOM     71  O   UNL A   1      34.741  31.742  29.034  1.00  0.00    -0.237 OA
ATOM     72  O   UNL A   1      34.265  32.980  31.100  1.00  0.00    -0.744 OA
ENDBRANCH  66  69
ENDBRANCH  48  62
BRANCH  49  73
ATOM     73  C   UNL A   1      46.697  27.278  26.102  1.00  0.00     0.023 A 
ATOM     74  C   UNL A   1      46.860  27.569  24.734  1.00  0.00     0.012 A 
ATOM     75  C   UNL A   1      47.716  26.585  26.780  1.00  0.00     0.148 A 
ATOM     76  C   UNL A   1      48.013  27.169  24.055  1.00  0.00     0.002 A 
ATOM     77  C   UNL A   1      48.896  26.265  26.119  1.00  0.00     0.091 A 
ATOM     78  F   UNL A   1      47.527  26.271  28.070  1.00  0.00    -0.205 F 
ATOM     79  C   UNL A   1      49.040  26.538  24.753  1.00  0.00     0.022 A 
BRANCH  77  80
ATOM     80  S   UNL A   1      50.321  25.640  27.017  1.00  0.00     0.127 S 
ATOM     81  O   UNL A   1      50.536  26.686  28.010  1.00  0.00    -0.237 OA
ATOM     82  O   UNL A   1      49.820  24.372  27.552  1.00  0.00    -0.237 OA
ATOM     83  O   UNL A   1      51.360  25.482  26.007  1.00  0.00    -0.744 OA
ENDBRANCH  77  80
ENDBRANCH  49  73
BRANCH  61  84
ATOM     84  C   UNL A   1      45.066  33.293  29.225  1.00  0.00     0.023 A 
ATOM     85  C   UNL A   1      45.833  33.514  30.387  1.00  0.00     0.012 A 
ATOM     86  C   UNL A   1      45.047  34.274  28.215  1.00  0.00     0.148 A 
ATOM     87  C   UNL A   1      46.543  34.703  30.554  1.00  0.00     0.002 A 
ATOM     88  C   UNL A   1      45.787  35.442  28.373  1.00  0.00     0.091 A 
ATOM     89  F   UNL A   1      44.296  34.059  27.125  1.00  0.00    -0.205 F 
ATOM     90  C   UNL A   1      46.529  35.662  29.545  1.00  0.00     0.022 A 
BRANCH  88  91
ATOM     91  S   UNL A   1      45.879  36.697  27.089  1.00  0.00     0.127 S 
ATOM     92  O   UNL A   1      44.486  37.127  26.991  1.00  0.00    -0.237 OA
ATOM     93  O   UNL A   1      46.782  37.687  27.678  1.00  0.00    -0.237 OA
ATOM     94  O   UNL A   1      46.415  36.020  25.916  1.00  0.00    -0.744 OA
ENDBRANCH  88  91
ENDBRANCH  61  84
ENDBRANCH  35  36
ENDBRANCH  28  30
ENDBRANCH  27  28
ENDBRANCH  26  27
ENDBRANCH   1  26
TORSDOF 21
ENDMDL
MODEL 3
REMARK VINA RESULT:     -10.9      4.741     10.042
REMARK SMILES CCN(CC(C)(C)O)C(=O)Nc1ccc(C(=O)OCCOC(=O)c2ccc(-c3c4nc(c(-c5cccc(S(=O)(=O)[O-])c5F)c5ccc([nH]5)c(-c5cccc(S(=O)(=O)[O-])c5F)c5nc(c(-c6cccc(S(=O)(=O)[O-])c6F)c6ccc3[nH]6)C=C5)C=C4)cc2)c(O)c1
REMARK SMILES IDX 19 1 18 2 16 3 17 4 15 5 12 6 13 7 89 8 14 9 87 10 11 11
REMARK SMILES IDX 9 12 10 13 3 15 2 16 1 17 4 18 5 19 6 20 7 21 8 22 88 24
REMARK SMILES IDX 20 26 21 27 22 28 23 29 24 30 25 31 86 32 26 33 85 34 27 35
REMARK SMILES IDX 28 36 29 37 79 38 30 39 84 40 78 41 80 42 31 43 83 44 77 45
REMARK SMILES IDX 76 46 32 48 64 49 44 50 63 51 45 52 48 53 62 54 81 55 46 56
REMARK SMILES IDX 47 57 61 59 82 60 49 61 33 62 34 63 42 64 35 65 37 66 43 67
REMARK SMILES IDX 36 68 38 69 39 70 40 71 41 72 65 73 66 74 74 75 67 76 69 77
REMARK SMILES IDX 75 78 68 79 70 80 71 81 72 82 73 83 50 84 51 85 59 86 52 87
REMARK SMILES IDX 54 88 60 89 53 90 55 91 56 92 57 93 58 94
REMARK H PARENT 11 14 8 23 88 25 80 47 48 58
REMARK Flexibility Score: inf
ROOT
ATOM      1  C   UNL A   1      35.412  19.935  24.928  1.00  0.00     0.275 C 
ENDROOT
BRANCH   1   2
ATOM      2  O   UNL A   1      34.200  20.312  24.242  1.00  0.00    -0.458 OA
BRANCH   2   3
ATOM      3  C   UNL A   1      33.079  20.356  25.005  1.00  0.00     0.342 C 
ATOM      4  O   UNL A   1      32.737  19.517  25.828  1.00  0.00    -0.246 OA
BRANCH   3   5
ATOM      5  C   UNL A   1      32.351  21.630  24.792  1.00  0.00     0.101 A 
ATOM      6  C   UNL A   1      30.725  23.837  24.149  1.00  0.00     0.046 A 
ATOM      7  C   UNL A   1      31.446  23.184  23.163  1.00  0.00     0.027 A 
ATOM      8  C   UNL A   1      30.965  23.499  25.485  1.00  0.00     0.073 A 
ATOM      9  C   UNL A   1      32.231  22.071  23.469  1.00  0.00     0.022 A 
ATOM     10  C   UNL A   1      31.763  22.395  25.805  1.00  0.00     0.132 A 
BRANCH   6  11
ATOM     11  N   UNL A   1      29.818  24.867  23.880  1.00  0.00    -0.308 N 
ATOM     12  C   UNL A   1      29.774  26.214  24.017  1.00  0.00     0.321 C 
ATOM     13  O   UNL A   1      28.626  26.679  24.078  1.00  0.00    -0.248 OA
ATOM     14  H   UNL A   1      28.987  24.519  23.484  1.00  0.00     0.171 HD
BRANCH  12  15
ATOM     15  N   UNL A   1      30.868  27.045  23.927  1.00  0.00    -0.322 N 
BRANCH  15  16
ATOM     16  C   UNL A   1      31.264  27.716  25.178  1.00  0.00     0.118 C 
ATOM     17  C   UNL A   1      31.255  29.237  25.042  1.00  0.00     0.027 C 
ENDBRANCH  15  16
BRANCH  15  18
ATOM     18  C   UNL A   1      31.541  27.576  22.729  1.00  0.00     0.155 C 
BRANCH  18  19
ATOM     19  C   UNL A   1      32.910  26.899  22.372  1.00  0.00     0.077 C 
ATOM     20  C   UNL A   1      32.906  25.939  21.177  1.00  0.00     0.043 C 
ATOM     21  C   UNL A   1      33.950  27.986  22.141  1.00  0.00     0.043 C 
BRANCH  19  22
ATOM     22  O   UNL A   1      33.361  26.147  23.510  1.00  0.00    -0.389 OA
ATOM     23  H   UNL A   1      33.398  26.727  24.287  1.00  0.00     0.211 HD
ENDBRANCH  19  22
ENDBRANCH  18  19
ENDBRANCH  15  18
ENDBRANCH  12  15
ENDBRANCH   6  11
BRANCH  10  24
ATOM     24  O   UNL A   1      31.909  22.135  27.141  1.00  0.00    -0.507 OA
ATOM     25  H   UNL A   1      32.372  21.369  27.422  1.00  0.00     0.293 HD
ENDBRANCH  10  24
ENDBRANCH   3   5
ENDBRANCH   2   3
ENDBRANCH   1   2
BRANCH   1  26
ATOM     26  C   UNL A   1      36.113  21.166  25.502  1.00  0.00     0.275 C 
BRANCH  26  27
ATOM     27  O   UNL A   1      37.333  21.450  24.788  1.00  0.00    -0.458 OA
BRANCH  27  28
ATOM     28  C   UNL A   1      38.476  21.179  25.459  1.00  0.00     0.338 C 
ATOM     29  O   UNL A   1      39.113  20.136  25.426  1.00  0.00    -0.246 OA
BRANCH  28  30
ATOM     30  C   UNL A   1      38.883  22.320  26.300  1.00  0.00     0.060 A 
ATOM     31  C   UNL A   1      38.252  23.548  26.158  1.00  0.00     0.016 A 
ATOM     32  C   UNL A   1      40.032  22.220  27.091  1.00  0.00     0.016 A 
ATOM     33  C   UNL A   1      38.862  24.692  26.692  1.00  0.00     0.010 A 
ATOM     34  C   UNL A   1      40.592  23.367  27.678  1.00  0.00     0.010 A 
ATOM     35  C   UNL A   1      40.082  24.647  27.401  1.00  0.00    -0.014 A 
BRANCH  35  36
ATOM     36  C   UNL A   1      40.880  25.901  27.709  1.00  0.00     0.031 A 
ATOM     37  C   UNL A   1      40.324  26.985  28.632  1.00  0.00     0.074 A 
ATOM     38  C   UNL A   1      42.139  26.095  27.251  1.00  0.00     0.049 A 
ATOM     39  N   UNL A   1      40.766  28.205  28.843  1.00  0.00    -0.248 NA
ATOM     40  C   UNL A   1      39.109  26.668  29.401  1.00  0.00     0.031 C 
ATOM     41  C   UNL A   1      42.879  25.186  26.380  1.00  0.00     0.029 A 
ATOM     42  N   UNL A   1      43.032  27.125  27.476  1.00  0.00    -0.354 N 
ATOM     43  C   UNL A   1      39.821  28.829  29.657  1.00  0.00     0.074 A 
ATOM     44  C   UNL A   1      38.797  27.845  29.928  1.00  0.00     0.031 C 
ATOM     45  C   UNL A   1      44.128  25.644  26.215  1.00  0.00     0.029 A 
ATOM     46  C   UNL A   1      44.251  26.950  26.857  1.00  0.00     0.049 A 
ATOM     47  H   UNL A   1      42.817  27.911  28.027  1.00  0.00     0.167 HD
ATOM     48  C   UNL A   1      39.800  30.095  30.147  1.00  0.00     0.034 A 
ATOM     49  C   UNL A   1      45.335  27.749  26.758  1.00  0.00     0.034 A 
ATOM     50  C   UNL A   1      40.881  31.041  30.041  1.00  0.00     0.049 A 
ATOM     51  C   UNL A   1      45.325  29.123  27.372  1.00  0.00     0.074 A 
ATOM     52  C   UNL A   1      40.947  32.331  30.548  1.00  0.00     0.029 A 
ATOM     53  N   UNL A   1      42.102  30.793  29.440  1.00  0.00    -0.354 N 
ATOM     54  N   UNL A   1      44.398  29.698  28.094  1.00  0.00    -0.248 NA
ATOM     55  C   UNL A   1      46.515  29.962  27.146  1.00  0.00     0.031 C 
ATOM     56  C   UNL A   1      42.212  32.856  30.263  1.00  0.00     0.029 A 
ATOM     57  C   UNL A   1      42.933  31.893  29.581  1.00  0.00     0.049 A 
ATOM     58  H   UNL A   1      42.344  29.956  28.980  1.00  0.00     0.167 HD
ATOM     59  C   UNL A   1      44.890  30.961  28.408  1.00  0.00     0.074 A 
ATOM     60  C   UNL A   1      46.217  31.052  27.839  1.00  0.00     0.031 C 
ATOM     61  C   UNL A   1      44.277  31.968  29.075  1.00  0.00     0.034 A 
BRANCH  48  62
ATOM     62  C   UNL A   1      38.570  30.553  30.894  1.00  0.00     0.023 A 
ATOM     63  C   UNL A   1      38.505  30.426  32.294  1.00  0.00     0.012 A 
ATOM     64  C   UNL A   1      37.528  31.216  30.211  1.00  0.00     0.148 A 
ATOM     65  C   UNL A   1      37.413  30.931  33.002  1.00  0.00     0.002 A 
ATOM     66  C   UNL A   1      36.465  31.755  30.927  1.00  0.00     0.091 A 
ATOM     67  F   UNL A   1      37.599  31.315  28.876  1.00  0.00    -0.205 F 
ATOM     68  C   UNL A   1      36.401  31.606  32.321  1.00  0.00     0.022 A 
BRANCH  66  69
ATOM     69  S   UNL A   1      35.169  32.722  30.140  1.00  0.00     0.127 S 
ATOM     70  O   UNL A   1      34.256  32.957  31.257  1.00  0.00    -0.237 OA
ATOM     71  O   UNL A   1      35.894  33.910  29.687  1.00  0.00    -0.237 OA
ATOM     72  O   UNL A   1      34.649  31.888  29.065  1.00  0.00    -0.744 OA
ENDBRANCH  66  69
ENDBRANCH  48  62
BRANCH  49  73
ATOM     73  C   UNL A   1      46.543  27.266  26.026  1.00  0.00     0.023 A 
ATOM     74  C   UNL A   1      46.685  27.549  24.654  1.00  0.00     0.012 A 
ATOM     75  C   UNL A   1      47.570  26.572  26.691  1.00  0.00     0.148 A 
ATOM     76  C   UNL A   1      47.826  27.142  23.958  1.00  0.00     0.002 A 
ATOM     77  C   UNL A   1      48.738  26.244  26.013  1.00  0.00     0.091 A 
ATOM     78  F   UNL A   1      47.401  26.266  27.985  1.00  0.00    -0.205 F 
ATOM     79  C   UNL A   1      48.862  26.510  24.643  1.00  0.00     0.022 A 
BRANCH  77  80
ATOM     80  S   UNL A   1      50.175  25.618  26.890  1.00  0.00     0.127 S 
ATOM     81  O   UNL A   1      51.150  25.480  25.814  1.00  0.00    -0.237 OA
ATOM     82  O   UNL A   1      50.453  26.696  27.841  1.00  0.00    -0.237 OA
ATOM     83  O   UNL A   1      49.723  24.382  27.517  1.00  0.00    -0.744 OA
ENDBRANCH  77  80
ENDBRANCH  49  73
BRANCH  61  84
ATOM     84  C   UNL A   1      45.034  33.259  29.251  1.00  0.00     0.023 A 
ATOM     85  C   UNL A   1      45.851  33.431  30.387  1.00  0.00     0.012 A 
ATOM     86  C   UNL A   1      44.984  34.274  28.277  1.00  0.00     0.148 A 
ATOM     87  C   UNL A   1      46.582  34.605  30.564  1.00  0.00     0.002 A 
ATOM     88  C   UNL A   1      45.744  35.428  28.444  1.00  0.00     0.091 A 
ATOM     89  F   UNL A   1      44.185  34.105  27.213  1.00  0.00    -0.205 F 
ATOM     90  C   UNL A   1      46.537  35.599  29.590  1.00  0.00     0.022 A 
BRANCH  88  91
ATOM     91  S   UNL A   1      45.798  36.725  27.200  1.00  0.00     0.127 S 
ATOM     92  O   UNL A   1      44.406  37.171  27.174  1.00  0.00    -0.237 OA
ATOM     93  O   UNL A   1      46.733  37.687  27.786  1.00  0.00    -0.237 OA
ATOM     94  O   UNL A   1      46.279  36.085  25.984  1.00  0.00    -0.744 OA
ENDBRANCH  88  91
ENDBRANCH  61  84
ENDBRANCH  35  36
ENDBRANCH  28  30
ENDBRANCH  27  28
ENDBRANCH  26  27
ENDBRANCH   1  26
TORSDOF 21
ENDMDL
