MODEL 1
REMARK VINA RESULT:     -12.4      0.000      0.000
REMARK SMILES CCc1cc(OC(F)(F)F)cc2c1O[C@H](C(F)(F)F)C(C(=O)OCCOC(=O)c1ccc(-c3c4nc(c(-c5cccc(S(=O)(=O)[O-])c5F)c5ccc([nH]5)c(-c5cccc(S(=O)(=O)[O-])c5F)c5nc(c(-c6cccc(S(=O)(=O)[O-])c6F)c6ccc3[nH]6)C=C5)C=C4)cc1)=C2
REMARK SMILES IDX 25 1 24 2 23 3 21 4 22 5 20 6 3 7 4 8 13 9 5 10 12 11 14 12
REMARK SMILES IDX 11 13 92 14 15 15 2 16 1 17 6 18 7 19 8 20 9 21 10 22 16 23
REMARK SMILES IDX 17 24 18 25 19 26 26 27 27 28 28 29 29 30 30 31 91 32 31 33
REMARK SMILES IDX 90 34 32 35 33 36 34 37 84 38 35 39 89 40 83 41 85 42 36 43
REMARK SMILES IDX 88 44 82 45 81 46 37 48 69 49 49 50 68 51 50 52 53 53 67 54
REMARK SMILES IDX 86 55 51 56 52 57 66 59 87 60 54 61 38 62 39 63 47 64 40 65
REMARK SMILES IDX 42 66 48 67 41 68 43 69 44 70 45 71 46 72 70 73 71 74 79 75
REMARK SMILES IDX 72 76 74 77 80 78 73 79 75 80 76 81 77 82 78 83 55 84 56 85
REMARK SMILES IDX 64 86 57 87 59 88 65 89 58 90 60 91 61 92 62 93 63 94
REMARK H PARENT 85 47 53 58
REMARK Flexibility Score: inf
ROOT
ATOM      1  C   UNL A   1      31.667  30.433  25.823  1.00  0.00     0.275 C 
ENDROOT
BRANCH   1   2
ATOM      2  C   UNL A   1      31.744  29.119  25.040  1.00  0.00     0.275 C 
BRANCH   2   3
ATOM      3  O   UNL A   1      32.616  28.160  25.679  1.00  0.00    -0.459 OA
BRANCH   3   4
ATOM      4  C   UNL A   1      32.013  27.015  26.081  1.00  0.00     0.338 C 
ATOM      5  O   UNL A   1      31.047  26.938  26.820  1.00  0.00    -0.246 OA
BRANCH   4   6
ATOM      6  C   UNL A   1      32.643  25.816  25.509  1.00  0.00     0.087 C 
ATOM      7  C   UNL A   1      33.145  21.817  24.459  1.00  0.00    -0.002 A 
ATOM      8  C   UNL A   1      34.360  21.193  24.807  1.00  0.00     0.054 A 
ATOM      9  C   UNL A   1      32.964  23.133  24.885  1.00  0.00     0.131 A 
ATOM     10  C   UNL A   1      35.337  21.856  25.561  1.00  0.00     0.130 A 
ATOM     11  C   UNL A   1      33.925  23.813  25.664  1.00  0.00     0.021 A 
ATOM     12  O   UNL A   1      31.803  23.773  24.544  1.00  0.00    -0.475 OA
ATOM     13  C   UNL A   1      35.111  23.166  25.995  1.00  0.00     0.058 A 
ATOM     14  C   UNL A   1      33.615  25.160  26.163  1.00  0.00     0.027 C 
ATOM     15  C   UNL A   1      31.998  25.187  24.299  1.00  0.00     0.316 C 
BRANCH   7  16
ATOM     16  C   UNL A   1      32.155  21.000  23.646  1.00  0.00     0.036 C 
ATOM     17  C   UNL A   1      32.031  21.211  22.141  1.00  0.00     0.009 C 
ENDBRANCH   7  16
BRANCH  10  18
ATOM     18  O   UNL A   1      36.544  21.342  25.945  1.00  0.00    -0.406 OA
BRANCH  18  19
ATOM     19  C   UNL A   1      37.333  20.712  24.952  1.00  0.00     0.573 C 
ATOM     20  F   UNL A   1      38.617  20.590  25.350  1.00  0.00    -0.132 F 
ATOM     21  F   UNL A   1      36.840  19.498  24.631  1.00  0.00    -0.132 F 
ATOM     22  F   UNL A   1      37.314  21.480  23.838  1.00  0.00    -0.132 F 
ENDBRANCH  18  19
ENDBRANCH  10  18
BRANCH  15  23
ATOM     23  C   UNL A   1      32.757  25.439  22.969  1.00  0.00     0.430 C 
ATOM     24  F   UNL A   1      32.491  24.502  22.028  1.00  0.00    -0.167 F 
ATOM     25  F   UNL A   1      32.430  26.638  22.424  1.00  0.00    -0.167 F 
ATOM     26  F   UNL A   1      34.095  25.461  23.146  1.00  0.00    -0.167 F 
ENDBRANCH  15  23
ENDBRANCH   4   6
ENDBRANCH   3   4
ENDBRANCH   2   3
ENDBRANCH   1   2
BRANCH   1  27
ATOM     27  O   UNL A   1      32.447  30.381  27.033  1.00  0.00    -0.458 OA
BRANCH  27  28
ATOM     28  C   UNL A   1      33.113  31.521  27.315  1.00  0.00     0.338 C 
ATOM     29  O   UNL A   1      32.631  32.639  27.425  1.00  0.00    -0.246 OA
BRANCH  28  30
ATOM     30  C   UNL A   1      34.525  31.252  27.617  1.00  0.00     0.060 A 
ATOM     31  C   UNL A   1      34.871  29.953  27.967  1.00  0.00     0.016 A 
ATOM     32  C   UNL A   1      35.422  32.294  27.828  1.00  0.00     0.016 A 
ATOM     33  C   UNL A   1      36.026  29.715  28.702  1.00  0.00     0.010 A 
ATOM     34  C   UNL A   1      36.665  32.018  28.412  1.00  0.00     0.010 A 
ATOM     35  C   UNL A   1      36.963  30.734  28.908  1.00  0.00    -0.014 A 
BRANCH  35  36
ATOM     36  C   UNL A   1      38.243  30.456  29.627  1.00  0.00     0.031 A 
ATOM     37  C   UNL A   1      39.283  29.549  29.014  1.00  0.00     0.074 A 
ATOM     38  C   UNL A   1      38.462  30.989  30.848  1.00  0.00     0.049 A 
ATOM     39  N   UNL A   1      40.316  28.978  29.579  1.00  0.00    -0.248 NA
ATOM     40  C   UNL A   1      39.131  29.224  27.586  1.00  0.00     0.031 C 
ATOM     41  C   UNL A   1      37.566  31.910  31.551  1.00  0.00     0.029 A 
ATOM     42  N   UNL A   1      39.501  30.813  31.731  1.00  0.00    -0.354 N 
ATOM     43  C   UNL A   1      40.884  28.161  28.606  1.00  0.00     0.074 A 
ATOM     44  C   UNL A   1      40.089  28.322  27.407  1.00  0.00     0.031 C 
ATOM     45  C   UNL A   1      38.095  32.234  32.737  1.00  0.00     0.029 A 
ATOM     46  C   UNL A   1      39.304  31.450  32.937  1.00  0.00     0.049 A 
ATOM     47  H   UNL A   1      40.306  30.286  31.524  1.00  0.00     0.167 HD
ATOM     48  C   UNL A   1      41.967  27.353  28.707  1.00  0.00     0.034 A 
ATOM     49  C   UNL A   1      39.967  31.361  34.105  1.00  0.00     0.034 A 
ATOM     50  C   UNL A   1      42.791  27.260  29.884  1.00  0.00     0.049 A 
ATOM     51  C   UNL A   1      41.149  30.443  34.197  1.00  0.00     0.074 A 
ATOM     52  C   UNL A   1      43.933  26.500  30.077  1.00  0.00     0.029 A 
ATOM     53  N   UNL A   1      42.573  27.958  31.061  1.00  0.00    -0.354 N 
ATOM     54  N   UNL A   1      41.675  29.685  33.267  1.00  0.00    -0.248 NA
ATOM     55  C   UNL A   1      41.838  30.376  35.492  1.00  0.00     0.031 C 
ATOM     56  C   UNL A   1      44.388  26.719  31.380  1.00  0.00     0.029 A 
ATOM     57  C   UNL A   1      43.556  27.647  31.984  1.00  0.00     0.049 A 
ATOM     58  H   UNL A   1      41.828  28.583  31.218  1.00  0.00     0.167 HD
ATOM     59  C   UNL A   1      42.782  29.084  33.852  1.00  0.00     0.074 A 
ATOM     60  C   UNL A   1      42.857  29.574  35.212  1.00  0.00     0.031 C 
ATOM     61  C   UNL A   1      43.653  28.198  33.311  1.00  0.00     0.034 A 
BRANCH  48  62
ATOM     62  C   UNL A   1      42.344  26.506  27.515  1.00  0.00     0.023 A 
ATOM     63  C   UNL A   1      43.163  27.038  26.499  1.00  0.00     0.012 A 
ATOM     64  C   UNL A   1      41.956  25.151  27.448  1.00  0.00     0.148 A 
ATOM     65  C   UNL A   1      43.562  26.245  25.422  1.00  0.00     0.002 A 
ATOM     66  C   UNL A   1      42.397  24.355  26.396  1.00  0.00     0.091 A 
ATOM     67  F   UNL A   1      41.166  24.665  28.416  1.00  0.00    -0.205 F 
ATOM     68  C   UNL A   1      43.190  24.905  25.376  1.00  0.00     0.022 A 
BRANCH  66  69
ATOM     69  S   UNL A   1      42.043  22.596  26.292  1.00  0.00     0.127 S 
ATOM     70  O   UNL A   1      40.580  22.589  26.291  1.00  0.00    -0.237 OA
ATOM     71  O   UNL A   1      42.654  22.236  25.012  1.00  0.00    -0.237 OA
ATOM     72  O   UNL A   1      42.668  21.988  27.458  1.00  0.00    -0.744 OA
ENDBRANCH  66  69
ENDBRANCH  48  62
BRANCH  49  73
ATOM     73  C   UNL A   1      39.512  32.154  35.283  1.00  0.00     0.023 A 
ATOM     74  C   UNL A   1      39.796  33.532  35.343  1.00  0.00     0.012 A 
ATOM     75  C   UNL A   1      38.770  31.560  36.326  1.00  0.00     0.148 A 
ATOM     76  C   UNL A   1      39.376  34.296  36.433  1.00  0.00     0.002 A 
ATOM     77  C   UNL A   1      38.300  32.340  37.374  1.00  0.00     0.091 A 
ATOM     78  F   UNL A   1      38.522  30.245  36.260  1.00  0.00    -0.205 F 
ATOM     79  C   UNL A   1      38.619  33.705  37.441  1.00  0.00     0.022 A 
BRANCH  77  80
ATOM     80  S   UNL A   1      37.196  31.691  38.633  1.00  0.00     0.127 S 
ATOM     81  O   UNL A   1      36.979  30.325  38.165  1.00  0.00    -0.237 OA
ATOM     82  O   UNL A   1      38.012  31.806  39.842  1.00  0.00    -0.237 OA
ATOM     83  O   UNL A   1      36.028  32.561  38.617  1.00  0.00    -0.744 OA
ENDBRANCH  77  80
ENDBRANCH  49  73
BRANCH  61  84
ATOM     84  C   UNL A   1      44.815  27.760  34.160  1.00  0.00     0.023 A 
ATOM     85  C   UNL A   1      46.011  28.503  34.163  1.00  0.00     0.012 A 
ATOM     86  C   UNL A   1      44.683  26.650  35.018  1.00  0.00     0.148 A 
ATOM     87  C   UNL A   1      47.070  28.130  34.990  1.00  0.00     0.002 A 
ATOM     88  C   UNL A   1      45.721  26.318  35.876  1.00  0.00     0.091 A 
ATOM     89  F   UNL A   1      43.541  25.947  34.980  1.00  0.00    -0.205 F 
ATOM     90  C   UNL A   1      46.920  27.048  35.855  1.00  0.00     0.022 A 
BRANCH  88  91
ATOM     91  S   UNL A   1      45.580  25.004  37.093  1.00  0.00     0.127 S 
ATOM     92  O   UNL A   1      44.426  25.444  37.874  1.00  0.00    -0.237 OA
ATOM     93  O   UNL A   1      45.337  23.832  36.250  1.00  0.00    -0.237 OA
ATOM     94  O   UNL A   1      46.846  24.981  37.813  1.00  0.00    -0.744 OA
ENDBRANCH  88  91
ENDBRANCH  61  84
ENDBRANCH  35  36
ENDBRANCH  28  30
ENDBRANCH  27  28
ENDBRANCH   1  27
TORSDOF 18
ENDMDL
MODEL 2
REMARK VINA RESULT:     -12.4      5.053     10.133
REMARK SMILES CCc1cc(OC(F)(F)F)cc2c1O[C@H](C(F)(F)F)C(C(=O)OCCOC(=O)c1ccc(-c3c4nc(c(-c5cccc(S(=O)(=O)[O-])c5F)c5ccc([nH]5)c(-c5cccc(S(=O)(=O)[O-])c5F)c5nc(c(-c6cccc(S(=O)(=O)[O-])c6F)c6ccc3[nH]6)C=C5)C=C4)cc1)=C2
REMARK SMILES IDX 25 1 24 2 23 3 21 4 22 5 20 6 3 7 4 8 13 9 5 10 12 11 14 12
REMARK SMILES IDX 11 13 92 14 15 15 2 16 1 17 6 18 7 19 8 20 9 21 10 22 16 23
REMARK SMILES IDX 17 24 18 25 19 26 26 27 27 28 28 29 29 30 30 31 91 32 31 33
REMARK SMILES IDX 90 34 32 35 33 36 34 37 84 38 35 39 89 40 83 41 85 42 36 43
REMARK SMILES IDX 88 44 82 45 81 46 37 48 69 49 49 50 68 51 50 52 53 53 67 54
REMARK SMILES IDX 86 55 51 56 52 57 66 59 87 60 54 61 38 62 39 63 47 64 40 65
REMARK SMILES IDX 42 66 48 67 41 68 43 69 44 70 45 71 46 72 70 73 71 74 79 75
REMARK SMILES IDX 72 76 74 77 80 78 73 79 75 80 76 81 77 82 78 83 55 84 56 85
REMARK SMILES IDX 64 86 57 87 59 88 65 89 58 90 60 91 61 92 62 93 63 94
REMARK H PARENT 85 47 53 58
REMARK Flexibility Score: inf
ROOT
ATOM      1  C   UNL A   1      36.234  20.725  25.380  1.00  0.00     0.275 C 
ENDROOT
BRANCH   1   2
ATOM      2  C   UNL A   1      34.951  21.134  24.649  1.00  0.00     0.275 C 
BRANCH   2   3
ATOM      3  O   UNL A   1      33.920  21.561  25.567  1.00  0.00    -0.459 OA
BRANCH   3   4
ATOM      4  C   UNL A   1      32.742  21.897  24.990  1.00  0.00     0.338 C 
ATOM      5  O   UNL A   1      31.888  21.119  24.604  1.00  0.00    -0.246 OA
BRANCH   4   6
ATOM      6  C   UNL A   1      32.564  23.353  24.881  1.00  0.00     0.087 C 
ATOM      7  C   UNL A   1      31.379  27.211  25.913  1.00  0.00    -0.002 A 
ATOM      8  C   UNL A   1      30.655  27.953  24.959  1.00  0.00     0.054 A 
ATOM      9  C   UNL A   1      31.702  25.894  25.579  1.00  0.00     0.131 A 
ATOM     10  C   UNL A   1      30.258  27.393  23.737  1.00  0.00     0.130 A 
ATOM     11  C   UNL A   1      31.294  25.303  24.363  1.00  0.00     0.021 A 
ATOM     12  O   UNL A   1      32.424  25.155  26.476  1.00  0.00    -0.475 OA
ATOM     13  C   UNL A   1      30.575  26.062  23.446  1.00  0.00     0.058 A 
ATOM     14  C   UNL A   1      31.582  23.880  24.132  1.00  0.00     0.027 C 
ATOM     15  C   UNL A   1      33.337  24.233  25.830  1.00  0.00     0.316 C 
BRANCH   7  16
ATOM     16  C   UNL A   1      31.748  27.917  27.206  1.00  0.00     0.036 C 
ATOM     17  C   UNL A   1      33.086  28.636  27.340  1.00  0.00     0.009 C 
ENDBRANCH   7  16
BRANCH  10  18
ATOM     18  O   UNL A   1      29.559  28.028  22.749  1.00  0.00    -0.406 OA
BRANCH  18  19
ATOM     19  C   UNL A   1      29.958  29.343  22.407  1.00  0.00     0.573 C 
ATOM     20  F   UNL A   1      29.372  29.751  21.261  1.00  0.00    -0.132 F 
ATOM     21  F   UNL A   1      29.675  30.215  23.397  1.00  0.00    -0.132 F 
ATOM     22  F   UNL A   1      31.297  29.349  22.213  1.00  0.00    -0.132 F 
ENDBRANCH  18  19
ENDBRANCH  10  18
BRANCH  15  23
ATOM     23  C   UNL A   1      34.535  24.975  25.179  1.00  0.00     0.430 C 
ATOM     24  F   UNL A   1      34.360  25.189  23.853  1.00  0.00    -0.167 F 
ATOM     25  F   UNL A   1      34.737  26.192  25.744  1.00  0.00    -0.167 F 
ATOM     26  F   UNL A   1      35.691  24.295  25.328  1.00  0.00    -0.167 F 
ENDBRANCH  15  23
ENDBRANCH   4   6
ENDBRANCH   3   4
ENDBRANCH   2   3
ENDBRANCH   1   2
BRANCH   1  27
ATOM     27  O   UNL A   1      37.330  21.605  25.068  1.00  0.00    -0.458 OA
BRANCH  27  28
ATOM     28  C   UNL A   1      38.499  21.267  25.654  1.00  0.00     0.338 C 
ATOM     29  O   UNL A   1      39.123  20.229  25.490  1.00  0.00    -0.246 OA
BRANCH  28  30
ATOM     30  C   UNL A   1      39.038  22.378  26.449  1.00  0.00     0.060 A 
ATOM     31  C   UNL A   1      38.580  23.658  26.158  1.00  0.00     0.016 A 
ATOM     32  C   UNL A   1      40.160  22.205  27.253  1.00  0.00     0.016 A 
ATOM     33  C   UNL A   1      39.345  24.765  26.502  1.00  0.00     0.010 A 
ATOM     34  C   UNL A   1      40.829  23.333  27.746  1.00  0.00     0.010 A 
ATOM     35  C   UNL A   1      40.464  24.629  27.332  1.00  0.00    -0.014 A 
BRANCH  35  36
ATOM     36  C   UNL A   1      41.237  25.830  27.770  1.00  0.00     0.031 A 
ATOM     37  C   UNL A   1      40.573  26.910  28.590  1.00  0.00     0.074 A 
ATOM     38  C   UNL A   1      42.529  25.974  27.403  1.00  0.00     0.049 A 
ATOM     39  N   UNL A   1      40.982  28.129  28.835  1.00  0.00    -0.248 NA
ATOM     40  C   UNL A   1      39.271  26.586  29.198  1.00  0.00     0.031 C 
ATOM     41  C   UNL A   1      43.313  24.999  26.641  1.00  0.00     0.029 A 
ATOM     42  N   UNL A   1      43.408  27.011  27.600  1.00  0.00    -0.354 N 
ATOM     43  C   UNL A   1      39.954  28.743  29.546  1.00  0.00     0.074 A 
ATOM     44  C   UNL A   1      38.908  27.756  29.707  1.00  0.00     0.031 C 
ATOM     45  C   UNL A   1      44.553  25.468  26.453  1.00  0.00     0.029 A 
ATOM     46  C   UNL A   1      44.619  26.826  26.969  1.00  0.00     0.049 A 
ATOM     47  H   UNL A   1      43.196  27.807  28.139  1.00  0.00     0.167 HD
ATOM     48  C   UNL A   1      39.893  30.012  30.018  1.00  0.00     0.034 A 
ATOM     49  C   UNL A   1      45.644  27.672  26.752  1.00  0.00     0.034 A 
ATOM     50  C   UNL A   1      40.973  30.959  29.914  1.00  0.00     0.049 A 
ATOM     51  C   UNL A   1      45.542  29.077  27.265  1.00  0.00     0.074 A 
ATOM     52  C   UNL A   1      41.027  32.258  30.390  1.00  0.00     0.029 A 
ATOM     53  N   UNL A   1      42.192  30.708  29.303  1.00  0.00    -0.354 N 
ATOM     54  N   UNL A   1      44.569  29.638  27.939  1.00  0.00    -0.248 NA
ATOM     55  C   UNL A   1      46.683  29.964  27.000  1.00  0.00     0.031 C 
ATOM     56  C   UNL A   1      42.269  32.798  30.045  1.00  0.00     0.029 A 
ATOM     57  C   UNL A   1      43.004  31.824  29.390  1.00  0.00     0.049 A 
ATOM     58  H   UNL A   1      42.443  29.858  28.871  1.00  0.00     0.167 HD
ATOM     59  C   UNL A   1      44.997  30.929  28.217  1.00  0.00     0.074 A 
ATOM     60  C   UNL A   1      46.321  31.064  27.647  1.00  0.00     0.031 C 
ATOM     61  C   UNL A   1      44.346  31.917  28.877  1.00  0.00     0.034 A 
BRANCH  48  62
ATOM     62  C   UNL A   1      38.626  30.462  30.703  1.00  0.00     0.023 A 
ATOM     63  C   UNL A   1      38.480  30.304  32.096  1.00  0.00     0.012 A 
ATOM     64  C   UNL A   1      37.614  31.123  29.975  1.00  0.00     0.148 A 
ATOM     65  C   UNL A   1      37.336  30.769  32.747  1.00  0.00     0.002 A 
ATOM     66  C   UNL A   1      36.499  31.625  30.638  1.00  0.00     0.091 A 
ATOM     67  F   UNL A   1      37.763  31.254  28.649  1.00  0.00    -0.205 F 
ATOM     68  C   UNL A   1      36.353  31.437  32.022  1.00  0.00     0.022 A 
BRANCH  66  69
ATOM     69  S   UNL A   1      35.219  32.576  29.808  1.00  0.00     0.127 S 
ATOM     70  O   UNL A   1      34.302  32.862  30.910  1.00  0.00    -0.237 OA
ATOM     71  O   UNL A   1      35.967  33.736  29.321  1.00  0.00    -0.237 OA
ATOM     72  O   UNL A   1      34.688  31.712  28.762  1.00  0.00    -0.744 OA
ENDBRANCH  66  69
ENDBRANCH  48  62
BRANCH  49  73
ATOM     73  C   UNL A   1      46.845  27.210  25.997  1.00  0.00     0.023 A 
ATOM     74  C   UNL A   1      46.900  27.394  24.603  1.00  0.00     0.012 A 
ATOM     75  C   UNL A   1      47.945  26.622  26.656  1.00  0.00     0.148 A 
ATOM     76  C   UNL A   1      48.014  26.976  23.875  1.00  0.00     0.002 A 
ATOM     77  C   UNL A   1      49.077  26.267  25.933  1.00  0.00     0.091 A 
ATOM     78  F   UNL A   1      47.869  26.440  27.981  1.00  0.00    -0.205 F 
ATOM     79  C   UNL A   1      49.107  26.425  24.540  1.00  0.00     0.022 A 
BRANCH  77  80
ATOM     80  S   UNL A   1      50.581  25.691  26.729  1.00  0.00     0.127 S 
ATOM     81  O   UNL A   1      50.129  24.453  27.358  1.00  0.00    -0.237 OA
ATOM     82  O   UNL A   1      51.477  25.510  25.587  1.00  0.00    -0.237 OA
ATOM     83  O   UNL A   1      50.978  26.757  27.637  1.00  0.00    -0.744 OA
ENDBRANCH  77  80
ENDBRANCH  49  73
BRANCH  61  84
ATOM     84  C   UNL A   1      45.085  33.208  29.098  1.00  0.00     0.023 A 
ATOM     85  C   UNL A   1      45.881  33.383  30.246  1.00  0.00     0.012 A 
ATOM     86  C   UNL A   1      45.048  34.218  28.116  1.00  0.00     0.148 A 
ATOM     87  C   UNL A   1      46.609  34.559  30.426  1.00  0.00     0.002 A 
ATOM     88  C   UNL A   1      45.818  35.361  28.276  1.00  0.00     0.091 A 
ATOM     89  F   UNL A   1      44.266  34.035  27.042  1.00  0.00    -0.205 F 
ATOM     90  C   UNL A   1      46.588  35.540  29.436  1.00  0.00     0.022 A 
BRANCH  88  91
ATOM     91  S   UNL A   1      45.930  36.631  27.011  1.00  0.00     0.127 S 
ATOM     92  O   UNL A   1      46.440  35.871  25.871  1.00  0.00    -0.237 OA
ATOM     93  O   UNL A   1      44.538  37.062  26.885  1.00  0.00    -0.237 OA
ATOM     94  O   UNL A   1      46.834  37.646  27.535  1.00  0.00    -0.744 OA
ENDBRANCH  88  91
ENDBRANCH  61  84
ENDBRANCH  35  36
ENDBRANCH  28  30
ENDBRANCH  27  28
ENDBRANCH   1  27
TORSDOF 18
ENDMDL
MODEL 3
REMARK VINA RESULT:     -12.4      5.140     10.039
REMARK SMILES CCc1cc(OC(F)(F)F)cc2c1O[C@H](C(F)(F)F)C(C(=O)OCCOC(=O)c1ccc(-c3c4nc(c(-c5cccc(S(=O)(=O)[O-])c5F)c5ccc([nH]5)c(-c5cccc(S(=O)(=O)[O-])c5F)c5nc(c(-c6cccc(S(=O)(=O)[O-])c6F)c6ccc3[nH]6)C=C5)C=C4)cc1)=C2
REMARK SMILES IDX 25 1 24 2 23 3 21 4 22 5 20 6 3 7 4 8 13 9 5 10 12 11 14 12
REMARK SMILES IDX 11 13 92 14 15 15 2 16 1 17 6 18 7 19 8 20 9 21 10 22 16 23
REMARK SMILES IDX 17 24 18 25 19 26 26 27 27 28 28 29 29 30 30 31 91 32 31 33
REMARK SMILES IDX 90 34 32 35 33 36 34 37 84 38 35 39 89 40 83 41 85 42 36 43
REMARK SMILES IDX 88 44 82 45 81 46 37 48 69 49 49 50 68 51 50 52 53 53 67 54
REMARK SMILES IDX 86 55 51 56 52 57 66 59 87 60 54 61 38 62 39 63 47 64 40 65
REMARK SMILES IDX 42 66 48 67 41 68 43 69 44 70 45 71 46 72 70 73 71 74 79 75
REMARK SMILES IDX 72 76 74 77 80 78 73 79 75 80 76 81 77 82 78 83 55 84 56 85
REMARK SMILES IDX 64 86 57 87 59 88 65 89 58 90 60 91 61 92 62 93 63 94
REMARK H PARENT 85 47 53 58
REMARK Flexibility Score: inf
ROOT
ATOM      1  C   UNL A   1      36.182  20.918  25.019  1.00  0.00     0.275 C 
ENDROOT
BRANCH   1   2
ATOM      2  C   UNL A   1      34.913  21.717  24.705  1.00  0.00     0.275 C 
BRANCH   2   3
ATOM      3  O   UNL A   1      35.217  23.045  24.224  1.00  0.00    -0.459 OA
BRANCH   3   4
ATOM      4  C   UNL A   1      34.356  23.530  23.298  1.00  0.00     0.338 C 
ATOM      5  O   UNL A   1      34.251  23.141  22.148  1.00  0.00    -0.246 OA
BRANCH   4   6
ATOM      6  C   UNL A   1      33.506  24.608  23.827  1.00  0.00     0.087 C 
ATOM      7  C   UNL A   1      30.744  27.725  23.842  1.00  0.00    -0.002 A 
ATOM      8  C   UNL A   1      31.117  28.931  24.470  1.00  0.00     0.054 A 
ATOM      9  C   UNL A   1      31.709  26.719  23.780  1.00  0.00     0.131 A 
ATOM     10  C   UNL A   1      32.403  29.121  24.993  1.00  0.00     0.130 A 
ATOM     11  C   UNL A   1      33.017  26.896  24.281  1.00  0.00     0.021 A 
ATOM     12  O   UNL A   1      31.370  25.528  23.196  1.00  0.00    -0.475 OA
ATOM     13  C   UNL A   1      33.354  28.100  24.890  1.00  0.00     0.058 A 
ATOM     14  C   UNL A   1      34.006  25.827  24.083  1.00  0.00     0.027 C 
ATOM     15  C   UNL A   1      32.013  24.395  23.829  1.00  0.00     0.316 C 
BRANCH   7  16
ATOM     16  C   UNL A   1      29.327  27.634  23.304  1.00  0.00     0.036 C 
ATOM     17  C   UNL A   1      28.651  28.858  22.694  1.00  0.00     0.009 C 
ENDBRANCH   7  16
BRANCH  10  18
ATOM     18  O   UNL A   1      32.859  30.246  25.620  1.00  0.00    -0.406 OA
BRANCH  18  19
ATOM     19  C   UNL A   1      32.665  30.339  27.020  1.00  0.00     0.573 C 
ATOM     20  F   UNL A   1      32.581  31.627  27.419  1.00  0.00    -0.132 F 
ATOM     21  F   UNL A   1      31.560  29.670  27.408  1.00  0.00    -0.132 F 
ATOM     22  F   UNL A   1      33.731  29.781  27.639  1.00  0.00    -0.132 F 
ENDBRANCH  18  19
ENDBRANCH  10  18
BRANCH  15  23
ATOM     23  C   UNL A   1      31.413  24.103  25.230  1.00  0.00     0.430 C 
ATOM     24  F   UNL A   1      30.292  24.821  25.479  1.00  0.00    -0.167 F 
ATOM     25  F   UNL A   1      31.073  22.797  25.367  1.00  0.00    -0.167 F 
ATOM     26  F   UNL A   1      32.289  24.368  26.221  1.00  0.00    -0.167 F 
ENDBRANCH  15  23
ENDBRANCH   4   6
ENDBRANCH   3   4
ENDBRANCH   2   3
ENDBRANCH   1   2
BRANCH   1  27
ATOM     27  O   UNL A   1      37.369  21.718  24.861  1.00  0.00    -0.458 OA
BRANCH  27  28
ATOM     28  C   UNL A   1      38.427  21.293  25.585  1.00  0.00     0.338 C 
ATOM     29  O   UNL A   1      38.963  20.196  25.519  1.00  0.00    -0.246 OA
BRANCH  28  30
ATOM     30  C   UNL A   1      38.976  22.376  26.411  1.00  0.00     0.060 A 
ATOM     31  C   UNL A   1      38.523  23.667  26.164  1.00  0.00     0.016 A 
ATOM     32  C   UNL A   1      40.102  22.172  27.202  1.00  0.00     0.016 A 
ATOM     33  C   UNL A   1      39.295  24.758  26.538  1.00  0.00     0.010 A 
ATOM     34  C   UNL A   1      40.780  23.281  27.726  1.00  0.00     0.010 A 
ATOM     35  C   UNL A   1      40.418  24.591  27.356  1.00  0.00    -0.014 A 
BRANCH  35  36
ATOM     36  C   UNL A   1      41.200  25.774  27.826  1.00  0.00     0.031 A 
ATOM     37  C   UNL A   1      40.544  26.836  28.676  1.00  0.00     0.074 A 
ATOM     38  C   UNL A   1      42.493  25.919  27.462  1.00  0.00     0.049 A 
ATOM     39  N   UNL A   1      40.961  28.045  28.955  1.00  0.00    -0.248 NA
ATOM     40  C   UNL A   1      39.241  26.504  29.276  1.00  0.00     0.031 C 
ATOM     41  C   UNL A   1      43.270  24.960  26.673  1.00  0.00     0.029 A 
ATOM     42  N   UNL A   1      43.380  26.944  27.688  1.00  0.00    -0.354 N 
ATOM     43  C   UNL A   1      39.939  28.646  29.682  1.00  0.00     0.074 A 
ATOM     44  C   UNL A   1      38.886  27.663  29.817  1.00  0.00     0.031 C 
ATOM     45  C   UNL A   1      44.513  25.426  26.498  1.00  0.00     0.029 A 
ATOM     46  C   UNL A   1      44.588  26.768  27.051  1.00  0.00     0.049 A 
ATOM     47  H   UNL A   1      43.173  27.726  28.249  1.00  0.00     0.167 HD
ATOM     48  C   UNL A   1      39.887  29.902  30.189  1.00  0.00     0.034 A 
ATOM     49  C   UNL A   1      45.619  27.612  26.857  1.00  0.00     0.034 A 
ATOM     50  C   UNL A   1      40.973  30.844  30.110  1.00  0.00     0.049 A 
ATOM     51  C   UNL A   1      45.528  29.004  27.408  1.00  0.00     0.074 A 
ATOM     52  C   UNL A   1      41.037  32.129  30.623  1.00  0.00     0.029 A 
ATOM     53  N   UNL A   1      42.190  30.601  29.492  1.00  0.00    -0.354 N 
ATOM     54  N   UNL A   1      44.559  29.552  28.098  1.00  0.00    -0.248 NA
ATOM     55  C   UNL A   1      46.675  29.890  27.167  1.00  0.00     0.031 C 
ATOM     56  C   UNL A   1      42.282  32.670  30.291  1.00  0.00     0.029 A 
ATOM     57  C   UNL A   1      43.010  31.709  29.610  1.00  0.00     0.049 A 
ATOM     58  H   UNL A   1      42.435  29.762  29.037  1.00  0.00     0.167 HD
ATOM     59  C   UNL A   1      44.996  30.832  28.411  1.00  0.00     0.074 A 
ATOM     60  C   UNL A   1      46.321  30.973  27.845  1.00  0.00     0.031 C 
ATOM     61  C   UNL A   1      44.353  31.806  29.099  1.00  0.00     0.034 A 
BRANCH  48  62
ATOM     62  C   UNL A   1      38.623  30.342  30.888  1.00  0.00     0.023 A 
ATOM     63  C   UNL A   1      38.405  30.002  32.237  1.00  0.00     0.012 A 
ATOM     64  C   UNL A   1      37.691  31.170  30.227  1.00  0.00     0.148 A 
ATOM     65  C   UNL A   1      37.266  30.452  32.908  1.00  0.00     0.002 A 
ATOM     66  C   UNL A   1      36.583  31.653  30.915  1.00  0.00     0.091 A 
ATOM     67  F   UNL A   1      37.907  31.474  28.939  1.00  0.00    -0.205 F 
ATOM     68  C   UNL A   1      36.363  31.284  32.252  1.00  0.00     0.022 A 
BRANCH  66  69
ATOM     69  S   UNL A   1      35.408  32.800  30.185  1.00  0.00     0.127 S 
ATOM     70  O   UNL A   1      36.199  34.028  30.113  1.00  0.00    -0.237 OA
ATOM     71  O   UNL A   1      35.134  32.176  28.890  1.00  0.00    -0.237 OA
ATOM     72  O   UNL A   1      34.270  32.846  31.093  1.00  0.00    -0.744 OA
ENDBRANCH  66  69
ENDBRANCH  48  62
BRANCH  49  73
ATOM     73  C   UNL A   1      46.817  27.163  26.089  1.00  0.00     0.023 A 
ATOM     74  C   UNL A   1      46.875  27.391  24.701  1.00  0.00     0.012 A 
ATOM     75  C   UNL A   1      47.910  26.545  26.730  1.00  0.00     0.148 A 
ATOM     76  C   UNL A   1      47.986  26.984  23.961  1.00  0.00     0.002 A 
ATOM     77  C   UNL A   1      49.040  26.202  25.997  1.00  0.00     0.091 A 
ATOM     78  F   UNL A   1      47.831  26.322  28.049  1.00  0.00    -0.205 F 
ATOM     79  C   UNL A   1      49.073  26.403  24.609  1.00  0.00     0.022 A 
BRANCH  77  80
ATOM     80  S   UNL A   1      50.538  25.587  26.775  1.00  0.00     0.127 S 
ATOM     81  O   UNL A   1      50.901  26.702  27.646  1.00  0.00    -0.237 OA
ATOM     82  O   UNL A   1      50.051  24.395  27.471  1.00  0.00    -0.237 OA
ATOM     83  O   UNL A   1      51.460  25.306  25.684  1.00  0.00    -0.744 OA
ENDBRANCH  77  80
ENDBRANCH  49  73
BRANCH  61  84
ATOM     84  C   UNL A   1      45.100  33.086  29.355  1.00  0.00     0.023 A 
ATOM     85  C   UNL A   1      45.917  33.215  30.495  1.00  0.00     0.012 A 
ATOM     86  C   UNL A   1      45.051  34.132  28.412  1.00  0.00     0.148 A 
ATOM     87  C   UNL A   1      46.653  34.380  30.705  1.00  0.00     0.002 A 
ATOM     88  C   UNL A   1      45.828  35.266  28.601  1.00  0.00     0.091 A 
ATOM     89  F   UNL A   1      44.249  33.992  27.346  1.00  0.00    -0.205 F 
ATOM     90  C   UNL A   1      46.619  35.398  29.753  1.00  0.00     0.022 A 
BRANCH  88  91
ATOM     91  S   UNL A   1      45.924  36.581  27.382  1.00  0.00     0.127 S 
ATOM     92  O   UNL A   1      44.555  37.094  27.389  1.00  0.00    -0.237 OA
ATOM     93  O   UNL A   1      46.916  37.477  27.977  1.00  0.00    -0.237 OA
ATOM     94  O   UNL A   1      46.345  35.951  26.138  1.00  0.00    -0.744 OA
ENDBRANCH  88  91
ENDBRANCH  61  84
ENDBRANCH  35  36
ENDBRANCH  28  30
ENDBRANCH  27  28
ENDBRANCH   1  27
TORSDOF 18
ENDMDL
