MODEL 1
REMARK VINA RESULT:     -13.7      0.000      0.000
REMARK SMILES O=C(OCCOC(=O)c1ccc(-c2c3nc(c(-c4cccc(S(=O)(=O)[O-])c4F)c4ccc([nH]4)c(-c4cccc(S(=O)(=O)[O-])c4F)c4nc(c(-c5cccc(S(=O)(=O)[O-])c5F)c5ccc2[nH]5)C=C4)C=C3)cc1)C1=Cc2cc(Cl)cc(Cl)c2O[C@@H]1C(F)(F)F
REMARK SMILES IDX 5 1 4 2 3 3 2 4 1 5 72 6 73 7 83 8 74 9 82 10 75 11 81 12
REMARK SMILES IDX 76 13 79 14 77 15 78 16 80 17 84 18 85 19 86 20 87 21 6 22
REMARK SMILES IDX 7 23 8 24 9 25 10 26 71 27 11 28 70 29 12 30 13 31 14 32
REMARK SMILES IDX 64 33 15 34 69 35 63 36 65 37 16 38 68 39 62 40 61 41 17 43
REMARK SMILES IDX 49 44 29 45 48 46 30 47 33 48 47 49 66 50 31 51 32 52 46 54
REMARK SMILES IDX 67 55 34 56 18 57 19 58 27 59 20 60 22 61 28 62 21 63 23 64
REMARK SMILES IDX 24 65 25 66 26 67 50 68 51 69 59 70 52 71 54 72 60 73 53 74
REMARK SMILES IDX 55 75 56 76 57 77 58 78 35 79 36 80 44 81 37 82 39 83 45 84
REMARK SMILES IDX 38 85 40 86 41 87 42 88 43 89
REMARK H PARENT 65 42 33 53
REMARK Flexibility Score: inf
ROOT
ATOM      1  C   UNL A   1      36.834  21.124  24.797  1.00  0.00     0.275 C 
ENDROOT
BRANCH   1   2
ATOM      2  C   UNL A   1      35.084  21.070  26.095  1.00  0.00     0.275 C 
BRANCH   2   3
ATOM      3  O   UNL A   1      34.060  22.214  26.298  1.00  0.00    -0.459 OA
BRANCH   3   4
ATOM      4  C   UNL A   1      34.487  23.400  25.851  1.00  0.00     0.338 C 
ATOM      5  O   UNL A   1      35.530  23.969  26.034  1.00  0.00    -0.246 OA
BRANCH   4   6
ATOM      6  C   UNL A   1      33.191  23.845  25.402  1.00  0.00     0.087 C 
ATOM      7  C   UNL A   1      32.686  24.955  26.237  1.00  0.00     0.027 C 
ATOM      8  C   UNL A   1      33.654  23.980  23.531  1.00  0.00     0.316 C 
ATOM      9  C   UNL A   1      32.600  26.672  25.659  1.00  0.00     0.020 A 
ATOM     10  O   UNL A   1      33.605  25.803  22.910  1.00  0.00    -0.474 OA
ATOM     11  C   UNL A   1      32.369  27.649  26.586  1.00  0.00     0.032 A 
ATOM     12  C   UNL A   1      33.114  27.136  24.058  1.00  0.00     0.146 A 
ATOM     13  C   UNL A   1      32.593  28.958  26.130  1.00  0.00     0.043 A 
ATOM     14  C   UNL A   1      33.290  28.447  23.712  1.00  0.00     0.085 A 
ATOM     15  Cl  UNL A   1      32.403  30.224  27.304  1.00  0.00    -0.084 Cl
ATOM     16  C   UNL A   1      33.023  29.337  24.785  1.00  0.00     0.045 A 
ATOM     17  Cl  UNL A   1      33.854  29.009  22.214  1.00  0.00    -0.080 Cl
BRANCH   8  18
ATOM     18  C   UNL A   1      32.971  22.661  23.027  1.00  0.00     0.430 C 
ATOM     19  F   UNL A   1      31.661  22.641  23.296  1.00  0.00    -0.167 F 
ATOM     20  F   UNL A   1      33.036  22.654  21.661  1.00  0.00    -0.167 F 
ATOM     21  F   UNL A   1      33.561  21.503  23.363  1.00  0.00    -0.167 F 
ENDBRANCH   8  18
ENDBRANCH   4   6
ENDBRANCH   3   4
ENDBRANCH   2   3
ENDBRANCH   1   2
BRANCH   1  22
ATOM     22  O   UNL A   1      38.401  21.550  25.270  1.00  0.00    -0.458 OA
BRANCH  22  23
ATOM     23  C   UNL A   1      39.403  21.255  26.153  1.00  0.00     0.338 C 
ATOM     24  O   UNL A   1      40.150  20.299  26.201  1.00  0.00    -0.246 OA
BRANCH  23  25
ATOM     25  C   UNL A   1      39.648  22.545  26.865  1.00  0.00     0.060 A 
ATOM     26  C   UNL A   1      40.709  22.624  27.783  1.00  0.00     0.016 A 
ATOM     27  C   UNL A   1      39.086  23.713  26.342  1.00  0.00     0.016 A 
ATOM     28  C   UNL A   1      41.320  23.866  28.030  1.00  0.00     0.010 A 
ATOM     29  C   UNL A   1      39.701  24.942  26.583  1.00  0.00     0.010 A 
ATOM     30  C   UNL A   1      40.847  25.025  27.395  1.00  0.00    -0.014 A 
BRANCH  30  31
ATOM     31  C   UNL A   1      41.315  26.363  27.836  1.00  0.00     0.031 A 
ATOM     32  C   UNL A   1      42.738  26.676  27.474  1.00  0.00     0.074 A 
ATOM     33  C   UNL A   1      40.582  27.231  28.565  1.00  0.00     0.049 A 
ATOM     34  N   UNL A   1      43.438  27.753  27.689  1.00  0.00    -0.248 NA
ATOM     35  C   UNL A   1      43.478  25.597  26.789  1.00  0.00     0.031 C 
ATOM     36  C   UNL A   1      39.210  27.028  29.032  1.00  0.00     0.029 A 
ATOM     37  N   UNL A   1      40.914  28.472  29.063  1.00  0.00    -0.354 N 
ATOM     38  C   UNL A   1      44.697  27.474  27.176  1.00  0.00     0.074 A 
ATOM     39  C   UNL A   1      44.687  26.113  26.700  1.00  0.00     0.031 C 
ATOM     40  C   UNL A   1      38.825  28.100  29.757  1.00  0.00     0.029 A 
ATOM     41  C   UNL A   1      39.918  29.071  29.806  1.00  0.00     0.049 A 
ATOM     42  H   UNL A   1      41.789  28.894  28.903  1.00  0.00     0.167 HD
ATOM     43  C   UNL A   1      45.769  28.287  27.069  1.00  0.00     0.034 A 
ATOM     44  C   UNL A   1      39.901  30.269  30.431  1.00  0.00     0.034 A 
ATOM     45  C   UNL A   1      45.788  29.629  27.560  1.00  0.00     0.049 A 
ATOM     46  C   UNL A   1      41.119  31.167  30.306  1.00  0.00     0.074 A 
ATOM     47  C   UNL A   1      46.806  30.557  27.493  1.00  0.00     0.029 A 
ATOM     48  N   UNL A   1      44.734  30.222  28.238  1.00  0.00    -0.354 N 
ATOM     49  N   UNL A   1      42.246  30.955  29.668  1.00  0.00    -0.248 NA
ATOM     50  C   UNL A   1      41.042  32.492  30.946  1.00  0.00     0.031 C 
ATOM     51  C   UNL A   1      46.378  31.708  28.160  1.00  0.00     0.029 A 
ATOM     52  C   UNL A   1      45.076  31.510  28.598  1.00  0.00     0.049 A 
ATOM     53  H   UNL A   1      43.872  29.791  28.432  1.00  0.00     0.167 HD
ATOM     54  C   UNL A   1      42.978  32.135  29.772  1.00  0.00     0.074 A 
ATOM     55  C   UNL A   1      42.166  33.061  30.532  1.00  0.00     0.031 C 
ATOM     56  C   UNL A   1      44.212  32.430  29.289  1.00  0.00     0.034 A 
BRANCH  43  57
ATOM     57  C   UNL A   1      46.976  27.712  26.389  1.00  0.00     0.023 A 
ATOM     58  C   UNL A   1      47.984  27.094  27.161  1.00  0.00     0.012 A 
ATOM     59  C   UNL A   1      47.148  27.847  25.001  1.00  0.00     0.148 A 
ATOM     60  C   UNL A   1      49.173  26.676  26.569  1.00  0.00     0.002 A 
ATOM     61  C   UNL A   1      48.314  27.377  24.410  1.00  0.00     0.091 A 
ATOM     62  F   UNL A   1      46.194  28.469  24.296  1.00  0.00    -0.205 F 
ATOM     63  C   UNL A   1      49.334  26.812  25.194  1.00  0.00     0.022 A 
BRANCH  61  64
ATOM     64  S   UNL A   1      48.591  27.443  22.640  1.00  0.00     0.127 S 
ATOM     65  O   UNL A   1      47.449  28.237  22.190  1.00  0.00    -0.237 OA
ATOM     66  O   UNL A   1      49.881  28.128  22.562  1.00  0.00    -0.237 OA
ATOM     67  O   UNL A   1      48.606  26.061  22.182  1.00  0.00    -0.744 OA
ENDBRANCH  61  64
ENDBRANCH  43  57
BRANCH  44  68
ATOM     68  C   UNL A   1      38.687  30.763  31.159  1.00  0.00     0.023 A 
ATOM     69  C   UNL A   1      38.544  30.482  32.536  1.00  0.00     0.012 A 
ATOM     70  C   UNL A   1      37.645  31.446  30.498  1.00  0.00     0.148 A 
ATOM     71  C   UNL A   1      37.377  30.822  33.225  1.00  0.00     0.002 A 
ATOM     72  C   UNL A   1      36.502  31.822  31.203  1.00  0.00     0.091 A 
ATOM     73  F   UNL A   1      37.781  31.694  29.189  1.00  0.00    -0.205 F 
ATOM     74  C   UNL A   1      36.358  31.494  32.560  1.00  0.00     0.022 A 
BRANCH  72  75
ATOM     75  S   UNL A   1      35.164  32.768  30.460  1.00  0.00     0.127 S 
ATOM     76  O   UNL A   1      35.854  33.986  30.040  1.00  0.00    -0.237 OA
ATOM     77  O   UNL A   1      34.747  31.890  29.366  1.00  0.00    -0.237 OA
ATOM     78  O   UNL A   1      34.171  32.940  31.511  1.00  0.00    -0.744 OA
ENDBRANCH  72  75
ENDBRANCH  44  68
BRANCH  56  79
ATOM     79  C   UNL A   1      44.735  33.829  29.480  1.00  0.00     0.023 A 
ATOM     80  C   UNL A   1      45.471  34.166  30.632  1.00  0.00     0.012 A 
ATOM     81  C   UNL A   1      44.593  34.776  28.446  1.00  0.00     0.148 A 
ATOM     82  C   UNL A   1      46.029  35.437  30.766  1.00  0.00     0.002 A 
ATOM     83  C   UNL A   1      45.202  36.018  28.560  1.00  0.00     0.091 A 
ATOM     84  F   UNL A   1      43.874  34.441  27.364  1.00  0.00    -0.205 F 
ATOM     85  C   UNL A   1      45.909  36.356  29.725  1.00  0.00     0.022 A 
BRANCH  83  86
ATOM     86  S   UNL A   1      45.201  37.209  27.215  1.00  0.00     0.127 S 
ATOM     87  O   UNL A   1      45.902  38.341  27.819  1.00  0.00    -0.237 OA
ATOM     88  O   UNL A   1      45.955  36.507  26.176  1.00  0.00    -0.237 OA
ATOM     89  O   UNL A   1      43.800  37.441  26.887  1.00  0.00    -0.744 OA
ENDBRANCH  83  86
ENDBRANCH  56  79
ENDBRANCH  30  31
ENDBRANCH  23  25
ENDBRANCH  22  23
ENDBRANCH   1  22
TORSDOF 15
ENDMDL
MODEL 2
REMARK VINA RESULT:     -13.7      1.323      1.646
REMARK SMILES O=C(OCCOC(=O)c1ccc(-c2c3nc(c(-c4cccc(S(=O)(=O)[O-])c4F)c4ccc([nH]4)c(-c4cccc(S(=O)(=O)[O-])c4F)c4nc(c(-c5cccc(S(=O)(=O)[O-])c5F)c5ccc2[nH]5)C=C4)C=C3)cc1)C1=Cc2cc(Cl)cc(Cl)c2O[C@@H]1C(F)(F)F
REMARK SMILES IDX 5 1 4 2 3 3 2 4 1 5 72 6 73 7 83 8 74 9 82 10 75 11 81 12
REMARK SMILES IDX 76 13 79 14 77 15 78 16 80 17 84 18 85 19 86 20 87 21 6 22
REMARK SMILES IDX 7 23 8 24 9 25 10 26 71 27 11 28 70 29 12 30 13 31 14 32
REMARK SMILES IDX 64 33 15 34 69 35 63 36 65 37 16 38 68 39 62 40 61 41 17 43
REMARK SMILES IDX 49 44 29 45 48 46 30 47 33 48 47 49 66 50 31 51 32 52 46 54
REMARK SMILES IDX 67 55 34 56 18 57 19 58 27 59 20 60 22 61 28 62 21 63 23 64
REMARK SMILES IDX 24 65 25 66 26 67 50 68 51 69 59 70 52 71 54 72 60 73 53 74
REMARK SMILES IDX 55 75 56 76 57 77 58 78 35 79 36 80 44 81 37 82 39 83 45 84
REMARK SMILES IDX 38 85 40 86 41 87 42 88 43 89
REMARK H PARENT 65 42 33 53
REMARK Flexibility Score: inf
ROOT
ATOM      1  C   UNL A   1      36.651  20.813  24.987  1.00  0.00     0.275 C 
ENDROOT
BRANCH   1   2
ATOM      2  C   UNL A   1      34.879  20.960  26.247  1.00  0.00     0.275 C 
BRANCH   2   3
ATOM      3  O   UNL A   1      33.803  22.073  26.186  1.00  0.00    -0.459 OA
BRANCH   3   4
ATOM      4  C   UNL A   1      34.285  23.264  25.812  1.00  0.00     0.338 C 
ATOM      5  O   UNL A   1      35.336  23.790  26.067  1.00  0.00    -0.246 OA
BRANCH   4   6
ATOM      6  C   UNL A   1      33.025  23.769  25.328  1.00  0.00     0.087 C 
ATOM      7  C   UNL A   1      32.537  24.886  26.164  1.00  0.00     0.027 C 
ATOM      8  C   UNL A   1      33.557  23.914  23.476  1.00  0.00     0.316 C 
ATOM      9  C   UNL A   1      32.542  26.613  25.612  1.00  0.00     0.020 A 
ATOM     10  O   UNL A   1      33.603  25.747  22.885  1.00  0.00    -0.474 OA
ATOM     11  C   UNL A   1      32.319  27.585  26.547  1.00  0.00     0.032 A 
ATOM     12  C   UNL A   1      33.129  27.080  24.038  1.00  0.00     0.146 A 
ATOM     13  C   UNL A   1      32.612  28.891  26.121  1.00  0.00     0.043 A 
ATOM     14  C   UNL A   1      33.370  28.388  23.720  1.00  0.00     0.085 A 
ATOM     15  Cl  UNL A   1      32.434  30.145  27.309  1.00  0.00    -0.084 Cl
ATOM     16  C   UNL A   1      33.103  29.272  24.798  1.00  0.00     0.045 A 
ATOM     17  Cl  UNL A   1      34.008  28.949  22.251  1.00  0.00    -0.080 Cl
BRANCH   8  18
ATOM     18  C   UNL A   1      32.838  22.631  22.927  1.00  0.00     0.430 C 
ATOM     19  F   UNL A   1      31.512  22.690  23.096  1.00  0.00    -0.167 F 
ATOM     20  F   UNL A   1      33.006  22.609  21.570  1.00  0.00    -0.167 F 
ATOM     21  F   UNL A   1      33.332  21.445  23.313  1.00  0.00    -0.167 F 
ENDBRANCH   8  18
ENDBRANCH   4   6
ENDBRANCH   3   4
ENDBRANCH   2   3
ENDBRANCH   1   2
BRANCH   1  22
ATOM     22  O   UNL A   1      38.186  21.412  25.368  1.00  0.00    -0.458 OA
BRANCH  22  23
ATOM     23  C   UNL A   1      39.317  21.159  26.095  1.00  0.00     0.338 C 
ATOM     24  O   UNL A   1      40.118  20.250  26.010  1.00  0.00    -0.246 OA
BRANCH  23  25
ATOM     25  C   UNL A   1      39.583  22.445  26.808  1.00  0.00     0.060 A 
ATOM     26  C   UNL A   1      40.642  22.505  27.730  1.00  0.00     0.016 A 
ATOM     27  C   UNL A   1      39.045  23.623  26.282  1.00  0.00     0.016 A 
ATOM     28  C   UNL A   1      41.275  23.735  27.977  1.00  0.00     0.010 A 
ATOM     29  C   UNL A   1      39.682  24.840  26.524  1.00  0.00     0.010 A 
ATOM     30  C   UNL A   1      40.826  24.903  27.340  1.00  0.00    -0.014 A 
BRANCH  30  31
ATOM     31  C   UNL A   1      41.317  26.232  27.782  1.00  0.00     0.031 A 
ATOM     32  C   UNL A   1      42.744  26.523  27.417  1.00  0.00     0.074 A 
ATOM     33  C   UNL A   1      40.601  27.110  28.515  1.00  0.00     0.049 A 
ATOM     34  N   UNL A   1      43.462  27.588  27.631  1.00  0.00    -0.248 NA
ATOM     35  C   UNL A   1      43.464  25.433  26.727  1.00  0.00     0.031 C 
ATOM     36  C   UNL A   1      39.227  26.929  28.987  1.00  0.00     0.029 A 
ATOM     37  N   UNL A   1      40.955  28.344  29.014  1.00  0.00    -0.354 N 
ATOM     38  C   UNL A   1      44.715  27.289  27.113  1.00  0.00     0.074 A 
ATOM     39  C   UNL A   1      44.681  25.929  26.635  1.00  0.00     0.031 C 
ATOM     40  C   UNL A   1      38.863  28.005  29.715  1.00  0.00     0.029 A 
ATOM     41  C   UNL A   1      39.971  28.958  29.762  1.00  0.00     0.049 A 
ATOM     42  H   UNL A   1      41.836  28.753  28.852  1.00  0.00     0.167 HD
ATOM     43  C   UNL A   1      45.799  28.085  27.004  1.00  0.00     0.034 A 
ATOM     44  C   UNL A   1      39.976  30.156  30.389  1.00  0.00     0.034 A 
ATOM     45  C   UNL A   1      45.842  29.425  27.498  1.00  0.00     0.049 A 
ATOM     46  C   UNL A   1      41.207  31.034  30.262  1.00  0.00     0.074 A 
ATOM     47  C   UNL A   1      46.875  30.336  27.428  1.00  0.00     0.029 A 
ATOM     48  N   UNL A   1      44.800  30.034  28.180  1.00  0.00    -0.354 N 
ATOM     49  N   UNL A   1      42.329  30.804  29.620  1.00  0.00    -0.248 NA
ATOM     50  C   UNL A   1      41.154  32.358  30.904  1.00  0.00     0.031 C 
ATOM     51  C   UNL A   1      46.467  31.494  28.100  1.00  0.00     0.029 A 
ATOM     52  C   UNL A   1      45.164  31.315  28.541  1.00  0.00     0.049 A 
ATOM     53  H   UNL A   1      43.931  29.616  28.376  1.00  0.00     0.167 HD
ATOM     54  C   UNL A   1      43.081  31.972  29.724  1.00  0.00     0.074 A 
ATOM     55  C   UNL A   1      42.286  32.910  30.488  1.00  0.00     0.031 C 
ATOM     56  C   UNL A   1      44.317  32.248  29.237  1.00  0.00     0.034 A 
BRANCH  43  57
ATOM     57  C   UNL A   1      46.995  27.491  26.319  1.00  0.00     0.023 A 
ATOM     58  C   UNL A   1      47.100  27.561  24.913  1.00  0.00     0.012 A 
ATOM     59  C   UNL A   1      47.972  26.801  27.055  1.00  0.00     0.148 A 
ATOM     60  C   UNL A   1      48.127  26.900  24.245  1.00  0.00     0.002 A 
ATOM     61  C   UNL A   1      49.025  26.191  26.386  1.00  0.00     0.091 A 
ATOM     62  F   UNL A   1      47.831  26.717  28.385  1.00  0.00    -0.205 F 
ATOM     63  C   UNL A   1      49.092  26.221  24.983  1.00  0.00     0.022 A 
BRANCH  61  64
ATOM     64  S   UNL A   1      50.355  25.349  27.245  1.00  0.00     0.127 S 
ATOM     65  O   UNL A   1      50.792  26.374  28.191  1.00  0.00    -0.237 OA
ATOM     66  O   UNL A   1      49.654  24.217  27.850  1.00  0.00    -0.237 OA
ATOM     67  O   UNL A   1      51.330  24.989  26.225  1.00  0.00    -0.744 OA
ENDBRANCH  61  64
ENDBRANCH  43  57
BRANCH  44  68
ATOM     68  C   UNL A   1      38.772  30.668  31.122  1.00  0.00     0.023 A 
ATOM     69  C   UNL A   1      38.658  30.436  32.511  1.00  0.00     0.012 A 
ATOM     70  C   UNL A   1      37.713  31.319  30.457  1.00  0.00     0.148 A 
ATOM     71  C   UNL A   1      37.501  30.793  33.209  1.00  0.00     0.002 A 
ATOM     72  C   UNL A   1      36.581  31.714  31.170  1.00  0.00     0.091 A 
ATOM     73  F   UNL A   1      37.822  31.521  29.138  1.00  0.00    -0.205 F 
ATOM     74  C   UNL A   1      36.465  31.434  32.541  1.00  0.00     0.022 A 
BRANCH  72  75
ATOM     75  S   UNL A   1      35.223  32.624  30.420  1.00  0.00     0.127 S 
ATOM     76  O   UNL A   1      34.275  32.717  31.528  1.00  0.00    -0.237 OA
ATOM     77  O   UNL A   1      35.870  33.886  30.058  1.00  0.00    -0.237 OA
ATOM     78  O   UNL A   1      34.786  31.821  29.286  1.00  0.00    -0.744 OA
ENDBRANCH  72  75
ENDBRANCH  44  68
BRANCH  56  79
ATOM     79  C   UNL A   1      44.864  33.638  29.429  1.00  0.00     0.023 A 
ATOM     80  C   UNL A   1      45.664  33.944  30.546  1.00  0.00     0.012 A 
ATOM     81  C   UNL A   1      44.676  34.608  28.423  1.00  0.00     0.148 A 
ATOM     82  C   UNL A   1      46.241  35.207  30.676  1.00  0.00     0.002 A 
ATOM     83  C   UNL A   1      45.303  35.842  28.531  1.00  0.00     0.091 A 
ATOM     84  F   UNL A   1      43.897  34.303  27.375  1.00  0.00    -0.205 F 
ATOM     85  C   UNL A   1      46.074  36.149  29.663  1.00  0.00     0.022 A 
BRANCH  83  86
ATOM     86  S   UNL A   1      45.242  37.062  27.212  1.00  0.00     0.127 S 
ATOM     87  O   UNL A   1      43.819  37.065  26.876  1.00  0.00    -0.237 OA
ATOM     88  O   UNL A   1      45.713  38.272  27.885  1.00  0.00    -0.237 OA
ATOM     89  O   UNL A   1      46.132  36.568  26.170  1.00  0.00    -0.744 OA
ENDBRANCH  83  86
ENDBRANCH  56  79
ENDBRANCH  30  31
ENDBRANCH  23  25
ENDBRANCH  22  23
ENDBRANCH   1  22
TORSDOF 15
ENDMDL
MODEL 3
REMARK VINA RESULT:     -13.7      5.388     10.488
REMARK SMILES O=C(OCCOC(=O)c1ccc(-c2c3nc(c(-c4cccc(S(=O)(=O)[O-])c4F)c4ccc([nH]4)c(-c4cccc(S(=O)(=O)[O-])c4F)c4nc(c(-c5cccc(S(=O)(=O)[O-])c5F)c5ccc2[nH]5)C=C4)C=C3)cc1)C1=Cc2cc(Cl)cc(Cl)c2O[C@@H]1C(F)(F)F
REMARK SMILES IDX 5 1 4 2 3 3 2 4 1 5 72 6 73 7 83 8 74 9 82 10 75 11 81 12
REMARK SMILES IDX 76 13 79 14 77 15 78 16 80 17 84 18 85 19 86 20 87 21 6 22
REMARK SMILES IDX 7 23 8 24 9 25 10 26 71 27 11 28 70 29 12 30 13 31 14 32
REMARK SMILES IDX 64 33 15 34 69 35 63 36 65 37 16 38 68 39 62 40 61 41 17 43
REMARK SMILES IDX 49 44 29 45 48 46 30 47 33 48 47 49 66 50 31 51 32 52 46 54
REMARK SMILES IDX 67 55 34 56 18 57 19 58 27 59 20 60 22 61 28 62 21 63 23 64
REMARK SMILES IDX 24 65 25 66 26 67 50 68 51 69 59 70 52 71 54 72 60 73 53 74
REMARK SMILES IDX 55 75 56 76 57 77 58 78 35 79 36 80 44 81 37 82 39 83 45 84
REMARK SMILES IDX 38 85 40 86 41 87 42 88 43 89
REMARK H PARENT 65 42 33 53
REMARK Flexibility Score: inf
ROOT
ATOM      1  C   UNL A   1      31.914  31.525  26.996  1.00  0.00     0.275 C 
ENDROOT
BRANCH   1   2
ATOM      2  C   UNL A   1      32.106  29.536  26.127  1.00  0.00     0.275 C 
BRANCH   2   3
ATOM      3  O   UNL A   1      32.380  28.222  26.901  1.00  0.00    -0.459 OA
BRANCH   3   4
ATOM      4  C   UNL A   1      31.783  27.151  26.365  1.00  0.00     0.338 C 
ATOM      5  O   UNL A   1      31.015  26.366  26.854  1.00  0.00    -0.246 OA
BRANCH   4   6
ATOM      6  C   UNL A   1      32.620  27.108  25.192  1.00  0.00     0.087 C 
ATOM      7  C   UNL A   1      33.894  26.411  25.468  1.00  0.00     0.027 C 
ATOM      8  C   UNL A   1      31.249  26.484  23.981  1.00  0.00     0.316 C 
ATOM      9  C   UNL A   1      34.276  24.755  24.836  1.00  0.00     0.020 A 
ATOM     10  O   UNL A   1      31.621  24.709  23.331  1.00  0.00    -0.474 OA
ATOM     11  C   UNL A   1      35.357  24.103  25.360  1.00  0.00     0.032 A 
ATOM     12  C   UNL A   1      33.153  23.860  23.847  1.00  0.00     0.146 A 
ATOM     13  C   UNL A   1      35.433  22.737  25.041  1.00  0.00     0.043 A 
ATOM     14  C   UNL A   1      33.327  22.529  23.587  1.00  0.00     0.085 A 
ATOM     15  Cl  UNL A   1      36.738  21.850  25.766  1.00  0.00    -0.084 Cl
ATOM     16  C   UNL A   1      34.486  21.996  24.210  1.00  0.00     0.045 A 
ATOM     17  Cl  UNL A   1      32.265  21.545  22.702  1.00  0.00    -0.080 Cl
BRANCH   8  18
ATOM     18  C   UNL A   1      30.938  27.843  23.262  1.00  0.00     0.430 C 
ATOM     19  F   UNL A   1      32.055  28.480  22.891  1.00  0.00    -0.167 F 
ATOM     20  F   UNL A   1      30.305  27.555  22.085  1.00  0.00    -0.167 F 
ATOM     21  F   UNL A   1      30.078  28.672  23.873  1.00  0.00    -0.167 F 
ENDBRANCH   8  18
ENDBRANCH   4   6
ENDBRANCH   3   4
ENDBRANCH   2   3
ENDBRANCH   1   2
BRANCH   1  22
ATOM     22  O   UNL A   1      33.194  32.548  27.414  1.00  0.00    -0.458 OA
BRANCH  22  23
ATOM     23  C   UNL A   1      33.528  33.648  28.155  1.00  0.00     0.338 C 
ATOM     24  O   UNL A   1      32.891  34.654  28.396  1.00  0.00    -0.246 OA
BRANCH  23  25
ATOM     25  C   UNL A   1      34.729  33.213  28.927  1.00  0.00     0.060 A 
ATOM     26  C   UNL A   1      34.587  32.202  29.894  1.00  0.00     0.016 A 
ATOM     27  C   UNL A   1      35.995  33.529  28.427  1.00  0.00     0.016 A 
ATOM     28  C   UNL A   1      35.689  31.391  30.215  1.00  0.00     0.010 A 
ATOM     29  C   UNL A   1      37.085  32.716  28.743  1.00  0.00     0.010 A 
ATOM     30  C   UNL A   1      36.934  31.616  29.607  1.00  0.00    -0.014 A 
BRANCH  30  31
ATOM     31  C   UNL A   1      38.150  30.939  30.121  1.00  0.00     0.031 A 
ATOM     32  C   UNL A   1      38.577  31.379  31.491  1.00  0.00     0.074 A 
ATOM     33  C   UNL A   1      38.886  30.047  29.423  1.00  0.00     0.049 A 
ATOM     34  N   UNL A   1      39.571  30.975  32.228  1.00  0.00    -0.248 NA
ATOM     35  C   UNL A   1      37.767  32.453  32.100  1.00  0.00     0.031 C 
ATOM     36  C   UNL A   1      38.617  29.577  28.063  1.00  0.00     0.029 A 
ATOM     37  N   UNL A   1      40.043  29.388  29.772  1.00  0.00    -0.354 N 
ATOM     38  C   UNL A   1      39.509  31.751  33.377  1.00  0.00     0.074 A 
ATOM     39  C   UNL A   1      38.427  32.689  33.216  1.00  0.00     0.031 C 
ATOM     40  C   UNL A   1      39.588  28.716  27.693  1.00  0.00     0.029 A 
ATOM     41  C   UNL A   1      40.549  28.567  28.785  1.00  0.00     0.049 A 
ATOM     42  H   UNL A   1      40.474  29.494  30.651  1.00  0.00     0.167 HD
ATOM     43  C   UNL A   1      40.260  31.672  34.495  1.00  0.00     0.034 A 
ATOM     44  C   UNL A   1      41.649  27.781  28.787  1.00  0.00     0.034 A 
ATOM     45  C   UNL A   1      41.347  30.758  34.648  1.00  0.00     0.049 A 
ATOM     46  C   UNL A   1      42.486  27.711  30.051  1.00  0.00     0.074 A 
ATOM     47  C   UNL A   1      42.169  30.570  35.740  1.00  0.00     0.029 A 
ATOM     48  N   UNL A   1      41.778  29.892  33.655  1.00  0.00    -0.354 N 
ATOM     49  N   UNL A   1      42.314  28.328  31.197  1.00  0.00    -0.248 NA
ATOM     50  C   UNL A   1      43.641  26.798  30.039  1.00  0.00     0.031 C 
ATOM     51  C   UNL A   1      43.122  29.606  35.395  1.00  0.00     0.029 A 
ATOM     52  C   UNL A   1      42.859  29.163  34.107  1.00  0.00     0.049 A 
ATOM     53  H   UNL A   1      41.374  29.809  32.762  1.00  0.00     0.167 HD
ATOM     54  C   UNL A   1      43.290  27.830  32.055  1.00  0.00     0.074 A 
ATOM     55  C   UNL A   1      44.050  26.857  31.299  1.00  0.00     0.031 C 
ATOM     56  C   UNL A   1      43.544  28.148  33.351  1.00  0.00     0.034 A 
BRANCH  43  57
ATOM     57  C   UNL A   1      39.895  32.608  35.610  1.00  0.00     0.023 A 
ATOM     58  C   UNL A   1      40.535  33.863  35.706  1.00  0.00     0.012 A 
ATOM     59  C   UNL A   1      38.977  32.219  36.600  1.00  0.00     0.148 A 
ATOM     60  C   UNL A   1      40.314  34.689  36.805  1.00  0.00     0.002 A 
ATOM     61  C   UNL A   1      38.719  33.072  37.664  1.00  0.00     0.091 A 
ATOM     62  F   UNL A   1      38.410  31.008  36.505  1.00  0.00    -0.205 F 
ATOM     63  C   UNL A   1      39.401  34.296  37.779  1.00  0.00     0.022 A 
BRANCH  61  64
ATOM     64  S   UNL A   1      37.514  32.692  38.936  1.00  0.00     0.127 S 
ATOM     65  O   UNL A   1      37.722  33.790  39.879  1.00  0.00    -0.237 OA
ATOM     66  O   UNL A   1      36.258  32.757  38.189  1.00  0.00    -0.237 OA
ATOM     67  O   UNL A   1      37.859  31.369  39.437  1.00  0.00    -0.744 OA
ENDBRANCH  61  64
ENDBRANCH  43  57
BRANCH  44  68
ATOM     68  C   UNL A   1      42.005  26.919  27.613  1.00  0.00     0.023 A 
ATOM     69  C   UNL A   1      42.561  27.516  26.459  1.00  0.00     0.012 A 
ATOM     70  C   UNL A   1      41.743  25.534  27.596  1.00  0.00     0.148 A 
ATOM     71  C   UNL A   1      42.798  26.769  25.303  1.00  0.00     0.002 A 
ATOM     72  C   UNL A   1      42.025  24.785  26.454  1.00  0.00     0.091 A 
ATOM     73  F   UNL A   1      41.201  24.978  28.687  1.00  0.00    -0.205 F 
ATOM     74  C   UNL A   1      42.534  25.404  25.301  1.00  0.00     0.022 A 
BRANCH  72  75
ATOM     75  S   UNL A   1      41.801  23.002  26.374  1.00  0.00     0.127 S 
ATOM     76  O   UNL A   1      40.346  22.880  26.425  1.00  0.00    -0.237 OA
ATOM     77  O   UNL A   1      42.399  22.682  25.077  1.00  0.00    -0.237 OA
ATOM     78  O   UNL A   1      42.517  22.462  27.521  1.00  0.00    -0.744 OA
ENDBRANCH  72  75
ENDBRANCH  44  68
BRANCH  56  79
ATOM     79  C   UNL A   1      44.623  27.385  34.073  1.00  0.00     0.023 A 
ATOM     80  C   UNL A   1      45.944  27.871  34.102  1.00  0.00     0.012 A 
ATOM     81  C   UNL A   1      44.287  26.242  34.826  1.00  0.00     0.148 A 
ATOM     82  C   UNL A   1      46.922  27.209  34.844  1.00  0.00     0.002 A 
ATOM     83  C   UNL A   1      45.252  25.624  35.610  1.00  0.00     0.091 A 
ATOM     84  F   UNL A   1      43.026  25.786  34.772  1.00  0.00    -0.205 F 
ATOM     85  C   UNL A   1      46.574  26.097  35.609  1.00  0.00     0.022 A 
BRANCH  83  86
ATOM     86  S   UNL A   1      44.856  24.268  36.720  1.00  0.00     0.127 S 
ATOM     87  O   UNL A   1      44.280  23.289  35.799  1.00  0.00    -0.237 OA
ATOM     88  O   UNL A   1      46.170  23.907  37.252  1.00  0.00    -0.237 OA
ATOM     89  O   UNL A   1      43.937  24.816  37.709  1.00  0.00    -0.744 OA
ENDBRANCH  83  86
ENDBRANCH  56  79
ENDBRANCH  30  31
ENDBRANCH  23  25
ENDBRANCH  22  23
ENDBRANCH   1  22
TORSDOF 15
ENDMDL
