MODEL 1
REMARK VINA RESULT:     -12.5      0.000      0.000
REMARK SMILES C[C@H]1CC[C@H]([NH2+]Cc2c(C(=O)OCCOC(=O)c3ccc(-c4c5nc(c(-c6cccc(S(=O)(=O)[O-])c6F)c6ccc([nH]6)c(-c6cccc(S(=O)(=O)[O-])c6F)c6nc(c(-c7cccc(S(=O)(=O)[O-])c7F)c7ccc4[nH]7)C=C6)C=C5)cc3)n(Cc3ccccc3F)c3ccccc23)CC1
REMARK SMILES IDX 13 1 12 2 10 3 11 4 9 5 8 6 95 7 81 8 90 9 94 10 91 11 93 12
REMARK SMILES IDX 92 13 7 14 6 15 5 18 1 19 2 20 3 21 97 22 4 23 96 24 82 25
REMARK SMILES IDX 83 26 84 27 88 28 85 29 87 30 89 31 86 32 14 33 15 34 16 35
REMARK SMILES IDX 17 36 18 37 19 38 80 39 20 40 79 41 21 42 22 43 23 44 73 45
REMARK SMILES IDX 24 46 78 47 72 48 74 49 25 50 77 51 71 52 70 53 26 55 58 56
REMARK SMILES IDX 38 57 57 58 39 59 42 60 56 61 75 62 40 63 41 64 55 66 76 67
REMARK SMILES IDX 43 68 27 69 28 70 36 71 29 72 31 73 37 74 30 75 32 76 33 77
REMARK SMILES IDX 34 78 35 79 59 80 60 81 68 82 61 83 63 84 69 85 62 86 64 87
REMARK SMILES IDX 65 88 66 89 67 90 44 91 45 92 53 93 46 94 48 95 54 96 47 97
REMARK SMILES IDX 49 98 50 99 51 100 52 101
REMARK H PARENT 6 16 6 17 74 54 42 65
REMARK Flexibility Score: inf
ROOT
ATOM      1  C   UNL A   1      33.673  30.229  26.998  1.00  0.00     0.275 C 
ENDROOT
BRANCH   1   2
ATOM      2  O   UNL A   1      33.823  28.970  26.279  1.00  0.00    -0.457 OA
BRANCH   2   3
ATOM      3  C   UNL A   1      32.707  28.512  25.646  1.00  0.00     0.355 C 
ATOM      4  O   UNL A   1      31.592  28.883  25.949  1.00  0.00    -0.244 OA
BRANCH   3   5
ATOM      5  C   UNL A   1      32.959  27.482  24.656  1.00  0.00     0.137 A 
ATOM      6  C   UNL A   1      33.355  26.144  24.836  1.00  0.00     0.047 A 
ATOM      7  C   UNL A   1      33.331  25.531  23.526  1.00  0.00     0.009 A 
ATOM      8  N   UNL A   1      32.578  27.625  23.302  1.00  0.00    -0.330 N 
ATOM      9  C   UNL A   1      32.732  26.419  22.639  1.00  0.00     0.050 A 
ATOM     10  C   UNL A   1      33.646  24.231  23.064  1.00  0.00     0.011 A 
ATOM     11  C   UNL A   1      32.316  25.999  21.362  1.00  0.00     0.027 A 
ATOM     12  C   UNL A   1      33.309  23.844  21.764  1.00  0.00     0.001 A 
ATOM     13  C   UNL A   1      32.624  24.710  20.933  1.00  0.00     0.002 A 
BRANCH   6  14
ATOM     14  C   UNL A   1      33.661  25.283  26.058  1.00  0.00     0.300 C 
BRANCH  14  15
ATOM     15  N   UNL A   1      32.551  24.591  26.711  1.00  0.00    -0.340 N 
ATOM     16  H   UNL A   1      32.514  24.913  27.678  1.00  0.00     0.346 HD
ATOM     17  H   UNL A   1      31.734  24.819  26.145  1.00  0.00     0.346 HD
BRANCH  15  18
ATOM     18  C   UNL A   1      32.589  23.114  26.738  1.00  0.00     0.182 C 
ATOM     19  C   UNL A   1      33.806  19.474  24.460  1.00  0.00     0.007 C 
ATOM     20  C   UNL A   1      33.498  20.871  24.989  1.00  0.00    -0.014 C 
ATOM     21  C   UNL A   1      34.160  21.107  26.344  1.00  0.00     0.009 C 
ATOM     22  C   UNL A   1      32.000  21.124  25.157  1.00  0.00     0.009 C 
ATOM     23  C   UNL A   1      34.016  22.571  26.733  1.00  0.00     0.065 C 
ATOM     24  C   UNL A   1      31.721  22.575  25.576  1.00  0.00     0.065 C 
ENDBRANCH  15  18
ENDBRANCH  14  15
ENDBRANCH   6  14
BRANCH   8  25
ATOM     25  C   UNL A   1      31.752  28.710  22.742  1.00  0.00     0.161 C 
BRANCH  25  26
ATOM     26  C   UNL A   1      30.245  28.580  22.682  1.00  0.00     0.008 A 
ATOM     27  C   UNL A   1      29.557  27.581  23.390  1.00  0.00     0.008 A 
ATOM     28  C   UNL A   1      29.475  29.615  22.137  1.00  0.00     0.128 A 
ATOM     29  C   UNL A   1      28.169  27.633  23.571  1.00  0.00     0.001 A 
ATOM     30  C   UNL A   1      28.092  29.685  22.326  1.00  0.00     0.039 A 
ATOM     31  F   UNL A   1      30.072  30.624  21.486  1.00  0.00    -0.207 F 
ATOM     32  C   UNL A   1      27.436  28.696  23.054  1.00  0.00     0.003 A 
ENDBRANCH  25  26
ENDBRANCH   8  25
ENDBRANCH   3   5
ENDBRANCH   2   3
ENDBRANCH   1   2
BRANCH   1  33
ATOM     33  C   UNL A   1      34.852  30.743  27.847  1.00  0.00     0.275 C 
BRANCH  33  34
ATOM     34  O   UNL A   1      35.897  29.745  27.825  1.00  0.00    -0.458 OA
BRANCH  34  35
ATOM     35  C   UNL A   1      36.910  29.944  28.709  1.00  0.00     0.338 C 
ATOM     36  O   UNL A   1      36.817  30.530  29.775  1.00  0.00    -0.246 OA
BRANCH  35  37
ATOM     37  C   UNL A   1      38.044  29.063  28.312  1.00  0.00     0.060 A 
ATOM     38  C   UNL A   1      38.607  28.134  29.196  1.00  0.00     0.016 A 
ATOM     39  C   UNL A   1      38.729  29.412  27.146  1.00  0.00     0.016 A 
ATOM     40  C   UNL A   1      39.926  27.704  29.002  1.00  0.00     0.010 A 
ATOM     41  C   UNL A   1      40.041  28.972  26.960  1.00  0.00     0.010 A 
ATOM     42  C   UNL A   1      40.692  28.204  27.939  1.00  0.00    -0.014 A 
BRANCH  42  43
ATOM     43  C   UNL A   1      42.119  27.860  27.804  1.00  0.00     0.031 A 
ATOM     44  C   UNL A   1      42.465  26.591  27.140  1.00  0.00     0.074 A 
ATOM     45  C   UNL A   1      43.219  28.596  28.073  1.00  0.00     0.049 A 
ATOM     46  N   UNL A   1      42.538  25.433  27.701  1.00  0.00    -0.248 NA
ATOM     47  C   UNL A   1      42.748  26.603  25.699  1.00  0.00     0.031 C 
ATOM     48  C   UNL A   1      43.337  30.033  28.232  1.00  0.00     0.029 A 
ATOM     49  N   UNL A   1      44.516  28.163  28.190  1.00  0.00    -0.354 N 
ATOM     50  C   UNL A   1      43.048  24.590  26.729  1.00  0.00     0.074 A 
ATOM     51  C   UNL A   1      42.999  25.312  25.478  1.00  0.00     0.031 C 
ATOM     52  C   UNL A   1      44.643  30.380  28.347  1.00  0.00     0.029 A 
ATOM     53  C   UNL A   1      45.451  29.170  28.392  1.00  0.00     0.049 A 
ATOM     54  H   UNL A   1      44.765  27.212  28.136  1.00  0.00     0.167 HD
ATOM     55  C   UNL A   1      43.676  23.426  27.036  1.00  0.00     0.034 A 
ATOM     56  C   UNL A   1      46.781  29.014  28.608  1.00  0.00     0.034 A 
ATOM     57  C   UNL A   1      43.749  23.178  28.449  1.00  0.00     0.049 A 
ATOM     58  C   UNL A   1      46.979  27.632  29.123  1.00  0.00     0.074 A 
ATOM     59  C   UNL A   1      42.849  22.955  29.469  1.00  0.00     0.029 A 
ATOM     60  N   UNL A   1      44.938  23.530  29.044  1.00  0.00    -0.354 N 
ATOM     61  N   UNL A   1      46.578  27.226  30.297  1.00  0.00    -0.248 NA
ATOM     62  C   UNL A   1      47.484  26.583  28.247  1.00  0.00     0.031 C 
ATOM     63  C   UNL A   1      43.444  23.517  30.640  1.00  0.00     0.029 A 
ATOM     64  C   UNL A   1      44.667  24.083  30.273  1.00  0.00     0.049 A 
ATOM     65  H   UNL A   1      45.833  23.408  28.653  1.00  0.00     0.167 HD
ATOM     66  C   UNL A   1      46.399  25.861  30.156  1.00  0.00     0.074 A 
ATOM     67  C   UNL A   1      47.153  25.507  28.964  1.00  0.00     0.031 C 
ATOM     68  C   UNL A   1      45.410  25.203  30.829  1.00  0.00     0.034 A 
BRANCH  55  69
ATOM     69  C   UNL A   1      44.482  22.641  26.059  1.00  0.00     0.023 A 
ATOM     70  C   UNL A   1      45.598  23.259  25.469  1.00  0.00     0.012 A 
ATOM     71  C   UNL A   1      44.125  21.353  25.617  1.00  0.00     0.148 A 
ATOM     72  C   UNL A   1      46.367  22.594  24.512  1.00  0.00     0.002 A 
ATOM     73  C   UNL A   1      44.942  20.661  24.733  1.00  0.00     0.091 A 
ATOM     74  F   UNL A   1      42.951  20.826  25.997  1.00  0.00    -0.205 F 
ATOM     75  C   UNL A   1      46.059  21.281  24.167  1.00  0.00     0.022 A 
BRANCH  73  76
ATOM     76  S   UNL A   1      44.635  18.924  24.409  1.00  0.00     0.127 S 
ATOM     77  O   UNL A   1      43.192  18.830  24.601  1.00  0.00    -0.237 OA
ATOM     78  O   UNL A   1      45.087  18.772  23.026  1.00  0.00    -0.237 OA
ATOM     79  O   UNL A   1      45.474  18.236  25.385  1.00  0.00    -0.744 OA
ENDBRANCH  73  76
ENDBRANCH  55  69
BRANCH  56  80
ATOM     80  C   UNL A   1      47.933  29.945  28.500  1.00  0.00     0.023 A 
ATOM     81  C   UNL A   1      48.070  30.988  29.444  1.00  0.00     0.012 A 
ATOM     82  C   UNL A   1      49.019  29.710  27.633  1.00  0.00     0.148 A 
ATOM     83  C   UNL A   1      49.247  31.738  29.546  1.00  0.00     0.002 A 
ATOM     84  C   UNL A   1      50.187  30.474  27.726  1.00  0.00     0.091 A 
ATOM     85  F   UNL A   1      48.950  28.700  26.756  1.00  0.00    -0.205 F 
ATOM     86  C   UNL A   1      50.312  31.477  28.691  1.00  0.00     0.022 A 
BRANCH  84  87
ATOM     87  S   UNL A   1      51.561  30.144  26.615  1.00  0.00     0.127 S 
ATOM     88  O   UNL A   1      50.980  30.342  25.286  1.00  0.00    -0.237 OA
ATOM     89  O   UNL A   1      52.546  31.150  26.996  1.00  0.00    -0.237 OA
ATOM     90  O   UNL A   1      51.901  28.756  26.909  1.00  0.00    -0.744 OA
ENDBRANCH  84  87
ENDBRANCH  56  80
BRANCH  68  91
ATOM     91  C   UNL A   1      44.816  25.878  32.045  1.00  0.00     0.023 A 
ATOM     92  C   UNL A   1      45.392  25.729  33.324  1.00  0.00     0.012 A 
ATOM     93  C   UNL A   1      43.757  26.791  31.882  1.00  0.00     0.148 A 
ATOM     94  C   UNL A   1      44.911  26.449  34.419  1.00  0.00     0.002 A 
ATOM     95  C   UNL A   1      43.310  27.541  32.968  1.00  0.00     0.091 A 
ATOM     96  F   UNL A   1      43.221  26.932  30.660  1.00  0.00    -0.205 F 
ATOM     97  C   UNL A   1      43.879  27.364  34.238  1.00  0.00     0.022 A 
BRANCH  95  98
ATOM     98  S   UNL A   1      42.066  28.828  32.802  1.00  0.00     0.127 S 
ATOM     99  O   UNL A   1      42.014  29.381  34.153  1.00  0.00    -0.237 OA
ATOM    100  O   UNL A   1      42.667  29.713  31.802  1.00  0.00    -0.237 OA
ATOM    101  O   UNL A   1      40.850  28.160  32.355  1.00  0.00    -0.744 OA
ENDBRANCH  95  98
ENDBRANCH  68  91
ENDBRANCH  42  43
ENDBRANCH  35  37
ENDBRANCH  34  35
ENDBRANCH  33  34
ENDBRANCH   1  33
TORSDOF 19
ENDMDL
MODEL 2
REMARK VINA RESULT:     -12.4      1.466      1.736
REMARK SMILES C[C@H]1CC[C@H]([NH2+]Cc2c(C(=O)OCCOC(=O)c3ccc(-c4c5nc(c(-c6cccc(S(=O)(=O)[O-])c6F)c6ccc([nH]6)c(-c6cccc(S(=O)(=O)[O-])c6F)c6nc(c(-c7cccc(S(=O)(=O)[O-])c7F)c7ccc4[nH]7)C=C6)C=C5)cc3)n(Cc3ccccc3F)c3ccccc23)CC1
REMARK SMILES IDX 13 1 12 2 10 3 11 4 9 5 8 6 95 7 81 8 90 9 94 10 91 11 93 12
REMARK SMILES IDX 92 13 7 14 6 15 5 18 1 19 2 20 3 21 97 22 4 23 96 24 82 25
REMARK SMILES IDX 83 26 84 27 88 28 85 29 87 30 89 31 86 32 14 33 15 34 16 35
REMARK SMILES IDX 17 36 18 37 19 38 80 39 20 40 79 41 21 42 22 43 23 44 73 45
REMARK SMILES IDX 24 46 78 47 72 48 74 49 25 50 77 51 71 52 70 53 26 55 58 56
REMARK SMILES IDX 38 57 57 58 39 59 42 60 56 61 75 62 40 63 41 64 55 66 76 67
REMARK SMILES IDX 43 68 27 69 28 70 36 71 29 72 31 73 37 74 30 75 32 76 33 77
REMARK SMILES IDX 34 78 35 79 59 80 60 81 68 82 61 83 63 84 69 85 62 86 64 87
REMARK SMILES IDX 65 88 66 89 67 90 44 91 45 92 53 93 46 94 48 95 54 96 47 97
REMARK SMILES IDX 49 98 50 99 51 100 52 101
REMARK H PARENT 6 16 6 17 74 54 42 65
REMARK Flexibility Score: inf
ROOT
ATOM      1  C   UNL A   1      34.283  29.278  26.669  1.00  0.00     0.275 C 
ENDROOT
BRANCH   1   2
ATOM      2  O   UNL A   1      32.950  29.608  26.180  1.00  0.00    -0.457 OA
BRANCH   2   3
ATOM      3  C   UNL A   1      32.083  28.562  26.071  1.00  0.00     0.355 C 
ATOM      4  O   UNL A   1      31.102  28.457  26.776  1.00  0.00    -0.244 OA
BRANCH   3   5
ATOM      5  C   UNL A   1      32.485  27.548  25.114  1.00  0.00     0.137 A 
ATOM      6  C   UNL A   1      32.787  26.189  25.322  1.00  0.00     0.047 A 
ATOM      7  C   UNL A   1      32.995  25.612  24.013  1.00  0.00     0.009 A 
ATOM      8  N   UNL A   1      32.379  27.742  23.717  1.00  0.00    -0.330 N 
ATOM      9  C   UNL A   1      32.613  26.547  23.057  1.00  0.00     0.050 A 
ATOM     10  C   UNL A   1      33.345  24.312  23.577  1.00  0.00     0.011 A 
ATOM     11  C   UNL A   1      32.438  26.179  21.710  1.00  0.00     0.027 A 
ATOM     12  C   UNL A   1      33.254  23.974  22.224  1.00  0.00     0.001 A 
ATOM     13  C   UNL A   1      32.775  24.889  21.305  1.00  0.00     0.002 A 
BRANCH   6  14
ATOM     14  C   UNL A   1      32.818  25.286  26.551  1.00  0.00     0.300 C 
BRANCH  14  15
ATOM     15  N   UNL A   1      31.703  24.363  26.757  1.00  0.00    -0.340 N 
ATOM     16  H   UNL A   1      31.257  24.614  27.639  1.00  0.00     0.346 HD
ATOM     17  H   UNL A   1      31.119  24.471  25.928  1.00  0.00     0.346 HD
BRANCH  15  18
ATOM     18  C   UNL A   1      32.013  22.920  26.814  1.00  0.00     0.182 C 
ATOM     19  C   UNL A   1      34.090  19.570  24.719  1.00  0.00     0.007 C 
ATOM     20  C   UNL A   1      33.480  20.885  25.194  1.00  0.00    -0.014 C 
ATOM     21  C   UNL A   1      33.958  21.242  26.598  1.00  0.00     0.009 C 
ATOM     22  C   UNL A   1      31.952  20.854  25.221  1.00  0.00     0.009 C 
ATOM     23  C   UNL A   1      33.510  22.653  26.947  1.00  0.00     0.065 C 
ATOM     24  C   UNL A   1      31.370  22.227  25.588  1.00  0.00     0.065 C 
ENDBRANCH  15  18
ENDBRANCH  14  15
ENDBRANCH   6  14
BRANCH   8  25
ATOM     25  C   UNL A   1      31.719  28.876  23.045  1.00  0.00     0.161 C 
BRANCH  25  26
ATOM     26  C   UNL A   1      30.266  29.199  23.326  1.00  0.00     0.008 A 
ATOM     27  C   UNL A   1      29.830  30.513  23.565  1.00  0.00     0.008 A 
ATOM     28  C   UNL A   1      29.277  28.236  23.088  1.00  0.00     0.128 A 
ATOM     29  C   UNL A   1      28.472  30.852  23.536  1.00  0.00     0.001 A 
ATOM     30  C   UNL A   1      27.920  28.568  23.039  1.00  0.00     0.039 A 
ATOM     31  F   UNL A   1      29.626  26.972  22.810  1.00  0.00    -0.207 F 
ATOM     32  C   UNL A   1      27.515  29.883  23.255  1.00  0.00     0.003 A 
ENDBRANCH  25  26
ENDBRANCH   8  25
ENDBRANCH   3   5
ENDBRANCH   2   3
ENDBRANCH   1   2
BRANCH   1  33
ATOM     33  C   UNL A   1      34.972  30.244  27.652  1.00  0.00     0.275 C 
BRANCH  33  34
ATOM     34  O   UNL A   1      35.847  29.474  28.508  1.00  0.00    -0.458 OA
BRANCH  34  35
ATOM     35  C   UNL A   1      37.012  30.086  28.850  1.00  0.00     0.338 C 
ATOM     36  O   UNL A   1      37.113  31.079  29.551  1.00  0.00    -0.246 OA
BRANCH  35  37
ATOM     37  C   UNL A   1      38.131  29.167  28.498  1.00  0.00     0.060 A 
ATOM     38  C   UNL A   1      38.712  28.311  29.441  1.00  0.00     0.016 A 
ATOM     39  C   UNL A   1      38.787  29.415  27.291  1.00  0.00     0.016 A 
ATOM     40  C   UNL A   1      40.023  27.857  29.250  1.00  0.00     0.010 A 
ATOM     41  C   UNL A   1      40.092  28.952  27.109  1.00  0.00     0.010 A 
ATOM     42  C   UNL A   1      40.764  28.263  28.131  1.00  0.00    -0.014 A 
BRANCH  42  43
ATOM     43  C   UNL A   1      42.185  27.899  27.989  1.00  0.00     0.031 A 
ATOM     44  C   UNL A   1      42.513  26.656  27.269  1.00  0.00     0.074 A 
ATOM     45  C   UNL A   1      43.297  28.601  28.299  1.00  0.00     0.049 A 
ATOM     46  N   UNL A   1      42.561  25.472  27.776  1.00  0.00    -0.248 NA
ATOM     47  C   UNL A   1      42.807  26.730  25.832  1.00  0.00     0.031 C 
ATOM     48  C   UNL A   1      43.440  30.027  28.526  1.00  0.00     0.029 A 
ATOM     49  N   UNL A   1      44.584  28.139  28.404  1.00  0.00    -0.354 N 
ATOM     50  C   UNL A   1      43.063  24.666  26.769  1.00  0.00     0.074 A 
ATOM     51  C   UNL A   1      43.035  25.446  25.553  1.00  0.00     0.031 C 
ATOM     52  C   UNL A   1      44.751  30.344  28.664  1.00  0.00     0.029 A 
ATOM     53  C   UNL A   1      45.536  29.119  28.658  1.00  0.00     0.049 A 
ATOM     54  H   UNL A   1      44.817  27.188  28.307  1.00  0.00     0.167 HD
ATOM     55  C   UNL A   1      43.667  23.478  27.025  1.00  0.00     0.034 A 
ATOM     56  C   UNL A   1      46.862  28.928  28.875  1.00  0.00     0.034 A 
ATOM     57  C   UNL A   1      43.726  23.163  28.425  1.00  0.00     0.049 A 
ATOM     58  C   UNL A   1      47.032  27.521  29.326  1.00  0.00     0.074 A 
ATOM     59  C   UNL A   1      42.814  22.910  29.428  1.00  0.00     0.029 A 
ATOM     60  N   UNL A   1      44.916  23.465  29.043  1.00  0.00    -0.354 N 
ATOM     61  N   UNL A   1      46.614  27.067  30.478  1.00  0.00    -0.248 NA
ATOM     62  C   UNL A   1      47.523  26.504  28.405  1.00  0.00     0.031 C 
ATOM     63  C   UNL A   1      43.411  23.405  30.628  1.00  0.00     0.029 A 
ATOM     64  C   UNL A   1      44.647  23.965  30.295  1.00  0.00     0.049 A 
ATOM     65  H   UNL A   1      45.812  23.344  28.654  1.00  0.00     0.167 HD
ATOM     66  C   UNL A   1      46.411  25.714  30.272  1.00  0.00     0.074 A 
ATOM     67  C   UNL A   1      47.167  25.402  29.070  1.00  0.00     0.031 C 
ATOM     68  C   UNL A   1      45.406  25.044  30.908  1.00  0.00     0.034 A 
BRANCH  55  69
ATOM     69  C   UNL A   1      44.466  22.724  26.018  1.00  0.00     0.023 A 
ATOM     70  C   UNL A   1      45.538  23.383  25.392  1.00  0.00     0.012 A 
ATOM     71  C   UNL A   1      44.139  21.425  25.584  1.00  0.00     0.148 A 
ATOM     72  C   UNL A   1      46.296  22.748  24.406  1.00  0.00     0.002 A 
ATOM     73  C   UNL A   1      44.948  20.765  24.669  1.00  0.00     0.091 A 
ATOM     74  F   UNL A   1      42.998  20.857  26.002  1.00  0.00    -0.205 F 
ATOM     75  C   UNL A   1      46.022  21.425  24.067  1.00  0.00     0.022 A 
BRANCH  73  76
ATOM     76  S   UNL A   1      44.691  19.019  24.349  1.00  0.00     0.127 S 
ATOM     77  O   UNL A   1      45.569  18.397  25.333  1.00  0.00    -0.237 OA
ATOM     78  O   UNL A   1      43.260  18.855  24.604  1.00  0.00    -0.237 OA
ATOM     79  O   UNL A   1      45.063  18.866  22.946  1.00  0.00    -0.744 OA
ENDBRANCH  73  76
ENDBRANCH  55  69
BRANCH  56  80
ATOM     80  C   UNL A   1      48.032  29.842  28.818  1.00  0.00     0.023 A 
ATOM     81  C   UNL A   1      48.254  30.746  29.881  1.00  0.00     0.012 A 
ATOM     82  C   UNL A   1      49.056  29.702  27.860  1.00  0.00     0.148 A 
ATOM     83  C   UNL A   1      49.457  31.452  30.006  1.00  0.00     0.002 A 
ATOM     84  C   UNL A   1      50.249  30.423  27.979  1.00  0.00     0.091 A 
ATOM     85  F   UNL A   1      48.905  28.820  26.864  1.00  0.00    -0.205 F 
ATOM     86  C   UNL A   1      50.460  31.286  29.058  1.00  0.00     0.022 A 
BRANCH  84  87
ATOM     87  S   UNL A   1      51.544  30.217  26.749  1.00  0.00     0.127 S 
ATOM     88  O   UNL A   1      50.878  30.559  25.492  1.00  0.00    -0.237 OA
ATOM     89  O   UNL A   1      52.559  31.175  27.171  1.00  0.00    -0.237 OA
ATOM     90  O   UNL A   1      51.892  28.804  26.867  1.00  0.00    -0.744 OA
ENDBRANCH  84  87
ENDBRANCH  56  80
BRANCH  68  91
ATOM     91  C   UNL A   1      44.816  25.672  32.150  1.00  0.00     0.023 A 
ATOM     92  C   UNL A   1      43.892  26.734  32.070  1.00  0.00     0.012 A 
ATOM     93  C   UNL A   1      45.076  25.096  33.408  1.00  0.00     0.148 A 
ATOM     94  C   UNL A   1      43.261  27.229  33.213  1.00  0.00     0.002 A 
ATOM     95  C   UNL A   1      44.412  25.563  34.540  1.00  0.00     0.091 A 
ATOM     96  F   UNL A   1      45.951  24.080  33.473  1.00  0.00    -0.205 F 
ATOM     97  C   UNL A   1      43.512  26.635  34.446  1.00  0.00     0.022 A 
BRANCH  95  98
ATOM     98  S   UNL A   1      44.583  24.779  36.148  1.00  0.00     0.127 S 
ATOM     99  O   UNL A   1      44.182  23.403  35.864  1.00  0.00    -0.237 OA
ATOM    100  O   UNL A   1      46.010  24.954  36.428  1.00  0.00    -0.237 OA
ATOM    101  O   UNL A   1      43.703  25.510  37.051  1.00  0.00    -0.744 OA
ENDBRANCH  95  98
ENDBRANCH  68  91
ENDBRANCH  42  43
ENDBRANCH  35  37
ENDBRANCH  34  35
ENDBRANCH  33  34
ENDBRANCH   1  33
TORSDOF 19
ENDMDL
MODEL 3
REMARK VINA RESULT:     -12.2      2.530      7.055
REMARK SMILES C[C@H]1CC[C@H]([NH2+]Cc2c(C(=O)OCCOC(=O)c3ccc(-c4c5nc(c(-c6cccc(S(=O)(=O)[O-])c6F)c6ccc([nH]6)c(-c6cccc(S(=O)(=O)[O-])c6F)c6nc(c(-c7cccc(S(=O)(=O)[O-])c7F)c7ccc4[nH]7)C=C6)C=C5)cc3)n(Cc3ccccc3F)c3ccccc23)CC1
REMARK SMILES IDX 13 1 12 2 10 3 11 4 9 5 8 6 95 7 81 8 90 9 94 10 91 11 93 12
REMARK SMILES IDX 92 13 7 14 6 15 5 18 1 19 2 20 3 21 97 22 4 23 96 24 82 25
REMARK SMILES IDX 83 26 84 27 88 28 85 29 87 30 89 31 86 32 14 33 15 34 16 35
REMARK SMILES IDX 17 36 18 37 19 38 80 39 20 40 79 41 21 42 22 43 23 44 73 45
REMARK SMILES IDX 24 46 78 47 72 48 74 49 25 50 77 51 71 52 70 53 26 55 58 56
REMARK SMILES IDX 38 57 57 58 39 59 42 60 56 61 75 62 40 63 41 64 55 66 76 67
REMARK SMILES IDX 43 68 27 69 28 70 36 71 29 72 31 73 37 74 30 75 32 76 33 77
REMARK SMILES IDX 34 78 35 79 59 80 60 81 68 82 61 83 63 84 69 85 62 86 64 87
REMARK SMILES IDX 65 88 66 89 67 90 44 91 45 92 53 93 46 94 48 95 54 96 47 97
REMARK SMILES IDX 49 98 50 99 51 100 52 101
REMARK H PARENT 6 16 6 17 74 54 42 65
REMARK Flexibility Score: inf
ROOT
ATOM      1  C   UNL A   1      32.587  30.469  27.181  1.00  0.00     0.275 C 
ENDROOT
BRANCH   1   2
ATOM      2  O   UNL A   1      33.046  29.381  26.326  1.00  0.00    -0.457 OA
BRANCH   2   3
ATOM      3  C   UNL A   1      32.119  28.428  26.029  1.00  0.00     0.355 C 
ATOM      4  O   UNL A   1      31.039  28.380  26.580  1.00  0.00    -0.244 OA
BRANCH   3   5
ATOM      5  C   UNL A   1      32.568  27.429  25.077  1.00  0.00     0.137 A 
ATOM      6  C   UNL A   1      32.911  26.081  25.287  1.00  0.00     0.047 A 
ATOM      7  C   UNL A   1      33.159  25.514  23.980  1.00  0.00     0.009 A 
ATOM      8  N   UNL A   1      32.478  27.624  23.679  1.00  0.00    -0.330 N 
ATOM      9  C   UNL A   1      32.762  26.439  23.020  1.00  0.00     0.050 A 
ATOM     10  C   UNL A   1      33.558  24.228  23.548  1.00  0.00     0.011 A 
ATOM     11  C   UNL A   1      32.621  26.068  21.670  1.00  0.00     0.027 A 
ATOM     12  C   UNL A   1      33.499  23.889  22.192  1.00  0.00     0.001 A 
ATOM     13  C   UNL A   1      33.006  24.791  21.268  1.00  0.00     0.002 A 
BRANCH   6  14
ATOM     14  C   UNL A   1      32.952  25.176  26.514  1.00  0.00     0.300 C 
BRANCH  14  15
ATOM     15  N   UNL A   1      31.971  24.095  26.608  1.00  0.00    -0.340 N 
ATOM     16  H   UNL A   1      31.388  24.279  27.424  1.00  0.00     0.346 HD
ATOM     17  H   UNL A   1      31.484  24.109  25.712  1.00  0.00     0.346 HD
BRANCH  15  18
ATOM     18  C   UNL A   1      32.486  22.716  26.735  1.00  0.00     0.182 C 
ATOM     19  C   UNL A   1      34.731  19.474  24.644  1.00  0.00     0.007 C 
ATOM     20  C   UNL A   1      34.007  20.739  25.092  1.00  0.00    -0.014 C 
ATOM     21  C   UNL A   1      34.605  21.290  26.384  1.00  0.00     0.009 C 
ATOM     22  C   UNL A   1      32.515  20.515  25.335  1.00  0.00     0.009 C 
ATOM     23  C   UNL A   1      34.011  22.658  26.679  1.00  0.00     0.065 C 
ATOM     24  C   UNL A   1      31.797  21.830  25.669  1.00  0.00     0.065 C 
ENDBRANCH  15  18
ENDBRANCH  14  15
ENDBRANCH   6  14
BRANCH   8  25
ATOM     25  C   UNL A   1      31.793  28.737  22.998  1.00  0.00     0.161 C 
BRANCH  25  26
ATOM     26  C   UNL A   1      30.327  29.016  23.261  1.00  0.00     0.008 A 
ATOM     27  C   UNL A   1      29.834  30.323  23.405  1.00  0.00     0.008 A 
ATOM     28  C   UNL A   1      29.382  27.995  23.098  1.00  0.00     0.128 A 
ATOM     29  C   UNL A   1      28.461  30.598  23.356  1.00  0.00     0.001 A 
ATOM     30  C   UNL A   1      28.012  28.262  23.031  1.00  0.00     0.039 A 
ATOM     31  F   UNL A   1      29.786  26.730  22.912  1.00  0.00    -0.207 F 
ATOM     32  C   UNL A   1      27.548  29.570  23.151  1.00  0.00     0.003 A 
ENDBRANCH  25  26
ENDBRANCH   8  25
ENDBRANCH   3   5
ENDBRANCH   2   3
ENDBRANCH   1   2
BRANCH   1  33
ATOM     33  C   UNL A   1      33.351  31.806  27.152  1.00  0.00     0.275 C 
BRANCH  33  34
ATOM     34  O   UNL A   1      34.214  31.861  28.312  1.00  0.00    -0.458 OA
BRANCH  34  35
ATOM     35  C   UNL A   1      35.424  32.448  28.108  1.00  0.00     0.338 C 
ATOM     36  O   UNL A   1      35.608  33.533  27.584  1.00  0.00    -0.246 OA
BRANCH  35  37
ATOM     37  C   UNL A   1      36.434  31.701  28.910  1.00  0.00     0.060 A 
ATOM     38  C   UNL A   1      37.776  32.096  28.966  1.00  0.00     0.016 A 
ATOM     39  C   UNL A   1      36.070  30.423  29.341  1.00  0.00     0.016 A 
ATOM     40  C   UNL A   1      38.763  31.152  29.278  1.00  0.00     0.010 A 
ATOM     41  C   UNL A   1      37.063  29.493  29.655  1.00  0.00     0.010 A 
ATOM     42  C   UNL A   1      38.423  29.815  29.520  1.00  0.00    -0.014 A 
BRANCH  42  43
ATOM     43  C   UNL A   1      39.464  28.790  29.717  1.00  0.00     0.031 A 
ATOM     44  C   UNL A   1      39.958  28.559  31.086  1.00  0.00     0.074 A 
ATOM     45  C   UNL A   1      39.974  27.891  28.847  1.00  0.00     0.049 A 
ATOM     46  N   UNL A   1      40.899  29.213  31.676  1.00  0.00    -0.248 NA
ATOM     47  C   UNL A   1      39.336  27.501  31.892  1.00  0.00     0.031 C 
ATOM     48  C   UNL A   1      39.421  27.427  27.589  1.00  0.00     0.029 A 
ATOM     49  N   UNL A   1      41.114  27.140  28.981  1.00  0.00    -0.354 N 
ATOM     50  C   UNL A   1      41.117  28.541  32.866  1.00  0.00     0.074 A 
ATOM     51  C   UNL A   1      40.025  27.608  33.029  1.00  0.00     0.031 C 
ATOM     52  C   UNL A   1      40.176  26.412  27.099  1.00  0.00     0.029 A 
ATOM     53  C   UNL A   1      41.341  26.235  27.952  1.00  0.00     0.049 A 
ATOM     54  H   UNL A   1      41.725  27.234  29.748  1.00  0.00     0.167 HD
ATOM     55  C   UNL A   1      42.286  28.636  33.549  1.00  0.00     0.034 A 
ATOM     56  C   UNL A   1      42.421  25.427  27.803  1.00  0.00     0.034 A 
ATOM     57  C   UNL A   1      43.248  29.491  32.910  1.00  0.00     0.049 A 
ATOM     58  C   UNL A   1      43.531  26.033  28.585  1.00  0.00     0.074 A 
ATOM     59  C   UNL A   1      43.332  30.828  32.588  1.00  0.00     0.029 A 
ATOM     60  N   UNL A   1      44.190  28.842  32.146  1.00  0.00    -0.354 N 
ATOM     61  N   UNL A   1      44.124  27.152  28.266  1.00  0.00    -0.248 NA
ATOM     62  C   UNL A   1      43.901  25.489  29.886  1.00  0.00     0.031 C 
ATOM     63  C   UNL A   1      44.098  30.889  31.384  1.00  0.00     0.029 A 
ATOM     64  C   UNL A   1      44.419  29.583  31.011  1.00  0.00     0.049 A 
ATOM     65  H   UNL A   1      44.626  27.990  32.374  1.00  0.00     0.167 HD
ATOM     66  C   UNL A   1      44.610  27.648  29.462  1.00  0.00     0.074 A 
ATOM     67  C   UNL A   1      44.621  26.507  30.363  1.00  0.00     0.031 C 
ATOM     68  C   UNL A   1      44.661  28.992  29.703  1.00  0.00     0.034 A 
BRANCH  55  69
ATOM     69  C   UNL A   1      42.668  27.722  34.663  1.00  0.00     0.023 A 
ATOM     70  C   UNL A   1      42.567  28.203  35.980  1.00  0.00     0.012 A 
ATOM     71  C   UNL A   1      43.224  26.445  34.462  1.00  0.00     0.148 A 
ATOM     72  C   UNL A   1      42.953  27.414  37.065  1.00  0.00     0.002 A 
ATOM     73  C   UNL A   1      43.522  25.630  35.546  1.00  0.00     0.091 A 
ATOM     74  F   UNL A   1      43.534  26.047  33.220  1.00  0.00    -0.205 F 
ATOM     75  C   UNL A   1      43.400  26.113  36.852  1.00  0.00     0.022 A 
BRANCH  73  76
ATOM     76  S   UNL A   1      43.949  23.908  35.276  1.00  0.00     0.127 S 
ATOM     77  O   UNL A   1      44.875  23.998  34.154  1.00  0.00    -0.237 OA
ATOM     78  O   UNL A   1      44.555  23.525  36.551  1.00  0.00    -0.237 OA
ATOM     79  O   UNL A   1      42.662  23.270  35.017  1.00  0.00    -0.744 OA
ENDBRANCH  73  76
ENDBRANCH  55  69
BRANCH  56  80
ATOM     80  C   UNL A   1      42.657  24.205  26.992  1.00  0.00     0.023 A 
ATOM     81  C   UNL A   1      43.913  24.018  26.373  1.00  0.00     0.012 A 
ATOM     82  C   UNL A   1      41.764  23.114  26.987  1.00  0.00     0.148 A 
ATOM     83  C   UNL A   1      44.280  22.791  25.808  1.00  0.00     0.002 A 
ATOM     84  C   UNL A   1      42.128  21.895  26.406  1.00  0.00     0.091 A 
ATOM     85  F   UNL A   1      40.581  23.233  27.605  1.00  0.00    -0.205 F 
ATOM     86  C   UNL A   1      43.390  21.724  25.830  1.00  0.00     0.022 A 
BRANCH  84  87
ATOM     87  S   UNL A   1      40.973  20.517  26.424  1.00  0.00     0.127 S 
ATOM     88  O   UNL A   1      40.917  20.138  27.837  1.00  0.00    -0.237 OA
ATOM     89  O   UNL A   1      39.742  21.107  25.912  1.00  0.00    -0.237 OA
ATOM     90  O   UNL A   1      41.625  19.526  25.573  1.00  0.00    -0.744 OA
ENDBRANCH  84  87
ENDBRANCH  56  80
BRANCH  68  91
ATOM     91  C   UNL A   1      44.608  29.923  28.514  1.00  0.00     0.023 A 
ATOM     92  C   UNL A   1      43.398  30.193  27.843  1.00  0.00     0.012 A 
ATOM     93  C   UNL A   1      45.758  30.653  28.155  1.00  0.00     0.148 A 
ATOM     94  C   UNL A   1      43.335  31.144  26.823  1.00  0.00     0.002 A 
ATOM     95  C   UNL A   1      45.682  31.633  27.168  1.00  0.00     0.091 A 
ATOM     96  F   UNL A   1      46.903  30.395  28.804  1.00  0.00    -0.205 F 
ATOM     97  C   UNL A   1      44.474  31.873  26.495  1.00  0.00     0.022 A 
BRANCH  95  98
ATOM     98  S   UNL A   1      47.069  32.701  26.763  1.00  0.00     0.127 S 
ATOM     99  O   UNL A   1      47.376  33.310  28.056  1.00  0.00    -0.237 OA
ATOM    100  O   UNL A   1      48.069  31.744  26.286  1.00  0.00    -0.237 OA
ATOM    101  O   UNL A   1      46.586  33.621  25.740  1.00  0.00    -0.744 OA
ENDBRANCH  95  98
ENDBRANCH  68  91
ENDBRANCH  42  43
ENDBRANCH  35  37
ENDBRANCH  34  35
ENDBRANCH  33  34
ENDBRANCH   1  33
TORSDOF 19
ENDMDL
