MODEL 1
REMARK VINA RESULT:     -10.7      0.000      0.000
REMARK SMILES CCc1ccc(S(=O)(=O)CC(=O)OCCOC(=O)c2ccc(-c3c4nc(c(-c5cccc(S(=O)(=O)[O-])c5F)c5ccc([nH]5)c(-c5cccc(S(=O)(=O)[O-])c5F)c5nc(c(-c6cccc(S(=O)(=O)[O-])c6F)c6ccc3[nH]6)C=C5)C=C4)cc2)cc1
REMARK SMILES IDX 14 1 13 2 11 3 12 4 10 5 7 6 8 7 9 8 6 9 3 10 4 11 83 12
REMARK SMILES IDX 5 13 82 14 2 15 1 16 15 17 16 18 17 19 18 20 19 21 20 22
REMARK SMILES IDX 81 23 21 24 80 25 22 26 23 27 24 28 74 29 25 30 79 31 73 32
REMARK SMILES IDX 75 33 26 34 78 35 72 36 71 37 27 39 59 40 39 41 58 42 40 43
REMARK SMILES IDX 43 44 57 45 76 46 41 47 42 48 56 50 77 51 44 52 28 53 29 54
REMARK SMILES IDX 37 55 30 56 32 57 38 58 31 59 33 60 34 61 35 62 36 63 60 64
REMARK SMILES IDX 61 65 69 66 62 67 64 68 70 69 63 70 65 71 66 72 67 73 68 74
REMARK SMILES IDX 45 75 46 76 54 77 47 78 49 79 55 80 48 81 50 82 51 83 52 84
REMARK SMILES IDX 53 85
REMARK H PARENT 75 38 43 49
REMARK Flexibility Score: inf
ROOT
ATOM      1  C   UNL A   1      35.339  21.223  24.998  1.00  0.00     0.274 C 
ENDROOT
BRANCH   1   2
ATOM      2  O   UNL A   1      34.215  20.412  24.584  1.00  0.00    -0.461 OA
BRANCH   2   3
ATOM      3  C   UNL A   1      33.058  20.651  25.238  1.00  0.00     0.321 C 
ATOM      4  O   UNL A   1      32.133  19.841  25.304  1.00  0.00    -0.251 OA
BRANCH   3   5
ATOM      5  C   UNL A   1      32.915  21.973  25.897  1.00  0.00     0.264 C 
BRANCH   5   6
ATOM      6  S   UNL A   1      31.721  23.084  25.271  1.00  0.00     0.189 S 
ATOM      7  O   UNL A   1      30.525  22.898  26.077  1.00  0.00    -0.223 OA
ATOM      8  O   UNL A   1      31.634  22.913  23.832  1.00  0.00    -0.223 OA
BRANCH   6   9
ATOM      9  C   UNL A   1      32.251  24.744  25.609  1.00  0.00     0.067 A 
ATOM     10  C   UNL A   1      33.053  27.363  26.203  1.00  0.00    -0.048 A 
ATOM     11  C   UNL A   1      31.790  26.901  26.597  1.00  0.00     0.005 A 
ATOM     12  C   UNL A   1      33.927  26.482  25.553  1.00  0.00     0.005 A 
ATOM     13  C   UNL A   1      31.385  25.599  26.295  1.00  0.00     0.020 A 
ATOM     14  C   UNL A   1      33.534  25.172  25.263  1.00  0.00     0.020 A 
BRANCH  10  15
ATOM     15  C   UNL A   1      33.461  28.792  26.470  1.00  0.00     0.032 C 
ATOM     16  C   UNL A   1      34.762  28.900  27.250  1.00  0.00     0.009 C 
ENDBRANCH  10  15
ENDBRANCH   6   9
ENDBRANCH   5   6
ENDBRANCH   3   5
ENDBRANCH   2   3
ENDBRANCH   1   2
BRANCH   1  17
ATOM     17  C   UNL A   1      36.625  20.408  25.064  1.00  0.00     0.275 C 
BRANCH  17  18
ATOM     18  O   UNL A   1      37.764  21.270  24.911  1.00  0.00    -0.458 OA
BRANCH  18  19
ATOM     19  C   UNL A   1      38.799  20.992  25.731  1.00  0.00     0.338 C 
ATOM     20  O   UNL A   1      39.254  19.887  25.997  1.00  0.00    -0.246 OA
BRANCH  19  21
ATOM     21  C   UNL A   1      39.340  22.227  26.316  1.00  0.00     0.060 A 
ATOM     22  C   UNL A   1      38.713  23.460  26.114  1.00  0.00     0.016 A 
ATOM     23  C   UNL A   1      40.569  22.160  26.973  1.00  0.00     0.016 A 
ATOM     24  C   UNL A   1      39.363  24.636  26.491  1.00  0.00     0.010 A 
ATOM     25  C   UNL A   1      41.178  23.330  27.421  1.00  0.00     0.010 A 
ATOM     26  C   UNL A   1      40.605  24.582  27.148  1.00  0.00    -0.014 A 
BRANCH  26  27
ATOM     27  C   UNL A   1      41.317  25.822  27.553  1.00  0.00     0.031 A 
ATOM     28  C   UNL A   1      40.617  26.870  28.377  1.00  0.00     0.074 A 
ATOM     29  C   UNL A   1      42.574  26.041  27.122  1.00  0.00     0.049 A 
ATOM     30  N   UNL A   1      41.033  28.062  28.720  1.00  0.00    -0.248 NA
ATOM     31  C   UNL A   1      39.269  26.541  28.870  1.00  0.00     0.031 C 
ATOM     32  C   UNL A   1      43.349  25.123  26.287  1.00  0.00     0.029 A 
ATOM     33  N   UNL A   1      43.406  27.119  27.299  1.00  0.00    -0.354 N 
ATOM     34  C   UNL A   1      39.984  28.645  29.422  1.00  0.00     0.074 A 
ATOM     35  C   UNL A   1      38.910  27.673  29.458  1.00  0.00     0.031 C 
ATOM     36  C   UNL A   1      44.538  25.680  26.014  1.00  0.00     0.029 A 
ATOM     37  C   UNL A   1      44.592  27.011  26.613  1.00  0.00     0.049 A 
ATOM     38  H   UNL A   1      43.175  27.892  27.863  1.00  0.00     0.167 HD
ATOM     39  C   UNL A   1      39.923  29.868  29.999  1.00  0.00     0.034 A 
ATOM     40  C   UNL A   1      45.599  27.891  26.454  1.00  0.00     0.034 A 
ATOM     41  C   UNL A   1      41.006  30.814  30.014  1.00  0.00     0.049 A 
ATOM     42  C   UNL A   1      45.525  29.229  27.131  1.00  0.00     0.074 A 
ATOM     43  C   UNL A   1      41.062  32.048  30.638  1.00  0.00     0.029 A 
ATOM     44  N   UNL A   1      42.223  30.634  29.376  1.00  0.00    -0.354 N 
ATOM     45  N   UNL A   1      44.572  29.714  27.889  1.00  0.00    -0.248 NA
ATOM     46  C   UNL A   1      46.671  30.130  26.953  1.00  0.00     0.031 C 
ATOM     47  C   UNL A   1      42.316  32.615  30.377  1.00  0.00     0.029 A 
ATOM     48  C   UNL A   1      43.038  31.734  29.587  1.00  0.00     0.049 A 
ATOM     49  H   UNL A   1      42.473  29.840  28.850  1.00  0.00     0.167 HD
ATOM     50  C   UNL A   1      45.006  30.971  28.289  1.00  0.00     0.074 A 
ATOM     51  C   UNL A   1      46.322  31.162  27.712  1.00  0.00     0.031 C 
ATOM     52  C   UNL A   1      44.362  31.894  29.046  1.00  0.00     0.034 A 
BRANCH  39  53
ATOM     53  C   UNL A   1      38.652  30.236  30.713  1.00  0.00     0.023 A 
ATOM     54  C   UNL A   1      38.443  29.781  32.030  1.00  0.00     0.012 A 
ATOM     55  C   UNL A   1      37.688  31.065  30.109  1.00  0.00     0.148 A 
ATOM     56  C   UNL A   1      37.286  30.128  32.727  1.00  0.00     0.002 A 
ATOM     57  C   UNL A   1      36.550  31.430  30.820  1.00  0.00     0.091 A 
ATOM     58  F   UNL A   1      37.882  31.461  28.841  1.00  0.00    -0.205 F 
ATOM     59  C   UNL A   1      36.344  30.960  32.126  1.00  0.00     0.022 A 
BRANCH  57  60
ATOM     60  S   UNL A   1      35.330  32.549  30.121  1.00  0.00     0.127 S 
ATOM     61  O   UNL A   1      36.150  33.706  29.771  1.00  0.00    -0.237 OA
ATOM     62  O   UNL A   1      34.822  31.796  28.971  1.00  0.00    -0.237 OA
ATOM     63  O   UNL A   1      34.350  32.753  31.179  1.00  0.00    -0.744 OA
ENDBRANCH  57  60
ENDBRANCH  39  53
BRANCH  40  64
ATOM     64  C   UNL A   1      46.781  27.491  25.641  1.00  0.00     0.023 A 
ATOM     65  C   UNL A   1      46.805  27.790  24.267  1.00  0.00     0.012 A 
ATOM     66  C   UNL A   1      47.917  26.916  26.244  1.00  0.00     0.148 A 
ATOM     67  C   UNL A   1      47.942  27.523  23.505  1.00  0.00     0.002 A 
ATOM     68  C   UNL A   1      49.066  26.707  25.491  1.00  0.00     0.091 A 
ATOM     69  F   UNL A   1      47.863  26.619  27.550  1.00  0.00    -0.205 F 
ATOM     70  C   UNL A   1      49.077  26.999  24.119  1.00  0.00     0.022 A 
BRANCH  68  71
ATOM     71  S   UNL A   1      50.616  26.189  26.241  1.00  0.00     0.127 S 
ATOM     72  O   UNL A   1      50.841  27.246  27.224  1.00  0.00    -0.237 OA
ATOM     73  O   UNL A   1      50.261  24.886  26.806  1.00  0.00    -0.237 OA
ATOM     74  O   UNL A   1      51.574  26.122  25.145  1.00  0.00    -0.744 OA
ENDBRANCH  68  71
ENDBRANCH  40  64
BRANCH  52  75
ATOM     75  C   UNL A   1      45.067  33.200  29.293  1.00  0.00     0.023 A 
ATOM     76  C   UNL A   1      45.912  33.322  30.415  1.00  0.00     0.012 A 
ATOM     77  C   UNL A   1      44.952  34.275  28.392  1.00  0.00     0.148 A 
ATOM     78  C   UNL A   1      46.613  34.505  30.647  1.00  0.00     0.002 A 
ATOM     79  C   UNL A   1      45.682  35.439  28.612  1.00  0.00     0.091 A 
ATOM     80  F   UNL A   1      44.124  34.151  27.344  1.00  0.00    -0.205 F 
ATOM     81  C   UNL A   1      46.507  35.558  29.741  1.00  0.00     0.022 A 
BRANCH  79  82
ATOM     82  S   UNL A   1      45.650  36.804  27.445  1.00  0.00     0.127 S 
ATOM     83  O   UNL A   1      46.426  37.822  28.150  1.00  0.00    -0.237 OA
ATOM     84  O   UNL A   1      46.314  36.238  26.270  1.00  0.00    -0.237 OA
ATOM     85  O   UNL A   1      44.238  37.106  27.243  1.00  0.00    -0.744 OA
ENDBRANCH  79  82
ENDBRANCH  52  75
ENDBRANCH  26  27
ENDBRANCH  19  21
ENDBRANCH  18  19
ENDBRANCH  17  18
ENDBRANCH   1  17
TORSDOF 17
ENDMDL
MODEL 2
REMARK VINA RESULT:     -10.6      5.295     10.198
REMARK SMILES CCc1ccc(S(=O)(=O)CC(=O)OCCOC(=O)c2ccc(-c3c4nc(c(-c5cccc(S(=O)(=O)[O-])c5F)c5ccc([nH]5)c(-c5cccc(S(=O)(=O)[O-])c5F)c5nc(c(-c6cccc(S(=O)(=O)[O-])c6F)c6ccc3[nH]6)C=C5)C=C4)cc2)cc1
REMARK SMILES IDX 14 1 13 2 11 3 12 4 10 5 7 6 8 7 9 8 6 9 3 10 4 11 83 12
REMARK SMILES IDX 5 13 82 14 2 15 1 16 15 17 16 18 17 19 18 20 19 21 20 22
REMARK SMILES IDX 81 23 21 24 80 25 22 26 23 27 24 28 74 29 25 30 79 31 73 32
REMARK SMILES IDX 75 33 26 34 78 35 72 36 71 37 27 39 59 40 39 41 58 42 40 43
REMARK SMILES IDX 43 44 57 45 76 46 41 47 42 48 56 50 77 51 44 52 28 53 29 54
REMARK SMILES IDX 37 55 30 56 32 57 38 58 31 59 33 60 34 61 35 62 36 63 60 64
REMARK SMILES IDX 61 65 69 66 62 67 64 68 70 69 63 70 65 71 66 72 67 73 68 74
REMARK SMILES IDX 45 75 46 76 54 77 47 78 49 79 55 80 48 81 50 82 51 83 52 84
REMARK SMILES IDX 53 85
REMARK H PARENT 75 38 43 49
REMARK Flexibility Score: inf
ROOT
ATOM      1  C   UNL A   1      31.787  28.597  25.880  1.00  0.00     0.274 C 
ENDROOT
BRANCH   1   2
ATOM      2  O   UNL A   1      31.240  27.496  26.641  1.00  0.00    -0.461 OA
BRANCH   2   3
ATOM      3  C   UNL A   1      31.607  26.266  26.224  1.00  0.00     0.321 C 
ATOM      4  O   UNL A   1      31.443  25.243  26.890  1.00  0.00    -0.251 OA
BRANCH   3   5
ATOM      5  C   UNL A   1      32.249  26.168  24.890  1.00  0.00     0.264 C 
BRANCH   5   6
ATOM      6  S   UNL A   1      31.245  25.775  23.516  1.00  0.00     0.189 S 
ATOM      7  O   UNL A   1      30.303  24.766  23.972  1.00  0.00    -0.223 OA
ATOM      8  O   UNL A   1      32.101  25.477  22.381  1.00  0.00    -0.223 OA
BRANCH   6   9
ATOM      9  C   UNL A   1      30.248  27.188  23.112  1.00  0.00     0.067 A 
ATOM     10  C   UNL A   1      28.638  29.408  22.536  1.00  0.00    -0.048 A 
ATOM     11  C   UNL A   1      28.106  28.302  23.211  1.00  0.00     0.005 A 
ATOM     12  C   UNL A   1      29.999  29.409  22.199  1.00  0.00     0.005 A 
ATOM     13  C   UNL A   1      28.903  27.190  23.491  1.00  0.00     0.020 A 
ATOM     14  C   UNL A   1      30.807  28.307  22.493  1.00  0.00     0.020 A 
BRANCH  10  15
ATOM     15  C   UNL A   1      27.756  30.579  22.172  1.00  0.00     0.032 C 
ATOM     16  C   UNL A   1      28.263  31.348  20.963  1.00  0.00     0.009 C 
ENDBRANCH  10  15
ENDBRANCH   6   9
ENDBRANCH   5   6
ENDBRANCH   3   5
ENDBRANCH   2   3
ENDBRANCH   1   2
BRANCH   1  17
ATOM     17  C   UNL A   1      31.745  29.901  26.668  1.00  0.00     0.275 C 
BRANCH  17  18
ATOM     18  O   UNL A   1      32.762  30.797  26.193  1.00  0.00    -0.458 OA
BRANCH  18  19
ATOM     19  C   UNL A   1      33.196  31.693  27.104  1.00  0.00     0.338 C 
ATOM     20  O   UNL A   1      32.637  32.726  27.448  1.00  0.00    -0.246 OA
BRANCH  19  21
ATOM     21  C   UNL A   1      34.494  31.279  27.656  1.00  0.00     0.060 A 
ATOM     22  C   UNL A   1      34.751  29.944  27.982  1.00  0.00     0.016 A 
ATOM     23  C   UNL A   1      35.421  32.273  27.970  1.00  0.00     0.016 A 
ATOM     24  C   UNL A   1      35.900  29.618  28.704  1.00  0.00     0.010 A 
ATOM     25  C   UNL A   1      36.607  31.933  28.619  1.00  0.00     0.010 A 
ATOM     26  C   UNL A   1      36.839  30.611  29.032  1.00  0.00    -0.014 A 
BRANCH  26  27
ATOM     27  C   UNL A   1      38.066  30.286  29.805  1.00  0.00     0.031 A 
ATOM     28  C   UNL A   1      39.080  29.316  29.258  1.00  0.00     0.074 A 
ATOM     29  C   UNL A   1      38.239  30.811  31.033  1.00  0.00     0.049 A 
ATOM     30  N   UNL A   1      40.142  28.820  29.837  1.00  0.00    -0.248 NA
ATOM     31  C   UNL A   1      38.864  28.831  27.884  1.00  0.00     0.031 C 
ATOM     32  C   UNL A   1      37.315  31.733  31.693  1.00  0.00     0.029 A 
ATOM     33  N   UNL A   1      39.236  30.616  31.957  1.00  0.00    -0.354 N 
ATOM     34  C   UNL A   1      40.692  27.927  28.924  1.00  0.00     0.074 A 
ATOM     35  C   UNL A   1      39.846  27.951  27.749  1.00  0.00     0.031 C 
ATOM     36  C   UNL A   1      37.779  32.014  32.919  1.00  0.00     0.029 A 
ATOM     37  C   UNL A   1      39.007  31.259  33.150  1.00  0.00     0.049 A 
ATOM     38  H   UNL A   1      40.036  30.069  31.782  1.00  0.00     0.167 HD
ATOM     39  C   UNL A   1      41.808  27.169  29.044  1.00  0.00     0.034 A 
ATOM     40  C   UNL A   1      39.687  31.224  34.312  1.00  0.00     0.034 A 
ATOM     41  C   UNL A   1      42.682  27.184  30.186  1.00  0.00     0.049 A 
ATOM     42  C   UNL A   1      40.941  30.403  34.411  1.00  0.00     0.074 A 
ATOM     43  C   UNL A   1      43.875  26.507  30.365  1.00  0.00     0.029 A 
ATOM     44  N   UNL A   1      42.459  27.912  31.344  1.00  0.00    -0.354 N 
ATOM     45  N   UNL A   1      41.508  29.657  33.494  1.00  0.00    -0.248 NA
ATOM     46  C   UNL A   1      41.660  30.436  35.691  1.00  0.00     0.031 C 
ATOM     47  C   UNL A   1      44.374  26.825  31.635  1.00  0.00     0.029 A 
ATOM     48  C   UNL A   1      43.489  27.699  32.245  1.00  0.00     0.049 A 
ATOM     49  H   UNL A   1      41.682  28.496  31.503  1.00  0.00     0.167 HD
ATOM     50  C   UNL A   1      42.657  29.142  34.081  1.00  0.00     0.074 A 
ATOM     51  C   UNL A   1      42.720  29.683  35.424  1.00  0.00     0.031 C 
ATOM     52  C   UNL A   1      43.564  28.278  33.561  1.00  0.00     0.034 A 
BRANCH  39  53
ATOM     53  C   UNL A   1      42.179  26.293  27.880  1.00  0.00     0.023 A 
ATOM     54  C   UNL A   1      43.018  26.805  26.870  1.00  0.00     0.012 A 
ATOM     55  C   UNL A   1      41.744  24.957  27.803  1.00  0.00     0.148 A 
ATOM     56  C   UNL A   1      43.400  26.007  25.792  1.00  0.00     0.002 A 
ATOM     57  C   UNL A   1      42.153  24.159  26.740  1.00  0.00     0.091 A 
ATOM     58  F   UNL A   1      40.917  24.493  28.752  1.00  0.00    -0.205 F 
ATOM     59  C   UNL A   1      42.977  24.682  25.731  1.00  0.00     0.022 A 
BRANCH  57  60
ATOM     60  S   UNL A   1      41.688  22.426  26.639  1.00  0.00     0.127 S 
ATOM     61  O   UNL A   1      40.232  22.512  26.544  1.00  0.00    -0.237 OA
ATOM     62  O   UNL A   1      42.350  21.983  25.410  1.00  0.00    -0.237 OA
ATOM     63  O   UNL A   1      42.217  21.819  27.853  1.00  0.00    -0.744 OA
ENDBRANCH  57  60
ENDBRANCH  39  53
BRANCH  40  64
ATOM     64  C   UNL A   1      39.195  32.039  35.457  1.00  0.00     0.023 A 
ATOM     65  C   UNL A   1      38.347  31.446  36.410  1.00  0.00     0.012 A 
ATOM     66  C   UNL A   1      39.648  33.358  35.660  1.00  0.00     0.148 A 
ATOM     67  C   UNL A   1      37.958  32.154  37.548  1.00  0.00     0.002 A 
ATOM     68  C   UNL A   1      39.304  34.035  36.823  1.00  0.00     0.091 A 
ATOM     69  F   UNL A   1      40.438  33.909  34.726  1.00  0.00    -0.205 F 
ATOM     70  C   UNL A   1      38.449  33.439  37.763  1.00  0.00     0.022 A 
BRANCH  68  71
ATOM     71  S   UNL A   1      40.025  35.625  37.249  1.00  0.00     0.127 S 
ATOM     72  O   UNL A   1      39.651  36.442  36.097  1.00  0.00    -0.237 OA
ATOM     73  O   UNL A   1      39.324  35.955  38.491  1.00  0.00    -0.237 OA
ATOM     74  O   UNL A   1      41.449  35.374  37.417  1.00  0.00    -0.744 OA
ENDBRANCH  68  71
ENDBRANCH  40  64
BRANCH  52  75
ATOM     75  C   UNL A   1      44.705  27.858  34.447  1.00  0.00     0.023 A 
ATOM     76  C   UNL A   1      45.870  28.649  34.488  1.00  0.00     0.012 A 
ATOM     77  C   UNL A   1      44.604  26.730  35.283  1.00  0.00     0.148 A 
ATOM     78  C   UNL A   1      46.927  28.310  35.332  1.00  0.00     0.002 A 
ATOM     79  C   UNL A   1      45.650  26.418  36.148  1.00  0.00     0.091 A 
ATOM     80  F   UNL A   1      43.499  25.973  35.213  1.00  0.00    -0.205 F 
ATOM     81  C   UNL A   1      46.813  27.203  36.169  1.00  0.00     0.022 A 
BRANCH  79  82
ATOM     82  S   UNL A   1      45.535  25.050  37.306  1.00  0.00     0.127 S 
ATOM     83  O   UNL A   1      45.518  23.897  36.409  1.00  0.00    -0.237 OA
ATOM     84  O   UNL A   1      46.763  25.190  38.092  1.00  0.00    -0.237 OA
ATOM     85  O   UNL A   1      44.313  25.286  38.063  1.00  0.00    -0.744 OA
ENDBRANCH  79  82
ENDBRANCH  52  75
ENDBRANCH  26  27
ENDBRANCH  19  21
ENDBRANCH  18  19
ENDBRANCH  17  18
ENDBRANCH   1  17
TORSDOF 17
ENDMDL
MODEL 3
REMARK VINA RESULT:     -10.4      5.722     11.171
REMARK SMILES CCc1ccc(S(=O)(=O)CC(=O)OCCOC(=O)c2ccc(-c3c4nc(c(-c5cccc(S(=O)(=O)[O-])c5F)c5ccc([nH]5)c(-c5cccc(S(=O)(=O)[O-])c5F)c5nc(c(-c6cccc(S(=O)(=O)[O-])c6F)c6ccc3[nH]6)C=C5)C=C4)cc2)cc1
REMARK SMILES IDX 14 1 13 2 11 3 12 4 10 5 7 6 8 7 9 8 6 9 3 10 4 11 83 12
REMARK SMILES IDX 5 13 82 14 2 15 1 16 15 17 16 18 17 19 18 20 19 21 20 22
REMARK SMILES IDX 81 23 21 24 80 25 22 26 23 27 24 28 74 29 25 30 79 31 73 32
REMARK SMILES IDX 75 33 26 34 78 35 72 36 71 37 27 39 59 40 39 41 58 42 40 43
REMARK SMILES IDX 43 44 57 45 76 46 41 47 42 48 56 50 77 51 44 52 28 53 29 54
REMARK SMILES IDX 37 55 30 56 32 57 38 58 31 59 33 60 34 61 35 62 36 63 60 64
REMARK SMILES IDX 61 65 69 66 62 67 64 68 70 69 63 70 65 71 66 72 67 73 68 74
REMARK SMILES IDX 45 75 46 76 54 77 47 78 49 79 55 80 48 81 50 82 51 83 52 84
REMARK SMILES IDX 53 85
REMARK H PARENT 75 38 43 49
REMARK Flexibility Score: inf
ROOT
ATOM      1  C   UNL A   1      34.275  34.265  30.941  1.00  0.00     0.274 C 
ENDROOT
BRANCH   1   2
ATOM      2  O   UNL A   1      33.694  35.275  31.797  1.00  0.00    -0.461 OA
BRANCH   2   3
ATOM      3  C   UNL A   1      34.243  35.377  33.025  1.00  0.00     0.321 C 
ATOM      4  O   UNL A   1      34.529  36.450  33.557  1.00  0.00    -0.251 OA
BRANCH   3   5
ATOM      5  C   UNL A   1      34.514  34.112  33.752  1.00  0.00     0.264 C 
BRANCH   5   6
ATOM      6  S   UNL A   1      36.133  33.832  34.348  1.00  0.00     0.189 S 
ATOM      7  O   UNL A   1      36.018  33.684  35.790  1.00  0.00    -0.223 OA
ATOM      8  O   UNL A   1      37.011  34.856  33.812  1.00  0.00    -0.223 OA
BRANCH   6   9
ATOM      9  C   UNL A   1      36.692  32.250  33.766  1.00  0.00     0.067 A 
ATOM     10  C   UNL A   1      37.562  29.776  32.781  1.00  0.00    -0.048 A 
ATOM     11  C   UNL A   1      36.528  30.471  32.140  1.00  0.00     0.005 A 
ATOM     12  C   UNL A   1      38.188  30.359  33.890  1.00  0.00     0.005 A 
ATOM     13  C   UNL A   1      36.087  31.700  32.634  1.00  0.00     0.020 A 
ATOM     14  C   UNL A   1      37.763  31.598  34.379  1.00  0.00     0.020 A 
BRANCH  10  15
ATOM     15  C   UNL A   1      37.990  28.415  32.285  1.00  0.00     0.032 C 
ATOM     16  C   UNL A   1      39.466  28.137  32.519  1.00  0.00     0.009 C 
ENDBRANCH  10  15
ENDBRANCH   6   9
ENDBRANCH   5   6
ENDBRANCH   3   5
ENDBRANCH   2   3
ENDBRANCH   1   2
BRANCH   1  17
ATOM     17  C   UNL A   1      33.873  34.463  29.484  1.00  0.00     0.275 C 
BRANCH  17  18
ATOM     18  O   UNL A   1      34.955  34.087  28.618  1.00  0.00    -0.458 OA
BRANCH  18  19
ATOM     19  C   UNL A   1      34.996  32.776  28.298  1.00  0.00     0.338 C 
ATOM     20  O   UNL A   1      34.077  32.092  27.872  1.00  0.00    -0.246 OA
BRANCH  19  21
ATOM     21  C   UNL A   1      36.336  32.227  28.549  1.00  0.00     0.060 A 
ATOM     22  C   UNL A   1      36.582  30.853  28.474  1.00  0.00     0.016 A 
ATOM     23  C   UNL A   1      37.331  33.099  28.992  1.00  0.00     0.016 A 
ATOM     24  C   UNL A   1      37.799  30.343  28.929  1.00  0.00     0.010 A 
ATOM     25  C   UNL A   1      38.575  32.594  29.369  1.00  0.00     0.010 A 
ATOM     26  C   UNL A   1      38.807  31.210  29.383  1.00  0.00    -0.014 A 
BRANCH  26  27
ATOM     27  C   UNL A   1      40.108  30.687  29.878  1.00  0.00     0.031 A 
ATOM     28  C   UNL A   1      40.762  29.507  29.208  1.00  0.00     0.074 A 
ATOM     29  C   UNL A   1      40.672  31.230  30.974  1.00  0.00     0.049 A 
ATOM     30  N   UNL A   1      41.826  28.839  29.570  1.00  0.00    -0.248 NA
ATOM     31  C   UNL A   1      40.128  29.004  27.977  1.00  0.00     0.031 C 
ATOM     32  C   UNL A   1      40.122  32.350  31.737  1.00  0.00     0.029 A 
ATOM     33  N   UNL A   1      41.814  30.887  31.655  1.00  0.00    -0.354 N 
ATOM     34  C   UNL A   1      41.963  27.809  28.647  1.00  0.00     0.074 A 
ATOM     35  C   UNL A   1      40.871  27.941  27.705  1.00  0.00     0.031 C 
ATOM     36  C   UNL A   1      40.918  32.597  32.787  1.00  0.00     0.029 A 
ATOM     37  C   UNL A   1      42.008  31.624  32.799  1.00  0.00     0.049 A 
ATOM     38  H   UNL A   1      42.433  30.184  31.353  1.00  0.00     0.167 HD
ATOM     39  C   UNL A   1      42.917  26.851  28.578  1.00  0.00     0.034 A 
ATOM     40  C   UNL A   1      42.937  31.515  33.768  1.00  0.00     0.034 A 
ATOM     41  C   UNL A   1      44.034  26.751  29.478  1.00  0.00     0.049 A 
ATOM     42  C   UNL A   1      44.006  30.466  33.653  1.00  0.00     0.074 A 
ATOM     43  C   UNL A   1      45.092  25.859  29.440  1.00  0.00     0.029 A 
ATOM     44  N   UNL A   1      44.241  27.567  30.578  1.00  0.00    -0.354 N 
ATOM     45  N   UNL A   1      44.184  29.576  32.708  1.00  0.00    -0.248 NA
ATOM     46  C   UNL A   1      45.013  30.422  34.721  1.00  0.00     0.031 C 
ATOM     47  C   UNL A   1      45.939  26.137  30.520  1.00  0.00     0.029 A 
ATOM     48  C   UNL A   1      45.406  27.200  31.231  1.00  0.00     0.049 A 
ATOM     49  H   UNL A   1      43.647  28.302  30.855  1.00  0.00     0.167 HD
ATOM     50  C   UNL A   1      45.329  28.873  33.058  1.00  0.00     0.074 A 
ATOM     51  C   UNL A   1      45.820  29.460  34.289  1.00  0.00     0.031 C 
ATOM     52  C   UNL A   1      45.908  27.820  32.430  1.00  0.00     0.034 A 
BRANCH  39  53
ATOM     53  C   UNL A   1      42.824  25.859  27.451  1.00  0.00     0.023 A 
ATOM     54  C   UNL A   1      43.410  26.169  26.208  1.00  0.00     0.012 A 
ATOM     55  C   UNL A   1      42.203  24.608  27.629  1.00  0.00     0.148 A 
ATOM     56  C   UNL A   1      43.362  25.258  25.153  1.00  0.00     0.002 A 
ATOM     57  C   UNL A   1      42.185  23.693  26.581  1.00  0.00     0.091 A 
ATOM     58  F   UNL A   1      41.618  24.341  28.806  1.00  0.00    -0.205 F 
ATOM     59  C   UNL A   1      42.759  24.017  25.342  1.00  0.00     0.022 A 
BRANCH  57  60
ATOM     60  S   UNL A   1      41.474  22.055  26.784  1.00  0.00     0.127 S 
ATOM     61  O   UNL A   1      41.875  21.399  25.541  1.00  0.00    -0.237 OA
ATOM     62  O   UNL A   1      42.153  21.554  27.981  1.00  0.00    -0.237 OA
ATOM     63  O   UNL A   1      40.046  22.280  26.959  1.00  0.00    -0.744 OA
ENDBRANCH  57  60
ENDBRANCH  39  53
BRANCH  40  64
ATOM     64  C   UNL A   1      42.899  32.470  34.910  1.00  0.00     0.023 A 
ATOM     65  C   UNL A   1      43.492  33.737  34.768  1.00  0.00     0.012 A 
ATOM     66  C   UNL A   1      42.188  32.167  36.088  1.00  0.00     0.148 A 
ATOM     67  C   UNL A   1      43.379  34.689  35.782  1.00  0.00     0.002 A 
ATOM     68  C   UNL A   1      42.030  33.139  37.068  1.00  0.00     0.091 A 
ATOM     69  F   UNL A   1      41.650  30.945  36.210  1.00  0.00    -0.205 F 
ATOM     70  C   UNL A   1      42.634  34.397  36.922  1.00  0.00     0.022 A 
BRANCH  68  71
ATOM     71  S   UNL A   1      40.953  32.897  38.486  1.00  0.00     0.127 S 
ATOM     72  O   UNL A   1      40.825  34.257  39.002  1.00  0.00    -0.237 OA
ATOM     73  O   UNL A   1      39.743  32.358  37.863  1.00  0.00    -0.237 OA
ATOM     74  O   UNL A   1      41.651  31.951  39.347  1.00  0.00    -0.744 OA
ENDBRANCH  68  71
ENDBRANCH  40  64
BRANCH  52  75
ATOM     75  C   UNL A   1      47.137  27.227  33.062  1.00  0.00     0.023 A 
ATOM     76  C   UNL A   1      48.399  27.774  32.756  1.00  0.00     0.012 A 
ATOM     77  C   UNL A   1      47.045  26.183  34.002  1.00  0.00     0.148 A 
ATOM     78  C   UNL A   1      49.553  27.275  33.360  1.00  0.00     0.002 A 
ATOM     79  C   UNL A   1      48.197  25.714  34.626  1.00  0.00     0.091 A 
ATOM     80  F   UNL A   1      45.839  25.656  34.262  1.00  0.00    -0.205 F 
ATOM     81  C   UNL A   1      49.451  26.254  34.302  1.00  0.00     0.022 A 
BRANCH  79  82
ATOM     82  S   UNL A   1      48.127  24.453  35.903  1.00  0.00     0.127 S 
ATOM     83  O   UNL A   1      47.358  25.124  36.948  1.00  0.00    -0.237 OA
ATOM     84  O   UNL A   1      47.420  23.358  35.236  1.00  0.00    -0.237 OA
ATOM     85  O   UNL A   1      49.517  24.155  36.227  1.00  0.00    -0.744 OA
ENDBRANCH  79  82
ENDBRANCH  52  75
ENDBRANCH  26  27
ENDBRANCH  19  21
ENDBRANCH  18  19
ENDBRANCH  17  18
ENDBRANCH   1  17
TORSDOF 17
ENDMDL
