MODEL 1
REMARK VINA RESULT:     -11.3      0.000      0.000
REMARK SMILES CC[C@H](C)Nc1ncnc(N2CCC(C(=O)OCCOC(=O)c3ccc(-c4c5nc(c(-c6cccc(S(=O)(=O)[O-])c6F)c6ccc([nH]6)c(-c6cccc(S(=O)(=O)[O-])c6F)c6nc(c(-c7cccc(S(=O)(=O)[O-])c7F)c7ccc4[nH]7)C=C6)C=C5)cc3)CC2)c1[N+](=O)[O-]
REMARK SMILES IDX 18 1 17 2 15 3 16 4 14 5 11 6 12 7 87 8 13 9 86 10 10 11
REMARK SMILES IDX 6 12 7 13 88 14 8 15 9 16 5 17 3 19 4 20 2 21 1 22 89 23
REMARK SMILES IDX 90 24 91 25 19 26 20 27 21 28 22 29 23 30 24 31 85 32 25 33
REMARK SMILES IDX 84 34 26 35 27 36 28 37 78 38 29 39 83 40 77 41 79 42 30 43
REMARK SMILES IDX 82 44 76 45 75 46 31 48 63 49 43 50 62 51 44 52 47 53 61 54
REMARK SMILES IDX 80 55 45 56 46 57 60 59 81 60 48 61 32 62 33 63 41 64 34 65
REMARK SMILES IDX 36 66 42 67 35 68 37 69 38 70 39 71 40 72 64 73 65 74 73 75
REMARK SMILES IDX 66 76 68 77 74 78 67 79 69 80 70 81 71 82 72 83 49 84 50 85
REMARK SMILES IDX 58 86 51 87 53 88 59 89 52 90 54 91 55 92 56 93 57 94
REMARK H PARENT 5 18 79 47 47 58
REMARK Flexibility Score: inf
ROOT
ATOM      1  C   UNL A   1      31.157  30.924  25.888  1.00  0.00     0.274 C 
ENDROOT
BRANCH   1   2
ATOM      2  O   UNL A   1      32.073  29.836  25.671  1.00  0.00    -0.462 OA
BRANCH   2   3
ATOM      3  C   UNL A   1      31.850  28.720  26.411  1.00  0.00     0.309 C 
ATOM      4  O   UNL A   1      31.390  28.713  27.547  1.00  0.00    -0.252 OA
BRANCH   3   5
ATOM      5  C   UNL A   1      32.243  27.445  25.702  1.00  0.00     0.103 C 
ATOM      6  N   UNL A   1      32.914  24.721  25.278  1.00  0.00    -0.351 N 
ATOM      7  C   UNL A   1      33.963  25.722  25.114  1.00  0.00     0.119 C 
ATOM      8  C   UNL A   1      31.519  25.128  25.135  1.00  0.00     0.119 C 
ATOM      9  C   UNL A   1      33.668  26.952  25.967  1.00  0.00     0.037 C 
ATOM     10  C   UNL A   1      31.237  26.342  26.011  1.00  0.00     0.037 C 
BRANCH   6  11
ATOM     11  C   UNL A   1      33.243  23.481  25.781  1.00  0.00     0.213 A 
ATOM     12  C   UNL A   1      33.986  21.205  25.593  1.00  0.00     0.211 A 
ATOM     13  N   UNL A   1      33.754  21.029  26.908  1.00  0.00    -0.213 NA
ATOM     14  C   UNL A   1      33.709  22.427  25.004  1.00  0.00     0.353 A 
ATOM     15  C   UNL A   1      33.327  22.095  27.603  1.00  0.00     0.227 A 
ATOM     16  N   UNL A   1      33.083  23.314  27.108  1.00  0.00    -0.212 NA
BRANCH  12  17
ATOM     17  N   UNL A   1      34.497  20.071  24.995  1.00  0.00    -0.362 N 
ATOM     18  H   UNL A   1      35.431  20.088  24.684  1.00  0.00     0.162 HD
BRANCH  17  19
ATOM     19  C   UNL A   1      33.721  18.847  24.800  1.00  0.00     0.077 C 
ATOM     20  C   UNL A   1      32.518  19.156  23.908  1.00  0.00     0.031 C 
BRANCH  19  21
ATOM     21  C   UNL A   1      34.635  17.728  24.264  1.00  0.00     0.021 C 
ATOM     22  C   UNL A   1      34.071  16.891  23.126  1.00  0.00     0.006 C 
ENDBRANCH  19  21
ENDBRANCH  17  19
ENDBRANCH  12  17
BRANCH  14  23
ATOM     23  N   UNL A   1      33.892  22.632  23.605  1.00  0.00     0.070 N 
ATOM     24  O   UNL A   1      35.029  22.939  23.214  1.00  0.00    -0.258 OA
ATOM     25  O   UNL A   1      32.900  22.491  22.874  1.00  0.00    -0.258 OA
ENDBRANCH  14  23
ENDBRANCH   6  11
ENDBRANCH   3   5
ENDBRANCH   2   3
ENDBRANCH   1   2
BRANCH   1  26
ATOM     26  C   UNL A   1      31.776  31.995  26.790  1.00  0.00     0.275 C 
BRANCH  26  27
ATOM     27  O   UNL A   1      33.180  31.769  27.007  1.00  0.00    -0.458 OA
BRANCH  27  28
ATOM     28  C   UNL A   1      33.826  32.753  27.675  1.00  0.00     0.338 C 
ATOM     29  O   UNL A   1      33.415  33.875  27.915  1.00  0.00    -0.246 OA
BRANCH  28  30
ATOM     30  C   UNL A   1      35.102  32.245  28.204  1.00  0.00     0.060 A 
ATOM     31  C   UNL A   1      35.130  30.944  28.711  1.00  0.00     0.016 A 
ATOM     32  C   UNL A   1      36.226  33.065  28.293  1.00  0.00     0.016 A 
ATOM     33  C   UNL A   1      36.283  30.449  29.312  1.00  0.00     0.010 A 
ATOM     34  C   UNL A   1      37.386  32.567  28.896  1.00  0.00     0.010 A 
ATOM     35  C   UNL A   1      37.418  31.262  29.420  1.00  0.00    -0.014 A 
BRANCH  35  36
ATOM     36  C   UNL A   1      38.624  30.756  30.119  1.00  0.00     0.031 A 
ATOM     37  C   UNL A   1      39.503  29.738  29.455  1.00  0.00     0.074 A 
ATOM     38  C   UNL A   1      38.918  31.207  31.353  1.00  0.00     0.049 A 
ATOM     39  N   UNL A   1      40.547  29.113  29.931  1.00  0.00    -0.248 NA
ATOM     40  C   UNL A   1      39.160  29.370  28.070  1.00  0.00     0.031 C 
ATOM     41  C   UNL A   1      38.146  32.205  32.092  1.00  0.00     0.029 A 
ATOM     42  N   UNL A   1      39.935  30.868  32.209  1.00  0.00    -0.354 N 
ATOM     43  C   UNL A   1      40.963  28.247  28.927  1.00  0.00     0.074 A 
ATOM     44  C   UNL A   1      40.058  28.430  27.811  1.00  0.00     0.031 C 
ATOM     45  C   UNL A   1      38.703  32.382  33.300  1.00  0.00     0.029 A 
ATOM     46  C   UNL A   1      39.848  31.486  33.434  1.00  0.00     0.049 A 
ATOM     47  H   UNL A   1      40.656  30.241  31.969  1.00  0.00     0.167 HD
ATOM     48  C   UNL A   1      42.009  27.388  28.930  1.00  0.00     0.034 A 
ATOM     49  C   UNL A   1      40.591  31.327  34.547  1.00  0.00     0.034 A 
ATOM     50  C   UNL A   1      42.930  27.241  30.025  1.00  0.00     0.049 A 
ATOM     51  C   UNL A   1      41.745  30.361  34.525  1.00  0.00     0.074 A 
ATOM     52  C   UNL A   1      44.048  26.429  30.106  1.00  0.00     0.029 A 
ATOM     53  N   UNL A   1      42.841  27.921  31.231  1.00  0.00    -0.354 N 
ATOM     54  N   UNL A   1      42.181  29.619  33.537  1.00  0.00    -0.248 NA
ATOM     55  C   UNL A   1      42.524  30.228  35.765  1.00  0.00     0.031 C 
ATOM     56  C   UNL A   1      44.629  26.611  31.367  1.00  0.00     0.029 A 
ATOM     57  C   UNL A   1      43.879  27.544  32.065  1.00  0.00     0.049 A 
ATOM     58  H   UNL A   1      42.142  28.575  31.460  1.00  0.00     0.167 HD
ATOM     59  C   UNL A   1      43.297  28.949  34.024  1.00  0.00     0.074 A 
ATOM     60  C   UNL A   1      43.486  29.393  35.390  1.00  0.00     0.031 C 
ATOM     61  C   UNL A   1      44.083  28.034  33.404  1.00  0.00     0.034 A 
BRANCH  48  62
ATOM     62  C   UNL A   1      42.233  26.559  27.695  1.00  0.00     0.023 A 
ATOM     63  C   UNL A   1      42.864  27.138  26.576  1.00  0.00     0.012 A 
ATOM     64  C   UNL A   1      41.867  25.199  27.658  1.00  0.00     0.148 A 
ATOM     65  C   UNL A   1      43.104  26.382  25.428  1.00  0.00     0.002 A 
ATOM     66  C   UNL A   1      42.141  24.444  26.523  1.00  0.00     0.091 A 
ATOM     67  F   UNL A   1      41.242  24.675  28.722  1.00  0.00    -0.205 F 
ATOM     68  C   UNL A   1      42.751  25.035  25.405  1.00  0.00     0.022 A 
BRANCH  66  69
ATOM     69  S   UNL A   1      41.781  22.686  26.430  1.00  0.00     0.127 S 
ATOM     70  O   UNL A   1      40.320  22.682  26.455  1.00  0.00    -0.237 OA
ATOM     71  O   UNL A   1      42.369  22.315  25.142  1.00  0.00    -0.237 OA
ATOM     72  O   UNL A   1      42.435  22.086  27.584  1.00  0.00    -0.744 OA
ENDBRANCH  66  69
ENDBRANCH  48  62
BRANCH  49  73
ATOM     73  C   UNL A   1      40.282  32.131  35.761  1.00  0.00     0.023 A 
ATOM     74  C   UNL A   1      41.076  33.252  36.069  1.00  0.00     0.012 A 
ATOM     75  C   UNL A   1      39.181  31.822  36.585  1.00  0.00     0.148 A 
ATOM     76  C   UNL A   1      40.791  34.040  37.186  1.00  0.00     0.002 A 
ATOM     77  C   UNL A   1      38.870  32.642  37.664  1.00  0.00     0.091 A 
ATOM     78  F   UNL A   1      38.451  30.737  36.290  1.00  0.00    -0.205 F 
ATOM     79  C   UNL A   1      39.682  33.743  37.974  1.00  0.00     0.022 A 
BRANCH  77  80
ATOM     80  S   UNL A   1      37.385  32.407  38.647  1.00  0.00     0.127 S 
ATOM     81  O   UNL A   1      37.409  30.967  38.887  1.00  0.00    -0.237 OA
ATOM     82  O   UNL A   1      37.661  33.233  39.823  1.00  0.00    -0.237 OA
ATOM     83  O   UNL A   1      36.290  32.896  37.818  1.00  0.00    -0.744 OA
ENDBRANCH  77  80
ENDBRANCH  49  73
BRANCH  61  84
ATOM     84  C   UNL A   1      45.232  27.460  34.189  1.00  0.00     0.023 A 
ATOM     85  C   UNL A   1      46.402  28.225  34.364  1.00  0.00     0.012 A 
ATOM     86  C   UNL A   1      45.126  26.202  34.814  1.00  0.00     0.148 A 
ATOM     87  C   UNL A   1      47.459  27.736  35.132  1.00  0.00     0.002 A 
ATOM     88  C   UNL A   1      46.169  25.739  35.611  1.00  0.00     0.091 A 
ATOM     89  F   UNL A   1      44.014  25.479  34.616  1.00  0.00    -0.205 F 
ATOM     90  C   UNL A   1      47.338  26.501  35.763  1.00  0.00     0.022 A 
BRANCH  88  91
ATOM     91  S   UNL A   1      46.057  24.200  36.531  1.00  0.00     0.127 S 
ATOM     92  O   UNL A   1      47.349  24.167  37.216  1.00  0.00    -0.237 OA
ATOM     93  O   UNL A   1      44.909  24.439  37.406  1.00  0.00    -0.237 OA
ATOM     94  O   UNL A   1      45.844  23.158  35.535  1.00  0.00    -0.744 OA
ENDBRANCH  88  91
ENDBRANCH  61  84
ENDBRANCH  35  36
ENDBRANCH  28  30
ENDBRANCH  27  28
ENDBRANCH  26  27
ENDBRANCH   1  26
TORSDOF 19
ENDMDL
MODEL 2
REMARK VINA RESULT:     -11.0      5.217     10.379
REMARK SMILES CC[C@H](C)Nc1ncnc(N2CCC(C(=O)OCCOC(=O)c3ccc(-c4c5nc(c(-c6cccc(S(=O)(=O)[O-])c6F)c6ccc([nH]6)c(-c6cccc(S(=O)(=O)[O-])c6F)c6nc(c(-c7cccc(S(=O)(=O)[O-])c7F)c7ccc4[nH]7)C=C6)C=C5)cc3)CC2)c1[N+](=O)[O-]
REMARK SMILES IDX 18 1 17 2 15 3 16 4 14 5 11 6 12 7 87 8 13 9 86 10 10 11
REMARK SMILES IDX 6 12 7 13 88 14 8 15 9 16 5 17 3 19 4 20 2 21 1 22 89 23
REMARK SMILES IDX 90 24 91 25 19 26 20 27 21 28 22 29 23 30 24 31 85 32 25 33
REMARK SMILES IDX 84 34 26 35 27 36 28 37 78 38 29 39 83 40 77 41 79 42 30 43
REMARK SMILES IDX 82 44 76 45 75 46 31 48 63 49 43 50 62 51 44 52 47 53 61 54
REMARK SMILES IDX 80 55 45 56 46 57 60 59 81 60 48 61 32 62 33 63 41 64 34 65
REMARK SMILES IDX 36 66 42 67 35 68 37 69 38 70 39 71 40 72 64 73 65 74 73 75
REMARK SMILES IDX 66 76 68 77 74 78 67 79 69 80 70 81 71 82 72 83 49 84 50 85
REMARK SMILES IDX 58 86 51 87 53 88 59 89 52 90 54 91 55 92 56 93 57 94
REMARK H PARENT 5 18 79 47 47 58
REMARK Flexibility Score: inf
ROOT
ATOM      1  C   UNL A   1      36.117  19.478  24.932  1.00  0.00     0.274 C 
ENDROOT
BRANCH   1   2
ATOM      2  O   UNL A   1      35.033  20.308  25.386  1.00  0.00    -0.462 OA
BRANCH   2   3
ATOM      3  C   UNL A   1      33.932  20.327  24.593  1.00  0.00     0.309 C 
ATOM      4  O   UNL A   1      33.205  19.364  24.381  1.00  0.00    -0.252 OA
BRANCH   3   5
ATOM      5  C   UNL A   1      33.676  21.674  23.958  1.00  0.00     0.103 C 
ATOM      6  N   UNL A   1      32.856  24.374  23.656  1.00  0.00    -0.351 N 
ATOM      7  C   UNL A   1      32.104  23.342  22.949  1.00  0.00     0.119 C 
ATOM      8  C   UNL A   1      34.237  24.102  24.045  1.00  0.00     0.119 C 
ATOM      9  C   UNL A   1      32.208  22.007  23.678  1.00  0.00     0.037 C 
ATOM     10  C   UNL A   1      34.317  22.777  24.793  1.00  0.00     0.037 C 
BRANCH   6  11
ATOM     11  C   UNL A   1      32.189  25.479  24.138  1.00  0.00     0.213 A 
ATOM     12  C   UNL A   1      31.249  27.681  23.954  1.00  0.00     0.211 A 
ATOM     13  N   UNL A   1      30.946  27.653  25.266  1.00  0.00    -0.213 NA
ATOM     14  C   UNL A   1      31.899  26.603  23.376  1.00  0.00     0.353 A 
ATOM     15  C   UNL A   1      31.233  26.527  25.937  1.00  0.00     0.227 A 
ATOM     16  N   UNL A   1      31.816  25.434  25.433  1.00  0.00    -0.212 NA
BRANCH  12  17
ATOM     17  N   UNL A   1      30.840  28.851  23.347  1.00  0.00    -0.362 N 
ATOM     18  H   UNL A   1      31.305  29.685  23.581  1.00  0.00     0.162 HD
BRANCH  17  19
ATOM     19  C   UNL A   1      29.749  28.912  22.374  1.00  0.00     0.077 C 
ATOM     20  C   UNL A   1      28.432  28.586  23.079  1.00  0.00     0.031 C 
BRANCH  19  21
ATOM     21  C   UNL A   1      29.763  30.276  21.658  1.00  0.00     0.021 C 
ATOM     22  C   UNL A   1      28.468  31.072  21.710  1.00  0.00     0.006 C 
ENDBRANCH  19  21
ENDBRANCH  17  19
ENDBRANCH  12  17
BRANCH  14  23
ATOM     23  N   UNL A   1      32.281  26.621  22.002  1.00  0.00     0.070 N 
ATOM     24  O   UNL A   1      31.412  26.348  21.161  1.00  0.00    -0.258 OA
ATOM     25  O   UNL A   1      33.460  26.908  21.744  1.00  0.00    -0.258 OA
ENDBRANCH  14  23
ENDBRANCH   6  11
ENDBRANCH   3   5
ENDBRANCH   2   3
ENDBRANCH   1   2
BRANCH   1  26
ATOM     26  C   UNL A   1      37.339  20.321  24.557  1.00  0.00     0.275 C 
BRANCH  26  27
ATOM     27  O   UNL A   1      37.771  21.154  25.647  1.00  0.00    -0.458 OA
BRANCH  27  28
ATOM     28  C   UNL A   1      39.013  20.890  26.117  1.00  0.00     0.338 C 
ATOM     29  O   UNL A   1      39.621  19.836  26.044  1.00  0.00    -0.246 OA
BRANCH  28  30
ATOM     30  C   UNL A   1      39.618  22.120  26.651  1.00  0.00     0.060 A 
ATOM     31  C   UNL A   1      39.191  23.342  26.128  1.00  0.00     0.016 A 
ATOM     32  C   UNL A   1      40.660  22.071  27.577  1.00  0.00     0.016 A 
ATOM     33  C   UNL A   1      39.800  24.528  26.525  1.00  0.00     0.010 A 
ATOM     34  C   UNL A   1      41.271  23.264  27.979  1.00  0.00     0.010 A 
ATOM     35  C   UNL A   1      40.854  24.498  27.446  1.00  0.00    -0.014 A 
BRANCH  35  36
ATOM     36  C   UNL A   1      41.544  25.755  27.819  1.00  0.00     0.031 A 
ATOM     37  C   UNL A   1      40.805  26.821  28.575  1.00  0.00     0.074 A 
ATOM     38  C   UNL A   1      42.831  25.939  27.469  1.00  0.00     0.049 A 
ATOM     39  N   UNL A   1      41.204  28.017  28.917  1.00  0.00    -0.248 NA
ATOM     40  C   UNL A   1      39.431  26.499  28.999  1.00  0.00     0.031 C 
ATOM     41  C   UNL A   1      43.655  24.970  26.747  1.00  0.00     0.029 A 
ATOM     42  N   UNL A   1      43.663  27.013  27.656  1.00  0.00    -0.354 N 
ATOM     43  C   UNL A   1      40.122  28.609  29.557  1.00  0.00     0.074 A 
ATOM     44  C   UNL A   1      39.049  27.638  29.558  1.00  0.00     0.031 C 
ATOM     45  C   UNL A   1      44.869  25.502  26.533  1.00  0.00     0.029 A 
ATOM     46  C   UNL A   1      44.897  26.860  27.069  1.00  0.00     0.049 A 
ATOM     47  H   UNL A   1      43.401  27.817  28.162  1.00  0.00     0.167 HD
ATOM     48  C   UNL A   1      40.036  29.845  30.103  1.00  0.00     0.034 A 
ATOM     49  C   UNL A   1      45.923  27.725  26.952  1.00  0.00     0.034 A 
ATOM     50  C   UNL A   1      41.119  30.791  30.137  1.00  0.00     0.049 A 
ATOM     51  C   UNL A   1      45.798  29.094  27.564  1.00  0.00     0.074 A 
ATOM     52  C   UNL A   1      41.144  32.051  30.708  1.00  0.00     0.029 A 
ATOM     53  N   UNL A   1      42.371  30.581  29.576  1.00  0.00    -0.354 N 
ATOM     54  N   UNL A   1      44.803  29.606  28.247  1.00  0.00    -0.248 NA
ATOM     55  C   UNL A   1      46.948  29.999  27.410  1.00  0.00     0.031 C 
ATOM     56  C   UNL A   1      42.408  32.609  30.482  1.00  0.00     0.029 A 
ATOM     57  C   UNL A   1      43.173  31.690  29.782  1.00  0.00     0.049 A 
ATOM     58  H   UNL A   1      42.647  29.765  29.102  1.00  0.00     0.167 HD
ATOM     59  C   UNL A   1      45.211  30.879  28.625  1.00  0.00     0.074 A 
ATOM     60  C   UNL A   1      46.557  31.053  28.116  1.00  0.00     0.031 C 
ATOM     61  C   UNL A   1      44.529  31.827  29.313  1.00  0.00     0.034 A 
BRANCH  48  62
ATOM     62  C   UNL A   1      38.730  30.235  30.741  1.00  0.00     0.023 A 
ATOM     63  C   UNL A   1      38.494  29.914  32.092  1.00  0.00     0.012 A 
ATOM     64  C   UNL A   1      37.760  30.960  30.020  1.00  0.00     0.148 A 
ATOM     65  C   UNL A   1      37.300  30.286  32.711  1.00  0.00     0.002 A 
ATOM     66  C   UNL A   1      36.588  31.358  30.654  1.00  0.00     0.091 A 
ATOM     67  F   UNL A   1      37.992  31.230  28.728  1.00  0.00    -0.205 F 
ATOM     68  C   UNL A   1      36.353  31.014  31.995  1.00  0.00     0.022 A 
BRANCH  66  69
ATOM     69  S   UNL A   1      35.342  32.355  29.830  1.00  0.00     0.127 S 
ATOM     70  O   UNL A   1      34.923  31.468  28.745  1.00  0.00    -0.237 OA
ATOM     71  O   UNL A   1      34.343  32.541  30.884  1.00  0.00    -0.237 OA
ATOM     72  O   UNL A   1      36.019  33.578  29.421  1.00  0.00    -0.744 OA
ENDBRANCH  66  69
ENDBRANCH  48  62
BRANCH  49  73
ATOM     73  C   UNL A   1      47.169  27.303  26.255  1.00  0.00     0.023 A 
ATOM     74  C   UNL A   1      47.367  27.668  24.910  1.00  0.00     0.012 A 
ATOM     75  C   UNL A   1      48.178  26.585  26.929  1.00  0.00     0.148 A 
ATOM     76  C   UNL A   1      48.540  27.309  24.243  1.00  0.00     0.002 A 
ATOM     77  C   UNL A   1      49.365  26.278  26.274  1.00  0.00     0.091 A 
ATOM     78  F   UNL A   1      47.960  26.225  28.202  1.00  0.00    -0.205 F 
ATOM     79  C   UNL A   1      49.542  26.628  24.927  1.00  0.00     0.022 A 
BRANCH  77  80
ATOM     80  S   UNL A   1      50.757  25.522  27.122  1.00  0.00     0.127 S 
ATOM     81  O   UNL A   1      51.108  26.551  28.098  1.00  0.00    -0.237 OA
ATOM     82  O   UNL A   1      50.153  24.316  27.689  1.00  0.00    -0.237 OA
ATOM     83  O   UNL A   1      51.748  25.263  26.085  1.00  0.00    -0.744 OA
ENDBRANCH  77  80
ENDBRANCH  49  73
BRANCH  61  84
ATOM     84  C   UNL A   1      45.227  33.135  29.574  1.00  0.00     0.023 A 
ATOM     85  C   UNL A   1      45.938  33.312  30.777  1.00  0.00     0.012 A 
ATOM     86  C   UNL A   1      45.244  34.154  28.602  1.00  0.00     0.148 A 
ATOM     87  C   UNL A   1      46.637  34.495  31.018  1.00  0.00     0.002 A 
ATOM     88  C   UNL A   1      45.977  35.314  28.833  1.00  0.00     0.091 A 
ATOM     89  F   UNL A   1      44.542  33.976  27.473  1.00  0.00    -0.205 F 
ATOM     90  C   UNL A   1      46.666  35.489  30.043  1.00  0.00     0.022 A 
BRANCH  88  91
ATOM     91  S   UNL A   1      46.138  36.604  27.593  1.00  0.00     0.127 S 
ATOM     92  O   UNL A   1      44.778  37.137  27.537  1.00  0.00    -0.237 OA
ATOM     93  O   UNL A   1      47.120  37.503  28.201  1.00  0.00    -0.237 OA
ATOM     94  O   UNL A   1      46.605  35.936  26.385  1.00  0.00    -0.744 OA
ENDBRANCH  88  91
ENDBRANCH  61  84
ENDBRANCH  35  36
ENDBRANCH  28  30
ENDBRANCH  27  28
ENDBRANCH  26  27
ENDBRANCH   1  26
TORSDOF 19
ENDMDL
MODEL 3
REMARK VINA RESULT:     -10.9      2.128      2.920
REMARK SMILES CC[C@H](C)Nc1ncnc(N2CCC(C(=O)OCCOC(=O)c3ccc(-c4c5nc(c(-c6cccc(S(=O)(=O)[O-])c6F)c6ccc([nH]6)c(-c6cccc(S(=O)(=O)[O-])c6F)c6nc(c(-c7cccc(S(=O)(=O)[O-])c7F)c7ccc4[nH]7)C=C6)C=C5)cc3)CC2)c1[N+](=O)[O-]
REMARK SMILES IDX 18 1 17 2 15 3 16 4 14 5 11 6 12 7 87 8 13 9 86 10 10 11
REMARK SMILES IDX 6 12 7 13 88 14 8 15 9 16 5 17 3 19 4 20 2 21 1 22 89 23
REMARK SMILES IDX 90 24 91 25 19 26 20 27 21 28 22 29 23 30 24 31 85 32 25 33
REMARK SMILES IDX 84 34 26 35 27 36 28 37 78 38 29 39 83 40 77 41 79 42 30 43
REMARK SMILES IDX 82 44 76 45 75 46 31 48 63 49 43 50 62 51 44 52 47 53 61 54
REMARK SMILES IDX 80 55 45 56 46 57 60 59 81 60 48 61 32 62 33 63 41 64 34 65
REMARK SMILES IDX 36 66 42 67 35 68 37 69 38 70 39 71 40 72 64 73 65 74 73 75
REMARK SMILES IDX 66 76 68 77 74 78 67 79 69 80 70 81 71 82 72 83 49 84 50 85
REMARK SMILES IDX 58 86 51 87 53 88 59 89 52 90 54 91 55 92 56 93 57 94
REMARK H PARENT 5 18 79 47 47 58
REMARK Flexibility Score: inf
ROOT
ATOM      1  C   UNL A   1      32.964  31.214  27.239  1.00  0.00     0.274 C 
ENDROOT
BRANCH   1   2
ATOM      2  O   UNL A   1      31.990  30.160  27.143  1.00  0.00    -0.462 OA
BRANCH   2   3
ATOM      3  C   UNL A   1      31.917  29.532  25.942  1.00  0.00     0.309 C 
ATOM      4  O   UNL A   1      31.958  30.095  24.854  1.00  0.00    -0.252 OA
BRANCH   3   5
ATOM      5  C   UNL A   1      31.760  28.034  26.060  1.00  0.00     0.103 C 
ATOM      6  N   UNL A   1      31.916  25.272  25.426  1.00  0.00    -0.351 N 
ATOM      7  C   UNL A   1      30.602  25.909  25.416  1.00  0.00     0.119 C 
ATOM      8  C   UNL A   1      32.984  25.868  26.223  1.00  0.00     0.119 C 
ATOM      9  C   UNL A   1      30.731  27.399  25.121  1.00  0.00     0.037 C 
ATOM     10  C   UNL A   1      33.114  27.351  25.897  1.00  0.00     0.037 C 
BRANCH   6  11
ATOM     11  C   UNL A   1      32.182  24.270  24.520  1.00  0.00     0.213 A 
ATOM     12  C   UNL A   1      32.345  21.976  23.826  1.00  0.00     0.211 A 
ATOM     13  N   UNL A   1      32.858  22.377  22.647  1.00  0.00    -0.213 NA
ATOM     14  C   UNL A   1      32.023  22.916  24.791  1.00  0.00     0.353 A 
ATOM     15  C   UNL A   1      32.962  23.700  22.443  1.00  0.00     0.227 A 
ATOM     16  N   UNL A   1      32.629  24.662  23.310  1.00  0.00    -0.212 NA
BRANCH  12  17
ATOM     17  N   UNL A   1      32.209  20.605  23.899  1.00  0.00    -0.362 N 
ATOM     18  H   UNL A   1      31.567  20.168  23.294  1.00  0.00     0.162 HD
BRANCH  17  19
ATOM     19  C   UNL A   1      32.968  19.770  24.829  1.00  0.00     0.077 C 
ATOM     20  C   UNL A   1      32.580  18.306  24.616  1.00  0.00     0.031 C 
BRANCH  19  21
ATOM     21  C   UNL A   1      34.474  20.053  24.677  1.00  0.00     0.021 C 
ATOM     22  C   UNL A   1      35.122  20.852  25.798  1.00  0.00     0.006 C 
ENDBRANCH  19  21
ENDBRANCH  17  19
ENDBRANCH  12  17
BRANCH  14  23
ATOM     23  N   UNL A   1      31.528  22.524  26.069  1.00  0.00     0.070 N 
ATOM     24  O   UNL A   1      30.342  22.171  26.141  1.00  0.00    -0.258 OA
ATOM     25  O   UNL A   1      32.320  22.565  27.023  1.00  0.00    -0.258 OA
ENDBRANCH  14  23
ENDBRANCH   6  11
ENDBRANCH   3   5
ENDBRANCH   2   3
ENDBRANCH   1   2
BRANCH   1  26
ATOM     26  C   UNL A   1      32.287  32.586  27.320  1.00  0.00     0.275 C 
BRANCH  26  27
ATOM     27  O   UNL A   1      33.248  33.655  27.382  1.00  0.00    -0.458 OA
BRANCH  27  28
ATOM     28  C   UNL A   1      33.272  34.342  28.548  1.00  0.00     0.338 C 
ATOM     29  O   UNL A   1      32.452  35.152  28.944  1.00  0.00    -0.246 OA
BRANCH  28  30
ATOM     30  C   UNL A   1      34.401  33.887  29.373  1.00  0.00     0.060 A 
ATOM     31  C   UNL A   1      35.684  34.316  29.027  1.00  0.00     0.016 A 
ATOM     32  C   UNL A   1      34.216  32.973  30.411  1.00  0.00     0.016 A 
ATOM     33  C   UNL A   1      36.795  33.837  29.713  1.00  0.00     0.010 A 
ATOM     34  C   UNL A   1      35.334  32.492  31.102  1.00  0.00     0.010 A 
ATOM     35  C   UNL A   1      36.630  32.911  30.750  1.00  0.00    -0.014 A 
BRANCH  35  36
ATOM     36  C   UNL A   1      37.819  32.352  31.437  1.00  0.00     0.031 A 
ATOM     37  C   UNL A   1      38.583  31.223  30.811  1.00  0.00     0.074 A 
ATOM     38  C   UNL A   1      38.201  32.856  32.626  1.00  0.00     0.049 A 
ATOM     39  N   UNL A   1      39.592  30.544  31.290  1.00  0.00    -0.248 NA
ATOM     40  C   UNL A   1      38.154  30.796  29.468  1.00  0.00     0.031 C 
ATOM     41  C   UNL A   1      37.544  33.961  33.323  1.00  0.00     0.029 A 
ATOM     42  N   UNL A   1      39.221  32.488  33.465  1.00  0.00    -0.354 N 
ATOM     43  C   UNL A   1      39.893  29.583  30.333  1.00  0.00     0.074 A 
ATOM     44  C   UNL A   1      38.960  29.769  29.241  1.00  0.00     0.031 C 
ATOM     45  C   UNL A   1      38.164  34.168  34.496  1.00  0.00     0.029 A 
ATOM     46  C   UNL A   1      39.237  33.189  34.648  1.00  0.00     0.049 A 
ATOM     47  H   UNL A   1      39.878  31.788  33.242  1.00  0.00     0.167 HD
ATOM     48  C   UNL A   1      40.864  28.641  30.356  1.00  0.00     0.034 A 
ATOM     49  C   UNL A   1      40.010  33.040  35.741  1.00  0.00     0.034 A 
ATOM     50  C   UNL A   1      41.816  28.489  31.424  1.00  0.00     0.049 A 
ATOM     51  C   UNL A   1      41.080  31.981  35.743  1.00  0.00     0.074 A 
ATOM     52  C   UNL A   1      42.867  27.592  31.519  1.00  0.00     0.029 A 
ATOM     53  N   UNL A   1      41.833  29.249  32.584  1.00  0.00    -0.354 N 
ATOM     54  N   UNL A   1      41.411  31.142  34.792  1.00  0.00    -0.248 NA
ATOM     55  C   UNL A   1      41.897  31.863  36.960  1.00  0.00     0.031 C 
ATOM     56  C   UNL A   1      43.513  27.805  32.743  1.00  0.00     0.029 A 
ATOM     57  C   UNL A   1      42.871  28.841  33.403  1.00  0.00     0.049 A 
ATOM     58  H   UNL A   1      41.201  29.973  32.794  1.00  0.00     0.167 HD
ATOM     59  C   UNL A   1      42.489  30.414  35.282  1.00  0.00     0.074 A 
ATOM     60  C   UNL A   1      42.770  30.928  36.607  1.00  0.00     0.031 C 
ATOM     61  C   UNL A   1      43.171  29.398  34.698  1.00  0.00     0.034 A 
BRANCH  48  62
ATOM     62  C   UNL A   1      40.969  27.718  29.173  1.00  0.00     0.023 A 
ATOM     63  C   UNL A   1      40.185  26.548  29.134  1.00  0.00     0.012 A 
ATOM     64  C   UNL A   1      41.801  28.032  28.080  1.00  0.00     0.148 A 
ATOM     65  C   UNL A   1      40.248  25.689  28.036  1.00  0.00     0.002 A 
ATOM     66  C   UNL A   1      41.831  27.189  26.974  1.00  0.00     0.091 A 
ATOM     67  F   UNL A   1      42.559  29.136  28.149  1.00  0.00    -0.205 F 
ATOM     68  C   UNL A   1      41.063  26.014  26.955  1.00  0.00     0.022 A 
BRANCH  66  69
ATOM     69  S   UNL A   1      42.801  27.563  25.509  1.00  0.00     0.127 S 
ATOM     70  O   UNL A   1      44.159  27.587  26.051  1.00  0.00    -0.237 OA
ATOM     71  O   UNL A   1      42.511  26.419  24.643  1.00  0.00    -0.237 OA
ATOM     72  O   UNL A   1      42.296  28.835  25.013  1.00  0.00    -0.744 OA
ENDBRANCH  66  69
ENDBRANCH  48  62
BRANCH  49  73
ATOM     73  C   UNL A   1      39.819  33.944  36.909  1.00  0.00     0.023 A 
ATOM     74  C   UNL A   1      40.197  35.296  36.806  1.00  0.00     0.012 A 
ATOM     75  C   UNL A   1      39.224  33.486  38.101  1.00  0.00     0.148 A 
ATOM     76  C   UNL A   1      40.002  36.172  37.876  1.00  0.00     0.002 A 
ATOM     77  C   UNL A   1      38.984  34.375  39.142  1.00  0.00     0.091 A 
ATOM     78  F   UNL A   1      38.894  32.189  38.190  1.00  0.00    -0.205 F 
ATOM     79  C   UNL A   1      39.384  35.715  39.036  1.00  0.00     0.022 A 
BRANCH  77  80
ATOM     80  S   UNL A   1      38.074  33.898  40.617  1.00  0.00     0.127 S 
ATOM     81  O   UNL A   1      39.011  32.984  41.265  1.00  0.00    -0.237 OA
ATOM     82  O   UNL A   1      37.896  35.182  41.296  1.00  0.00    -0.237 OA
ATOM     83  O   UNL A   1      36.835  33.303  40.132  1.00  0.00    -0.744 OA
ENDBRANCH  77  80
ENDBRANCH  49  73
BRANCH  61  84
ATOM     84  C   UNL A   1      44.301  28.781  35.477  1.00  0.00     0.023 A 
ATOM     85  C   UNL A   1      45.610  29.274  35.307  1.00  0.00     0.012 A 
ATOM     86  C   UNL A   1      44.059  27.771  36.429  1.00  0.00     0.148 A 
ATOM     87  C   UNL A   1      46.665  28.755  36.056  1.00  0.00     0.002 A 
ATOM     88  C   UNL A   1      45.110  27.287  37.201  1.00  0.00     0.091 A 
ATOM     89  F   UNL A   1      42.811  27.298  36.559  1.00  0.00    -0.205 F 
ATOM     90  C   UNL A   1      46.414  27.771  37.010  1.00  0.00     0.022 A 
BRANCH  88  91
ATOM     91  S   UNL A   1      44.857  26.084  38.512  1.00  0.00     0.127 S 
ATOM     92  O   UNL A   1      44.347  24.934  37.767  1.00  0.00    -0.237 OA
ATOM     93  O   UNL A   1      46.208  25.913  39.047  1.00  0.00    -0.237 OA
ATOM     94  O   UNL A   1      43.919  26.702  39.440  1.00  0.00    -0.744 OA
ENDBRANCH  88  91
ENDBRANCH  61  84
ENDBRANCH  35  36
ENDBRANCH  28  30
ENDBRANCH  27  28
ENDBRANCH  26  27
ENDBRANCH   1  26
TORSDOF 19
ENDMDL
