MODEL 1
REMARK VINA RESULT:     -12.0      0.000      0.000
REMARK SMILES O=C(OCCOC(=O)c1ccc(-c2c3nc(c(-c4cccc(S(=O)(=O)[O-])c4F)c4ccc([nH]4)c(-c4cccc(S(=O)(=O)[O-])c4F)c4nc(c(-c5cccc(S(=O)(=O)[O-])c5F)c5ccc2[nH]5)C=C4)C=C3)cc1)C1=Cc2c(cc(Cl)c(Cl)c2Cl)O[C@H]1C(F)(F)F
REMARK SMILES IDX 5 1 4 2 3 3 2 4 1 5 72 6 73 7 84 8 74 9 83 10 75 11 81 12
REMARK SMILES IDX 76 13 79 14 82 15 77 16 80 17 78 18 85 19 86 20 87 21 88 22
REMARK SMILES IDX 6 23 7 24 8 25 9 26 10 27 71 28 11 29 70 30 12 31 13 32
REMARK SMILES IDX 14 33 64 34 15 35 69 36 63 37 65 38 16 39 68 40 62 41 61 42
REMARK SMILES IDX 17 44 49 45 29 46 48 47 30 48 33 49 47 50 66 51 31 52 32 53
REMARK SMILES IDX 46 55 67 56 34 57 18 58 19 59 27 60 20 61 22 62 28 63 21 64
REMARK SMILES IDX 23 65 24 66 25 67 26 68 50 69 51 70 59 71 52 72 54 73 60 74
REMARK SMILES IDX 53 75 55 76 56 77 57 78 58 79 35 80 36 81 44 82 37 83 39 84
REMARK SMILES IDX 45 85 38 86 40 87 41 88 42 89 43 90
REMARK H PARENT 65 43 33 54
REMARK Flexibility Score: inf
ROOT
ATOM      1  C   UNL A   1      38.084  19.903  25.141  1.00  0.00     0.275 C 
ENDROOT
BRANCH   1   2
ATOM      2  C   UNL A   1      36.609  20.302  25.002  1.00  0.00     0.275 C 
BRANCH   2   3
ATOM      3  O   UNL A   1      36.310  21.648  25.429  1.00  0.00    -0.459 OA
BRANCH   3   4
ATOM      4  C   UNL A   1      35.823  22.682  24.711  1.00  0.00     0.338 C 
ATOM      5  O   UNL A   1      36.612  23.492  24.230  1.00  0.00    -0.246 OA
BRANCH   4   6
ATOM      6  C   UNL A   1      34.373  22.878  24.456  1.00  0.00     0.087 C 
ATOM      7  C   UNL A   1      33.826  23.782  23.621  1.00  0.00     0.029 C 
ATOM      8  C   UNL A   1      33.501  22.274  25.550  1.00  0.00     0.316 C 
ATOM      9  C   UNL A   1      33.142  24.853  24.392  1.00  0.00     0.038 A 
ATOM     10  O   UNL A   1      32.439  23.176  25.995  1.00  0.00    -0.475 OA
ATOM     11  C   UNL A   1      32.554  24.487  25.607  1.00  0.00     0.131 A 
ATOM     12  C   UNL A   1      33.137  26.203  23.993  1.00  0.00     0.072 A 
ATOM     13  C   UNL A   1      32.033  25.456  26.454  1.00  0.00     0.069 A 
ATOM     14  C   UNL A   1      32.687  27.193  24.881  1.00  0.00     0.079 A 
ATOM     15  Cl  UNL A   1      33.653  26.639  22.394  1.00  0.00    -0.082 Cl
ATOM     16  C   UNL A   1      32.141  26.808  26.114  1.00  0.00     0.064 A 
ATOM     17  Cl  UNL A   1      32.848  28.877  24.476  1.00  0.00    -0.081 Cl
ATOM     18  Cl  UNL A   1      31.578  27.964  27.272  1.00  0.00    -0.083 Cl
BRANCH   8  19
ATOM     19  C   UNL A   1      32.926  20.923  25.097  1.00  0.00     0.430 C 
ATOM     20  F   UNL A   1      33.381  20.561  23.878  1.00  0.00    -0.167 F 
ATOM     21  F   UNL A   1      33.250  19.936  25.963  1.00  0.00    -0.167 F 
ATOM     22  F   UNL A   1      31.572  20.974  25.022  1.00  0.00    -0.167 F 
ENDBRANCH   8  19
ENDBRANCH   4   6
ENDBRANCH   3   4
ENDBRANCH   2   3
ENDBRANCH   1   2
BRANCH   1  23
ATOM     23  O   UNL A   1      38.935  21.038  25.288  1.00  0.00    -0.458 OA
BRANCH  23  24
ATOM     24  C   UNL A   1      39.832  20.885  26.290  1.00  0.00     0.338 C 
ATOM     25  O   UNL A   1      40.441  19.860  26.564  1.00  0.00    -0.246 OA
BRANCH  24  26
ATOM     26  C   UNL A   1      40.100  22.194  26.905  1.00  0.00     0.060 A 
ATOM     27  C   UNL A   1      39.290  23.255  26.497  1.00  0.00     0.016 A 
ATOM     28  C   UNL A   1      41.144  22.395  27.818  1.00  0.00     0.016 A 
ATOM     29  C   UNL A   1      39.619  24.546  26.871  1.00  0.00     0.010 A 
ATOM     30  C   UNL A   1      41.452  23.692  28.226  1.00  0.00     0.010 A 
ATOM     31  C   UNL A   1      40.751  24.772  27.666  1.00  0.00    -0.014 A 
BRANCH  31  32
ATOM     32  C   UNL A   1      41.334  26.130  27.643  1.00  0.00     0.031 A 
ATOM     33  C   UNL A   1      40.631  27.216  28.416  1.00  0.00     0.074 A 
ATOM     34  C   UNL A   1      42.529  26.344  27.069  1.00  0.00     0.049 A 
ATOM     35  N   UNL A   1      41.049  28.413  28.728  1.00  0.00    -0.248 NA
ATOM     36  C   UNL A   1      39.277  26.912  28.914  1.00  0.00     0.031 C 
ATOM     37  C   UNL A   1      43.288  25.355  26.306  1.00  0.00     0.029 A 
ATOM     38  N   UNL A   1      43.323  27.460  27.064  1.00  0.00    -0.354 N 
ATOM     39  C   UNL A   1      40.009  29.004  29.435  1.00  0.00     0.074 A 
ATOM     40  C   UNL A   1      38.923  28.055  29.476  1.00  0.00     0.031 C 
ATOM     41  C   UNL A   1      44.454  25.904  25.921  1.00  0.00     0.029 A 
ATOM     42  C   UNL A   1      44.513  27.281  26.404  1.00  0.00     0.049 A 
ATOM     43  H   UNL A   1      43.065  28.307  27.493  1.00  0.00     0.167 HD
ATOM     44  C   UNL A   1      39.966  30.223  30.022  1.00  0.00     0.034 A 
ATOM     45  C   UNL A   1      45.538  28.136  26.228  1.00  0.00     0.034 A 
ATOM     46  C   UNL A   1      41.057  31.153  29.982  1.00  0.00     0.049 A 
ATOM     47  C   UNL A   1      45.464  29.491  26.883  1.00  0.00     0.074 A 
ATOM     48  C   UNL A   1      41.149  32.401  30.566  1.00  0.00     0.029 A 
ATOM     49  N   UNL A   1      42.245  30.936  29.299  1.00  0.00    -0.354 N 
ATOM     50  N   UNL A   1      44.522  29.993  27.648  1.00  0.00    -0.248 NA
ATOM     51  C   UNL A   1      46.617  30.382  26.690  1.00  0.00     0.031 C 
ATOM     52  C   UNL A   1      42.375  32.963  30.192  1.00  0.00     0.029 A 
ATOM     53  C   UNL A   1      43.071  32.036  29.430  1.00  0.00     0.049 A 
ATOM     54  H   UNL A   1      42.467  30.119  28.796  1.00  0.00     0.167 HD
ATOM     55  C   UNL A   1      44.992  31.231  28.072  1.00  0.00     0.074 A 
ATOM     56  C   UNL A   1      46.306  31.396  27.485  1.00  0.00     0.031 C 
ATOM     57  C   UNL A   1      44.396  32.149  28.873  1.00  0.00     0.034 A 
BRANCH  44  58
ATOM     58  C   UNL A   1      38.695  30.609  30.732  1.00  0.00     0.023 A 
ATOM     59  C   UNL A   1      38.510  30.281  32.092  1.00  0.00     0.012 A 
ATOM     60  C   UNL A   1      37.676  31.297  30.046  1.00  0.00     0.148 A 
ATOM     61  C   UNL A   1      37.313  30.585  32.741  1.00  0.00     0.002 A 
ATOM     62  C   UNL A   1      36.508  31.643  30.712  1.00  0.00     0.091 A 
ATOM     63  F   UNL A   1      37.858  31.578  28.748  1.00  0.00    -0.205 F 
ATOM     64  C   UNL A   1      36.317  31.272  32.053  1.00  0.00     0.022 A 
BRANCH  62  65
ATOM     65  S   UNL A   1      35.198  32.593  29.935  1.00  0.00     0.127 S 
ATOM     66  O   UNL A   1      34.746  31.673  28.891  1.00  0.00    -0.237 OA
ATOM     67  O   UNL A   1      34.254  32.770  31.039  1.00  0.00    -0.237 OA
ATOM     68  O   UNL A   1      35.816  33.821  29.460  1.00  0.00    -0.744 OA
ENDBRANCH  62  65
ENDBRANCH  44  58
BRANCH  45  69
ATOM     69  C   UNL A   1      46.744  27.716  25.460  1.00  0.00     0.023 A 
ATOM     70  C   UNL A   1      46.778  27.881  24.062  1.00  0.00     0.012 A 
ATOM     71  C   UNL A   1      47.857  27.153  26.113  1.00  0.00     0.148 A 
ATOM     72  C   UNL A   1      47.882  27.453  23.323  1.00  0.00     0.002 A 
ATOM     73  C   UNL A   1      48.974  26.776  25.377  1.00  0.00     0.091 A 
ATOM     74  F   UNL A   1      47.803  27.003  27.444  1.00  0.00    -0.205 F 
ATOM     75  C   UNL A   1      48.981  26.907  23.980  1.00  0.00     0.022 A 
BRANCH  73  76
ATOM     76  S   UNL A   1      50.476  26.163  26.146  1.00  0.00     0.127 S 
ATOM     77  O   UNL A   1      51.340  25.952  24.986  1.00  0.00    -0.237 OA
ATOM     78  O   UNL A   1      50.856  27.287  27.001  1.00  0.00    -0.237 OA
ATOM     79  O   UNL A   1      50.090  24.958  26.868  1.00  0.00    -0.744 OA
ENDBRANCH  73  76
ENDBRANCH  45  69
BRANCH  57  80
ATOM     80  C   UNL A   1      45.183  33.383  29.224  1.00  0.00     0.023 A 
ATOM     81  C   UNL A   1      46.016  33.402  30.359  1.00  0.00     0.012 A 
ATOM     82  C   UNL A   1      45.146  34.506  28.372  1.00  0.00     0.148 A 
ATOM     83  C   UNL A   1      46.764  34.537  30.666  1.00  0.00     0.002 A 
ATOM     84  C   UNL A   1      45.942  35.608  28.650  1.00  0.00     0.091 A 
ATOM     85  F   UNL A   1      44.335  34.474  27.305  1.00  0.00    -0.205 F 
ATOM     86  C   UNL A   1      46.738  35.633  29.807  1.00  0.00     0.022 A 
BRANCH  84  87
ATOM     87  S   UNL A   1      46.056  37.010  27.535  1.00  0.00     0.127 S 
ATOM     88  O   UNL A   1      44.669  37.471  27.494  1.00  0.00    -0.237 OA
ATOM     89  O   UNL A   1      46.973  37.900  28.250  1.00  0.00    -0.237 OA
ATOM     90  O   UNL A   1      46.581  36.487  26.282  1.00  0.00    -0.744 OA
ENDBRANCH  84  87
ENDBRANCH  57  80
ENDBRANCH  31  32
ENDBRANCH  24  26
ENDBRANCH  23  24
ENDBRANCH   1  23
TORSDOF 15
ENDMDL
MODEL 2
REMARK VINA RESULT:     -11.9      5.645     10.596
REMARK SMILES O=C(OCCOC(=O)c1ccc(-c2c3nc(c(-c4cccc(S(=O)(=O)[O-])c4F)c4ccc([nH]4)c(-c4cccc(S(=O)(=O)[O-])c4F)c4nc(c(-c5cccc(S(=O)(=O)[O-])c5F)c5ccc2[nH]5)C=C4)C=C3)cc1)C1=Cc2c(cc(Cl)c(Cl)c2Cl)O[C@H]1C(F)(F)F
REMARK SMILES IDX 5 1 4 2 3 3 2 4 1 5 72 6 73 7 84 8 74 9 83 10 75 11 81 12
REMARK SMILES IDX 76 13 79 14 82 15 77 16 80 17 78 18 85 19 86 20 87 21 88 22
REMARK SMILES IDX 6 23 7 24 8 25 9 26 10 27 71 28 11 29 70 30 12 31 13 32
REMARK SMILES IDX 14 33 64 34 15 35 69 36 63 37 65 38 16 39 68 40 62 41 61 42
REMARK SMILES IDX 17 44 49 45 29 46 48 47 30 48 33 49 47 50 66 51 31 52 32 53
REMARK SMILES IDX 46 55 67 56 34 57 18 58 19 59 27 60 20 61 22 62 28 63 21 64
REMARK SMILES IDX 23 65 24 66 25 67 26 68 50 69 51 70 59 71 52 72 54 73 60 74
REMARK SMILES IDX 53 75 55 76 56 77 57 78 58 79 35 80 36 81 44 82 37 83 39 84
REMARK SMILES IDX 45 85 38 86 40 87 41 88 42 89 43 90
REMARK H PARENT 65 43 33 54
REMARK Flexibility Score: inf
ROOT
ATOM      1  C   UNL A   1      31.724  32.725  26.846  1.00  0.00     0.275 C 
ENDROOT
BRANCH   1   2
ATOM      2  C   UNL A   1      30.960  31.737  25.955  1.00  0.00     0.275 C 
BRANCH   2   3
ATOM      3  O   UNL A   1      31.463  30.384  25.992  1.00  0.00    -0.459 OA
BRANCH   3   4
ATOM      4  C   UNL A   1      31.810  29.575  24.970  1.00  0.00     0.338 C 
ATOM      5  O   UNL A   1      32.977  29.576  24.585  1.00  0.00    -0.246 OA
BRANCH   4   6
ATOM      6  C   UNL A   1      30.850  28.664  24.296  1.00  0.00     0.087 C 
ATOM      7  C   UNL A   1      30.380  27.500  24.783  1.00  0.00     0.029 C 
ATOM      8  C   UNL A   1      30.762  28.916  22.796  1.00  0.00     0.316 C 
ATOM      9  C   UNL A   1      30.949  26.354  24.028  1.00  0.00     0.038 A 
ATOM     10  O   UNL A   1      30.813  27.685  22.007  1.00  0.00    -0.475 OA
ATOM     11  C   UNL A   1      31.220  26.557  22.672  1.00  0.00     0.131 A 
ATOM     12  C   UNL A   1      31.295  25.131  24.634  1.00  0.00     0.072 A 
ATOM     13  C   UNL A   1      31.893  25.587  21.939  1.00  0.00     0.069 A 
ATOM     14  C   UNL A   1      32.047  24.185  23.921  1.00  0.00     0.079 A 
ATOM     15  Cl  UNL A   1      30.761  24.779  26.248  1.00  0.00    -0.082 Cl
ATOM     16  C   UNL A   1      32.347  24.426  22.572  1.00  0.00     0.064 A 
ATOM     17  Cl  UNL A   1      32.640  22.754  24.712  1.00  0.00    -0.081 Cl
ATOM     18  Cl  UNL A   1      33.282  23.321  21.625  1.00  0.00    -0.083 Cl
BRANCH   8  19
ATOM     19  C   UNL A   1      29.506  29.737  22.460  1.00  0.00     0.430 C 
ATOM     20  F   UNL A   1      29.660  30.460  21.329  1.00  0.00    -0.167 F 
ATOM     21  F   UNL A   1      28.429  28.939  22.290  1.00  0.00    -0.167 F 
ATOM     22  F   UNL A   1      29.217  30.609  23.458  1.00  0.00    -0.167 F 
ENDBRANCH   8  19
ENDBRANCH   4   6
ENDBRANCH   3   4
ENDBRANCH   2   3
ENDBRANCH   1   2
BRANCH   1  23
ATOM     23  O   UNL A   1      32.889  32.137  27.423  1.00  0.00    -0.458 OA
BRANCH  23  24
ATOM     24  C   UNL A   1      33.806  33.062  27.790  1.00  0.00     0.338 C 
ATOM     25  O   UNL A   1      33.593  34.248  27.997  1.00  0.00    -0.246 OA
BRANCH  24  26
ATOM     26  C   UNL A   1      35.084  32.391  28.074  1.00  0.00     0.060 A 
ATOM     27  C   UNL A   1      35.052  30.998  28.166  1.00  0.00     0.016 A 
ATOM     28  C   UNL A   1      36.272  33.100  28.292  1.00  0.00     0.016 A 
ATOM     29  C   UNL A   1      36.165  30.322  28.636  1.00  0.00     0.010 A 
ATOM     30  C   UNL A   1      37.405  32.414  28.728  1.00  0.00     0.010 A 
ATOM     31  C   UNL A   1      37.313  31.040  28.999  1.00  0.00    -0.014 A 
BRANCH  31  32
ATOM     32  C   UNL A   1      38.263  30.377  29.915  1.00  0.00     0.031 A 
ATOM     33  C   UNL A   1      39.217  29.364  29.337  1.00  0.00     0.074 A 
ATOM     34  C   UNL A   1      38.363  30.778  31.193  1.00  0.00     0.049 A 
ATOM     35  N   UNL A   1      40.272  28.816  29.878  1.00  0.00    -0.248 NA
ATOM     36  C   UNL A   1      38.955  28.911  27.959  1.00  0.00     0.031 C 
ATOM     37  C   UNL A   1      37.491  31.757  31.841  1.00  0.00     0.029 A 
ATOM     38  N   UNL A   1      39.263  30.429  32.165  1.00  0.00    -0.354 N 
ATOM     39  C   UNL A   1      40.780  27.947  28.920  1.00  0.00     0.074 A 
ATOM     40  C   UNL A   1      39.902  28.006  27.777  1.00  0.00     0.031 C 
ATOM     41  C   UNL A   1      37.912  31.945  33.104  1.00  0.00     0.029 A 
ATOM     42  C   UNL A   1      39.074  31.095  33.350  1.00  0.00     0.049 A 
ATOM     43  H   UNL A   1      39.976  29.765  32.026  1.00  0.00     0.167 HD
ATOM     44  C   UNL A   1      41.895  27.182  28.974  1.00  0.00     0.034 A 
ATOM     45  C   UNL A   1      39.777  31.030  34.496  1.00  0.00     0.034 A 
ATOM     46  C   UNL A   1      42.765  27.141  30.113  1.00  0.00     0.049 A 
ATOM     47  C   UNL A   1      41.010  30.164  34.536  1.00  0.00     0.074 A 
ATOM     48  C   UNL A   1      43.941  26.434  30.277  1.00  0.00     0.029 A 
ATOM     49  N   UNL A   1      42.537  27.827  31.297  1.00  0.00    -0.354 N 
ATOM     50  N   UNL A   1      41.544  29.438  33.582  1.00  0.00    -0.248 NA
ATOM     51  C   UNL A   1      41.764  30.146  35.797  1.00  0.00     0.031 C 
ATOM     52  C   UNL A   1      44.398  26.653  31.581  1.00  0.00     0.029 A 
ATOM     53  C   UNL A   1      43.540  27.547  32.205  1.00  0.00     0.049 A 
ATOM     54  H   UNL A   1      41.774  28.425  31.465  1.00  0.00     0.167 HD
ATOM     55  C   UNL A   1      42.724  28.923  34.108  1.00  0.00     0.074 A 
ATOM     56  C   UNL A   1      42.827  29.430  35.462  1.00  0.00     0.031 C 
ATOM     57  C   UNL A   1      43.640  28.107  33.529  1.00  0.00     0.034 A 
BRANCH  44  58
ATOM     58  C   UNL A   1      42.211  26.327  27.775  1.00  0.00     0.023 A 
ATOM     59  C   UNL A   1      42.935  26.863  26.688  1.00  0.00     0.012 A 
ATOM     60  C   UNL A   1      41.785  24.986  27.724  1.00  0.00     0.148 A 
ATOM     61  C   UNL A   1      43.181  26.094  25.550  1.00  0.00     0.002 A 
ATOM     62  C   UNL A   1      42.080  24.211  26.610  1.00  0.00     0.091 A 
ATOM     63  F   UNL A   1      41.078  24.502  28.754  1.00  0.00    -0.205 F 
ATOM     64  C   UNL A   1      42.761  24.767  25.515  1.00  0.00     0.022 A 
BRANCH  62  65
ATOM     65  S   UNL A   1      41.647  22.472  26.501  1.00  0.00     0.127 S 
ATOM     66  O   UNL A   1      42.281  22.089  25.239  1.00  0.00    -0.237 OA
ATOM     67  O   UNL A   1      42.289  21.923  27.696  1.00  0.00    -0.237 OA
ATOM     68  O   UNL A   1      40.193  22.415  26.510  1.00  0.00    -0.744 OA
ENDBRANCH  62  65
ENDBRANCH  44  58
BRANCH  45  69
ATOM     69  C   UNL A   1      39.376  31.854  35.671  1.00  0.00     0.023 A 
ATOM     70  C   UNL A   1      39.854  33.173  35.799  1.00  0.00     0.012 A 
ATOM     71  C   UNL A   1      38.521  31.334  36.662  1.00  0.00     0.148 A 
ATOM     72  C   UNL A   1      39.523  33.943  36.915  1.00  0.00     0.002 A 
ATOM     73  C   UNL A   1      38.154  32.124  37.745  1.00  0.00     0.091 A 
ATOM     74  F   UNL A   1      38.080  30.076  36.522  1.00  0.00    -0.205 F 
ATOM     75  C   UNL A   1      38.669  33.422  37.883  1.00  0.00     0.022 A 
BRANCH  73  76
ATOM     76  S   UNL A   1      36.977  31.577  38.985  1.00  0.00     0.127 S 
ATOM     77  O   UNL A   1      37.776  31.647  40.206  1.00  0.00    -0.237 OA
ATOM     78  O   UNL A   1      35.930  32.593  38.874  1.00  0.00    -0.237 OA
ATOM     79  O   UNL A   1      36.566  30.239  38.581  1.00  0.00    -0.744 OA
ENDBRANCH  73  76
ENDBRANCH  45  69
BRANCH  57  80
ATOM     80  C   UNL A   1      44.871  27.766  34.326  1.00  0.00     0.023 A 
ATOM     81  C   UNL A   1      46.014  28.587  34.263  1.00  0.00     0.012 A 
ATOM     82  C   UNL A   1      44.859  26.660  35.199  1.00  0.00     0.148 A 
ATOM     83  C   UNL A   1      47.143  28.284  35.023  1.00  0.00     0.002 A 
ATOM     84  C   UNL A   1      45.964  26.400  35.998  1.00  0.00     0.091 A 
ATOM     85  F   UNL A   1      43.768  25.881  35.232  1.00  0.00    -0.205 F 
ATOM     86  C   UNL A   1      47.113  27.200  35.899  1.00  0.00     0.022 A 
BRANCH  84  87
ATOM     87  S   UNL A   1      45.965  25.099  37.235  1.00  0.00     0.127 S 
ATOM     88  O   UNL A   1      44.863  25.513  38.103  1.00  0.00    -0.237 OA
ATOM     89  O   UNL A   1      45.691  23.908  36.430  1.00  0.00    -0.237 OA
ATOM     90  O   UNL A   1      47.287  25.124  37.844  1.00  0.00    -0.744 OA
ENDBRANCH  84  87
ENDBRANCH  57  80
ENDBRANCH  31  32
ENDBRANCH  24  26
ENDBRANCH  23  24
ENDBRANCH   1  23
TORSDOF 15
ENDMDL
MODEL 3
REMARK VINA RESULT:     -11.9      6.292     11.005
REMARK SMILES O=C(OCCOC(=O)c1ccc(-c2c3nc(c(-c4cccc(S(=O)(=O)[O-])c4F)c4ccc([nH]4)c(-c4cccc(S(=O)(=O)[O-])c4F)c4nc(c(-c5cccc(S(=O)(=O)[O-])c5F)c5ccc2[nH]5)C=C4)C=C3)cc1)C1=Cc2c(cc(Cl)c(Cl)c2Cl)O[C@H]1C(F)(F)F
REMARK SMILES IDX 5 1 4 2 3 3 2 4 1 5 72 6 73 7 84 8 74 9 83 10 75 11 81 12
REMARK SMILES IDX 76 13 79 14 82 15 77 16 80 17 78 18 85 19 86 20 87 21 88 22
REMARK SMILES IDX 6 23 7 24 8 25 9 26 10 27 71 28 11 29 70 30 12 31 13 32
REMARK SMILES IDX 14 33 64 34 15 35 69 36 63 37 65 38 16 39 68 40 62 41 61 42
REMARK SMILES IDX 17 44 49 45 29 46 48 47 30 48 33 49 47 50 66 51 31 52 32 53
REMARK SMILES IDX 46 55 67 56 34 57 18 58 19 59 27 60 20 61 22 62 28 63 21 64
REMARK SMILES IDX 23 65 24 66 25 67 26 68 50 69 51 70 59 71 52 72 54 73 60 74
REMARK SMILES IDX 53 75 55 76 56 77 57 78 58 79 35 80 36 81 44 82 37 83 39 84
REMARK SMILES IDX 45 85 38 86 40 87 41 88 42 89 43 90
REMARK H PARENT 65 43 33 54
REMARK Flexibility Score: inf
ROOT
ATOM      1  C   UNL A   1      34.537  33.343  30.440  1.00  0.00     0.275 C 
ENDROOT
BRANCH   1   2
ATOM      2  C   UNL A   1      34.687  32.664  31.808  1.00  0.00     0.275 C 
BRANCH   2   3
ATOM      3  O   UNL A   1      34.582  33.559  32.936  1.00  0.00    -0.459 OA
BRANCH   3   4
ATOM      4  C   UNL A   1      35.541  34.301  33.527  1.00  0.00     0.338 C 
ATOM      5  O   UNL A   1      35.246  35.413  33.960  1.00  0.00    -0.246 OA
BRANCH   4   6
ATOM      6  C   UNL A   1      36.939  33.829  33.700  1.00  0.00     0.087 C 
ATOM      7  C   UNL A   1      37.398  33.043  34.692  1.00  0.00     0.029 C 
ATOM      8  C   UNL A   1      37.938  34.665  32.910  1.00  0.00     0.316 C 
ATOM      9  C   UNL A   1      38.267  33.822  35.611  1.00  0.00     0.038 A 
ATOM     10  O   UNL A   1      39.115  35.039  33.694  1.00  0.00    -0.475 OA
ATOM     11  C   UNL A   1      39.022  34.857  35.050  1.00  0.00     0.131 A 
ATOM     12  C   UNL A   1      38.294  33.614  37.003  1.00  0.00     0.072 A 
ATOM     13  C   UNL A   1      39.737  35.725  35.866  1.00  0.00     0.069 A 
ATOM     14  C   UNL A   1      38.946  34.537  37.836  1.00  0.00     0.079 A 
ATOM     15  Cl  UNL A   1      37.551  32.201  37.686  1.00  0.00    -0.082 Cl
ATOM     16  C   UNL A   1      39.661  35.595  37.256  1.00  0.00     0.064 A 
ATOM     17  Cl  UNL A   1      38.829  34.397  39.566  1.00  0.00    -0.081 Cl
ATOM     18  Cl  UNL A   1      40.480  36.784  38.209  1.00  0.00    -0.083 Cl
BRANCH   8  19
ATOM     19  C   UNL A   1      38.343  33.942  31.616  1.00  0.00     0.430 C 
ATOM     20  F   UNL A   1      37.932  34.605  30.513  1.00  0.00    -0.167 F 
ATOM     21  F   UNL A   1      39.685  33.801  31.531  1.00  0.00    -0.167 F 
ATOM     22  F   UNL A   1      37.797  32.701  31.564  1.00  0.00    -0.167 F 
ENDBRANCH   8  19
ENDBRANCH   4   6
ENDBRANCH   3   4
ENDBRANCH   2   3
ENDBRANCH   1   2
BRANCH   1  23
ATOM     23  O   UNL A   1      35.487  32.856  29.493  1.00  0.00    -0.458 OA
BRANCH  23  24
ATOM     24  C   UNL A   1      35.068  31.725  28.878  1.00  0.00     0.338 C 
ATOM     25  O   UNL A   1      33.992  31.563  28.319  1.00  0.00    -0.246 OA
BRANCH  24  26
ATOM     26  C   UNL A   1      36.177  30.761  28.827  1.00  0.00     0.060 A 
ATOM     27  C   UNL A   1      36.218  29.800  29.839  1.00  0.00     0.016 A 
ATOM     28  C   UNL A   1      37.179  30.820  27.849  1.00  0.00     0.016 A 
ATOM     29  C   UNL A   1      37.340  29.001  29.974  1.00  0.00     0.010 A 
ATOM     30  C   UNL A   1      38.292  29.987  27.963  1.00  0.00     0.010 A 
ATOM     31  C   UNL A   1      38.413  29.155  29.086  1.00  0.00    -0.014 A 
BRANCH  31  32
ATOM     32  C   UNL A   1      39.733  28.659  29.529  1.00  0.00     0.031 A 
ATOM     33  C   UNL A   1      40.308  29.216  30.806  1.00  0.00     0.074 A 
ATOM     34  C   UNL A   1      40.324  27.639  28.885  1.00  0.00     0.049 A 
ATOM     35  N   UNL A   1      41.325  28.796  31.509  1.00  0.00    -0.248 NA
ATOM     36  C   UNL A   1      39.645  30.404  31.375  1.00  0.00     0.031 C 
ATOM     37  C   UNL A   1      39.840  27.028  27.648  1.00  0.00     0.029 A 
ATOM     38  N   UNL A   1      41.446  26.921  29.202  1.00  0.00    -0.354 N 
ATOM     39  C   UNL A   1      41.432  29.673  32.581  1.00  0.00     0.074 A 
ATOM     40  C   UNL A   1      40.405  30.674  32.422  1.00  0.00     0.031 C 
ATOM     41  C   UNL A   1      40.654  26.010  27.319  1.00  0.00     0.029 A 
ATOM     42  C   UNL A   1      41.715  25.907  28.317  1.00  0.00     0.049 A 
ATOM     43  H   UNL A   1      42.006  27.114  29.989  1.00  0.00     0.167 HD
ATOM     44  C   UNL A   1      42.295  29.638  33.624  1.00  0.00     0.034 A 
ATOM     45  C   UNL A   1      42.703  24.992  28.328  1.00  0.00     0.034 A 
ATOM     46  C   UNL A   1      43.304  28.631  33.775  1.00  0.00     0.049 A 
ATOM     47  C   UNL A   1      43.656  24.979  29.495  1.00  0.00     0.074 A 
ATOM     48  C   UNL A   1      44.213  28.467  34.802  1.00  0.00     0.029 A 
ATOM     49  N   UNL A   1      43.547  27.622  32.854  1.00  0.00    -0.354 N 
ATOM     50  N   UNL A   1      43.673  25.743  30.562  1.00  0.00    -0.248 NA
ATOM     51  C   UNL A   1      44.700  23.945  29.482  1.00  0.00     0.031 C 
ATOM     52  C   UNL A   1      45.042  27.388  34.476  1.00  0.00     0.029 A 
ATOM     53  C   UNL A   1      44.605  26.842  33.278  1.00  0.00     0.049 A 
ATOM     54  H   UNL A   1      43.040  27.483  32.022  1.00  0.00     0.167 HD
ATOM     55  C   UNL A   1      44.688  25.248  31.372  1.00  0.00     0.074 A 
ATOM     56  C   UNL A   1      45.257  24.113  30.673  1.00  0.00     0.031 C 
ATOM     57  C   UNL A   1      45.116  25.687  32.582  1.00  0.00     0.034 A 
BRANCH  44  58
ATOM     58  C   UNL A   1      42.182  30.729  34.656  1.00  0.00     0.023 A 
ATOM     59  C   UNL A   1      41.428  30.524  35.832  1.00  0.00     0.012 A 
ATOM     60  C   UNL A   1      42.823  31.966  34.458  1.00  0.00     0.148 A 
ATOM     61  C   UNL A   1      41.273  31.549  36.765  1.00  0.00     0.002 A 
ATOM     62  C   UNL A   1      42.708  32.965  35.416  1.00  0.00     0.091 A 
ATOM     63  F   UNL A   1      43.514  32.152  33.324  1.00  0.00    -0.205 F 
ATOM     64  C   UNL A   1      41.919  32.765  36.561  1.00  0.00     0.022 A 
BRANCH  62  65
ATOM     65  S   UNL A   1      43.561  34.538  35.281  1.00  0.00     0.127 S 
ATOM     66  O   UNL A   1      42.907  35.129  34.113  1.00  0.00    -0.237 OA
ATOM     67  O   UNL A   1      43.228  35.177  36.554  1.00  0.00    -0.237 OA
ATOM     68  O   UNL A   1      44.972  34.220  35.110  1.00  0.00    -0.744 OA
ENDBRANCH  62  65
ENDBRANCH  44  58
BRANCH  45  69
ATOM     69  C   UNL A   1      42.798  23.977  27.243  1.00  0.00     0.023 A 
ATOM     70  C   UNL A   1      43.552  24.254  26.086  1.00  0.00     0.012 A 
ATOM     71  C   UNL A   1      42.144  22.735  27.355  1.00  0.00     0.148 A 
ATOM     72  C   UNL A   1      43.616  23.331  25.040  1.00  0.00     0.002 A 
ATOM     73  C   UNL A   1      42.253  21.799  26.333  1.00  0.00     0.091 A 
ATOM     74  F   UNL A   1      41.430  22.491  28.462  1.00  0.00    -0.205 F 
ATOM     75  C   UNL A   1      42.973  22.103  25.167  1.00  0.00     0.022 A 
BRANCH  73  76
ATOM     76  S   UNL A   1      41.550  20.151  26.451  1.00  0.00     0.127 S 
ATOM     77  O   UNL A   1      42.124  19.498  25.277  1.00  0.00    -0.237 OA
ATOM     78  O   UNL A   1      42.079  19.690  27.734  1.00  0.00    -0.237 OA
ATOM     79  O   UNL A   1      40.105  20.334  26.423  1.00  0.00    -0.744 OA
ENDBRANCH  73  76
ENDBRANCH  45  69
BRANCH  57  80
ATOM     80  C   UNL A   1      46.202  24.901  33.266  1.00  0.00     0.023 A 
ATOM     81  C   UNL A   1      47.545  25.314  33.181  1.00  0.00     0.012 A 
ATOM     82  C   UNL A   1      45.868  23.784  34.058  1.00  0.00     0.148 A 
ATOM     83  C   UNL A   1      48.546  24.598  33.838  1.00  0.00     0.002 A 
ATOM     84  C   UNL A   1      46.861  23.114  34.759  1.00  0.00     0.091 A 
ATOM     85  F   UNL A   1      44.585  23.397  34.113  1.00  0.00    -0.205 F 
ATOM     86  C   UNL A   1      48.203  23.509  34.636  1.00  0.00     0.022 A 
BRANCH  84  87
ATOM     87  S   UNL A   1      46.492  21.778  35.899  1.00  0.00     0.127 S 
ATOM     88  O   UNL A   1      47.824  21.428  36.390  1.00  0.00    -0.237 OA
ATOM     89  O   UNL A   1      45.634  22.439  36.883  1.00  0.00    -0.237 OA
ATOM     90  O   UNL A   1      45.824  20.750  35.112  1.00  0.00    -0.744 OA
ENDBRANCH  84  87
ENDBRANCH  57  80
ENDBRANCH  31  32
ENDBRANCH  24  26
ENDBRANCH  23  24
ENDBRANCH   1  23
TORSDOF 15
ENDMDL
