MODEL 1
REMARK VINA RESULT:     -12.1      0.000      0.000
REMARK SMILES O=C(Nc1ccc(/C=C/C(=O)OCCOC(=O)c2ccc(-c3c4nc(c(-c5cccc(S(=O)(=O)[O-])c5F)c5ccc([nH]5)c(-c5cccc(S(=O)(=O)[O-])c5F)c5nc(c(-c6cccc(S(=O)(=O)[O-])c6F)c6ccc3[nH]6)C=C5)C=C4)cc2)cc1F)NC1CCCC1
REMARK SMILES IDX 13 1 12 2 10 3 11 4 9 5 8 6 7 7 4 8 5 9 82 10 6 11 81 12
REMARK SMILES IDX 83 13 3 14 1 15 2 16 84 17 85 20 86 21 89 22 87 23 88 24
REMARK SMILES IDX 14 25 15 26 16 27 17 28 18 29 19 30 80 31 20 32 79 33 21 34
REMARK SMILES IDX 22 35 23 36 73 37 24 38 78 39 72 40 74 41 25 42 77 43 71 44
REMARK SMILES IDX 70 45 26 47 58 48 38 49 57 50 39 51 42 52 56 53 75 54 40 55
REMARK SMILES IDX 41 56 55 58 76 59 43 60 27 61 28 62 36 63 29 64 31 65 37 66
REMARK SMILES IDX 30 67 32 68 33 69 34 70 35 71 59 72 60 73 68 74 61 75 63 76
REMARK SMILES IDX 69 77 62 78 64 79 65 80 66 81 67 82 44 83 45 84 53 85 46 86
REMARK SMILES IDX 48 87 54 88 47 89 49 90 50 91 51 92 52 93
REMARK H PARENT 3 18 84 19 74 46 42 57
REMARK Flexibility Score: inf
ROOT
ATOM      1  C   UNL A   1      31.675  30.074  25.361  1.00  0.00     0.275 C 
ENDROOT
BRANCH   1   2
ATOM      2  O   UNL A   1      30.523  30.278  24.524  1.00  0.00    -0.459 OA
BRANCH   2   3
ATOM      3  C   UNL A   1      30.385  29.410  23.495  1.00  0.00     0.330 C 
ATOM      4  O   UNL A   1      30.106  29.695  22.340  1.00  0.00    -0.247 OA
BRANCH   3   5
ATOM      5  C   UNL A   1      30.639  28.012  23.895  1.00  0.00     0.094 C 
ATOM      6  C   UNL A   1      29.696  27.082  24.111  1.00  0.00     0.016 C 
BRANCH   6   7
ATOM      7  C   UNL A   1      30.046  25.721  24.524  1.00  0.00    -0.022 A 
ATOM      8  C   UNL A   1      30.925  23.147  25.274  1.00  0.00     0.078 A 
ATOM      9  C   UNL A   1      30.495  24.051  26.245  1.00  0.00     0.030 A 
ATOM     10  C   UNL A   1      30.796  23.508  23.926  1.00  0.00     0.147 A 
ATOM     11  C   UNL A   1      30.077  25.336  25.873  1.00  0.00     0.010 A 
ATOM     12  C   UNL A   1      30.361  24.776  23.548  1.00  0.00     0.049 A 
ATOM     13  F   UNL A   1      31.088  22.637  22.949  1.00  0.00    -0.205 F 
BRANCH   8  14
ATOM     14  N   UNL A   1      31.468  21.923  25.715  1.00  0.00    -0.305 N 
ATOM     15  O   UNL A   1      32.902  20.189  25.781  1.00  0.00    -0.248 OA
ATOM     16  C   UNL A   1      32.686  21.353  25.456  1.00  0.00     0.319 C 
ATOM     17  N   UNL A   1      33.645  22.181  24.961  1.00  0.00    -0.335 N 
ATOM     18  H   UNL A   1      30.879  21.395  26.302  1.00  0.00     0.171 HD
ATOM     19  H   UNL A   1      33.390  23.116  24.784  1.00  0.00     0.165 HD
BRANCH  17  20
ATOM     20  C   UNL A   1      35.005  21.800  24.674  1.00  0.00     0.083 C 
ATOM     21  C   UNL A   1      35.622  22.707  23.614  1.00  0.00     0.025 C 
ATOM     22  C   UNL A   1      35.912  22.028  25.881  1.00  0.00     0.025 C 
ATOM     23  C   UNL A   1      37.119  22.537  23.816  1.00  0.00     0.002 C 
ATOM     24  C   UNL A   1      37.308  22.237  25.303  1.00  0.00     0.002 C 
ENDBRANCH  17  20
ENDBRANCH   8  14
ENDBRANCH   6   7
ENDBRANCH   3   5
ENDBRANCH   2   3
ENDBRANCH   1   2
BRANCH   1  25
ATOM     25  C   UNL A   1      31.777  31.158  26.438  1.00  0.00     0.275 C 
BRANCH  25  26
ATOM     26  O   UNL A   1      32.837  30.892  27.374  1.00  0.00    -0.458 OA
BRANCH  26  27
ATOM     27  C   UNL A   1      33.661  31.940  27.621  1.00  0.00     0.338 C 
ATOM     28  O   UNL A   1      33.362  33.124  27.596  1.00  0.00    -0.246 OA
BRANCH  27  29
ATOM     29  C   UNL A   1      34.989  31.466  28.048  1.00  0.00     0.060 A 
ATOM     30  C   UNL A   1      35.114  30.120  28.407  1.00  0.00     0.016 A 
ATOM     31  C   UNL A   1      36.075  32.336  28.181  1.00  0.00     0.016 A 
ATOM     32  C   UNL A   1      36.317  29.644  28.925  1.00  0.00     0.010 A 
ATOM     33  C   UNL A   1      37.282  31.855  28.703  1.00  0.00     0.010 A 
ATOM     34  C   UNL A   1      37.403  30.513  29.100  1.00  0.00    -0.014 A 
BRANCH  34  35
ATOM     35  C   UNL A   1      38.639  30.011  29.751  1.00  0.00     0.031 A 
ATOM     36  C   UNL A   1      39.016  30.496  31.124  1.00  0.00     0.074 A 
ATOM     37  C   UNL A   1      39.409  29.103  29.123  1.00  0.00     0.049 A 
ATOM     38  N   UNL A   1      40.034  30.148  31.868  1.00  0.00    -0.248 NA
ATOM     39  C   UNL A   1      38.135  31.499  31.744  1.00  0.00     0.031 C 
ATOM     40  C   UNL A   1      39.153  28.565  27.787  1.00  0.00     0.029 A 
ATOM     41  N   UNL A   1      40.566  28.479  29.521  1.00  0.00    -0.354 N 
ATOM     42  C   UNL A   1      39.932  30.903  33.029  1.00  0.00     0.074 A 
ATOM     43  C   UNL A   1      38.758  31.737  32.891  1.00  0.00     0.031 C 
ATOM     44  C   UNL A   1      40.129  27.697  27.472  1.00  0.00     0.029 A 
ATOM     45  C   UNL A   1      41.090  27.633  28.572  1.00  0.00     0.049 A 
ATOM     46  H   UNL A   1      40.980  28.623  30.402  1.00  0.00     0.167 HD
ATOM     47  C   UNL A   1      40.733  30.887  34.121  1.00  0.00     0.034 A 
ATOM     48  C   UNL A   1      42.220  26.898  28.581  1.00  0.00     0.034 A 
ATOM     49  C   UNL A   1      41.877  30.028  34.274  1.00  0.00     0.049 A 
ATOM     50  C   UNL A   1      43.093  26.900  29.808  1.00  0.00     0.074 A 
ATOM     51  C   UNL A   1      42.707  29.899  35.374  1.00  0.00     0.029 A 
ATOM     52  N   UNL A   1      42.356  29.162  33.306  1.00  0.00    -0.354 N 
ATOM     53  N   UNL A   1      42.906  27.521  30.948  1.00  0.00    -0.248 NA
ATOM     54  C   UNL A   1      44.315  26.083  29.764  1.00  0.00     0.031 C 
ATOM     55  C   UNL A   1      43.701  28.968  35.064  1.00  0.00     0.029 A 
ATOM     56  C   UNL A   1      43.479  28.504  33.777  1.00  0.00     0.049 A 
ATOM     57  H   UNL A   1      41.957  29.033  32.416  1.00  0.00     0.167 HD
ATOM     58  C   UNL A   1      43.971  27.151  31.763  1.00  0.00     0.074 A 
ATOM     59  C   UNL A   1      44.788  26.234  30.995  1.00  0.00     0.031 C 
ATOM     60  C   UNL A   1      44.255  27.552  33.026  1.00  0.00     0.034 A 
BRANCH  47  61
ATOM     61  C   UNL A   1      40.383  31.787  35.274  1.00  0.00     0.023 A 
ATOM     62  C   UNL A   1      41.003  33.048  35.377  1.00  0.00     0.012 A 
ATOM     63  C   UNL A   1      39.360  31.440  36.178  1.00  0.00     0.148 A 
ATOM     64  C   UNL A   1      40.618  33.947  36.370  1.00  0.00     0.002 A 
ATOM     65  C   UNL A   1      38.957  32.355  37.143  1.00  0.00     0.091 A 
ATOM     66  F   UNL A   1      38.797  30.228  36.070  1.00  0.00    -0.205 F 
ATOM     67  C   UNL A   1      39.588  33.607  37.243  1.00  0.00     0.022 A 
BRANCH  65  68
ATOM     68  S   UNL A   1      37.591  32.045  38.267  1.00  0.00     0.127 S 
ATOM     69  O   UNL A   1      38.190  32.382  39.559  1.00  0.00    -0.237 OA
ATOM     70  O   UNL A   1      36.583  32.996  37.797  1.00  0.00    -0.237 OA
ATOM     71  O   UNL A   1      37.236  30.643  38.094  1.00  0.00    -0.744 OA
ENDBRANCH  65  68
ENDBRANCH  47  61
BRANCH  48  72
ATOM     72  C   UNL A   1      42.559  26.055  27.399  1.00  0.00     0.023 A 
ATOM     73  C   UNL A   1      43.363  26.588  26.373  1.00  0.00     0.012 A 
ATOM     74  C   UNL A   1      42.134  24.715  27.313  1.00  0.00     0.148 A 
ATOM     75  C   UNL A   1      43.724  25.806  25.275  1.00  0.00     0.002 A 
ATOM     76  C   UNL A   1      42.545  23.925  26.245  1.00  0.00     0.091 A 
ATOM     77  F   UNL A   1      41.349  24.233  28.286  1.00  0.00    -0.205 F 
ATOM     78  C   UNL A   1      43.328  24.472  25.218  1.00  0.00     0.022 A 
BRANCH  76  79
ATOM     79  S   UNL A   1      42.198  22.164  26.167  1.00  0.00     0.127 S 
ATOM     80  O   UNL A   1      40.745  22.151  26.022  1.00  0.00    -0.237 OA
ATOM     81  O   UNL A   1      42.941  21.759  24.973  1.00  0.00    -0.237 OA
ATOM     82  O   UNL A   1      42.718  21.609  27.411  1.00  0.00    -0.744 OA
ENDBRANCH  76  79
ENDBRANCH  48  72
BRANCH  60  83
ATOM     83  C   UNL A   1      45.494  27.008  33.688  1.00  0.00     0.023 A 
ATOM     84  C   UNL A   1      46.683  27.761  33.651  1.00  0.00     0.012 A 
ATOM     85  C   UNL A   1      45.444  25.828  34.459  1.00  0.00     0.148 A 
ATOM     86  C   UNL A   1      47.808  27.345  34.363  1.00  0.00     0.002 A 
ATOM     87  C   UNL A   1      46.555  25.443  35.200  1.00  0.00     0.091 A 
ATOM     88  F   UNL A   1      44.306  25.119  34.467  1.00  0.00    -0.205 F 
ATOM     89  C   UNL A   1      47.739  26.195  35.148  1.00  0.00     0.022 A 
BRANCH  87  90
ATOM     90  S   UNL A   1      46.531  24.036  36.318  1.00  0.00     0.127 S 
ATOM     91  O   UNL A   1      47.854  24.122  36.933  1.00  0.00    -0.237 OA
ATOM     92  O   UNL A   1      45.420  24.367  37.210  1.00  0.00    -0.237 OA
ATOM     93  O   UNL A   1      46.307  22.862  35.483  1.00  0.00    -0.744 OA
ENDBRANCH  87  90
ENDBRANCH  60  83
ENDBRANCH  34  35
ENDBRANCH  27  29
ENDBRANCH  26  27
ENDBRANCH  25  26
ENDBRANCH   1  25
TORSDOF 17
ENDMDL
MODEL 2
REMARK VINA RESULT:     -12.1      5.145     10.310
REMARK SMILES O=C(Nc1ccc(/C=C/C(=O)OCCOC(=O)c2ccc(-c3c4nc(c(-c5cccc(S(=O)(=O)[O-])c5F)c5ccc([nH]5)c(-c5cccc(S(=O)(=O)[O-])c5F)c5nc(c(-c6cccc(S(=O)(=O)[O-])c6F)c6ccc3[nH]6)C=C5)C=C4)cc2)cc1F)NC1CCCC1
REMARK SMILES IDX 13 1 12 2 10 3 11 4 9 5 8 6 7 7 4 8 5 9 82 10 6 11 81 12
REMARK SMILES IDX 83 13 3 14 1 15 2 16 84 17 85 20 86 21 89 22 87 23 88 24
REMARK SMILES IDX 14 25 15 26 16 27 17 28 18 29 19 30 80 31 20 32 79 33 21 34
REMARK SMILES IDX 22 35 23 36 73 37 24 38 78 39 72 40 74 41 25 42 77 43 71 44
REMARK SMILES IDX 70 45 26 47 58 48 38 49 57 50 39 51 42 52 56 53 75 54 40 55
REMARK SMILES IDX 41 56 55 58 76 59 43 60 27 61 28 62 36 63 29 64 31 65 37 66
REMARK SMILES IDX 30 67 32 68 33 69 34 70 35 71 59 72 60 73 68 74 61 75 63 76
REMARK SMILES IDX 69 77 62 78 64 79 65 80 66 81 67 82 44 83 45 84 53 85 46 86
REMARK SMILES IDX 48 87 54 88 47 89 49 90 50 91 51 92 52 93
REMARK H PARENT 3 18 84 19 74 46 42 57
REMARK Flexibility Score: inf
ROOT
ATOM      1  C   UNL A   1      35.374  20.762  25.200  1.00  0.00     0.275 C 
ENDROOT
BRANCH   1   2
ATOM      2  O   UNL A   1      34.496  19.673  24.861  1.00  0.00    -0.459 OA
BRANCH   2   3
ATOM      3  C   UNL A   1      33.173  19.945  24.932  1.00  0.00     0.330 C 
ATOM      4  O   UNL A   1      32.302  19.197  25.351  1.00  0.00    -0.247 OA
BRANCH   3   5
ATOM      5  C   UNL A   1      32.847  21.305  24.461  1.00  0.00     0.094 C 
ATOM      6  C   UNL A   1      32.523  21.634  23.200  1.00  0.00     0.016 C 
BRANCH   6   7
ATOM      7  C   UNL A   1      32.232  23.019  22.822  1.00  0.00    -0.022 A 
ATOM      8  C   UNL A   1      31.739  25.746  22.291  1.00  0.00     0.078 A 
ATOM      9  C   UNL A   1      32.798  25.089  21.663  1.00  0.00     0.030 A 
ATOM     10  C   UNL A   1      30.870  24.991  23.090  1.00  0.00     0.147 A 
ATOM     11  C   UNL A   1      33.053  23.739  21.942  1.00  0.00     0.010 A 
ATOM     12  C   UNL A   1      31.105  23.644  23.355  1.00  0.00     0.049 A 
ATOM     13  F   UNL A   1      29.774  25.545  23.628  1.00  0.00    -0.205 F 
BRANCH   8  14
ATOM     14  N   UNL A   1      31.616  27.134  22.083  1.00  0.00    -0.305 N 
ATOM     15  O   UNL A   1      31.556  29.319  22.622  1.00  0.00    -0.248 OA
ATOM     16  C   UNL A   1      31.912  28.181  22.915  1.00  0.00     0.319 C 
ATOM     17  N   UNL A   1      32.716  27.899  23.975  1.00  0.00    -0.335 N 
ATOM     18  H   UNL A   1      31.262  27.393  21.201  1.00  0.00     0.171 HD
ATOM     19  H   UNL A   1      32.996  26.963  24.096  1.00  0.00     0.165 HD
BRANCH  17  20
ATOM     20  C   UNL A   1      33.193  28.862  24.937  1.00  0.00     0.083 C 
ATOM     21  C   UNL A   1      32.044  29.449  25.748  1.00  0.00     0.025 C 
ATOM     22  C   UNL A   1      34.056  28.198  26.006  1.00  0.00     0.025 C 
ATOM     23  C   UNL A   1      32.719  29.988  26.999  1.00  0.00     0.002 C 
ATOM     24  C   UNL A   1      33.934  29.093  27.236  1.00  0.00     0.002 C 
ENDBRANCH  17  20
ENDBRANCH   8  14
ENDBRANCH   6   7
ENDBRANCH   3   5
ENDBRANCH   2   3
ENDBRANCH   1   2
BRANCH   1  25
ATOM     25  C   UNL A   1      36.843  20.365  25.023  1.00  0.00     0.275 C 
BRANCH  25  26
ATOM     26  O   UNL A   1      37.730  21.486  25.193  1.00  0.00    -0.458 OA
BRANCH  26  27
ATOM     27  C   UNL A   1      38.853  21.224  25.905  1.00  0.00     0.338 C 
ATOM     28  O   UNL A   1      39.408  20.143  26.022  1.00  0.00    -0.246 OA
BRANCH  27  29
ATOM     29  C   UNL A   1      39.417  22.469  26.458  1.00  0.00     0.060 A 
ATOM     30  C   UNL A   1      38.823  23.677  26.077  1.00  0.00     0.016 A 
ATOM     31  C   UNL A   1      40.559  22.467  27.263  1.00  0.00     0.016 A 
ATOM     32  C   UNL A   1      39.384  24.888  26.478  1.00  0.00     0.010 A 
ATOM     33  C   UNL A   1      41.121  23.686  27.664  1.00  0.00     0.010 A 
ATOM     34  C   UNL A   1      40.551  24.902  27.255  1.00  0.00    -0.014 A 
BRANCH  34  35
ATOM     35  C   UNL A   1      41.191  26.201  27.582  1.00  0.00     0.031 A 
ATOM     36  C   UNL A   1      42.575  26.507  27.077  1.00  0.00     0.074 A 
ATOM     37  C   UNL A   1      40.523  27.115  28.310  1.00  0.00     0.049 A 
ATOM     38  N   UNL A   1      43.282  27.595  27.227  1.00  0.00    -0.248 NA
ATOM     39  C   UNL A   1      43.249  25.455  26.299  1.00  0.00     0.031 C 
ATOM     40  C   UNL A   1      39.182  26.931  28.864  1.00  0.00     0.029 A 
ATOM     41  N   UNL A   1      40.884  28.377  28.715  1.00  0.00    -0.354 N 
ATOM     42  C   UNL A   1      44.492  27.355  26.588  1.00  0.00     0.074 A 
ATOM     43  C   UNL A   1      44.428  26.012  26.053  1.00  0.00     0.031 C 
ATOM     44  C   UNL A   1      38.835  28.036  29.544  1.00  0.00     0.029 A 
ATOM     45  C   UNL A   1      39.936  28.998  29.494  1.00  0.00     0.049 A 
ATOM     46  H   UNL A   1      41.740  28.797  28.471  1.00  0.00     0.167 HD
ATOM     47  C   UNL A   1      45.551  28.186  26.441  1.00  0.00     0.034 A 
ATOM     48  C   UNL A   1      39.953  30.199  30.106  1.00  0.00     0.034 A 
ATOM     49  C   UNL A   1      45.597  29.535  26.937  1.00  0.00     0.049 A 
ATOM     50  C   UNL A   1      41.145  31.102  29.926  1.00  0.00     0.074 A 
ATOM     51  C   UNL A   1      46.604  30.470  26.776  1.00  0.00     0.029 A 
ATOM     52  N   UNL A   1      44.605  30.139  27.691  1.00  0.00    -0.354 N 
ATOM     53  N   UNL A   1      42.223  30.907  29.206  1.00  0.00    -0.248 NA
ATOM     54  C   UNL A   1      41.114  32.400  30.618  1.00  0.00     0.031 C 
ATOM     55  C   UNL A   1      46.230  31.635  27.451  1.00  0.00     0.029 A 
ATOM     56  C   UNL A   1      44.981  31.431  28.015  1.00  0.00     0.049 A 
ATOM     57  H   UNL A   1      43.758  29.714  27.956  1.00  0.00     0.167 HD
ATOM     58  C   UNL A   1      42.986  32.063  29.338  1.00  0.00     0.074 A 
ATOM     59  C   UNL A   1      42.236  32.964  30.188  1.00  0.00     0.031 C 
ATOM     60  C   UNL A   1      44.205  32.342  28.816  1.00  0.00     0.034 A 
BRANCH  47  61
ATOM     61  C   UNL A   1      46.742  27.691  25.667  1.00  0.00     0.023 A 
ATOM     62  C   UNL A   1      46.762  27.835  24.266  1.00  0.00     0.012 A 
ATOM     63  C   UNL A   1      47.882  27.199  26.331  1.00  0.00     0.148 A 
ATOM     64  C   UNL A   1      47.897  27.489  23.534  1.00  0.00     0.002 A 
ATOM     65  C   UNL A   1      49.023  26.889  25.599  1.00  0.00     0.091 A 
ATOM     66  F   UNL A   1      47.833  27.055  27.663  1.00  0.00    -0.205 F 
ATOM     67  C   UNL A   1      49.029  27.029  24.201  1.00  0.00     0.022 A 
BRANCH  65  68
ATOM     68  S   UNL A   1      50.558  26.361  26.368  1.00  0.00     0.127 S 
ATOM     69  O   UNL A   1      51.502  26.492  25.258  1.00  0.00    -0.237 OA
ATOM     70  O   UNL A   1      50.726  27.352  27.431  1.00  0.00    -0.237 OA
ATOM     71  O   UNL A   1      50.329  25.000  26.831  1.00  0.00    -0.744 OA
ENDBRANCH  65  68
ENDBRANCH  47  61
BRANCH  48  72
ATOM     72  C   UNL A   1      38.773  30.635  30.905  1.00  0.00     0.023 A 
ATOM     73  C   UNL A   1      38.763  30.429  32.298  1.00  0.00     0.012 A 
ATOM     74  C   UNL A   1      37.687  31.299  30.301  1.00  0.00     0.148 A 
ATOM     75  C   UNL A   1      37.685  30.862  33.073  1.00  0.00     0.002 A 
ATOM     76  C   UNL A   1      36.644  31.778  31.086  1.00  0.00     0.091 A 
ATOM     77  F   UNL A   1      37.703  31.463  28.971  1.00  0.00    -0.205 F 
ATOM     78  C   UNL A   1      36.635  31.548  32.470  1.00  0.00     0.022 A 
BRANCH  76  79
ATOM     79  S   UNL A   1      35.325  32.793  30.409  1.00  0.00     0.127 S 
ATOM     80  O   UNL A   1      36.062  33.956  29.922  1.00  0.00    -0.237 OA
ATOM     81  O   UNL A   1      34.780  31.927  29.363  1.00  0.00    -0.237 OA
ATOM     82  O   UNL A   1      34.412  33.036  31.519  1.00  0.00    -0.744 OA
ENDBRANCH  76  79
ENDBRANCH  48  72
BRANCH  60  83
ATOM     83  C   UNL A   1      44.828  33.677  29.128  1.00  0.00     0.023 A 
ATOM     84  C   UNL A   1      45.575  33.830  30.312  1.00  0.00     0.012 A 
ATOM     85  C   UNL A   1      44.791  34.730  28.191  1.00  0.00     0.148 A 
ATOM     86  C   UNL A   1      46.269  35.013  30.564  1.00  0.00     0.002 A 
ATOM     87  C   UNL A   1      45.520  35.889  28.427  1.00  0.00     0.091 A 
ATOM     88  F   UNL A   1      44.061  34.567  27.078  1.00  0.00    -0.205 F 
ATOM     89  C   UNL A   1      46.254  36.036  29.616  1.00  0.00     0.022 A 
BRANCH  87  90
ATOM     90  S   UNL A   1      45.643  37.217  27.223  1.00  0.00     0.127 S 
ATOM     91  O   UNL A   1      46.413  38.217  27.962  1.00  0.00    -0.237 OA
ATOM     92  O   UNL A   1      46.368  36.575  26.127  1.00  0.00    -0.237 OA
ATOM     93  O   UNL A   1      44.274  37.598  26.902  1.00  0.00    -0.744 OA
ENDBRANCH  87  90
ENDBRANCH  60  83
ENDBRANCH  34  35
ENDBRANCH  27  29
ENDBRANCH  26  27
ENDBRANCH  25  26
ENDBRANCH   1  25
TORSDOF 17
ENDMDL
MODEL 3
REMARK VINA RESULT:     -11.8      1.294      1.580
REMARK SMILES O=C(Nc1ccc(/C=C/C(=O)OCCOC(=O)c2ccc(-c3c4nc(c(-c5cccc(S(=O)(=O)[O-])c5F)c5ccc([nH]5)c(-c5cccc(S(=O)(=O)[O-])c5F)c5nc(c(-c6cccc(S(=O)(=O)[O-])c6F)c6ccc3[nH]6)C=C5)C=C4)cc2)cc1F)NC1CCCC1
REMARK SMILES IDX 13 1 12 2 10 3 11 4 9 5 8 6 7 7 4 8 5 9 82 10 6 11 81 12
REMARK SMILES IDX 83 13 3 14 1 15 2 16 84 17 85 20 86 21 89 22 87 23 88 24
REMARK SMILES IDX 14 25 15 26 16 27 17 28 18 29 19 30 80 31 20 32 79 33 21 34
REMARK SMILES IDX 22 35 23 36 73 37 24 38 78 39 72 40 74 41 25 42 77 43 71 44
REMARK SMILES IDX 70 45 26 47 58 48 38 49 57 50 39 51 42 52 56 53 75 54 40 55
REMARK SMILES IDX 41 56 55 58 76 59 43 60 27 61 28 62 36 63 29 64 31 65 37 66
REMARK SMILES IDX 30 67 32 68 33 69 34 70 35 71 59 72 60 73 68 74 61 75 63 76
REMARK SMILES IDX 69 77 62 78 64 79 65 80 66 81 67 82 44 83 45 84 53 85 46 86
REMARK SMILES IDX 48 87 54 88 47 89 49 90 50 91 51 92 52 93
REMARK H PARENT 3 18 84 19 74 46 42 57
REMARK Flexibility Score: inf
ROOT
ATOM      1  C   UNL A   1      31.695  30.024  25.349  1.00  0.00     0.275 C 
ENDROOT
BRANCH   1   2
ATOM      2  O   UNL A   1      30.557  30.239  24.494  1.00  0.00    -0.459 OA
BRANCH   2   3
ATOM      3  C   UNL A   1      30.427  29.369  23.465  1.00  0.00     0.330 C 
ATOM      4  O   UNL A   1      30.156  29.654  22.308  1.00  0.00    -0.247 OA
BRANCH   3   5
ATOM      5  C   UNL A   1      30.676  27.972  23.868  1.00  0.00     0.094 C 
ATOM      6  C   UNL A   1      29.730  27.047  24.090  1.00  0.00     0.016 C 
BRANCH   6   7
ATOM      7  C   UNL A   1      30.075  25.685  24.506  1.00  0.00    -0.022 A 
ATOM      8  C   UNL A   1      30.946  23.109  25.260  1.00  0.00     0.078 A 
ATOM      9  C   UNL A   1      30.521  24.018  26.230  1.00  0.00     0.030 A 
ATOM     10  C   UNL A   1      30.816  23.468  23.912  1.00  0.00     0.147 A 
ATOM     11  C   UNL A   1      30.107  25.304  25.856  1.00  0.00     0.010 A 
ATOM     12  C   UNL A   1      30.385  24.737  23.532  1.00  0.00     0.049 A 
ATOM     13  F   UNL A   1      31.104  22.594  22.937  1.00  0.00    -0.205 F 
BRANCH   8  14
ATOM     14  N   UNL A   1      31.485  21.885  25.704  1.00  0.00    -0.305 N 
ATOM     15  O   UNL A   1      32.913  20.145  25.771  1.00  0.00    -0.248 OA
ATOM     16  C   UNL A   1      32.700  21.310  25.443  1.00  0.00     0.319 C 
ATOM     17  N   UNL A   1      33.661  22.132  24.943  1.00  0.00    -0.335 N 
ATOM     18  H   UNL A   1      30.896  21.361  26.294  1.00  0.00     0.171 HD
ATOM     19  H   UNL A   1      33.410  23.067  24.764  1.00  0.00     0.165 HD
BRANCH  17  20
ATOM     20  C   UNL A   1      35.019  21.744  24.653  1.00  0.00     0.083 C 
ATOM     21  C   UNL A   1      35.640  22.650  23.595  1.00  0.00     0.025 C 
ATOM     22  C   UNL A   1      35.928  21.964  25.859  1.00  0.00     0.025 C 
ATOM     23  C   UNL A   1      37.136  22.472  23.795  1.00  0.00     0.002 C 
ATOM     24  C   UNL A   1      37.325  22.167  25.280  1.00  0.00     0.002 C 
ENDBRANCH  17  20
ENDBRANCH   8  14
ENDBRANCH   6   7
ENDBRANCH   3   5
ENDBRANCH   2   3
ENDBRANCH   1   2
BRANCH   1  25
ATOM     25  C   UNL A   1      31.757  31.075  26.462  1.00  0.00     0.275 C 
BRANCH  25  26
ATOM     26  O   UNL A   1      32.829  30.818  27.388  1.00  0.00    -0.458 OA
BRANCH  26  27
ATOM     27  C   UNL A   1      33.654  31.869  27.614  1.00  0.00     0.338 C 
ATOM     28  O   UNL A   1      33.356  33.052  27.578  1.00  0.00    -0.246 OA
BRANCH  27  29
ATOM     29  C   UNL A   1      34.987  31.399  28.035  1.00  0.00     0.060 A 
ATOM     30  C   UNL A   1      35.114  30.058  28.412  1.00  0.00     0.016 A 
ATOM     31  C   UNL A   1      36.074  32.270  28.146  1.00  0.00     0.016 A 
ATOM     32  C   UNL A   1      36.321  29.588  28.925  1.00  0.00     0.010 A 
ATOM     33  C   UNL A   1      37.286  31.795  28.663  1.00  0.00     0.010 A 
ATOM     34  C   UNL A   1      37.409  30.458  29.077  1.00  0.00    -0.014 A 
BRANCH  34  35
ATOM     35  C   UNL A   1      38.651  29.965  29.724  1.00  0.00     0.031 A 
ATOM     36  C   UNL A   1      39.039  30.464  31.089  1.00  0.00     0.074 A 
ATOM     37  C   UNL A   1      39.417  29.051  29.098  1.00  0.00     0.049 A 
ATOM     38  N   UNL A   1      40.063  30.124  31.828  1.00  0.00    -0.248 NA
ATOM     39  C   UNL A   1      38.161  31.472  31.705  1.00  0.00     0.031 C 
ATOM     40  C   UNL A   1      39.151  28.499  27.770  1.00  0.00     0.029 A 
ATOM     41  N   UNL A   1      40.578  28.432  29.493  1.00  0.00    -0.354 N 
ATOM     42  C   UNL A   1      39.970  30.891  32.982  1.00  0.00     0.074 A 
ATOM     43  C   UNL A   1      38.793  31.721  32.845  1.00  0.00     0.031 C 
ATOM     44  C   UNL A   1      40.125  27.629  27.456  1.00  0.00     0.029 A 
ATOM     45  C   UNL A   1      41.095  27.577  28.548  1.00  0.00     0.049 A 
ATOM     46  H   UNL A   1      40.999  28.585  30.369  1.00  0.00     0.167 HD
ATOM     47  C   UNL A   1      40.779  30.886  34.067  1.00  0.00     0.034 A 
ATOM     48  C   UNL A   1      42.226  26.843  28.556  1.00  0.00     0.034 A 
ATOM     49  C   UNL A   1      41.925  30.030  34.220  1.00  0.00     0.049 A 
ATOM     50  C   UNL A   1      43.109  26.859  29.776  1.00  0.00     0.074 A 
ATOM     51  C   UNL A   1      42.764  29.913  35.315  1.00  0.00     0.029 A 
ATOM     52  N   UNL A   1      42.398  29.155  33.257  1.00  0.00    -0.354 N 
ATOM     53  N   UNL A   1      42.931  27.490  30.911  1.00  0.00    -0.248 NA
ATOM     54  C   UNL A   1      44.331  26.042  29.730  1.00  0.00     0.031 C 
ATOM     55  C   UNL A   1      43.757  28.980  35.005  1.00  0.00     0.029 A 
ATOM     56  C   UNL A   1      43.525  28.503  33.725  1.00  0.00     0.049 A 
ATOM     57  H   UNL A   1      41.992  29.016  32.371  1.00  0.00     0.167 HD
ATOM     58  C   UNL A   1      44.002  27.130  31.722  1.00  0.00     0.074 A 
ATOM     59  C   UNL A   1      44.814  26.206  30.956  1.00  0.00     0.031 C 
ATOM     60  C   UNL A   1      44.296  27.543  32.978  1.00  0.00     0.034 A 
BRANCH  47  61
ATOM     61  C   UNL A   1      40.438  31.798  35.214  1.00  0.00     0.023 A 
ATOM     62  C   UNL A   1      41.043  33.067  35.290  1.00  0.00     0.012 A 
ATOM     63  C   UNL A   1      39.435  31.450  36.141  1.00  0.00     0.148 A 
ATOM     64  C   UNL A   1      40.664  33.975  36.277  1.00  0.00     0.002 A 
ATOM     65  C   UNL A   1      39.037  32.373  37.100  1.00  0.00     0.091 A 
ATOM     66  F   UNL A   1      38.886  30.230  36.058  1.00  0.00    -0.205 F 
ATOM     67  C   UNL A   1      39.653  33.634  37.172  1.00  0.00     0.022 A 
BRANCH  65  68
ATOM     68  S   UNL A   1      37.694  32.062  38.251  1.00  0.00     0.127 S 
ATOM     69  O   UNL A   1      38.353  32.283  39.538  1.00  0.00    -0.237 OA
ATOM     70  O   UNL A   1      36.724  33.091  37.878  1.00  0.00    -0.237 OA
ATOM     71  O   UNL A   1      37.259  30.694  38.003  1.00  0.00    -0.744 OA
ENDBRANCH  65  68
ENDBRANCH  47  61
BRANCH  48  72
ATOM     72  C   UNL A   1      42.556  25.989  27.380  1.00  0.00     0.023 A 
ATOM     73  C   UNL A   1      43.363  26.507  26.349  1.00  0.00     0.012 A 
ATOM     74  C   UNL A   1      42.120  24.651  27.304  1.00  0.00     0.148 A 
ATOM     75  C   UNL A   1      43.717  25.714  25.256  1.00  0.00     0.002 A 
ATOM     76  C   UNL A   1      42.523  23.850  26.241  1.00  0.00     0.091 A 
ATOM     77  F   UNL A   1      41.331  24.183  28.281  1.00  0.00    -0.205 F 
ATOM     78  C   UNL A   1      43.310  24.384  25.209  1.00  0.00     0.022 A 
BRANCH  76  79
ATOM     79  S   UNL A   1      42.160  22.092  26.177  1.00  0.00     0.127 S 
ATOM     80  O   UNL A   1      42.954  21.664  25.028  1.00  0.00    -0.237 OA
ATOM     81  O   UNL A   1      42.655  21.631  27.475  1.00  0.00    -0.237 OA
ATOM     82  O   UNL A   1      40.714  21.998  26.022  1.00  0.00    -0.744 OA
ENDBRANCH  76  79
ENDBRANCH  48  72
BRANCH  60  83
ATOM     83  C   UNL A   1      45.540  27.007  33.635  1.00  0.00     0.023 A 
ATOM     84  C   UNL A   1      45.475  25.799  34.356  1.00  0.00     0.012 A 
ATOM     85  C   UNL A   1      46.792  27.621  33.423  1.00  0.00     0.148 A 
ATOM     86  C   UNL A   1      46.634  25.214  34.864  1.00  0.00     0.002 A 
ATOM     87  C   UNL A   1      47.948  27.010  33.894  1.00  0.00     0.091 A 
ATOM     88  F   UNL A   1      46.829  28.778  32.746  1.00  0.00    -0.205 F 
ATOM     89  C   UNL A   1      47.870  25.810  34.621  1.00  0.00     0.022 A 
BRANCH  87  90
ATOM     90  S   UNL A   1      49.591  27.647  33.546  1.00  0.00     0.127 S 
ATOM     91  O   UNL A   1      50.436  26.519  33.933  1.00  0.00    -0.237 OA
ATOM     92  O   UNL A   1      49.528  27.897  32.106  1.00  0.00    -0.237 OA
ATOM     93  O   UNL A   1      49.739  28.846  34.361  1.00  0.00    -0.744 OA
ENDBRANCH  87  90
ENDBRANCH  60  83
ENDBRANCH  34  35
ENDBRANCH  27  29
ENDBRANCH  26  27
ENDBRANCH  25  26
ENDBRANCH   1  25
TORSDOF 17
ENDMDL
