MODEL 1
REMARK VINA RESULT:     -10.7      0.000      0.000
REMARK SMILES C[C@H](NC(=O)c1cc(S(=O)(=O)N(C)C)cs1)C(=O)OCCOC(=O)c1ccc(-c2c3nc(c(-c4cccc(S(=O)(=O)[O-])c4F)c4ccc([nH]4)c(-c4cccc(S(=O)(=O)[O-])c4F)c4nc(c(-c5cccc(S(=O)(=O)[O-])c5F)c5ccc2[nH]5)C=C4)C=C3)cc1
REMARK SMILES IDX 20 1 19 2 17 3 18 4 2 5 1 6 3 7 4 8 5 10 6 11 7 12 16 13
REMARK SMILES IDX 8 14 15 15 9 16 10 17 11 18 12 19 13 20 14 21 21 22 22 23
REMARK SMILES IDX 23 24 24 25 25 26 26 27 87 28 27 29 86 30 28 31 29 32 30 33
REMARK SMILES IDX 80 34 31 35 85 36 79 37 81 38 32 39 84 40 78 41 77 42 33 44
REMARK SMILES IDX 65 45 45 46 64 47 46 48 49 49 63 50 82 51 47 52 48 53 62 55
REMARK SMILES IDX 83 56 50 57 34 58 35 59 43 60 36 61 38 62 44 63 37 64 39 65
REMARK SMILES IDX 40 66 41 67 42 68 66 69 67 70 75 71 68 72 70 73 76 74 69 75
REMARK SMILES IDX 71 76 72 77 73 78 74 79 51 80 52 81 60 82 53 83 55 84 61 85
REMARK SMILES IDX 54 86 56 87 57 88 58 89 59 90
REMARK H PARENT 3 9 81 43 49 54
REMARK Flexibility Score: inf
ROOT
ATOM      1  C   UNL A   1      31.781  28.821  25.428  1.00  0.00     0.274 C 
ENDROOT
BRANCH   1   2
ATOM      2  O   UNL A   1      30.932  28.582  24.289  1.00  0.00    -0.461 OA
BRANCH   2   3
ATOM      3  C   UNL A   1      31.495  28.794  23.068  1.00  0.00     0.328 C 
ATOM      4  O   UNL A   1      31.007  29.492  22.187  1.00  0.00    -0.250 OA
BRANCH   3   5
ATOM      5  C   UNL A   1      32.783  27.982  22.869  1.00  0.00     0.189 C 
ATOM      6  C   UNL A   1      33.959  28.952  22.963  1.00  0.00     0.043 C 
BRANCH   5   7
ATOM      7  N   UNL A   1      32.804  27.212  21.618  1.00  0.00    -0.338 N 
ATOM      8  C   UNL A   1      32.904  25.855  21.415  1.00  0.00     0.262 C 
ATOM      9  H   UNL A   1      32.737  27.751  20.797  1.00  0.00     0.164 HD
ATOM     10  O   UNL A   1      33.041  25.445  20.263  1.00  0.00    -0.268 OA
BRANCH   8  11
ATOM     11  C   UNL A   1      32.867  24.982  22.574  1.00  0.00     0.093 A 
ATOM     12  C   UNL A   1      33.908  24.502  23.345  1.00  0.00     0.047 A 
ATOM     13  S   UNL A   1      31.352  24.410  23.141  1.00  0.00    -0.137 S 
ATOM     14  C   UNL A   1      33.467  23.547  24.307  1.00  0.00     0.094 A 
ATOM     15  C   UNL A   1      32.097  23.396  24.303  1.00  0.00     0.087 A 
BRANCH  14  16
ATOM     16  S   UNL A   1      34.531  22.603  25.298  1.00  0.00     0.243 S 
ATOM     17  O   UNL A   1      35.383  21.915  24.354  1.00  0.00    -0.207 OA
ATOM     18  O   UNL A   1      35.048  23.589  26.220  1.00  0.00    -0.207 OA
BRANCH  16  19
ATOM     19  N   UNL A   1      33.615  21.458  26.167  1.00  0.00    -0.204 NA
ATOM     20  C   UNL A   1      33.650  20.082  25.620  1.00  0.00     0.124 C 
ATOM     21  C   UNL A   1      33.895  21.461  27.623  1.00  0.00     0.124 C 
ENDBRANCH  16  19
ENDBRANCH  14  16
ENDBRANCH   8  11
ENDBRANCH   5   7
ENDBRANCH   3   5
ENDBRANCH   2   3
ENDBRANCH   1   2
BRANCH   1  22
ATOM     22  C   UNL A   1      31.850  30.315  25.749  1.00  0.00     0.275 C 
BRANCH  22  23
ATOM     23  O   UNL A   1      32.280  30.557  27.101  1.00  0.00    -0.458 OA
BRANCH  23  24
ATOM     24  C   UNL A   1      33.081  31.637  27.265  1.00  0.00     0.338 C 
ATOM     25  O   UNL A   1      32.773  32.806  27.090  1.00  0.00    -0.246 OA
BRANCH  24  26
ATOM     26  C   UNL A   1      34.383  31.230  27.827  1.00  0.00     0.060 A 
ATOM     27  C   UNL A   1      34.543  29.888  28.192  1.00  0.00     0.016 A 
ATOM     28  C   UNL A   1      35.409  32.152  28.047  1.00  0.00     0.016 A 
ATOM     29  C   UNL A   1      35.730  29.467  28.791  1.00  0.00     0.010 A 
ATOM     30  C   UNL A   1      36.597  31.727  28.653  1.00  0.00     0.010 A 
ATOM     31  C   UNL A   1      36.757  30.387  29.042  1.00  0.00    -0.014 A 
BRANCH  31  32
ATOM     32  C   UNL A   1      37.981  29.949  29.753  1.00  0.00     0.031 A 
ATOM     33  C   UNL A   1      38.269  30.461  31.136  1.00  0.00     0.074 A 
ATOM     34  C   UNL A   1      38.832  29.093  29.156  1.00  0.00     0.049 A 
ATOM     35  N   UNL A   1      39.285  30.199  31.915  1.00  0.00    -0.248 NA
ATOM     36  C   UNL A   1      37.283  31.384  31.719  1.00  0.00     0.031 C 
ATOM     37  C   UNL A   1      38.663  28.537  27.814  1.00  0.00     0.029 A 
ATOM     38  N   UNL A   1      40.016  28.559  29.596  1.00  0.00    -0.354 N 
ATOM     39  C   UNL A   1      39.076  30.939  33.072  1.00  0.00     0.074 A 
ATOM     40  C   UNL A   1      37.839  31.667  32.890  1.00  0.00     0.031 C 
ATOM     41  C   UNL A   1      39.715  27.750  27.534  1.00  0.00     0.029 A 
ATOM     42  C   UNL A   1      40.640  27.764  28.664  1.00  0.00     0.049 A 
ATOM     43  H   UNL A   1      40.384  28.729  30.493  1.00  0.00     0.167 HD
ATOM     44  C   UNL A   1      39.835  30.991  34.192  1.00  0.00     0.034 A 
ATOM     45  C   UNL A   1      41.830  27.132  28.712  1.00  0.00     0.034 A 
ATOM     46  C   UNL A   1      41.052  30.252  34.382  1.00  0.00     0.049 A 
ATOM     47  C   UNL A   1      42.662  27.224  29.962  1.00  0.00     0.074 A 
ATOM     48  C   UNL A   1      41.869  30.212  35.499  1.00  0.00     0.029 A 
ATOM     49  N   UNL A   1      41.635  29.427  33.433  1.00  0.00    -0.354 N 
ATOM     50  N   UNL A   1      42.389  27.830  31.091  1.00  0.00    -0.248 NA
ATOM     51  C   UNL A   1      43.953  26.520  29.956  1.00  0.00     0.031 C 
ATOM     52  C   UNL A   1      42.949  29.365  35.222  1.00  0.00     0.029 A 
ATOM     53  C   UNL A   1      42.801  28.875  33.933  1.00  0.00     0.049 A 
ATOM     54  H   UNL A   1      41.271  29.258  32.533  1.00  0.00     0.167 HD
ATOM     55  C   UNL A   1      43.459  27.560  31.938  1.00  0.00     0.074 A 
ATOM     56  C   UNL A   1      44.374  26.716  31.198  1.00  0.00     0.031 C 
ATOM     57  C   UNL A   1      43.673  27.990  33.206  1.00  0.00     0.034 A 
BRANCH  44  58
ATOM     58  C   UNL A   1      39.340  31.847  35.326  1.00  0.00     0.023 A 
ATOM     59  C   UNL A   1      38.408  31.309  36.236  1.00  0.00     0.012 A 
ATOM     60  C   UNL A   1      39.834  33.150  35.529  1.00  0.00     0.148 A 
ATOM     61  C   UNL A   1      37.958  32.061  37.320  1.00  0.00     0.002 A 
ATOM     62  C   UNL A   1      39.404  33.884  36.629  1.00  0.00     0.091 A 
ATOM     63  F   UNL A   1      40.698  33.653  34.636  1.00  0.00    -0.205 F 
ATOM     64  C   UNL A   1      38.463  33.344  37.522  1.00  0.00     0.022 A 
BRANCH  62  65
ATOM     65  S   UNL A   1      40.046  35.520  37.001  1.00  0.00     0.127 S 
ATOM     66  O   UNL A   1      41.480  35.258  37.103  1.00  0.00    -0.237 OA
ATOM     67  O   UNL A   1      39.649  36.288  35.821  1.00  0.00    -0.237 OA
ATOM     68  O   UNL A   1      39.389  35.929  38.235  1.00  0.00    -0.744 OA
ENDBRANCH  62  65
ENDBRANCH  44  58
BRANCH  45  69
ATOM     69  C   UNL A   1      42.276  26.309  27.554  1.00  0.00     0.023 A 
ATOM     70  C   UNL A   1      43.117  26.884  26.582  1.00  0.00     0.012 A 
ATOM     71  C   UNL A   1      41.904  24.957  27.428  1.00  0.00     0.148 A 
ATOM     72  C   UNL A   1      43.565  26.132  25.495  1.00  0.00     0.002 A 
ATOM     73  C   UNL A   1      42.395  24.199  26.372  1.00  0.00     0.091 A 
ATOM     74  F   UNL A   1      41.081  24.435  28.349  1.00  0.00    -0.205 F 
ATOM     75  C   UNL A   1      43.216  24.788  25.397  1.00  0.00     0.022 A 
BRANCH  73  76
ATOM     76  S   UNL A   1      42.097  22.432  26.250  1.00  0.00     0.127 S 
ATOM     77  O   UNL A   1      42.867  22.079  25.061  1.00  0.00    -0.237 OA
ATOM     78  O   UNL A   1      42.651  21.939  27.513  1.00  0.00    -0.237 OA
ATOM     79  O   UNL A   1      40.651  22.295  26.141  1.00  0.00    -0.744 OA
ENDBRANCH  73  76
ENDBRANCH  45  69
BRANCH  57  80
ATOM     80  C   UNL A   1      44.936  27.541  33.890  1.00  0.00     0.023 A 
ATOM     81  C   UNL A   1      46.082  28.357  33.830  1.00  0.00     0.012 A 
ATOM     82  C   UNL A   1      44.966  26.359  34.655  1.00  0.00     0.148 A 
ATOM     83  C   UNL A   1      47.247  27.993  34.503  1.00  0.00     0.002 A 
ATOM     84  C   UNL A   1      46.119  26.023  35.356  1.00  0.00     0.091 A 
ATOM     85  F   UNL A   1      43.873  25.583  34.681  1.00  0.00    -0.205 F 
ATOM     86  C   UNL A   1      47.263  26.833  35.276  1.00  0.00     0.022 A 
BRANCH  84  87
ATOM     87  S   UNL A   1      46.189  24.591  36.439  1.00  0.00     0.127 S 
ATOM     88  O   UNL A   1      47.547  24.683  36.970  1.00  0.00    -0.237 OA
ATOM     89  O   UNL A   1      45.134  24.878  37.412  1.00  0.00    -0.237 OA
ATOM     90  O   UNL A   1      45.920  23.440  35.587  1.00  0.00    -0.744 OA
ENDBRANCH  84  87
ENDBRANCH  57  80
ENDBRANCH  31  32
ENDBRANCH  24  26
ENDBRANCH  23  24
ENDBRANCH  22  23
ENDBRANCH   1  22
TORSDOF 18
ENDMDL
MODEL 2
REMARK VINA RESULT:     -10.6      1.493      7.787
REMARK SMILES C[C@H](NC(=O)c1cc(S(=O)(=O)N(C)C)cs1)C(=O)OCCOC(=O)c1ccc(-c2c3nc(c(-c4cccc(S(=O)(=O)[O-])c4F)c4ccc([nH]4)c(-c4cccc(S(=O)(=O)[O-])c4F)c4nc(c(-c5cccc(S(=O)(=O)[O-])c5F)c5ccc2[nH]5)C=C4)C=C3)cc1
REMARK SMILES IDX 20 1 19 2 17 3 18 4 2 5 1 6 3 7 4 8 5 10 6 11 7 12 16 13
REMARK SMILES IDX 8 14 15 15 9 16 10 17 11 18 12 19 13 20 14 21 21 22 22 23
REMARK SMILES IDX 23 24 24 25 25 26 26 27 87 28 27 29 86 30 28 31 29 32 30 33
REMARK SMILES IDX 80 34 31 35 85 36 79 37 81 38 32 39 84 40 78 41 77 42 33 44
REMARK SMILES IDX 65 45 45 46 64 47 46 48 49 49 63 50 82 51 47 52 48 53 62 55
REMARK SMILES IDX 83 56 50 57 34 58 35 59 43 60 36 61 38 62 44 63 37 64 39 65
REMARK SMILES IDX 40 66 41 67 42 68 66 69 67 70 75 71 68 72 70 73 76 74 69 75
REMARK SMILES IDX 71 76 72 77 73 78 74 79 51 80 52 81 60 82 53 83 55 84 61 85
REMARK SMILES IDX 54 86 56 87 57 88 58 89 59 90
REMARK H PARENT 3 9 81 43 49 54
REMARK Flexibility Score: inf
ROOT
ATOM      1  C   UNL A   1      30.885  29.838  24.656  1.00  0.00     0.274 C 
ENDROOT
BRANCH   1   2
ATOM      2  O   UNL A   1      30.745  28.544  24.039  1.00  0.00    -0.461 OA
BRANCH   2   3
ATOM      3  C   UNL A   1      31.186  28.441  22.755  1.00  0.00     0.328 C 
ATOM      4  O   UNL A   1      30.571  28.835  21.773  1.00  0.00    -0.250 OA
BRANCH   3   5
ATOM      5  C   UNL A   1      32.519  27.684  22.655  1.00  0.00     0.189 C 
ATOM      6  C   UNL A   1      33.641  28.720  22.688  1.00  0.00     0.043 C 
BRANCH   5   7
ATOM      7  N   UNL A   1      32.611  26.811  21.477  1.00  0.00    -0.338 N 
ATOM      8  C   UNL A   1      32.972  25.488  21.382  1.00  0.00     0.262 C 
ATOM      9  H   UNL A   1      32.379  27.242  20.622  1.00  0.00     0.164 HD
ATOM     10  O   UNL A   1      33.110  24.999  20.262  1.00  0.00    -0.268 OA
BRANCH   8  11
ATOM     11  C   UNL A   1      33.193  24.746  22.609  1.00  0.00     0.093 A 
ATOM     12  C   UNL A   1      34.369  24.516  23.297  1.00  0.00     0.047 A 
ATOM     13  S   UNL A   1      31.856  24.008  23.393  1.00  0.00    -0.137 S 
ATOM     14  C   UNL A   1      34.188  23.610  24.382  1.00  0.00     0.094 A 
ATOM     15  C   UNL A   1      32.868  23.250  24.547  1.00  0.00     0.087 A 
BRANCH  14  16
ATOM     16  S   UNL A   1      35.485  22.952  25.325  1.00  0.00     0.243 S 
ATOM     17  O   UNL A   1      36.545  23.928  25.206  1.00  0.00    -0.207 OA
ATOM     18  O   UNL A   1      34.837  22.673  26.587  1.00  0.00    -0.207 OA
BRANCH  16  19
ATOM     19  N   UNL A   1      35.993  21.482  24.626  1.00  0.00    -0.204 NA
ATOM     20  C   UNL A   1      37.400  21.110  24.903  1.00  0.00     0.124 C 
ATOM     21  C   UNL A   1      35.077  20.349  24.903  1.00  0.00     0.124 C 
ENDBRANCH  16  19
ENDBRANCH  14  16
ENDBRANCH   8  11
ENDBRANCH   5   7
ENDBRANCH   3   5
ENDBRANCH   2   3
ENDBRANCH   1   2
BRANCH   1  22
ATOM     22  C   UNL A   1      31.674  29.734  25.962  1.00  0.00     0.275 C 
BRANCH  22  23
ATOM     23  O   UNL A   1      32.950  30.395  25.875  1.00  0.00    -0.458 OA
BRANCH  23  24
ATOM     24  C   UNL A   1      33.152  31.377  26.786  1.00  0.00     0.338 C 
ATOM     25  O   UNL A   1      32.433  32.343  26.988  1.00  0.00    -0.246 OA
BRANCH  24  26
ATOM     26  C   UNL A   1      34.321  31.062  27.629  1.00  0.00     0.060 A 
ATOM     27  C   UNL A   1      35.209  32.102  27.926  1.00  0.00     0.016 A 
ATOM     28  C   UNL A   1      34.578  29.762  28.073  1.00  0.00     0.016 A 
ATOM     29  C   UNL A   1      36.364  31.843  28.661  1.00  0.00     0.010 A 
ATOM     30  C   UNL A   1      35.742  29.504  28.806  1.00  0.00     0.010 A 
ATOM     31  C   UNL A   1      36.648  30.539  29.090  1.00  0.00    -0.014 A 
BRANCH  31  32
ATOM     32  C   UNL A   1      37.918  30.256  29.799  1.00  0.00     0.031 A 
ATOM     33  C   UNL A   1      38.946  29.362  29.166  1.00  0.00     0.074 A 
ATOM     34  C   UNL A   1      38.146  30.801  31.008  1.00  0.00     0.049 A 
ATOM     35  N   UNL A   1      40.112  28.993  29.628  1.00  0.00    -0.248 NA
ATOM     36  C   UNL A   1      38.623  28.816  27.838  1.00  0.00     0.031 C 
ATOM     37  C   UNL A   1      37.219  31.676  31.725  1.00  0.00     0.029 A 
ATOM     38  N   UNL A   1      39.219  30.682  31.853  1.00  0.00    -0.354 N 
ATOM     39  C   UNL A   1      40.655  28.155  28.663  1.00  0.00     0.074 A 
ATOM     40  C   UNL A   1      39.687  28.064  27.590  1.00  0.00     0.031 C 
ATOM     41  C   UNL A   1      37.758  32.003  32.911  1.00  0.00     0.029 A 
ATOM     42  C   UNL A   1      39.055  31.346  33.046  1.00  0.00     0.049 A 
ATOM     43  H   UNL A   1      40.030  30.171  31.627  1.00  0.00     0.167 HD
ATOM     44  C   UNL A   1      41.859  27.534  28.660  1.00  0.00     0.034 A 
ATOM     45  C   UNL A   1      39.855  31.403  34.130  1.00  0.00     0.034 A 
ATOM     46  C   UNL A   1      42.829  27.641  29.714  1.00  0.00     0.049 A 
ATOM     47  C   UNL A   1      41.178  30.687  34.107  1.00  0.00     0.074 A 
ATOM     48  C   UNL A   1      44.092  27.080  29.782  1.00  0.00     0.029 A 
ATOM     49  N   UNL A   1      42.646  28.353  30.890  1.00  0.00    -0.354 N 
ATOM     50  N   UNL A   1      41.727  30.000  33.135  1.00  0.00    -0.248 NA
ATOM     51  C   UNL A   1      42.007  30.780  35.318  1.00  0.00     0.031 C 
ATOM     52  C   UNL A   1      44.671  27.448  31.002  1.00  0.00     0.029 A 
ATOM     53  C   UNL A   1      43.768  28.243  31.691  1.00  0.00     0.049 A 
ATOM     54  H   UNL A   1      41.835  28.862  31.120  1.00  0.00     0.167 HD
ATOM     55  C   UNL A   1      42.973  29.600  33.607  1.00  0.00     0.074 A 
ATOM     56  C   UNL A   1      43.107  30.142  34.943  1.00  0.00     0.031 C 
ATOM     57  C   UNL A   1      43.911  28.836  32.996  1.00  0.00     0.034 A 
BRANCH  44  58
ATOM     58  C   UNL A   1      42.216  26.717  27.448  1.00  0.00     0.023 A 
ATOM     59  C   UNL A   1      42.826  27.352  26.348  1.00  0.00     0.012 A 
ATOM     60  C   UNL A   1      42.005  25.326  27.417  1.00  0.00     0.148 A 
ATOM     61  C   UNL A   1      43.204  26.617  25.225  1.00  0.00     0.002 A 
ATOM     62  C   UNL A   1      42.413  24.594  26.306  1.00  0.00     0.091 A 
ATOM     63  F   UNL A   1      41.397  24.746  28.462  1.00  0.00    -0.205 F 
ATOM     64  C   UNL A   1      43.007  25.239  25.208  1.00  0.00     0.022 A 
BRANCH  62  65
ATOM     65  S   UNL A   1      42.252  22.807  26.223  1.00  0.00     0.127 S 
ATOM     66  O   UNL A   1      40.800  22.640  26.255  1.00  0.00    -0.237 OA
ATOM     67  O   UNL A   1      42.873  22.496  24.935  1.00  0.00    -0.237 OA
ATOM     68  O   UNL A   1      42.974  22.293  27.379  1.00  0.00    -0.744 OA
ENDBRANCH  62  65
ENDBRANCH  44  58
BRANCH  45  69
ATOM     69  C   UNL A   1      39.445  32.217  35.307  1.00  0.00     0.023 A 
ATOM     70  C   UNL A   1      39.731  33.597  35.326  1.00  0.00     0.012 A 
ATOM     71  C   UNL A   1      38.747  31.646  36.387  1.00  0.00     0.148 A 
ATOM     72  C   UNL A   1      39.344  34.388  36.408  1.00  0.00     0.002 A 
ATOM     73  C   UNL A   1      38.319  32.449  37.438  1.00  0.00     0.091 A 
ATOM     74  F   UNL A   1      38.508  30.327  36.365  1.00  0.00    -0.205 F 
ATOM     75  C   UNL A   1      38.627  33.819  37.456  1.00  0.00     0.022 A 
BRANCH  73  76
ATOM     76  S   UNL A   1      37.279  31.814  38.758  1.00  0.00     0.127 S 
ATOM     77  O   UNL A   1      38.138  31.987  39.926  1.00  0.00    -0.237 OA
ATOM     78  O   UNL A   1      36.125  32.714  38.701  1.00  0.00    -0.237 OA
ATOM     79  O   UNL A   1      36.980  30.439  38.381  1.00  0.00    -0.744 OA
ENDBRANCH  73  76
ENDBRANCH  45  69
BRANCH  57  80
ATOM     80  C   UNL A   1      45.180  28.553  33.753  1.00  0.00     0.023 A 
ATOM     81  C   UNL A   1      46.304  29.377  33.554  1.00  0.00     0.012 A 
ATOM     82  C   UNL A   1      45.236  27.527  34.718  1.00  0.00     0.148 A 
ATOM     83  C   UNL A   1      47.473  29.172  34.286  1.00  0.00     0.002 A 
ATOM     84  C   UNL A   1      46.392  27.354  35.472  1.00  0.00     0.091 A 
ATOM     85  F   UNL A   1      44.164  26.737  34.877  1.00  0.00    -0.205 F 
ATOM     86  C   UNL A   1      47.513  28.170  35.253  1.00  0.00     0.022 A 
BRANCH  84  87
ATOM     87  S   UNL A   1      46.491  26.140  36.793  1.00  0.00     0.127 S 
ATOM     88  O   UNL A   1      45.447  26.604  37.705  1.00  0.00    -0.237 OA
ATOM     89  O   UNL A   1      46.181  24.889  36.098  1.00  0.00    -0.237 OA
ATOM     90  O   UNL A   1      47.855  26.221  37.299  1.00  0.00    -0.744 OA
ENDBRANCH  84  87
ENDBRANCH  57  80
ENDBRANCH  31  32
ENDBRANCH  24  26
ENDBRANCH  23  24
ENDBRANCH  22  23
ENDBRANCH   1  22
TORSDOF 18
ENDMDL
MODEL 3
REMARK VINA RESULT:     -10.3      1.895      8.006
REMARK SMILES C[C@H](NC(=O)c1cc(S(=O)(=O)N(C)C)cs1)C(=O)OCCOC(=O)c1ccc(-c2c3nc(c(-c4cccc(S(=O)(=O)[O-])c4F)c4ccc([nH]4)c(-c4cccc(S(=O)(=O)[O-])c4F)c4nc(c(-c5cccc(S(=O)(=O)[O-])c5F)c5ccc2[nH]5)C=C4)C=C3)cc1
REMARK SMILES IDX 20 1 19 2 17 3 18 4 2 5 1 6 3 7 4 8 5 10 6 11 7 12 16 13
REMARK SMILES IDX 8 14 15 15 9 16 10 17 11 18 12 19 13 20 14 21 21 22 22 23
REMARK SMILES IDX 23 24 24 25 25 26 26 27 87 28 27 29 86 30 28 31 29 32 30 33
REMARK SMILES IDX 80 34 31 35 85 36 79 37 81 38 32 39 84 40 78 41 77 42 33 44
REMARK SMILES IDX 65 45 45 46 64 47 46 48 49 49 63 50 82 51 47 52 48 53 62 55
REMARK SMILES IDX 83 56 50 57 34 58 35 59 43 60 36 61 38 62 44 63 37 64 39 65
REMARK SMILES IDX 40 66 41 67 42 68 66 69 67 70 75 71 68 72 70 73 76 74 69 75
REMARK SMILES IDX 71 76 72 77 73 78 74 79 51 80 52 81 60 82 53 83 55 84 61 85
REMARK SMILES IDX 54 86 56 87 57 88 58 89 59 90
REMARK H PARENT 3 9 81 43 49 54
REMARK Flexibility Score: inf
ROOT
ATOM      1  C   UNL A   1      32.918  28.627  25.706  1.00  0.00     0.274 C 
ENDROOT
BRANCH   1   2
ATOM      2  O   UNL A   1      31.641  28.044  25.384  1.00  0.00    -0.461 OA
BRANCH   2   3
ATOM      3  C   UNL A   1      31.136  27.166  26.294  1.00  0.00     0.328 C 
ATOM      4  O   UNL A   1      31.140  27.339  27.506  1.00  0.00    -0.250 OA
BRANCH   3   5
ATOM      5  C   UNL A   1      30.632  25.872  25.639  1.00  0.00     0.189 C 
ATOM      6  C   UNL A   1      29.638  26.264  24.547  1.00  0.00     0.043 C 
BRANCH   5   7
ATOM      7  N   UNL A   1      30.051  24.918  26.594  1.00  0.00    -0.338 N 
ATOM      8  C   UNL A   1      30.265  23.567  26.738  1.00  0.00     0.262 C 
ATOM      9  H   UNL A   1      29.408  25.307  27.230  1.00  0.00     0.164 HD
ATOM     10  O   UNL A   1      29.556  22.944  27.527  1.00  0.00    -0.268 OA
BRANCH   8  11
ATOM     11  C   UNL A   1      31.300  22.946  25.932  1.00  0.00     0.093 A 
ATOM     12  C   UNL A   1      32.458  22.306  26.330  1.00  0.00     0.047 A 
ATOM     13  S   UNL A   1      31.151  22.962  24.223  1.00  0.00    -0.137 S 
ATOM     14  C   UNL A   1      33.289  21.964  25.225  1.00  0.00     0.094 A 
ATOM     15  C   UNL A   1      32.703  22.268  24.016  1.00  0.00     0.087 A 
BRANCH  14  16
ATOM     16  S   UNL A   1      34.897  21.333  25.377  1.00  0.00     0.243 S 
ATOM     17  O   UNL A   1      35.206  21.476  26.783  1.00  0.00    -0.207 OA
ATOM     18  O   UNL A   1      34.781  20.039  24.745  1.00  0.00    -0.207 OA
BRANCH  16  19
ATOM     19  N   UNL A   1      35.964  22.302  24.467  1.00  0.00    -0.204 NA
ATOM     20  C   UNL A   1      35.942  23.745  24.801  1.00  0.00     0.124 C 
ATOM     21  C   UNL A   1      37.353  21.782  24.437  1.00  0.00     0.124 C 
ENDBRANCH  16  19
ENDBRANCH  14  16
ENDBRANCH   8  11
ENDBRANCH   5   7
ENDBRANCH   3   5
ENDBRANCH   2   3
ENDBRANCH   1   2
BRANCH   1  22
ATOM     22  C   UNL A   1      32.814  30.151  25.783  1.00  0.00     0.275 C 
BRANCH  22  23
ATOM     23  O   UNL A   1      32.734  30.618  27.143  1.00  0.00    -0.458 OA
BRANCH  23  24
ATOM     24  C   UNL A   1      33.484  31.712  27.420  1.00  0.00     0.338 C 
ATOM     25  O   UNL A   1      33.129  32.878  27.342  1.00  0.00    -0.246 OA
BRANCH  24  26
ATOM     26  C   UNL A   1      34.791  31.310  27.972  1.00  0.00     0.060 A 
ATOM     27  C   UNL A   1      34.903  30.023  28.511  1.00  0.00     0.016 A 
ATOM     28  C   UNL A   1      35.873  32.194  28.018  1.00  0.00     0.016 A 
ATOM     29  C   UNL A   1      36.096  29.619  29.107  1.00  0.00     0.010 A 
ATOM     30  C   UNL A   1      37.068  31.787  28.622  1.00  0.00     0.010 A 
ATOM     31  C   UNL A   1      37.180  30.504  29.183  1.00  0.00    -0.014 A 
BRANCH  31  32
ATOM     32  C   UNL A   1      38.417  30.097  29.891  1.00  0.00     0.031 A 
ATOM     33  C   UNL A   1      39.343  29.093  29.266  1.00  0.00     0.074 A 
ATOM     34  C   UNL A   1      38.706  30.630  31.093  1.00  0.00     0.049 A 
ATOM     35  N   UNL A   1      40.466  28.610  29.729  1.00  0.00    -0.248 NA
ATOM     36  C   UNL A   1      38.958  28.568  27.946  1.00  0.00     0.031 C 
ATOM     37  C   UNL A   1      37.879  31.605  31.802  1.00  0.00     0.029 A 
ATOM     38  N   UNL A   1      39.765  30.409  31.935  1.00  0.00    -0.354 N 
ATOM     39  C   UNL A   1      40.914  27.708  28.771  1.00  0.00     0.074 A 
ATOM     40  C   UNL A   1      39.937  27.706  27.703  1.00  0.00     0.031 C 
ATOM     41  C   UNL A   1      38.456  31.888  32.983  1.00  0.00     0.029 A 
ATOM     42  C   UNL A   1      39.677  31.100  33.121  1.00  0.00     0.049 A 
ATOM     43  H   UNL A   1      40.517  29.813  31.713  1.00  0.00     0.167 HD
ATOM     44  C   UNL A   1      42.046  26.965  28.772  1.00  0.00     0.034 A 
ATOM     45  C   UNL A   1      40.484  31.086  34.201  1.00  0.00     0.034 A 
ATOM     46  C   UNL A   1      43.027  26.982  29.821  1.00  0.00     0.049 A 
ATOM     47  C   UNL A   1      41.725  30.236  34.183  1.00  0.00     0.074 A 
ATOM     48  C   UNL A   1      44.224  26.292  29.892  1.00  0.00     0.029 A 
ATOM     49  N   UNL A   1      42.924  27.722  30.989  1.00  0.00    -0.354 N 
ATOM     50  N   UNL A   1      42.194  29.483  33.218  1.00  0.00    -0.248 NA
ATOM     51  C   UNL A   1      42.564  30.255  35.390  1.00  0.00     0.031 C 
ATOM     52  C   UNL A   1      44.844  26.612  31.106  1.00  0.00     0.029 A 
ATOM     53  C   UNL A   1      44.033  27.505  31.788  1.00  0.00     0.049 A 
ATOM     54  H   UNL A   1      42.172  28.316  31.216  1.00  0.00     0.167 HD
ATOM     55  C   UNL A   1      43.393  28.961  33.689  1.00  0.00     0.074 A 
ATOM     56  C   UNL A   1      43.590  29.501  35.019  1.00  0.00     0.031 C 
ATOM     57  C   UNL A   1      44.243  28.095  33.084  1.00  0.00     0.034 A 
BRANCH  44  58
ATOM     58  C   UNL A   1      42.309  26.101  27.569  1.00  0.00     0.023 A 
ATOM     59  C   UNL A   1      42.984  26.653  26.462  1.00  0.00     0.012 A 
ATOM     60  C   UNL A   1      41.948  24.740  27.553  1.00  0.00     0.148 A 
ATOM     61  C   UNL A   1      43.277  25.870  25.347  1.00  0.00     0.002 A 
ATOM     62  C   UNL A   1      42.271  23.957  26.450  1.00  0.00     0.091 A 
ATOM     63  F   UNL A   1      41.281  24.242  28.604  1.00  0.00    -0.205 F 
ATOM     64  C   UNL A   1      42.931  24.521  25.345  1.00  0.00     0.022 A 
BRANCH  62  65
ATOM     65  S   UNL A   1      41.917  22.197  26.386  1.00  0.00     0.127 S 
ATOM     66  O   UNL A   1      42.460  21.740  27.664  1.00  0.00    -0.237 OA
ATOM     67  O   UNL A   1      40.456  22.174  26.302  1.00  0.00    -0.237 OA
ATOM     68  O   UNL A   1      42.596  21.701  25.198  1.00  0.00    -0.744 OA
ENDBRANCH  62  65
ENDBRANCH  44  58
BRANCH  45  69
ATOM     69  C   UNL A   1      40.167  31.953  35.370  1.00  0.00     0.023 A 
ATOM     70  C   UNL A   1      40.897  33.142  35.565  1.00  0.00     0.012 A 
ATOM     71  C   UNL A   1      39.131  31.628  36.265  1.00  0.00     0.148 A 
ATOM     72  C   UNL A   1      40.610  33.982  36.642  1.00  0.00     0.002 A 
ATOM     73  C   UNL A   1      38.816  32.495  37.305  1.00  0.00     0.091 A 
ATOM     74  F   UNL A   1      38.465  30.479  36.079  1.00  0.00    -0.205 F 
ATOM     75  C   UNL A   1      39.563  33.667  37.503  1.00  0.00     0.022 A 
BRANCH  73  76
ATOM     76  S   UNL A   1      37.399  32.222  38.375  1.00  0.00     0.127 S 
ATOM     77  O   UNL A   1      37.297  30.765  38.371  1.00  0.00    -0.237 OA
ATOM     78  O   UNL A   1      37.851  32.806  39.639  1.00  0.00    -0.237 OA
ATOM     79  O   UNL A   1      36.301  32.943  37.746  1.00  0.00    -0.744 OA
ENDBRANCH  73  76
ENDBRANCH  45  69
BRANCH  57  80
ATOM     80  C   UNL A   1      45.479  27.689  33.841  1.00  0.00     0.023 A 
ATOM     81  C   UNL A   1      46.638  28.484  33.751  1.00  0.00     0.012 A 
ATOM     82  C   UNL A   1      45.470  26.574  34.702  1.00  0.00     0.148 A 
ATOM     83  C   UNL A   1      47.778  28.162  34.487  1.00  0.00     0.002 A 
ATOM     84  C   UNL A   1      46.597  26.282  35.463  1.00  0.00     0.091 A 
ATOM     85  F   UNL A   1      44.365  25.815  34.757  1.00  0.00    -0.205 F 
ATOM     86  C   UNL A   1      47.754  27.070  35.352  1.00  0.00     0.022 A 
BRANCH  84  87
ATOM     87  S   UNL A   1      46.614  24.943  36.661  1.00  0.00     0.127 S 
ATOM     88  O   UNL A   1      45.196  24.598  36.744  1.00  0.00    -0.237 OA
ATOM     89  O   UNL A   1      47.448  23.937  36.000  1.00  0.00    -0.237 OA
ATOM     90  O   UNL A   1      47.200  25.505  37.871  1.00  0.00    -0.744 OA
ENDBRANCH  84  87
ENDBRANCH  57  80
ENDBRANCH  31  32
ENDBRANCH  24  26
ENDBRANCH  23  24
ENDBRANCH  22  23
ENDBRANCH   1  22
TORSDOF 18
ENDMDL
