MODEL 1
REMARK VINA RESULT:     -11.0      0.000      0.000
REMARK SMILES O=C(OCCOC(=O)[C@@]1(Cl)C[C@@H]2CC[C@H]1C2)c1ccc(-c2c3nc(c(-c4cccc(S(=O)(=O)[O-])c4F)c4ccc([nH]4)c(-c4cccc(S(=O)(=O)[O-])c4F)c4nc(c(-c5cccc(S(=O)(=O)[O-])c5F)c5ccc2[nH]5)C=C4)C=C3)cc1
REMARK SMILES IDX 3 1 2 2 1 3 17 4 18 5 79 6 19 7 78 8 20 9 21 10 22 11 72 12
REMARK SMILES IDX 23 13 77 14 71 15 73 16 24 17 76 18 70 19 69 20 25 22 57 23
REMARK SMILES IDX 37 24 56 25 38 26 41 27 55 28 74 29 39 30 40 31 54 33 75 34
REMARK SMILES IDX 42 35 26 36 27 37 35 38 28 39 30 40 36 41 29 42 31 43 32 44
REMARK SMILES IDX 33 45 34 46 58 47 59 48 67 49 60 50 62 51 68 52 61 53 63 54
REMARK SMILES IDX 64 55 65 56 66 57 43 58 44 59 52 60 45 61 47 62 53 63 46 64
REMARK SMILES IDX 48 65 49 66 50 67 51 68 4 69 5 70 6 71 7 72 8 73 9 74 11 75
REMARK SMILES IDX 15 76 10 77 12 78 14 79 16 80 13 81
REMARK H PARENT 73 21 41 32
REMARK Flexibility Score: inf
ROOT
ATOM      1  O   UNL A   1      33.112  33.180  28.025  1.00  0.00    -0.458 OA
ENDROOT
BRANCH   1   2
ATOM      2  C   UNL A   1      33.642  31.995  27.632  1.00  0.00     0.338 C 
ATOM      3  O   UNL A   1      32.946  31.228  26.969  1.00  0.00    -0.246 OA
BRANCH   2   4
ATOM      4  C   UNL A   1      34.986  31.512  28.079  1.00  0.00     0.060 A 
ATOM      5  C   UNL A   1      36.176  32.243  28.042  1.00  0.00     0.016 A 
ATOM      6  C   UNL A   1      35.029  30.214  28.613  1.00  0.00     0.016 A 
ATOM      7  C   UNL A   1      37.338  31.766  28.664  1.00  0.00     0.010 A 
ATOM      8  C   UNL A   1      36.185  29.738  29.243  1.00  0.00     0.010 A 
ATOM      9  C   UNL A   1      37.341  30.530  29.310  1.00  0.00    -0.014 A 
BRANCH   9  10
ATOM     10  C   UNL A   1      38.563  30.035  29.991  1.00  0.00     0.031 A 
ATOM     11  C   UNL A   1      38.968  30.688  31.279  1.00  0.00     0.074 A 
ATOM     12  C   UNL A   1      39.312  29.040  29.468  1.00  0.00     0.049 A 
ATOM     13  N   UNL A   1      39.951  30.374  32.077  1.00  0.00    -0.248 NA
ATOM     14  C   UNL A   1      38.142  31.814  31.750  1.00  0.00     0.031 C 
ATOM     15  C   UNL A   1      39.026  28.304  28.235  1.00  0.00     0.029 A 
ATOM     16  N   UNL A   1      40.515  28.514  29.878  1.00  0.00    -0.354 N 
ATOM     17  C   UNL A   1      39.813  31.211  33.174  1.00  0.00     0.074 A 
ATOM     18  C   UNL A   1      38.743  32.135  32.883  1.00  0.00     0.031 C 
ATOM     19  C   UNL A   1      40.084  27.534  27.916  1.00  0.00     0.029 A 
ATOM     20  C   UNL A   1      41.094  27.667  28.956  1.00  0.00     0.049 A 
ATOM     21  H   UNL A   1      40.924  28.723  30.749  1.00  0.00     0.167 HD
ATOM     22  C   UNL A   1      40.453  31.148  34.363  1.00  0.00     0.034 A 
ATOM     23  C   UNL A   1      42.301  27.068  28.961  1.00  0.00     0.034 A 
ATOM     24  C   UNL A   1      41.534  30.250  34.633  1.00  0.00     0.049 A 
ATOM     25  C   UNL A   1      43.112  27.137  30.230  1.00  0.00     0.074 A 
ATOM     26  C   UNL A   1      42.243  30.077  35.805  1.00  0.00     0.029 A 
ATOM     27  N   UNL A   1      42.085  29.390  33.694  1.00  0.00    -0.354 N 
ATOM     28  N   UNL A   1      42.847  27.783  31.341  1.00  0.00    -0.248 NA
ATOM     29  C   UNL A   1      44.324  26.307  30.293  1.00  0.00     0.031 C 
ATOM     30  C   UNL A   1      43.250  29.135  35.564  1.00  0.00     0.029 A 
ATOM     31  C   UNL A   1      43.140  28.695  34.253  1.00  0.00     0.049 A 
ATOM     32  H   UNL A   1      41.770  29.289  32.768  1.00  0.00     0.167 HD
ATOM     33  C   UNL A   1      43.803  27.368  32.260  1.00  0.00     0.074 A 
ATOM     34  C   UNL A   1      44.660  26.425  31.571  1.00  0.00     0.031 C 
ATOM     35  C   UNL A   1      43.947  27.721  33.561  1.00  0.00     0.034 A 
BRANCH  22  36
ATOM     36  C   UNL A   1      39.921  32.033  35.453  1.00  0.00     0.023 A 
ATOM     37  C   UNL A   1      38.963  31.509  36.350  1.00  0.00     0.012 A 
ATOM     38  C   UNL A   1      40.328  33.370  35.575  1.00  0.00     0.148 A 
ATOM     39  C   UNL A   1      38.384  32.318  37.324  1.00  0.00     0.002 A 
ATOM     40  C   UNL A   1      39.776  34.161  36.575  1.00  0.00     0.091 A 
ATOM     41  F   UNL A   1      41.221  33.849  34.698  1.00  0.00    -0.205 F 
ATOM     42  C   UNL A   1      38.795  33.643  37.439  1.00  0.00     0.022 A 
BRANCH  40  43
ATOM     43  S   UNL A   1      40.263  35.866  36.846  1.00  0.00     0.127 S 
ATOM     44  O   UNL A   1      41.718  35.754  36.901  1.00  0.00    -0.237 OA
ATOM     45  O   UNL A   1      39.744  36.523  35.649  1.00  0.00    -0.237 OA
ATOM     46  O   UNL A   1      39.628  36.273  38.095  1.00  0.00    -0.744 OA
ENDBRANCH  40  43
ENDBRANCH  22  36
BRANCH  23  47
ATOM     47  C   UNL A   1      42.788  26.275  27.792  1.00  0.00     0.023 A 
ATOM     48  C   UNL A   1      43.619  26.879  26.828  1.00  0.00     0.012 A 
ATOM     49  C   UNL A   1      42.373  24.941  27.595  1.00  0.00     0.148 A 
ATOM     50  C   UNL A   1      43.976  26.198  25.662  1.00  0.00     0.002 A 
ATOM     51  C   UNL A   1      42.760  24.255  26.447  1.00  0.00     0.091 A 
ATOM     52  F   UNL A   1      41.587  24.378  28.523  1.00  0.00    -0.205 F 
ATOM     53  C   UNL A   1      43.546  24.889  25.470  1.00  0.00     0.022 A 
BRANCH  51  54
ATOM     54  S   UNL A   1      42.315  22.542  26.135  1.00  0.00     0.127 S 
ATOM     55  O   UNL A   1      42.908  22.312  24.821  1.00  0.00    -0.237 OA
ATOM     56  O   UNL A   1      42.982  21.853  27.241  1.00  0.00    -0.237 OA
ATOM     57  O   UNL A   1      40.860  22.499  26.188  1.00  0.00    -0.744 OA
ENDBRANCH  51  54
ENDBRANCH  23  47
BRANCH  35  58
ATOM     58  C   UNL A   1      45.029  27.038  34.351  1.00  0.00     0.023 A 
ATOM     59  C   UNL A   1      46.330  27.575  34.384  1.00  0.00     0.012 A 
ATOM     60  C   UNL A   1      44.728  25.898  35.122  1.00  0.00     0.148 A 
ATOM     61  C   UNL A   1      47.326  26.966  35.144  1.00  0.00     0.002 A 
ATOM     62  C   UNL A   1      45.708  25.334  35.927  1.00  0.00     0.091 A 
ATOM     63  F   UNL A   1      43.489  25.389  35.057  1.00  0.00    -0.205 F 
ATOM     64  C   UNL A   1      47.011  25.856  35.927  1.00  0.00     0.022 A 
BRANCH  62  65
ATOM     65  S   UNL A   1      45.360  23.981  37.054  1.00  0.00     0.127 S 
ATOM     66  O   UNL A   1      44.387  24.590  37.960  1.00  0.00    -0.237 OA
ATOM     67  O   UNL A   1      44.806  22.966  36.157  1.00  0.00    -0.237 OA
ATOM     68  O   UNL A   1      46.637  23.621  37.657  1.00  0.00    -0.744 OA
ENDBRANCH  62  65
ENDBRANCH  35  58
ENDBRANCH   9  10
ENDBRANCH   2   4
ENDBRANCH   1   2
BRANCH   1  69
ATOM     69  C   UNL A   1      33.719  34.482  28.084  1.00  0.00     0.275 C 
BRANCH  69  70
ATOM     70  C   UNL A   1      32.964  35.526  28.912  1.00  0.00     0.274 C 
BRANCH  70  71
ATOM     71  O   UNL A   1      32.799  35.138  30.285  1.00  0.00    -0.461 OA
BRANCH  71  72
ATOM     72  C   UNL A   1      33.109  36.073  31.231  1.00  0.00     0.327 C 
ATOM     73  O   UNL A   1      32.802  37.258  31.130  1.00  0.00    -0.250 OA
BRANCH  72  74
ATOM     74  C   UNL A   1      33.854  35.488  32.454  1.00  0.00     0.145 C 
ATOM     75  C   UNL A   1      33.253  34.227  33.092  1.00  0.00     0.039 C 
ATOM     76  C   UNL A   1      35.263  34.973  32.045  1.00  0.00     0.022 C 
ATOM     77  Cl  UNL A   1      33.894  36.833  33.648  1.00  0.00    -0.106 Cl
ATOM     78  C   UNL A   1      34.349  33.164  32.955  1.00  0.00    -0.008 C 
ATOM     79  C   UNL A   1      36.155  34.685  33.275  1.00  0.00     0.006 C 
ATOM     80  C   UNL A   1      34.945  33.535  31.602  1.00  0.00     0.009 C 
ATOM     81  C   UNL A   1      35.484  33.473  33.927  1.00  0.00     0.004 C 
ENDBRANCH  72  74
ENDBRANCH  71  72
ENDBRANCH  70  71
ENDBRANCH  69  70
ENDBRANCH   1  69
TORSDOF 14
ENDMDL
MODEL 2
REMARK VINA RESULT:     -10.9      5.992     12.779
REMARK SMILES O=C(OCCOC(=O)[C@@]1(Cl)C[C@@H]2CC[C@H]1C2)c1ccc(-c2c3nc(c(-c4cccc(S(=O)(=O)[O-])c4F)c4ccc([nH]4)c(-c4cccc(S(=O)(=O)[O-])c4F)c4nc(c(-c5cccc(S(=O)(=O)[O-])c5F)c5ccc2[nH]5)C=C4)C=C3)cc1
REMARK SMILES IDX 3 1 2 2 1 3 17 4 18 5 79 6 19 7 78 8 20 9 21 10 22 11 72 12
REMARK SMILES IDX 23 13 77 14 71 15 73 16 24 17 76 18 70 19 69 20 25 22 57 23
REMARK SMILES IDX 37 24 56 25 38 26 41 27 55 28 74 29 39 30 40 31 54 33 75 34
REMARK SMILES IDX 42 35 26 36 27 37 35 38 28 39 30 40 36 41 29 42 31 43 32 44
REMARK SMILES IDX 33 45 34 46 58 47 59 48 67 49 60 50 62 51 68 52 61 53 63 54
REMARK SMILES IDX 64 55 65 56 66 57 43 58 44 59 52 60 45 61 47 62 53 63 46 64
REMARK SMILES IDX 48 65 49 66 50 67 51 68 4 69 5 70 6 71 7 72 8 73 9 74 11 75
REMARK SMILES IDX 15 76 10 77 12 78 14 79 16 80 13 81
REMARK H PARENT 73 21 41 32
REMARK Flexibility Score: inf
ROOT
ATOM      1  O   UNL A   1      40.517  20.607  25.866  1.00  0.00    -0.458 OA
ENDROOT
BRANCH   1   2
ATOM      2  C   UNL A   1      39.616  21.568  26.188  1.00  0.00     0.338 C 
ATOM      3  O   UNL A   1      38.445  21.416  25.848  1.00  0.00    -0.246 OA
BRANCH   2   4
ATOM      4  C   UNL A   1      39.999  22.871  26.816  1.00  0.00     0.060 A 
ATOM      5  C   UNL A   1      40.753  23.031  27.982  1.00  0.00     0.016 A 
ATOM      6  C   UNL A   1      39.583  24.029  26.141  1.00  0.00     0.016 A 
ATOM      7  C   UNL A   1      41.219  24.292  28.377  1.00  0.00     0.010 A 
ATOM      8  C   UNL A   1      40.053  25.290  26.526  1.00  0.00     0.010 A 
ATOM      9  C   UNL A   1      40.912  25.428  27.626  1.00  0.00    -0.014 A 
BRANCH   9  10
ATOM     10  C   UNL A   1      41.426  26.761  28.028  1.00  0.00     0.031 A 
ATOM     11  C   UNL A   1      42.902  27.006  27.937  1.00  0.00     0.074 A 
ATOM     12  C   UNL A   1      40.601  27.730  28.484  1.00  0.00     0.049 A 
ATOM     13  N   UNL A   1      43.560  28.110  28.166  1.00  0.00    -0.248 NA
ATOM     14  C   UNL A   1      43.745  25.879  27.500  1.00  0.00     0.031 C 
ATOM     15  C   UNL A   1      39.145  27.635  28.606  1.00  0.00     0.029 A 
ATOM     16  N   UNL A   1      40.881  28.975  28.996  1.00  0.00    -0.354 N 
ATOM     17  C   UNL A   1      44.875  27.828  27.827  1.00  0.00     0.074 A 
ATOM     18  C   UNL A   1      44.950  26.422  27.511  1.00  0.00     0.031 C 
ATOM     19  C   UNL A   1      38.682  28.703  29.282  1.00  0.00     0.029 A 
ATOM     20  C   UNL A   1      39.795  29.592  29.582  1.00  0.00     0.049 A 
ATOM     21  H   UNL A   1      41.774  29.388  28.949  1.00  0.00     0.167 HD
ATOM     22  C   UNL A   1      45.908  28.688  27.690  1.00  0.00     0.034 A 
ATOM     23  C   UNL A   1      39.716  30.745  30.275  1.00  0.00     0.034 A 
ATOM     24  C   UNL A   1      45.833  30.075  28.035  1.00  0.00     0.049 A 
ATOM     25  C   UNL A   1      40.927  31.643  30.279  1.00  0.00     0.074 A 
ATOM     26  C   UNL A   1      46.805  31.050  27.918  1.00  0.00     0.029 A 
ATOM     27  N   UNL A   1      44.720  30.679  28.603  1.00  0.00    -0.354 N 
ATOM     28  N   UNL A   1      42.113  31.427  29.761  1.00  0.00    -0.248 NA
ATOM     29  C   UNL A   1      40.760  32.984  30.857  1.00  0.00     0.031 C 
ATOM     30  C   UNL A   1      46.289  32.238  28.449  1.00  0.00     0.029 A 
ATOM     31  C   UNL A   1      44.985  32.010  28.860  1.00  0.00     0.049 A 
ATOM     32  H   UNL A   1      43.868  30.225  28.793  1.00  0.00     0.167 HD
ATOM     33  C   UNL A   1      42.800  32.629  29.868  1.00  0.00     0.074 A 
ATOM     34  C   UNL A   1      41.901  33.566  30.512  1.00  0.00     0.031 C 
ATOM     35  C   UNL A   1      44.054  32.937  29.455  1.00  0.00     0.034 A 
BRANCH  22  36
ATOM     36  C   UNL A   1      47.158  28.134  27.070  1.00  0.00     0.023 A 
ATOM     37  C   UNL A   1      48.262  27.846  27.903  1.00  0.00     0.012 A 
ATOM     38  C   UNL A   1      47.261  27.930  25.686  1.00  0.00     0.148 A 
ATOM     39  C   UNL A   1      49.468  27.409  27.360  1.00  0.00     0.002 A 
ATOM     40  C   UNL A   1      48.453  27.454  25.155  1.00  0.00     0.091 A 
ATOM     41  F   UNL A   1      46.206  28.231  24.915  1.00  0.00    -0.205 F 
ATOM     42  C   UNL A   1      49.560  27.208  25.986  1.00  0.00     0.022 A 
BRANCH  40  43
ATOM     43  S   UNL A   1      48.671  27.114  23.407  1.00  0.00     0.127 S 
ATOM     44  O   UNL A   1      50.126  27.032  23.301  1.00  0.00    -0.237 OA
ATOM     45  O   UNL A   1      47.972  25.841  23.257  1.00  0.00    -0.237 OA
ATOM     46  O   UNL A   1      48.064  28.237  22.700  1.00  0.00    -0.744 OA
ENDBRANCH  40  43
ENDBRANCH  22  36
BRANCH  23  47
ATOM     47  C   UNL A   1      38.448  31.178  30.935  1.00  0.00     0.023 A 
ATOM     48  C   UNL A   1      38.201  30.832  32.279  1.00  0.00     0.012 A 
ATOM     49  C   UNL A   1      37.453  31.872  30.216  1.00  0.00     0.148 A 
ATOM     50  C   UNL A   1      36.968  31.111  32.875  1.00  0.00     0.002 A 
ATOM     51  C   UNL A   1      36.239  32.177  30.825  1.00  0.00     0.091 A 
ATOM     52  F   UNL A   1      37.705  32.198  28.940  1.00  0.00    -0.205 F 
ATOM     53  C   UNL A   1      35.988  31.780  32.149  1.00  0.00     0.022 A 
BRANCH  51  54
ATOM     54  S   UNL A   1      34.934  33.096  29.999  1.00  0.00     0.127 S 
ATOM     55  O   UNL A   1      35.683  34.177  29.366  1.00  0.00    -0.237 OA
ATOM     56  O   UNL A   1      34.401  32.093  29.075  1.00  0.00    -0.237 OA
ATOM     57  O   UNL A   1      34.010  33.498  31.051  1.00  0.00    -0.744 OA
ENDBRANCH  51  54
ENDBRANCH  23  47
BRANCH  35  58
ATOM     58  C   UNL A   1      44.512  34.359  29.620  1.00  0.00     0.023 A 
ATOM     59  C   UNL A   1      45.176  34.759  30.795  1.00  0.00     0.012 A 
ATOM     60  C   UNL A   1      44.344  35.282  28.569  1.00  0.00     0.148 A 
ATOM     61  C   UNL A   1      45.634  36.067  30.937  1.00  0.00     0.002 A 
ATOM     62  C   UNL A   1      44.860  36.565  28.691  1.00  0.00     0.091 A 
ATOM     63  F   UNL A   1      43.688  34.887  27.468  1.00  0.00    -0.205 F 
ATOM     64  C   UNL A   1      45.490  36.964  29.880  1.00  0.00     0.022 A 
BRANCH  62  65
ATOM     65  S   UNL A   1      44.825  37.743  27.338  1.00  0.00     0.127 S 
ATOM     66  O   UNL A   1      45.245  38.975  28.004  1.00  0.00    -0.237 OA
ATOM     67  O   UNL A   1      45.812  37.182  26.414  1.00  0.00    -0.237 OA
ATOM     68  O   UNL A   1      43.458  37.738  26.835  1.00  0.00    -0.744 OA
ENDBRANCH  62  65
ENDBRANCH  35  58
ENDBRANCH   9  10
ENDBRANCH   2   4
ENDBRANCH   1   2
BRANCH   1  69
ATOM     69  C   UNL A   1      41.106  19.588  26.693  1.00  0.00     0.275 C 
BRANCH  69  70
ATOM     70  C   UNL A   1      42.346  18.902  26.112  1.00  0.00     0.274 C 
BRANCH  70  71
ATOM     71  O   UNL A   1      42.947  19.646  25.041  1.00  0.00    -0.461 OA
BRANCH  71  72
ATOM     72  C   UNL A   1      44.292  19.494  24.862  1.00  0.00     0.327 C 
ATOM     73  O   UNL A   1      44.840  18.397  24.791  1.00  0.00    -0.250 OA
BRANCH  72  74
ATOM     74  C   UNL A   1      45.052  20.834  24.727  1.00  0.00     0.145 C 
ATOM     75  C   UNL A   1      44.611  21.767  23.589  1.00  0.00     0.039 C 
ATOM     76  C   UNL A   1      44.800  21.738  25.967  1.00  0.00     0.022 C 
ATOM     77  Cl  UNL A   1      46.774  20.362  24.514  1.00  0.00    -0.106 Cl
ATOM     78  C   UNL A   1      44.150  23.047  24.294  1.00  0.00    -0.008 C 
ATOM     79  C   UNL A   1      45.782  22.930  26.026  1.00  0.00     0.006 C 
ATOM     80  C   UNL A   1      43.513  22.472  25.554  1.00  0.00     0.009 C 
ATOM     81  C   UNL A   1      45.364  23.798  24.835  1.00  0.00     0.004 C 
ENDBRANCH  72  74
ENDBRANCH  71  72
ENDBRANCH  70  71
ENDBRANCH  69  70
ENDBRANCH   1  69
TORSDOF 14
ENDMDL
MODEL 3
REMARK VINA RESULT:     -10.6      5.515     12.271
REMARK SMILES O=C(OCCOC(=O)[C@@]1(Cl)C[C@@H]2CC[C@H]1C2)c1ccc(-c2c3nc(c(-c4cccc(S(=O)(=O)[O-])c4F)c4ccc([nH]4)c(-c4cccc(S(=O)(=O)[O-])c4F)c4nc(c(-c5cccc(S(=O)(=O)[O-])c5F)c5ccc2[nH]5)C=C4)C=C3)cc1
REMARK SMILES IDX 3 1 2 2 1 3 17 4 18 5 79 6 19 7 78 8 20 9 21 10 22 11 72 12
REMARK SMILES IDX 23 13 77 14 71 15 73 16 24 17 76 18 70 19 69 20 25 22 57 23
REMARK SMILES IDX 37 24 56 25 38 26 41 27 55 28 74 29 39 30 40 31 54 33 75 34
REMARK SMILES IDX 42 35 26 36 27 37 35 38 28 39 30 40 36 41 29 42 31 43 32 44
REMARK SMILES IDX 33 45 34 46 58 47 59 48 67 49 60 50 62 51 68 52 61 53 63 54
REMARK SMILES IDX 64 55 65 56 66 57 43 58 44 59 52 60 45 61 47 62 53 63 46 64
REMARK SMILES IDX 48 65 49 66 50 67 51 68 4 69 5 70 6 71 7 72 8 73 9 74 11 75
REMARK SMILES IDX 15 76 10 77 12 78 14 79 16 80 13 81
REMARK H PARENT 73 21 41 32
REMARK Flexibility Score: inf
ROOT
ATOM      1  O   UNL A   1      39.687  21.338  26.853  1.00  0.00    -0.458 OA
ENDROOT
BRANCH   1   2
ATOM      2  C   UNL A   1      38.998  22.411  26.391  1.00  0.00     0.338 C 
ATOM      3  O   UNL A   1      38.227  22.255  25.445  1.00  0.00    -0.246 OA
BRANCH   2   4
ATOM      4  C   UNL A   1      39.230  23.806  26.881  1.00  0.00     0.060 A 
ATOM      5  C   UNL A   1      38.915  24.292  28.153  1.00  0.00     0.016 A 
ATOM      6  C   UNL A   1      39.851  24.683  25.979  1.00  0.00     0.016 A 
ATOM      7  C   UNL A   1      39.351  25.556  28.574  1.00  0.00     0.010 A 
ATOM      8  C   UNL A   1      40.296  25.943  26.397  1.00  0.00     0.010 A 
ATOM      9  C   UNL A   1      40.085  26.375  27.715  1.00  0.00    -0.014 A 
BRANCH   9  10
ATOM     10  C   UNL A   1      40.569  27.703  28.167  1.00  0.00     0.031 A 
ATOM     11  C   UNL A   1      42.048  27.908  28.301  1.00  0.00     0.074 A 
ATOM     12  C   UNL A   1      39.713  28.703  28.472  1.00  0.00     0.049 A 
ATOM     13  N   UNL A   1      42.695  28.999  28.608  1.00  0.00    -0.248 NA
ATOM     14  C   UNL A   1      42.915  26.749  28.020  1.00  0.00     0.031 C 
ATOM     15  C   UNL A   1      38.253  28.649  28.368  1.00  0.00     0.029 A 
ATOM     16  N   UNL A   1      39.947  29.952  28.998  1.00  0.00    -0.354 N 
ATOM     17  C   UNL A   1      44.037  28.676  28.482  1.00  0.00     0.074 A 
ATOM     18  C   UNL A   1      44.120  27.261  28.207  1.00  0.00     0.031 C 
ATOM     19  C   UNL A   1      37.722  29.744  28.945  1.00  0.00     0.029 A 
ATOM     20  C   UNL A   1      38.802  30.609  29.397  1.00  0.00     0.049 A 
ATOM     21  H   UNL A   1      40.847  30.340  29.082  1.00  0.00     0.167 HD
ATOM     22  C   UNL A   1      45.104  29.505  28.491  1.00  0.00     0.034 A 
ATOM     23  C   UNL A   1      38.650  31.780  30.048  1.00  0.00     0.034 A 
ATOM     24  C   UNL A   1      45.017  30.902  28.795  1.00  0.00     0.049 A 
ATOM     25  C   UNL A   1      39.872  32.646  30.223  1.00  0.00     0.074 A 
ATOM     26  C   UNL A   1      46.023  31.848  28.811  1.00  0.00     0.029 A 
ATOM     27  N   UNL A   1      43.848  31.546  29.172  1.00  0.00    -0.354 N 
ATOM     28  N   UNL A   1      41.116  32.388  29.899  1.00  0.00    -0.248 NA
ATOM     29  C   UNL A   1      39.657  34.004  30.744  1.00  0.00     0.031 C 
ATOM     30  C   UNL A   1      45.467  33.060  29.234  1.00  0.00     0.029 A 
ATOM     31  C   UNL A   1      44.108  32.875  29.443  1.00  0.00     0.049 A 
ATOM     32  H   UNL A   1      42.964  31.119  29.236  1.00  0.00     0.167 HD
ATOM     33  C   UNL A   1      41.813  33.574  30.089  1.00  0.00     0.074 A 
ATOM     34  C   UNL A   1      40.853  34.548  30.568  1.00  0.00     0.031 C 
ATOM     35  C   UNL A   1      43.125  33.839  29.868  1.00  0.00     0.034 A 
BRANCH  22  36
ATOM     36  C   UNL A   1      46.418  28.905  28.082  1.00  0.00     0.023 A 
ATOM     37  C   UNL A   1      47.396  28.666  29.074  1.00  0.00     0.012 A 
ATOM     38  C   UNL A   1      46.703  28.611  26.740  1.00  0.00     0.148 A 
ATOM     39  C   UNL A   1      48.657  28.187  28.727  1.00  0.00     0.002 A 
ATOM     40  C   UNL A   1      47.949  28.094  26.406  1.00  0.00     0.091 A 
ATOM     41  F   UNL A   1      45.766  28.867  25.817  1.00  0.00    -0.205 F 
ATOM     42  C   UNL A   1      48.931  27.897  27.394  1.00  0.00     0.022 A 
BRANCH  40  43
ATOM     43  S   UNL A   1      48.395  27.641  24.730  1.00  0.00     0.127 S 
ATOM     44  O   UNL A   1      49.693  28.296  24.581  1.00  0.00    -0.237 OA
ATOM     45  O   UNL A   1      48.449  26.184  24.815  1.00  0.00    -0.237 OA
ATOM     46  O   UNL A   1      47.337  28.168  23.874  1.00  0.00    -0.744 OA
ENDBRANCH  40  43
ENDBRANCH  22  36
BRANCH  23  47
ATOM     47  C   UNL A   1      37.308  32.260  30.496  1.00  0.00     0.023 A 
ATOM     48  C   UNL A   1      36.853  31.965  31.797  1.00  0.00     0.012 A 
ATOM     49  C   UNL A   1      36.451  32.950  29.614  1.00  0.00     0.148 A 
ATOM     50  C   UNL A   1      35.553  32.289  32.191  1.00  0.00     0.002 A 
ATOM     51  C   UNL A   1      35.167  33.300  30.024  1.00  0.00     0.091 A 
ATOM     52  F   UNL A   1      36.899  33.228  28.382  1.00  0.00    -0.205 F 
ATOM     53  C   UNL A   1      34.710  32.953  31.306  1.00  0.00     0.022 A 
BRANCH  51  54
ATOM     54  S   UNL A   1      34.025  34.218  28.983  1.00  0.00     0.127 S 
ATOM     55  O   UNL A   1      34.857  35.329  28.531  1.00  0.00    -0.237 OA
ATOM     56  O   UNL A   1      33.701  33.231  27.952  1.00  0.00    -0.237 OA
ATOM     57  O   UNL A   1      32.908  34.576  29.847  1.00  0.00    -0.744 OA
ENDBRANCH  51  54
ENDBRANCH  23  47
BRANCH  35  58
ATOM     58  C   UNL A   1      43.592  35.253  30.077  1.00  0.00     0.023 A 
ATOM     59  C   UNL A   1      44.165  35.638  31.304  1.00  0.00     0.012 A 
ATOM     60  C   UNL A   1      43.528  36.181  29.018  1.00  0.00     0.148 A 
ATOM     61  C   UNL A   1      44.632  36.938  31.487  1.00  0.00     0.002 A 
ATOM     62  C   UNL A   1      44.055  37.454  29.187  1.00  0.00     0.091 A 
ATOM     63  F   UNL A   1      42.958  35.801  27.866  1.00  0.00    -0.205 F 
ATOM     64  C   UNL A   1      44.592  37.840  30.425  1.00  0.00     0.022 A 
BRANCH  62  65
ATOM     65  S   UNL A   1      44.153  38.637  27.840  1.00  0.00     0.127 S 
ATOM     66  O   UNL A   1      42.844  38.479  27.209  1.00  0.00    -0.237 OA
ATOM     67  O   UNL A   1      44.338  39.901  28.552  1.00  0.00    -0.237 OA
ATOM     68  O   UNL A   1      45.293  38.229  27.029  1.00  0.00    -0.744 OA
ENDBRANCH  62  65
ENDBRANCH  35  58
ENDBRANCH   9  10
ENDBRANCH   2   4
ENDBRANCH   1   2
BRANCH   1  69
ATOM     69  C   UNL A   1      40.245  20.227  26.131  1.00  0.00     0.275 C 
BRANCH  69  70
ATOM     70  C   UNL A   1      41.526  19.632  26.723  1.00  0.00     0.274 C 
BRANCH  70  71
ATOM     71  O   UNL A   1      42.511  20.629  27.039  1.00  0.00    -0.461 OA
BRANCH  71  72
ATOM     72  C   UNL A   1      43.319  21.043  26.020  1.00  0.00     0.327 C 
ATOM     73  O   UNL A   1      43.640  20.320  25.080  1.00  0.00    -0.250 OA
BRANCH  72  74
ATOM     74  C   UNL A   1      43.766  22.519  26.148  1.00  0.00     0.145 C 
ATOM     75  C   UNL A   1      45.268  22.771  26.349  1.00  0.00     0.039 C 
ATOM     76  C   UNL A   1      43.509  23.289  24.823  1.00  0.00     0.022 C 
ATOM     77  Cl  UNL A   1      42.834  23.155  27.548  1.00  0.00    -0.106 Cl
ATOM     78  C   UNL A   1      45.683  23.612  25.137  1.00  0.00    -0.008 C 
ATOM     79  C   UNL A   1      43.634  24.819  25.007  1.00  0.00     0.006 C 
ATOM     80  C   UNL A   1      44.807  23.007  24.048  1.00  0.00     0.009 C 
ATOM     81  C   UNL A   1      45.126  25.026  25.281  1.00  0.00     0.004 C 
ENDBRANCH  72  74
ENDBRANCH  71  72
ENDBRANCH  70  71
ENDBRANCH  69  70
ENDBRANCH   1  69
TORSDOF 14
ENDMDL
