MODEL 1
REMARK VINA RESULT:     -11.9      0.000      0.000
REMARK SMILES COC(=O)[C@H]1CC[C@]2(C)[C@H](CC[C@]3(C)[C@H]2CC=C2[C@H]4CC(C)(C)CC[C@]4(C(=O)OCCOC(=O)c4ccc(-c5c6nc(c(-c7cccc(S(=O)(=O)[O-])c7F)c7ccc([nH]7)c(-c7cccc(S(=O)(=O)[O-])c7F)c7nc(c(-c8cccc(S(=O)(=O)[O-])c8F)c8ccc5[nH]8)C=C7)C=C6)cc4)CC[C@@]23C)C1(C)C
REMARK SMILES IDX 31 1 30 2 29 3 27 4 28 5 26 6 5 7 6 8 102 9 7 10 10 11
REMARK SMILES IDX 103 12 104 13 8 14 11 15 15 16 9 17 12 18 16 19 13 20 17 21
REMARK SMILES IDX 100 22 14 23 18 24 99 25 101 26 19 27 98 28 20 29 21 30
REMARK SMILES IDX 25 31 24 32 22 33 23 34 3 35 4 36 2 37 1 38 32 39 33 40
REMARK SMILES IDX 34 41 35 42 36 43 97 44 37 45 96 46 38 47 39 48 40 49 90 50
REMARK SMILES IDX 41 51 95 52 89 53 91 54 42 55 94 56 88 57 87 58 43 60 75 61
REMARK SMILES IDX 55 62 74 63 56 64 59 65 73 66 92 67 57 68 58 69 72 71 93 72
REMARK SMILES IDX 60 73 44 74 45 75 53 76 46 77 48 78 54 79 47 80 49 81 50 82
REMARK SMILES IDX 51 83 52 84 76 85 77 86 85 87 78 88 80 89 86 90 79 91 81 92
REMARK SMILES IDX 82 93 83 94 84 95 61 96 62 97 70 98 63 99 65 100 71 101
REMARK SMILES IDX 64 102 66 103 67 104 68 105 69 106
REMARK H PARENT 91 59 59 70
REMARK Flexibility Score: inf
ROOT
ATOM      1  C   UNL A   1      46.046  39.170  27.277  1.00  0.00     0.275 C 
ENDROOT
BRANCH   1   2
ATOM      2  C   UNL A   1      46.513  39.307  25.818  1.00  0.00     0.274 C 
BRANCH   2   3
ATOM      3  O   UNL A   1      46.943  40.666  25.540  1.00  0.00    -0.462 OA
BRANCH   3   4
ATOM      4  C   UNL A   1      46.506  41.294  24.412  1.00  0.00     0.312 C 
ATOM      5  O   UNL A   1      46.521  40.752  23.315  1.00  0.00    -0.252 OA
BRANCH   4   6
ATOM      6  C   UNL A   1      46.192  42.819  24.641  1.00  0.00     0.075 C 
ATOM      7  C   UNL A   1      45.431  45.910  17.436  1.00  0.00     0.105 C 
ATOM      8  C   UNL A   1      46.954  45.832  17.108  1.00  0.00     0.016 C 
ATOM      9  C   UNL A   1      44.957  45.478  18.890  1.00  0.00    -0.019 C 
ATOM     10  C   UNL A   1      47.970  45.958  18.276  1.00  0.00     0.008 C 
ATOM     11  C   UNL A   1      46.139  45.891  19.866  1.00  0.00     0.002 C 
ATOM     12  C   UNL A   1      44.516  43.977  18.885  1.00  0.00     0.012 C 
ATOM     13  C   UNL A   1      43.630  46.194  19.282  1.00  0.00     0.012 C 
ATOM     14  C   UNL A   1      47.512  45.194  19.565  1.00  0.00    -0.026 C 
ATOM     15  C   UNL A   1      45.790  46.173  21.318  1.00  0.00     0.005 C 
ATOM     16  C   UNL A   1      48.650  45.348  20.749  1.00  0.00     0.006 C 
ATOM     17  C   UNL A   1      47.434  43.721  19.029  1.00  0.00     0.012 C 
ATOM     18  C   UNL A   1      46.927  46.813  22.103  1.00  0.00     0.008 C 
ATOM     19  C   UNL A   1      49.322  43.962  21.032  1.00  0.00     0.032 C 
ATOM     20  C   UNL A   1      48.257  46.034  22.210  1.00  0.00    -0.020 C 
ATOM     21  C   UNL A   1      48.299  43.141  21.786  1.00  0.00    -0.027 C 
ATOM     22  C   UNL A   1      48.261  44.926  23.413  1.00  0.00    -0.006 C 
ATOM     23  C   UNL A   1      49.339  47.111  22.524  1.00  0.00     0.012 C 
ATOM     24  C   UNL A   1      47.572  43.740  22.745  1.00  0.00    -0.063 C 
ATOM     25  C   UNL A   1      47.527  45.126  24.798  1.00  0.00     0.013 C 
ATOM     26  C   UNL A   1      49.731  44.596  23.911  1.00  0.00     0.017 C 
ATOM     27  C   UNL A   1      46.138  43.454  23.257  1.00  0.00     0.033 C 
ATOM     28  C   UNL A   1      47.161  43.731  25.485  1.00  0.00     0.020 C 
ATOM     29  C   UNL A   1      45.020  42.859  22.379  1.00  0.00     0.015 C 
ATOM     30  C   UNL A   1      43.604  42.984  23.034  1.00  0.00    -0.035 C 
ATOM     31  C   UNL A   1      44.785  42.899  25.313  1.00  0.00     0.020 C 
ATOM     32  C   UNL A   1      43.624  42.384  24.451  1.00  0.00     0.007 C 
ATOM     33  C   UNL A   1      42.588  42.214  22.170  1.00  0.00     0.011 C 
ATOM     34  C   UNL A   1      43.094  44.443  23.129  1.00  0.00     0.011 C 
BRANCH   7  35
ATOM     35  C   UNL A   1      44.905  47.296  17.083  1.00  0.00     0.309 C 
ATOM     36  O   UNL A   1      45.502  48.332  17.342  1.00  0.00    -0.252 OA
BRANCH  35  37
ATOM     37  O   UNL A   1      43.776  47.205  16.334  1.00  0.00    -0.469 OA
ATOM     38  C   UNL A   1      42.808  48.236  16.531  1.00  0.00     0.282 C 
ENDBRANCH  35  37
ENDBRANCH   7  35
ENDBRANCH   4   6
ENDBRANCH   3   4
ENDBRANCH   2   3
ENDBRANCH   1   2
BRANCH   1  39
ATOM     39  O   UNL A   1      45.628  37.821  27.516  1.00  0.00    -0.458 OA
BRANCH  39  40
ATOM     40  C   UNL A   1      46.391  37.158  28.423  1.00  0.00     0.338 C 
ATOM     41  O   UNL A   1      47.248  37.624  29.147  1.00  0.00    -0.246 OA
BRANCH  40  42
ATOM     42  C   UNL A   1      45.681  35.886  28.654  1.00  0.00     0.060 A 
ATOM     43  C   UNL A   1      44.793  35.503  27.650  1.00  0.00     0.016 A 
ATOM     44  C   UNL A   1      46.032  35.000  29.665  1.00  0.00     0.016 A 
ATOM     45  C   UNL A   1      44.357  34.187  27.553  1.00  0.00     0.010 A 
ATOM     46  C   UNL A   1      45.533  33.699  29.618  1.00  0.00     0.010 A 
ATOM     47  C   UNL A   1      44.730  33.277  28.541  1.00  0.00    -0.014 A 
BRANCH  47  48
ATOM     48  C   UNL A   1      44.144  31.923  28.560  1.00  0.00     0.031 A 
ATOM     49  C   UNL A   1      44.853  30.867  27.778  1.00  0.00     0.074 A 
ATOM     50  C   UNL A   1      42.993  31.659  29.202  1.00  0.00     0.049 A 
ATOM     51  N   UNL A   1      44.436  29.685  27.415  1.00  0.00    -0.248 NA
ATOM     52  C   UNL A   1      46.218  31.196  27.334  1.00  0.00     0.031 C 
ATOM     53  C   UNL A   1      42.261  32.588  30.061  1.00  0.00     0.029 A 
ATOM     54  N   UNL A   1      42.215  30.528  29.189  1.00  0.00    -0.354 N 
ATOM     55  C   UNL A   1      45.459  29.157  26.643  1.00  0.00     0.074 A 
ATOM     56  C   UNL A   1      46.529  30.129  26.615  1.00  0.00     0.031 C 
ATOM     57  C   UNL A   1      41.113  32.007  30.452  1.00  0.00     0.029 A 
ATOM     58  C   UNL A   1      41.009  30.688  29.831  1.00  0.00     0.049 A 
ATOM     59  H   UNL A   1      42.493  29.685  28.763  1.00  0.00     0.167 HD
ATOM     60  C   UNL A   1      45.496  27.968  26.002  1.00  0.00     0.034 A 
ATOM     61  C   UNL A   1      39.930  29.879  29.861  1.00  0.00     0.034 A 
ATOM     62  C   UNL A   1      44.431  27.007  26.046  1.00  0.00     0.049 A 
ATOM     63  C   UNL A   1      39.982  28.571  29.109  1.00  0.00     0.074 A 
ATOM     64  C   UNL A   1      44.358  25.773  25.429  1.00  0.00     0.029 A 
ATOM     65  N   UNL A   1      43.247  27.178  26.748  1.00  0.00    -0.354 N 
ATOM     66  N   UNL A   1      40.965  28.055  28.409  1.00  0.00    -0.248 NA
ATOM     67  C   UNL A   1      38.778  27.727  29.159  1.00  0.00     0.031 C 
ATOM     68  C   UNL A   1      43.123  25.201  25.750  1.00  0.00     0.029 A 
ATOM     69  C   UNL A   1      42.436  26.070  26.584  1.00  0.00     0.049 A 
ATOM     70  H   UNL A   1      43.018  27.971  27.285  1.00  0.00     0.167 HD
ATOM     71  C   UNL A   1      40.512  26.816  27.965  1.00  0.00     0.074 A 
ATOM     72  C   UNL A   1      39.174  26.650  28.496  1.00  0.00     0.031 C 
ATOM     73  C   UNL A   1      41.132  25.904  27.175  1.00  0.00     0.034 A 
BRANCH  60  74
ATOM     74  C   UNL A   1      46.723  27.667  25.194  1.00  0.00     0.023 A 
ATOM     75  C   UNL A   1      46.689  27.800  23.791  1.00  0.00     0.012 A 
ATOM     76  C   UNL A   1      47.910  27.247  25.823  1.00  0.00     0.148 A 
ATOM     77  C   UNL A   1      47.810  27.489  23.023  1.00  0.00     0.002 A 
ATOM     78  C   UNL A   1      49.036  26.981  25.056  1.00  0.00     0.091 A 
ATOM     79  F   UNL A   1      47.906  27.088  27.154  1.00  0.00    -0.205 F 
ATOM     80  C   UNL A   1      48.986  27.090  23.656  1.00  0.00     0.022 A 
BRANCH  78  81
ATOM     81  S   UNL A   1      50.614  26.526  25.782  1.00  0.00     0.127 S 
ATOM     82  O   UNL A   1      50.352  25.155  26.219  1.00  0.00    -0.237 OA
ATOM     83  O   UNL A   1      51.521  26.640  24.640  1.00  0.00    -0.237 OA
ATOM     84  O   UNL A   1      50.856  27.487  26.849  1.00  0.00    -0.744 OA
ENDBRANCH  78  81
ENDBRANCH  60  74
BRANCH  61  85
ATOM     85  C   UNL A   1      38.709  30.269  30.626  1.00  0.00     0.023 A 
ATOM     86  C   UNL A   1      38.562  29.832  31.957  1.00  0.00     0.012 A 
ATOM     87  C   UNL A   1      37.692  31.053  30.048  1.00  0.00     0.148 A 
ATOM     88  C   UNL A   1      37.412  30.139  32.687  1.00  0.00     0.002 A 
ATOM     89  C   UNL A   1      36.573  31.403  30.799  1.00  0.00     0.091 A 
ATOM     90  F   UNL A   1      37.832  31.438  28.772  1.00  0.00    -0.205 F 
ATOM     91  C   UNL A   1      36.423  30.933  32.113  1.00  0.00     0.022 A 
BRANCH  89  92
ATOM     92  S   UNL A   1      35.303  32.515  30.181  1.00  0.00     0.127 S 
ATOM     93  O   UNL A   1      34.384  32.579  31.314  1.00  0.00    -0.237 OA
ATOM     94  O   UNL A   1      36.066  33.740  29.938  1.00  0.00    -0.237 OA
ATOM     95  O   UNL A   1      34.780  31.884  28.977  1.00  0.00    -0.744 OA
ENDBRANCH  89  92
ENDBRANCH  61  85
BRANCH  73  96
ATOM     96  C   UNL A   1      40.393  24.629  26.868  1.00  0.00     0.023 A 
ATOM     97  C   UNL A   1      39.142  24.682  26.220  1.00  0.00     0.012 A 
ATOM     98  C   UNL A   1      40.969  23.376  27.157  1.00  0.00     0.148 A 
ATOM     99  C   UNL A   1      38.463  23.508  25.896  1.00  0.00     0.002 A 
ATOM    100  C   UNL A   1      40.308  22.211  26.788  1.00  0.00     0.091 A 
ATOM    101  F   UNL A   1      42.150  23.345  27.791  1.00  0.00    -0.205 F 
ATOM    102  C   UNL A   1      39.050  22.275  26.168  1.00  0.00     0.022 A 
BRANCH 100 103
ATOM    103  S   UNL A   1      41.043  20.587  27.014  1.00  0.00     0.127 S 
ATOM    104  O   UNL A   1      40.206  19.758  26.149  1.00  0.00    -0.237 OA
ATOM    105  O   UNL A   1      42.409  20.788  26.531  1.00  0.00    -0.237 OA
ATOM    106  O   UNL A   1      40.949  20.308  28.442  1.00  0.00    -0.744 OA
ENDBRANCH 100 103
ENDBRANCH  73  96
ENDBRANCH  47  48
ENDBRANCH  40  42
ENDBRANCH  39  40
ENDBRANCH   1  39
TORSDOF 16
ENDMDL
MODEL 2
REMARK VINA RESULT:     -11.8      7.862     14.217
REMARK SMILES COC(=O)[C@H]1CC[C@]2(C)[C@H](CC[C@]3(C)[C@H]2CC=C2[C@H]4CC(C)(C)CC[C@]4(C(=O)OCCOC(=O)c4ccc(-c5c6nc(c(-c7cccc(S(=O)(=O)[O-])c7F)c7ccc([nH]7)c(-c7cccc(S(=O)(=O)[O-])c7F)c7nc(c(-c8cccc(S(=O)(=O)[O-])c8F)c8ccc5[nH]8)C=C7)C=C6)cc4)CC[C@@]23C)C1(C)C
REMARK SMILES IDX 31 1 30 2 29 3 27 4 28 5 26 6 5 7 6 8 102 9 7 10 10 11
REMARK SMILES IDX 103 12 104 13 8 14 11 15 15 16 9 17 12 18 16 19 13 20 17 21
REMARK SMILES IDX 100 22 14 23 18 24 99 25 101 26 19 27 98 28 20 29 21 30
REMARK SMILES IDX 25 31 24 32 22 33 23 34 3 35 4 36 2 37 1 38 32 39 33 40
REMARK SMILES IDX 34 41 35 42 36 43 97 44 37 45 96 46 38 47 39 48 40 49 90 50
REMARK SMILES IDX 41 51 95 52 89 53 91 54 42 55 94 56 88 57 87 58 43 60 75 61
REMARK SMILES IDX 55 62 74 63 56 64 59 65 73 66 92 67 57 68 58 69 72 71 93 72
REMARK SMILES IDX 60 73 44 74 45 75 53 76 46 77 48 78 54 79 47 80 49 81 50 82
REMARK SMILES IDX 51 83 52 84 76 85 77 86 85 87 78 88 80 89 86 90 79 91 81 92
REMARK SMILES IDX 82 93 83 94 84 95 61 96 62 97 70 98 63 99 65 100 71 101
REMARK SMILES IDX 64 102 66 103 67 104 68 105 69 106
REMARK H PARENT 91 59 59 70
REMARK Flexibility Score: inf
ROOT
ATOM      1  C   UNL A   1      46.007  38.136  32.610  1.00  0.00     0.275 C 
ENDROOT
BRANCH   1   2
ATOM      2  C   UNL A   1      44.782  38.337  33.519  1.00  0.00     0.274 C 
BRANCH   2   3
ATOM      3  O   UNL A   1      43.702  37.447  33.132  1.00  0.00    -0.462 OA
BRANCH   3   4
ATOM      4  C   UNL A   1      42.877  36.933  34.088  1.00  0.00     0.312 C 
ATOM      5  O   UNL A   1      42.081  37.627  34.706  1.00  0.00    -0.252 OA
BRANCH   4   6
ATOM      6  C   UNL A   1      43.207  35.436  34.443  1.00  0.00     0.075 C 
ATOM      7  C   UNL A   1      37.411  33.087  39.232  1.00  0.00     0.105 C 
ATOM      8  C   UNL A   1      37.905  33.934  40.447  1.00  0.00     0.016 C 
ATOM      9  C   UNL A   1      38.296  33.088  37.913  1.00  0.00    -0.019 C 
ATOM     10  C   UNL A   1      39.427  34.209  40.587  1.00  0.00     0.008 C 
ATOM     11  C   UNL A   1      39.800  33.215  38.405  1.00  0.00     0.002 C 
ATOM     12  C   UNL A   1      37.769  34.172  36.915  1.00  0.00     0.012 C 
ATOM     13  C   UNL A   1      38.082  31.779  37.095  1.00  0.00     0.012 C 
ATOM     14  C   UNL A   1      40.118  34.520  39.214  1.00  0.00    -0.026 C 
ATOM     15  C   UNL A   1      40.888  32.658  37.502  1.00  0.00     0.005 C 
ATOM     16  C   UNL A   1      41.721  34.830  39.445  1.00  0.00     0.006 C 
ATOM     17  C   UNL A   1      39.340  35.810  38.774  1.00  0.00     0.012 C 
ATOM     18  C   UNL A   1      42.254  32.584  38.170  1.00  0.00     0.008 C 
ATOM     19  C   UNL A   1      42.029  36.332  39.127  1.00  0.00     0.032 C 
ATOM     20  C   UNL A   1      42.873  33.900  38.691  1.00  0.00    -0.020 C 
ATOM     21  C   UNL A   1      41.971  36.468  37.622  1.00  0.00    -0.027 C 
ATOM     22  C   UNL A   1      43.662  34.745  37.533  1.00  0.00    -0.006 C 
ATOM     23  C   UNL A   1      43.905  33.468  39.776  1.00  0.00     0.012 C 
ATOM     24  C   UNL A   1      42.515  35.500  36.865  1.00  0.00    -0.063 C 
ATOM     25  C   UNL A   1      44.480  34.077  36.357  1.00  0.00     0.013 C 
ATOM     26  C   UNL A   1      44.768  35.703  38.146  1.00  0.00     0.017 C 
ATOM     27  C   UNL A   1      42.150  34.995  35.447  1.00  0.00     0.033 C 
ATOM     28  C   UNL A   1      44.590  35.040  35.086  1.00  0.00     0.020 C 
ATOM     29  C   UNL A   1      40.725  35.048  34.863  1.00  0.00     0.015 C 
ATOM     30  C   UNL A   1      40.568  34.181  33.568  1.00  0.00    -0.035 C 
ATOM     31  C   UNL A   1      43.060  34.612  33.126  1.00  0.00     0.020 C 
ATOM     32  C   UNL A   1      41.642  34.573  32.539  1.00  0.00     0.007 C 
ATOM     33  C   UNL A   1      39.172  34.434  32.969  1.00  0.00     0.011 C 
ATOM     34  C   UNL A   1      40.672  32.659  33.828  1.00  0.00     0.011 C 
BRANCH   7  35
ATOM     35  C   UNL A   1      37.119  31.664  39.690  1.00  0.00     0.309 C 
ATOM     36  O   UNL A   1      36.158  31.012  39.303  1.00  0.00    -0.252 OA
BRANCH  35  37
ATOM     37  O   UNL A   1      38.131  31.190  40.462  1.00  0.00    -0.469 OA
ATOM     38  C   UNL A   1      37.744  30.486  41.641  1.00  0.00     0.282 C 
ENDBRANCH  35  37
ENDBRANCH   7  35
ENDBRANCH   4   6
ENDBRANCH   3   4
ENDBRANCH   2   3
ENDBRANCH   1   2
BRANCH   1  39
ATOM     39  O   UNL A   1      45.659  37.253  31.537  1.00  0.00    -0.458 OA
BRANCH  39  40
ATOM     40  C   UNL A   1      46.607  36.320  31.260  1.00  0.00     0.338 C 
ATOM     41  O   UNL A   1      47.778  36.338  31.587  1.00  0.00    -0.246 OA
BRANCH  40  42
ATOM     42  C   UNL A   1      45.849  35.115  30.878  1.00  0.00     0.060 A 
ATOM     43  C   UNL A   1      45.070  35.235  29.727  1.00  0.00     0.016 A 
ATOM     44  C   UNL A   1      46.066  33.873  31.460  1.00  0.00     0.016 A 
ATOM     45  C   UNL A   1      44.620  34.106  29.055  1.00  0.00     0.010 A 
ATOM     46  C   UNL A   1      45.547  32.740  30.833  1.00  0.00     0.010 A 
ATOM     47  C   UNL A   1      44.861  32.849  29.608  1.00  0.00    -0.014 A 
BRANCH  47  48
ATOM     48  C   UNL A   1      44.247  31.647  29.011  1.00  0.00     0.031 A 
ATOM     49  C   UNL A   1      42.838  31.341  29.402  1.00  0.00     0.074 A 
ATOM     50  C   UNL A   1      44.937  30.828  28.199  1.00  0.00     0.049 A 
ATOM     51  N   UNL A   1      42.154  30.243  29.239  1.00  0.00    -0.248 NA
ATOM     52  C   UNL A   1      42.105  32.423  30.081  1.00  0.00     0.031 C 
ATOM     53  C   UNL A   1      46.285  31.070  27.686  1.00  0.00     0.029 A 
ATOM     54  N   UNL A   1      44.601  29.596  27.696  1.00  0.00    -0.354 N 
ATOM     55  C   UNL A   1      40.934  30.477  29.855  1.00  0.00     0.074 A 
ATOM     56  C   UNL A   1      40.957  31.829  30.366  1.00  0.00     0.031 C 
ATOM     57  C   UNL A   1      46.682  29.995  26.983  1.00  0.00     0.029 A 
ATOM     58  C   UNL A   1      45.638  28.974  27.039  1.00  0.00     0.049 A 
ATOM     59  H   UNL A   1      43.707  29.197  27.794  1.00  0.00     0.167 HD
ATOM     60  C   UNL A   1      39.891  29.629  29.994  1.00  0.00     0.034 A 
ATOM     61  C   UNL A   1      45.740  27.707  26.587  1.00  0.00     0.034 A 
ATOM     62  C   UNL A   1      39.876  28.292  29.473  1.00  0.00     0.049 A 
ATOM     63  C   UNL A   1      44.574  26.769  26.785  1.00  0.00     0.074 A 
ATOM     64  C   UNL A   1      38.875  27.344  29.561  1.00  0.00     0.029 A 
ATOM     65  N   UNL A   1      40.920  27.713  28.767  1.00  0.00    -0.354 N 
ATOM     66  N   UNL A   1      43.406  27.002  27.334  1.00  0.00    -0.248 NA
ATOM     67  C   UNL A   1      44.736  25.394  26.288  1.00  0.00     0.031 C 
ATOM     68  C   UNL A   1      39.318  26.185  28.916  1.00  0.00     0.029 A 
ATOM     69  C   UNL A   1      40.588  26.419  28.409  1.00  0.00     0.049 A 
ATOM     70  H   UNL A   1      41.772  28.157  28.553  1.00  0.00     0.167 HD
ATOM     71  C   UNL A   1      42.684  25.818  27.221  1.00  0.00     0.074 A 
ATOM     72  C   UNL A   1      43.540  24.876  26.527  1.00  0.00     0.031 C 
ATOM     73  C   UNL A   1      41.436  25.523  27.665  1.00  0.00     0.034 A 
BRANCH  60  74
ATOM     74  C   UNL A   1      38.698  30.135  30.752  1.00  0.00     0.023 A 
ATOM     75  C   UNL A   1      38.585  29.876  32.133  1.00  0.00     0.012 A 
ATOM     76  C   UNL A   1      37.688  30.861  30.095  1.00  0.00     0.148 A 
ATOM     77  C   UNL A   1      37.466  30.308  32.844  1.00  0.00     0.002 A 
ATOM     78  C   UNL A   1      36.598  31.326  30.818  1.00  0.00     0.091 A 
ATOM     79  F   UNL A   1      37.798  31.059  28.774  1.00  0.00    -0.205 F 
ATOM     80  C   UNL A   1      36.478  31.041  32.189  1.00  0.00     0.022 A 
BRANCH  78  81
ATOM     81  S   UNL A   1      35.308  32.334  30.079  1.00  0.00     0.127 S 
ATOM     82  O   UNL A   1      34.413  32.548  31.216  1.00  0.00    -0.237 OA
ATOM     83  O   UNL A   1      36.052  33.521  29.657  1.00  0.00    -0.237 OA
ATOM     84  O   UNL A   1      34.757  31.543  28.988  1.00  0.00    -0.744 OA
ENDBRANCH  78  81
ENDBRANCH  60  74
BRANCH  61  85
ATOM     85  C   UNL A   1      46.983  27.243  25.904  1.00  0.00     0.023 A 
ATOM     86  C   UNL A   1      47.102  27.399  24.509  1.00  0.00     0.012 A 
ATOM     87  C   UNL A   1      48.039  26.640  26.616  1.00  0.00     0.148 A 
ATOM     88  C   UNL A   1      48.230  26.935  23.831  1.00  0.00     0.002 A 
ATOM     89  C   UNL A   1      49.186  26.229  25.941  1.00  0.00     0.091 A 
ATOM     90  F   UNL A   1      47.901  26.472  27.938  1.00  0.00    -0.205 F 
ATOM     91  C   UNL A   1      49.276  26.360  24.547  1.00  0.00     0.022 A 
BRANCH  89  92
ATOM     92  S   UNL A   1      50.629  25.582  26.795  1.00  0.00     0.127 S 
ATOM     93  O   UNL A   1      51.529  25.288  25.682  1.00  0.00    -0.237 OA
ATOM     94  O   UNL A   1      51.027  26.721  27.623  1.00  0.00    -0.237 OA
ATOM     95  O   UNL A   1      50.157  24.428  27.548  1.00  0.00    -0.744 OA
ENDBRANCH  89  92
ENDBRANCH  61  85
BRANCH  73  96
ATOM     96  C   UNL A   1      40.902  24.144  27.380  1.00  0.00     0.023 A 
ATOM     97  C   UNL A   1      41.516  23.020  27.968  1.00  0.00     0.012 A 
ATOM     98  C   UNL A   1      39.749  23.969  26.590  1.00  0.00     0.148 A 
ATOM     99  C   UNL A   1      41.010  21.740  27.744  1.00  0.00     0.002 A 
ATOM    100  C   UNL A   1      39.224  22.695  26.411  1.00  0.00     0.091 A 
ATOM    101  F   UNL A   1      39.190  25.048  26.023  1.00  0.00    -0.205 F 
ATOM    102  C   UNL A   1      39.859  21.578  26.977  1.00  0.00     0.022 A 
BRANCH 100 103
ATOM    103  S   UNL A   1      37.689  22.415  25.520  1.00  0.00     0.127 S 
ATOM    104  O   UNL A   1      37.751  20.978  25.261  1.00  0.00    -0.237 OA
ATOM    105  O   UNL A   1      36.677  22.816  26.498  1.00  0.00    -0.237 OA
ATOM    106  O   UNL A   1      37.754  23.273  24.343  1.00  0.00    -0.744 OA
ENDBRANCH 100 103
ENDBRANCH  73  96
ENDBRANCH  47  48
ENDBRANCH  40  42
ENDBRANCH  39  40
ENDBRANCH   1  39
TORSDOF 16
ENDMDL
MODEL 3
REMARK VINA RESULT:     -11.6     10.364     13.057
REMARK SMILES COC(=O)[C@H]1CC[C@]2(C)[C@H](CC[C@]3(C)[C@H]2CC=C2[C@H]4CC(C)(C)CC[C@]4(C(=O)OCCOC(=O)c4ccc(-c5c6nc(c(-c7cccc(S(=O)(=O)[O-])c7F)c7ccc([nH]7)c(-c7cccc(S(=O)(=O)[O-])c7F)c7nc(c(-c8cccc(S(=O)(=O)[O-])c8F)c8ccc5[nH]8)C=C7)C=C6)cc4)CC[C@@]23C)C1(C)C
REMARK SMILES IDX 31 1 30 2 29 3 27 4 28 5 26 6 5 7 6 8 102 9 7 10 10 11
REMARK SMILES IDX 103 12 104 13 8 14 11 15 15 16 9 17 12 18 16 19 13 20 17 21
REMARK SMILES IDX 100 22 14 23 18 24 99 25 101 26 19 27 98 28 20 29 21 30
REMARK SMILES IDX 25 31 24 32 22 33 23 34 3 35 4 36 2 37 1 38 32 39 33 40
REMARK SMILES IDX 34 41 35 42 36 43 97 44 37 45 96 46 38 47 39 48 40 49 90 50
REMARK SMILES IDX 41 51 95 52 89 53 91 54 42 55 94 56 88 57 87 58 43 60 75 61
REMARK SMILES IDX 55 62 74 63 56 64 59 65 73 66 92 67 57 68 58 69 72 71 93 72
REMARK SMILES IDX 60 73 44 74 45 75 53 76 46 77 48 78 54 79 47 80 49 81 50 82
REMARK SMILES IDX 51 83 52 84 76 85 77 86 85 87 78 88 80 89 86 90 79 91 81 92
REMARK SMILES IDX 82 93 83 94 84 95 61 96 62 97 70 98 63 99 65 100 71 101
REMARK SMILES IDX 64 102 66 103 67 104 68 105 69 106
REMARK H PARENT 91 59 59 70
REMARK Flexibility Score: inf
ROOT
ATOM      1  C   UNL A   1      50.155  25.828  34.915  1.00  0.00     0.275 C 
ENDROOT
BRANCH   1   2
ATOM      2  C   UNL A   1      50.282  24.856  33.729  1.00  0.00     0.274 C 
BRANCH   2   3
ATOM      3  O   UNL A   1      49.317  25.179  32.693  1.00  0.00    -0.462 OA
BRANCH   3   4
ATOM      4  C   UNL A   1      49.751  25.475  31.435  1.00  0.00     0.312 C 
ATOM      5  O   UNL A   1      50.560  24.776  30.841  1.00  0.00    -0.252 OA
BRANCH   4   6
ATOM      6  C   UNL A   1      49.273  26.889  30.938  1.00  0.00     0.075 C 
ATOM      7  C   UNL A   1      49.923  26.688  23.091  1.00  0.00     0.105 C 
ATOM      8  C   UNL A   1      51.482  26.742  23.096  1.00  0.00     0.016 C 
ATOM      9  C   UNL A   1      49.168  26.796  24.485  1.00  0.00    -0.019 C 
ATOM     10  C   UNL A   1      52.193  27.490  24.257  1.00  0.00     0.008 C 
ATOM     11  C   UNL A   1      50.059  27.755  25.382  1.00  0.00     0.002 C 
ATOM     12  C   UNL A   1      48.860  25.366  25.040  1.00  0.00     0.012 C 
ATOM     13  C   UNL A   1      47.733  27.376  24.301  1.00  0.00     0.012 C 
ATOM     14  C   UNL A   1      51.516  27.237  25.648  1.00  0.00    -0.026 C 
ATOM     15  C   UNL A   1      49.369  28.528  26.493  1.00  0.00     0.005 C 
ATOM     16  C   UNL A   1      52.340  28.037  26.832  1.00  0.00     0.006 C 
ATOM     17  C   UNL A   1      51.681  25.682  25.782  1.00  0.00     0.012 C 
ATOM     18  C   UNL A   1      50.242  29.608  27.117  1.00  0.00     0.008 C 
ATOM     19  C   UNL A   1      53.039  27.011  27.787  1.00  0.00     0.032 C 
ATOM     20  C   UNL A   1      51.571  29.170  27.772  1.00  0.00    -0.020 C 
ATOM     21  C   UNL A   1      51.941  26.399  28.628  1.00  0.00    -0.027 C 
ATOM     22  C   UNL A   1      51.391  28.650  29.312  1.00  0.00    -0.006 C 
ATOM     23  C   UNL A   1      52.464  30.448  27.783  1.00  0.00     0.012 C 
ATOM     24  C   UNL A   1      50.969  27.198  29.101  1.00  0.00    -0.063 C 
ATOM     25  C   UNL A   1      50.347  29.258  30.331  1.00  0.00     0.013 C 
ATOM     26  C   UNL A   1      52.731  28.795  30.149  1.00  0.00     0.017 C 
ATOM     27  C   UNL A   1      49.484  26.903  29.430  1.00  0.00     0.033 C 
ATOM     28  C   UNL A   1      49.948  28.210  31.470  1.00  0.00     0.020 C 
ATOM     29  C   UNL A   1      48.646  25.831  28.708  1.00  0.00     0.015 C 
ATOM     30  C   UNL A   1      47.112  25.967  28.992  1.00  0.00    -0.035 C 
ATOM     31  C   UNL A   1      47.748  26.993  31.258  1.00  0.00     0.020 C 
ATOM     32  C   UNL A   1      46.859  25.992  30.509  1.00  0.00     0.007 C 
ATOM     33  C   UNL A   1      46.385  24.758  28.373  1.00  0.00     0.011 C 
ATOM     34  C   UNL A   1      46.479  27.235  28.370  1.00  0.00     0.011 C 
BRANCH   7  35
ATOM     35  C   UNL A   1      49.382  27.710  22.099  1.00  0.00     0.309 C 
ATOM     36  O   UNL A   1      49.797  28.858  22.016  1.00  0.00    -0.252 OA
BRANCH  35  37
ATOM     37  O   UNL A   1      48.494  27.132  21.249  1.00  0.00    -0.469 OA
ATOM     38  C   UNL A   1      49.031  26.178  20.333  1.00  0.00     0.282 C 
ENDBRANCH  35  37
ENDBRANCH   7  35
ENDBRANCH   4   6
ENDBRANCH   3   4
ENDBRANCH   2   3
ENDBRANCH   1   2
BRANCH   1  39
ATOM     39  O   UNL A   1      49.198  26.844  34.593  1.00  0.00    -0.458 OA
BRANCH  39  40
ATOM     40  C   UNL A   1      48.205  26.977  35.510  1.00  0.00     0.338 C 
ATOM     41  O   UNL A   1      48.323  27.148  36.707  1.00  0.00    -0.246 OA
BRANCH  40  42
ATOM     42  C   UNL A   1      47.004  27.303  34.718  1.00  0.00     0.060 A 
ATOM     43  C   UNL A   1      45.979  26.359  34.767  1.00  0.00     0.016 A 
ATOM     44  C   UNL A   1      46.789  28.555  34.158  1.00  0.00     0.016 A 
ATOM     45  C   UNL A   1      44.684  26.700  34.395  1.00  0.00     0.010 A 
ATOM     46  C   UNL A   1      45.508  28.876  33.707  1.00  0.00     0.010 A 
ATOM     47  C   UNL A   1      44.444  27.967  33.863  1.00  0.00    -0.014 A 
BRANCH  47  48
ATOM     48  C   UNL A   1      43.121  28.295  33.300  1.00  0.00     0.031 A 
ATOM     49  C   UNL A   1      42.851  27.849  31.900  1.00  0.00     0.074 A 
ATOM     50  C   UNL A   1      42.217  29.014  33.987  1.00  0.00     0.049 A 
ATOM     51  N   UNL A   1      41.901  28.212  31.084  1.00  0.00    -0.248 NA
ATOM     52  C   UNL A   1      43.793  26.864  31.341  1.00  0.00     0.031 C 
ATOM     53  C   UNL A   1      42.338  29.430  35.383  1.00  0.00     0.029 A 
ATOM     54  N   UNL A   1      41.025  29.557  33.576  1.00  0.00    -0.354 N 
ATOM     55  C   UNL A   1      42.169  27.553  29.894  1.00  0.00     0.074 A 
ATOM     56  C   UNL A   1      43.349  26.744  30.101  1.00  0.00     0.031 C 
ATOM     57  C   UNL A   1      41.288  30.208  35.698  1.00  0.00     0.029 A 
ATOM     58  C   UNL A   1      40.450  30.384  34.514  1.00  0.00     0.049 A 
ATOM     59  H   UNL A   1      40.620  29.373  32.697  1.00  0.00     0.167 HD
ATOM     60  C   UNL A   1      41.495  27.629  28.725  1.00  0.00     0.034 A 
ATOM     61  C   UNL A   1      39.400  31.222  34.401  1.00  0.00     0.034 A 
ATOM     62  C   UNL A   1      40.319  28.429  28.535  1.00  0.00     0.049 A 
ATOM     63  C   UNL A   1      38.684  31.316  33.075  1.00  0.00     0.074 A 
ATOM     64  C   UNL A   1      39.559  28.586  27.392  1.00  0.00     0.029 A 
ATOM     65  N   UNL A   1      39.733  29.211  29.519  1.00  0.00    -0.354 N 
ATOM     66  N   UNL A   1      38.915  30.664  31.960  1.00  0.00    -0.248 NA
ATOM     67  C   UNL A   1      37.553  32.253  32.995  1.00  0.00     0.031 C 
ATOM     68  C   UNL A   1      38.518  29.474  27.682  1.00  0.00     0.029 A 
ATOM     69  C   UNL A   1      38.618  29.852  29.012  1.00  0.00     0.049 A 
ATOM     70  H   UNL A   1      40.063  29.297  30.443  1.00  0.00     0.167 HD
ATOM     71  C   UNL A   1      37.943  31.086  31.059  1.00  0.00     0.074 A 
ATOM     72  C   UNL A   1      37.104  32.033  31.768  1.00  0.00     0.031 C 
ATOM     73  C   UNL A   1      37.765  30.743  29.758  1.00  0.00     0.034 A 
BRANCH  60  74
ATOM     74  C   UNL A   1      42.037  26.835  27.573  1.00  0.00     0.023 A 
ATOM     75  C   UNL A   1      42.792  27.479  26.571  1.00  0.00     0.012 A 
ATOM     76  C   UNL A   1      41.793  25.452  27.479  1.00  0.00     0.148 A 
ATOM     77  C   UNL A   1      43.271  26.762  25.477  1.00  0.00     0.002 A 
ATOM     78  C   UNL A   1      42.310  24.736  26.408  1.00  0.00     0.091 A 
ATOM     79  F   UNL A   1      41.038  24.871  28.421  1.00  0.00    -0.205 F 
ATOM     80  C   UNL A   1      43.039  25.390  25.400  1.00  0.00     0.022 A 
BRANCH  78  81
ATOM     81  S   UNL A   1      42.122  22.957  26.256  1.00  0.00     0.127 S 
ATOM     82  O   UNL A   1      42.784  22.698  24.978  1.00  0.00    -0.237 OA
ATOM     83  O   UNL A   1      42.849  22.470  27.429  1.00  0.00    -0.237 OA
ATOM     84  O   UNL A   1      40.689  22.702  26.281  1.00  0.00    -0.744 OA
ENDBRANCH  78  81
ENDBRANCH  60  74
BRANCH  61  85
ATOM     85  C   UNL A   1      38.954  32.042  35.566  1.00  0.00     0.023 A 
ATOM     86  C   UNL A   1      39.246  33.420  35.591  1.00  0.00     0.012 A 
ATOM     87  C   UNL A   1      38.257  31.472  36.650  1.00  0.00     0.148 A 
ATOM     88  C   UNL A   1      38.885  34.208  36.684  1.00  0.00     0.002 A 
ATOM     89  C   UNL A   1      37.850  32.274  37.713  1.00  0.00     0.091 A 
ATOM     90  F   UNL A   1      38.010  30.155  36.626  1.00  0.00    -0.205 F 
ATOM     91  C   UNL A   1      38.178  33.638  37.740  1.00  0.00     0.022 A 
BRANCH  89  92
ATOM     92  S   UNL A   1      36.837  31.652  39.061  1.00  0.00     0.127 S 
ATOM     93  O   UNL A   1      36.739  30.232  38.731  1.00  0.00    -0.237 OA
ATOM     94  O   UNL A   1      37.667  31.955  40.228  1.00  0.00    -0.237 OA
ATOM     95  O   UNL A   1      35.592  32.404  38.998  1.00  0.00    -0.744 OA
ENDBRANCH  89  92
ENDBRANCH  61  85
BRANCH  73  96
ATOM     96  C   UNL A   1      36.601  31.357  29.027  1.00  0.00     0.023 A 
ATOM     97  C   UNL A   1      36.579  32.746  28.785  1.00  0.00     0.012 A 
ATOM     98  C   UNL A   1      35.566  30.550  28.516  1.00  0.00     0.148 A 
ATOM     99  C   UNL A   1      35.527  33.324  28.077  1.00  0.00     0.002 A 
ATOM    100  C   UNL A   1      34.546  31.128  27.770  1.00  0.00     0.091 A 
ATOM    101  F   UNL A   1      35.593  29.234  28.772  1.00  0.00    -0.205 F 
ATOM    102  C   UNL A   1      34.518  32.516  27.559  1.00  0.00     0.022 A 
BRANCH 100 103
ATOM    103  S   UNL A   1      33.264  30.142  26.986  1.00  0.00     0.127 S 
ATOM    104  O   UNL A   1      33.036  29.100  27.985  1.00  0.00    -0.237 OA
ATOM    105  O   UNL A   1      32.169  31.102  26.845  1.00  0.00    -0.237 OA
ATOM    106  O   UNL A   1      33.831  29.692  25.721  1.00  0.00    -0.744 OA
ENDBRANCH 100 103
ENDBRANCH  73  96
ENDBRANCH  47  48
ENDBRANCH  40  42
ENDBRANCH  39  40
ENDBRANCH   1  39
TORSDOF 16
ENDMDL
