MODEL 1
REMARK VINA RESULT:     -12.3      0.000      0.000
REMARK SMILES COc1ccc(-c2ccc([C@H](C)[NH+]3CCOCC3)cc2)c(C(=O)OCCOC(=O)c2ccc(-c3c4nc(c(-c5cccc(S(=O)(=O)[O-])c5F)c5ccc([nH]5)c(-c5cccc(S(=O)(=O)[O-])c5F)c5nc(c(-c6cccc(S(=O)(=O)[O-])c6F)c6ccc3[nH]6)C=C5)C=C4)cc2)c1
REMARK SMILES IDX 25 1 24 2 22 3 23 4 21 5 3 6 4 7 93 8 5 9 6 10 2 11 1 12
REMARK SMILES IDX 7 13 8 14 20 15 9 16 19 17 10 18 11 19 12 20 13 21 14 22
REMARK SMILES IDX 18 23 15 25 17 26 16 27 26 28 27 29 28 30 29 31 30 32 31 33
REMARK SMILES IDX 92 34 32 35 91 36 33 37 34 38 35 39 85 40 36 41 90 42 84 43
REMARK SMILES IDX 86 44 37 45 89 46 83 47 82 48 38 50 70 51 50 52 69 53 51 54
REMARK SMILES IDX 54 55 68 56 87 57 52 58 53 59 67 61 88 62 55 63 39 64 40 65
REMARK SMILES IDX 48 66 41 67 43 68 49 69 42 70 44 71 45 72 46 73 47 74 71 75
REMARK SMILES IDX 72 76 80 77 73 78 75 79 81 80 74 81 76 82 77 83 78 84 79 85
REMARK SMILES IDX 56 86 57 87 65 88 58 89 60 90 66 91 59 92 61 93 62 94 63 95
REMARK SMILES IDX 64 96
REMARK H PARENT 13 24 86 49 54 60
REMARK Flexibility Score: inf
ROOT
ATOM      1  C   UNL A   1      32.434  30.450  26.920  1.00  0.00     0.275 C 
ENDROOT
BRANCH   1   2
ATOM      2  O   UNL A   1      31.455  29.696  26.175  1.00  0.00    -0.458 OA
BRANCH   2   3
ATOM      3  C   UNL A   1      31.754  29.475  24.870  1.00  0.00     0.339 C 
ATOM      4  O   UNL A   1      32.863  29.513  24.364  1.00  0.00    -0.246 OA
BRANCH   3   5
ATOM      5  C   UNL A   1      30.508  29.352  24.083  1.00  0.00     0.071 A 
ATOM      6  C   UNL A   1      28.797  30.632  22.955  1.00  0.00     0.119 A 
ATOM      7  C   UNL A   1      28.377  29.466  22.313  1.00  0.00     0.047 A 
ATOM      8  C   UNL A   1      29.834  30.565  23.874  1.00  0.00     0.062 A 
ATOM      9  C   UNL A   1      29.028  28.243  22.542  1.00  0.00     0.013 A 
ATOM     10  C   UNL A   1      30.121  28.166  23.416  1.00  0.00    -0.004 A 
BRANCH   6  11
ATOM     11  O   UNL A   1      28.147  31.789  22.617  1.00  0.00    -0.497 OA
ATOM     12  C   UNL A   1      28.784  32.986  23.066  1.00  0.00     0.278 C 
ENDBRANCH   6  11
BRANCH  10  13
ATOM     13  C   UNL A   1      30.916  26.934  23.496  1.00  0.00    -0.018 A 
ATOM     14  C   UNL A   1      30.209  25.587  24.405  1.00  0.00     0.009 A 
ATOM     15  C   UNL A   1      32.345  26.581  22.438  1.00  0.00     0.009 A 
ATOM     16  C   UNL A   1      30.805  23.919  24.317  1.00  0.00     0.010 A 
ATOM     17  C   UNL A   1      32.959  24.657  22.302  1.00  0.00     0.010 A 
ATOM     18  C   UNL A   1      32.153  23.412  23.307  1.00  0.00     0.009 A 
BRANCH  18  19
ATOM     19  C   UNL A   1      32.843  22.077  23.583  1.00  0.00     0.212 C 
ATOM     20  C   UNL A   1      32.174  20.901  22.851  1.00  0.00     0.081 C 
BRANCH  19  21
ATOM     21  N   UNL A   1      33.248  21.911  24.983  1.00  0.00    -0.325 N 
ATOM     22  C   UNL A   1      34.137  22.986  25.483  1.00  0.00     0.291 C 
ATOM     23  C   UNL A   1      33.800  20.615  25.377  1.00  0.00     0.291 C 
ATOM     24  H   UNL A   1      32.337  21.971  25.437  1.00  0.00     0.348 HD
ATOM     25  C   UNL A   1      35.643  22.757  25.216  1.00  0.00     0.221 C 
ATOM     26  C   UNL A   1      35.257  20.434  24.966  1.00  0.00     0.221 C 
ATOM     27  O   UNL A   1      36.086  21.433  25.569  1.00  0.00    -0.370 OA
ENDBRANCH  19  21
ENDBRANCH  18  19
ENDBRANCH  10  13
ENDBRANCH   3   5
ENDBRANCH   2   3
ENDBRANCH   1   2
BRANCH   1  28
ATOM     28  C   UNL A   1      32.024  31.916  26.995  1.00  0.00     0.275 C 
BRANCH  28  29
ATOM     29  O   UNL A   1      33.209  32.729  27.023  1.00  0.00    -0.458 OA
BRANCH  29  30
ATOM     30  C   UNL A   1      33.335  33.460  28.148  1.00  0.00     0.338 C 
ATOM     31  O   UNL A   1      32.504  34.217  28.631  1.00  0.00    -0.246 OA
BRANCH  30  32
ATOM     32  C   UNL A   1      34.587  33.176  28.853  1.00  0.00     0.060 A 
ATOM     33  C   UNL A   1      36.017  34.244  28.651  1.00  0.00     0.016 A 
ATOM     34  C   UNL A   1      34.869  31.478  29.201  1.00  0.00     0.016 A 
ATOM     35  C   UNL A   1      37.854  33.403  28.765  1.00  0.00     0.010 A 
ATOM     36  C   UNL A   1      36.491  30.772  29.381  1.00  0.00     0.010 A 
ATOM     37  C   UNL A   1      38.023  31.666  29.196  1.00  0.00    -0.014 A 
BRANCH  37  38
ATOM     38  C   UNL A   1      39.304  31.134  29.886  1.00  0.00     0.031 A 
ATOM     39  C   UNL A   1      40.004  29.898  29.338  1.00  0.00     0.074 A 
ATOM     40  C   UNL A   1      39.727  31.543  31.117  1.00  0.00     0.049 A 
ATOM     41  N   UNL A   1      40.795  29.044  29.944  1.00  0.00    -0.248 NA
ATOM     42  C   UNL A   1      39.783  29.577  27.920  1.00  0.00     0.031 C 
ATOM     43  C   UNL A   1      39.394  32.766  31.834  1.00  0.00     0.029 A 
ATOM     44  N   UNL A   1      40.481  30.865  32.071  1.00  0.00    -0.354 N 
ATOM     45  C   UNL A   1      41.118  28.077  28.996  1.00  0.00     0.074 A 
ATOM     46  C   UNL A   1      40.318  28.367  27.827  1.00  0.00     0.031 C 
ATOM     47  C   UNL A   1      39.687  32.659  33.134  1.00  0.00     0.029 A 
ATOM     48  C   UNL A   1      40.368  31.402  33.344  1.00  0.00     0.049 A 
ATOM     49  H   UNL A   1      41.040  30.083  31.862  1.00  0.00     0.167 HD
ATOM     50  C   UNL A   1      42.075  27.114  29.031  1.00  0.00     0.034 A 
ATOM     51  C   UNL A   1      40.790  31.007  34.562  1.00  0.00     0.034 A 
ATOM     52  C   UNL A   1      42.994  26.927  30.123  1.00  0.00     0.049 A 
ATOM     53  C   UNL A   1      41.812  29.923  34.623  1.00  0.00     0.074 A 
ATOM     54  C   UNL A   1      44.119  26.121  30.176  1.00  0.00     0.029 A 
ATOM     55  N   UNL A   1      42.906  27.566  31.349  1.00  0.00    -0.354 N 
ATOM     56  N   UNL A   1      42.216  29.134  33.664  1.00  0.00    -0.248 NA
ATOM     57  C   UNL A   1      42.557  29.790  35.882  1.00  0.00     0.031 C 
ATOM     58  C   UNL A   1      44.698  26.256  31.444  1.00  0.00     0.029 A 
ATOM     59  C   UNL A   1      43.946  27.162  32.171  1.00  0.00     0.049 A 
ATOM     60  H   UNL A   1      42.207  28.212  31.600  1.00  0.00     0.167 HD
ATOM     61  C   UNL A   1      43.335  28.489  34.161  1.00  0.00     0.074 A 
ATOM     62  C   UNL A   1      43.517  28.949  35.524  1.00  0.00     0.031 C 
ATOM     63  C   UNL A   1      44.156  27.627  33.518  1.00  0.00     0.034 A 
BRANCH  50  64
ATOM     64  C   UNL A   1      42.268  26.277  27.786  1.00  0.00     0.023 A 
ATOM     65  C   UNL A   1      42.917  26.839  26.663  1.00  0.00     0.012 A 
ATOM     66  C   UNL A   1      41.841  24.936  27.726  1.00  0.00     0.148 A 
ATOM     67  C   UNL A   1      43.063  26.115  25.481  1.00  0.00     0.002 A 
ATOM     68  C   UNL A   1      42.041  24.200  26.562  1.00  0.00     0.091 A 
ATOM     69  F   UNL A   1      41.233  24.409  28.798  1.00  0.00    -0.205 F 
ATOM     70  C   UNL A   1      42.630  24.795  25.433  1.00  0.00     0.022 A 
BRANCH  68  71
ATOM     71  S   UNL A   1      41.605  22.463  26.418  1.00  0.00     0.127 S 
ATOM     72  O   UNL A   1      42.307  22.084  25.192  1.00  0.00    -0.237 OA
ATOM     73  O   UNL A   1      42.176  21.902  27.643  1.00  0.00    -0.237 OA
ATOM     74  O   UNL A   1      40.152  22.417  26.346  1.00  0.00    -0.744 OA
ENDBRANCH  68  71
ENDBRANCH  50  64
BRANCH  51  75
ATOM     75  C   UNL A   1      40.434  31.796  35.780  1.00  0.00     0.023 A 
ATOM     76  C   UNL A   1      41.347  32.744  36.283  1.00  0.00     0.012 A 
ATOM     77  C   UNL A   1      39.188  31.635  36.418  1.00  0.00     0.148 A 
ATOM     78  C   UNL A   1      41.033  33.509  37.407  1.00  0.00     0.002 A 
ATOM     79  C   UNL A   1      38.871  32.419  37.526  1.00  0.00     0.091 A 
ATOM     80  F   UNL A   1      38.342  30.717  35.933  1.00  0.00    -0.205 F 
ATOM     81  C   UNL A   1      39.796  33.351  38.025  1.00  0.00     0.022 A 
BRANCH  79  82
ATOM     82  S   UNL A   1      37.289  32.330  38.378  1.00  0.00     0.127 S 
ATOM     83  O   UNL A   1      37.080  30.888  38.475  1.00  0.00    -0.237 OA
ATOM     84  O   UNL A   1      37.595  32.993  39.646  1.00  0.00    -0.237 OA
ATOM     85  O   UNL A   1      36.340  33.038  37.530  1.00  0.00    -0.744 OA
ENDBRANCH  79  82
ENDBRANCH  51  75
BRANCH  63  86
ATOM     86  C   UNL A   1      45.367  27.141  34.260  1.00  0.00     0.023 A 
ATOM     87  C   UNL A   1      46.573  27.863  34.187  1.00  0.00     0.012 A 
ATOM     88  C   UNL A   1      45.292  25.994  35.073  1.00  0.00     0.148 A 
ATOM     89  C   UNL A   1      47.697  27.432  34.888  1.00  0.00     0.002 A 
ATOM     90  C   UNL A   1      46.399  25.603  35.814  1.00  0.00     0.091 A 
ATOM     91  F   UNL A   1      44.142  25.304  35.104  1.00  0.00    -0.205 F 
ATOM     92  C   UNL A   1      47.607  26.312  35.711  1.00  0.00     0.022 A 
BRANCH  90  93
ATOM     93  S   UNL A   1      46.347  24.238  36.979  1.00  0.00     0.127 S 
ATOM     94  O   UNL A   1      46.516  23.085  36.096  1.00  0.00    -0.237 OA
ATOM     95  O   UNL A   1      47.496  24.523  37.838  1.00  0.00    -0.237 OA
ATOM     96  O   UNL A   1      45.056  24.326  37.647  1.00  0.00    -0.744 OA
ENDBRANCH  90  93
ENDBRANCH  63  86
ENDBRANCH  37  38
ENDBRANCH  30  32
ENDBRANCH  29  30
ENDBRANCH  28  29
ENDBRANCH   1  28
TORSDOF 18
ENDMDL
MODEL 2
REMARK VINA RESULT:     -12.0      2.313      7.618
REMARK SMILES COc1ccc(-c2ccc([C@H](C)[NH+]3CCOCC3)cc2)c(C(=O)OCCOC(=O)c2ccc(-c3c4nc(c(-c5cccc(S(=O)(=O)[O-])c5F)c5ccc([nH]5)c(-c5cccc(S(=O)(=O)[O-])c5F)c5nc(c(-c6cccc(S(=O)(=O)[O-])c6F)c6ccc3[nH]6)C=C5)C=C4)cc2)c1
REMARK SMILES IDX 25 1 24 2 22 3 23 4 21 5 3 6 4 7 93 8 5 9 6 10 2 11 1 12
REMARK SMILES IDX 7 13 8 14 20 15 9 16 19 17 10 18 11 19 12 20 13 21 14 22
REMARK SMILES IDX 18 23 15 25 17 26 16 27 26 28 27 29 28 30 29 31 30 32 31 33
REMARK SMILES IDX 92 34 32 35 91 36 33 37 34 38 35 39 85 40 36 41 90 42 84 43
REMARK SMILES IDX 86 44 37 45 89 46 83 47 82 48 38 50 70 51 50 52 69 53 51 54
REMARK SMILES IDX 54 55 68 56 87 57 52 58 53 59 67 61 88 62 55 63 39 64 40 65
REMARK SMILES IDX 48 66 41 67 43 68 49 69 42 70 44 71 45 72 46 73 47 74 71 75
REMARK SMILES IDX 72 76 80 77 73 78 75 79 81 80 74 81 76 82 77 83 78 84 79 85
REMARK SMILES IDX 56 86 57 87 65 88 58 89 60 90 66 91 59 92 61 93 62 94 63 95
REMARK SMILES IDX 64 96
REMARK H PARENT 13 24 86 49 54 60
REMARK Flexibility Score: inf
ROOT
ATOM      1  C   UNL A   1      33.064  30.181  26.506  1.00  0.00     0.275 C 
ENDROOT
BRANCH   1   2
ATOM      2  O   UNL A   1      31.809  29.718  25.964  1.00  0.00    -0.458 OA
BRANCH   2   3
ATOM      3  C   UNL A   1      31.833  29.363  24.654  1.00  0.00     0.339 C 
ATOM      4  O   UNL A   1      32.816  29.307  23.935  1.00  0.00    -0.246 OA
BRANCH   3   5
ATOM      5  C   UNL A   1      30.450  29.217  24.149  1.00  0.00     0.071 A 
ATOM      6  C   UNL A   1      28.660  30.404  23.042  1.00  0.00     0.119 A 
ATOM      7  C   UNL A   1      28.029  29.182  22.797  1.00  0.00     0.047 A 
ATOM      8  C   UNL A   1      29.848  30.422  23.757  1.00  0.00     0.062 A 
ATOM      9  C   UNL A   1      28.613  27.975  23.214  1.00  0.00     0.013 A 
ATOM     10  C   UNL A   1      29.846  27.967  23.879  1.00  0.00    -0.004 A 
BRANCH   6  11
ATOM     11  O   UNL A   1      28.050  31.522  22.538  1.00  0.00    -0.497 OA
ATOM     12  C   UNL A   1      28.230  31.718  21.135  1.00  0.00     0.278 C 
ENDBRANCH   6  11
BRANCH  10  13
ATOM     13  C   UNL A   1      30.540  26.697  24.132  1.00  0.00    -0.018 A 
ATOM     14  C   UNL A   1      31.680  26.151  22.889  1.00  0.00     0.009 A 
ATOM     15  C   UNL A   1      30.598  25.880  25.748  1.00  0.00     0.009 A 
ATOM     16  C   UNL A   1      32.882  24.873  23.149  1.00  0.00     0.010 A 
ATOM     17  C   UNL A   1      32.026  24.474  26.039  1.00  0.00     0.010 A 
ATOM     18  C   UNL A   1      33.088  24.015  24.671  1.00  0.00     0.009 A 
BRANCH  18  19
ATOM     19  C   UNL A   1      33.848  22.691  24.694  1.00  0.00     0.212 C 
ATOM     20  C   UNL A   1      32.936  21.478  24.449  1.00  0.00     0.081 C 
BRANCH  19  21
ATOM     21  N   UNL A   1      34.862  22.622  25.753  1.00  0.00    -0.325 N 
ATOM     22  C   UNL A   1      35.849  23.726  25.713  1.00  0.00     0.291 C 
ATOM     23  C   UNL A   1      35.573  21.355  25.925  1.00  0.00     0.291 C 
ATOM     24  H   UNL A   1      34.264  22.716  26.573  1.00  0.00     0.348 HD
ATOM     25  C   UNL A   1      37.064  23.476  24.792  1.00  0.00     0.221 C 
ATOM     26  C   UNL A   1      36.678  21.142  24.897  1.00  0.00     0.221 C 
ATOM     27  O   UNL A   1      37.661  22.179  24.981  1.00  0.00    -0.370 OA
ENDBRANCH  19  21
ENDBRANCH  18  19
ENDBRANCH  10  13
ENDBRANCH   3   5
ENDBRANCH   2   3
ENDBRANCH   1   2
BRANCH   1  28
ATOM     28  C   UNL A   1      32.867  31.509  27.228  1.00  0.00     0.275 C 
BRANCH  28  29
ATOM     29  O   UNL A   1      34.127  32.200  27.281  1.00  0.00    -0.458 OA
BRANCH  29  30
ATOM     30  C   UNL A   1      34.369  32.789  28.469  1.00  0.00     0.338 C 
ATOM     31  O   UNL A   1      33.683  33.637  29.023  1.00  0.00    -0.246 OA
BRANCH  30  32
ATOM     32  C   UNL A   1      35.538  32.219  29.139  1.00  0.00     0.060 A 
ATOM     33  C   UNL A   1      37.198  32.737  28.689  1.00  0.00     0.016 A 
ATOM     34  C   UNL A   1      35.320  30.582  29.739  1.00  0.00     0.016 A 
ATOM     35  C   UNL A   1      38.690  31.377  28.835  1.00  0.00     0.010 A 
ATOM     36  C   UNL A   1      36.658  29.428  29.940  1.00  0.00     0.010 A 
ATOM     37  C   UNL A   1      38.361  29.752  29.529  1.00  0.00    -0.014 A 
BRANCH  37  38
ATOM     38  C   UNL A   1      39.482  28.938  30.223  1.00  0.00     0.031 A 
ATOM     39  C   UNL A   1      40.253  29.547  31.386  1.00  0.00     0.074 A 
ATOM     40  C   UNL A   1      40.015  27.791  29.710  1.00  0.00     0.049 A 
ATOM     41  N   UNL A   1      41.454  29.265  31.835  1.00  0.00    -0.248 NA
ATOM     42  C   UNL A   1      39.588  30.616  32.144  1.00  0.00     0.031 C 
ATOM     43  C   UNL A   1      39.441  26.880  28.729  1.00  0.00     0.029 A 
ATOM     44  N   UNL A   1      41.283  27.244  29.879  1.00  0.00    -0.354 N 
ATOM     45  C   UNL A   1      41.691  30.149  32.883  1.00  0.00     0.074 A 
ATOM     46  C   UNL A   1      40.576  31.071  32.902  1.00  0.00     0.031 C 
ATOM     47  C   UNL A   1      40.378  26.086  28.201  1.00  0.00     0.029 A 
ATOM     48  C   UNL A   1      41.620  26.322  28.900  1.00  0.00     0.049 A 
ATOM     49  H   UNL A   1      41.882  27.487  30.621  1.00  0.00     0.167 HD
ATOM     50  C   UNL A   1      42.667  30.133  33.827  1.00  0.00     0.034 A 
ATOM     51  C   UNL A   1      42.755  25.666  28.590  1.00  0.00     0.034 A 
ATOM     52  C   UNL A   1      43.685  29.119  33.921  1.00  0.00     0.049 A 
ATOM     53  C   UNL A   1      43.855  25.670  29.596  1.00  0.00     0.074 A 
ATOM     54  C   UNL A   1      44.592  28.898  34.943  1.00  0.00     0.029 A 
ATOM     55  N   UNL A   1      43.921  28.145  32.965  1.00  0.00    -0.354 N 
ATOM     56  N   UNL A   1      43.968  26.404  30.671  1.00  0.00    -0.248 NA
ATOM     57  C   UNL A   1      44.892  24.641  29.444  1.00  0.00     0.031 C 
ATOM     58  C   UNL A   1      45.391  27.803  34.594  1.00  0.00     0.029 A 
ATOM     59  C   UNL A   1      44.968  27.330  33.365  1.00  0.00     0.049 A 
ATOM     60  H   UNL A   1      43.419  28.046  32.123  1.00  0.00     0.167 HD
ATOM     61  C   UNL A   1      45.021  25.856  31.384  1.00  0.00     0.074 A 
ATOM     62  C   UNL A   1      45.538  24.755  30.596  1.00  0.00     0.031 C 
ATOM     63  C   UNL A   1      45.478  26.217  32.605  1.00  0.00     0.034 A 
BRANCH  50  64
ATOM     64  C   UNL A   1      42.595  31.173  34.923  1.00  0.00     0.023 A 
ATOM     65  C   UNL A   1      41.871  30.892  36.103  1.00  0.00     0.012 A 
ATOM     66  C   UNL A   1      43.259  32.410  34.809  1.00  0.00     0.148 A 
ATOM     67  C   UNL A   1      41.738  31.847  37.109  1.00  0.00     0.002 A 
ATOM     68  C   UNL A   1      43.170  33.338  35.843  1.00  0.00     0.091 A 
ATOM     69  F   UNL A   1      43.951  32.666  33.689  1.00  0.00    -0.205 F 
ATOM     70  C   UNL A   1      42.392  33.067  36.981  1.00  0.00     0.022 A 
BRANCH  68  71
ATOM     71  S   UNL A   1      44.046  34.906  35.825  1.00  0.00     0.127 S 
ATOM     72  O   UNL A   1      43.663  35.472  37.119  1.00  0.00    -0.237 OA
ATOM     73  O   UNL A   1      45.442  34.476  35.740  1.00  0.00    -0.237 OA
ATOM     74  O   UNL A   1      43.558  35.628  34.659  1.00  0.00    -0.744 OA
ENDBRANCH  68  71
ENDBRANCH  50  64
BRANCH  51  75
ATOM     75  C   UNL A   1      42.811  24.767  27.397  1.00  0.00     0.023 A 
ATOM     76  C   UNL A   1      43.369  25.245  26.195  1.00  0.00     0.012 A 
ATOM     77  C   UNL A   1      42.347  23.437  27.459  1.00  0.00     0.148 A 
ATOM     78  C   UNL A   1      43.453  24.421  25.072  1.00  0.00     0.002 A 
ATOM     79  C   UNL A   1      42.455  22.613  26.342  1.00  0.00     0.091 A 
ATOM     80  F   UNL A   1      41.805  23.009  28.608  1.00  0.00    -0.205 F 
ATOM     81  C   UNL A   1      43.002  23.106  25.145  1.00  0.00     0.022 A 
BRANCH  79  82
ATOM     82  S   UNL A   1      41.944  20.888  26.333  1.00  0.00     0.127 S 
ATOM     83  O   UNL A   1      42.810  20.323  25.302  1.00  0.00    -0.237 OA
ATOM     84  O   UNL A   1      42.265  20.475  27.699  1.00  0.00    -0.237 OA
ATOM     85  O   UNL A   1      40.523  20.896  26.014  1.00  0.00    -0.744 OA
ENDBRANCH  79  82
ENDBRANCH  51  75
BRANCH  63  86
ATOM     86  C   UNL A   1      46.579  25.390  33.203  1.00  0.00     0.023 A 
ATOM     87  C   UNL A   1      47.922  25.775  33.032  1.00  0.00     0.012 A 
ATOM     88  C   UNL A   1      46.275  24.255  33.980  1.00  0.00     0.148 A 
ATOM     89  C   UNL A   1      48.950  25.025  33.599  1.00  0.00     0.002 A 
ATOM     90  C   UNL A   1      47.301  23.546  34.590  1.00  0.00     0.091 A 
ATOM     91  F   UNL A   1      44.991  23.888  34.105  1.00  0.00    -0.205 F 
ATOM     92  C   UNL A   1      48.639  23.920  34.389  1.00  0.00     0.022 A 
BRANCH  90  93
ATOM     93  S   UNL A   1      46.993  22.174  35.707  1.00  0.00     0.127 S 
ATOM     94  O   UNL A   1      48.349  21.819  36.125  1.00  0.00    -0.237 OA
ATOM     95  O   UNL A   1      46.179  22.802  36.747  1.00  0.00    -0.237 OA
ATOM     96  O   UNL A   1      46.298  21.162  34.923  1.00  0.00    -0.744 OA
ENDBRANCH  90  93
ENDBRANCH  63  86
ENDBRANCH  37  38
ENDBRANCH  30  32
ENDBRANCH  29  30
ENDBRANCH  28  29
ENDBRANCH   1  28
TORSDOF 18
ENDMDL
MODEL 3
REMARK VINA RESULT:     -11.8      5.037      9.595
REMARK SMILES COc1ccc(-c2ccc([C@H](C)[NH+]3CCOCC3)cc2)c(C(=O)OCCOC(=O)c2ccc(-c3c4nc(c(-c5cccc(S(=O)(=O)[O-])c5F)c5ccc([nH]5)c(-c5cccc(S(=O)(=O)[O-])c5F)c5nc(c(-c6cccc(S(=O)(=O)[O-])c6F)c6ccc3[nH]6)C=C5)C=C4)cc2)c1
REMARK SMILES IDX 25 1 24 2 22 3 23 4 21 5 3 6 4 7 93 8 5 9 6 10 2 11 1 12
REMARK SMILES IDX 7 13 8 14 20 15 9 16 19 17 10 18 11 19 12 20 13 21 14 22
REMARK SMILES IDX 18 23 15 25 17 26 16 27 26 28 27 29 28 30 29 31 30 32 31 33
REMARK SMILES IDX 92 34 32 35 91 36 33 37 34 38 35 39 85 40 36 41 90 42 84 43
REMARK SMILES IDX 86 44 37 45 89 46 83 47 82 48 38 50 70 51 50 52 69 53 51 54
REMARK SMILES IDX 54 55 68 56 87 57 52 58 53 59 67 61 88 62 55 63 39 64 40 65
REMARK SMILES IDX 48 66 41 67 43 68 49 69 42 70 44 71 45 72 46 73 47 74 71 75
REMARK SMILES IDX 72 76 80 77 73 78 75 79 81 80 74 81 76 82 77 83 78 84 79 85
REMARK SMILES IDX 56 86 57 87 65 88 58 89 60 90 66 91 59 92 61 93 62 94 63 95
REMARK SMILES IDX 64 96
REMARK H PARENT 13 24 86 49 54 60
REMARK Flexibility Score: inf
ROOT
ATOM      1  C   UNL A   1      38.078  21.039  25.437  1.00  0.00     0.275 C 
ENDROOT
BRANCH   1   2
ATOM      2  O   UNL A   1      36.942  20.533  24.705  1.00  0.00    -0.458 OA
BRANCH   2   3
ATOM      3  C   UNL A   1      35.734  20.728  25.292  1.00  0.00     0.339 C 
ATOM      4  O   UNL A   1      35.513  21.384  26.295  1.00  0.00    -0.246 OA
BRANCH   3   5
ATOM      5  C   UNL A   1      34.716  19.875  24.640  1.00  0.00     0.071 A 
ATOM      6  C   UNL A   1      34.064  17.577  24.277  1.00  0.00     0.119 A 
ATOM      7  C   UNL A   1      32.811  18.022  23.849  1.00  0.00     0.047 A 
ATOM      8  C   UNL A   1      35.030  18.507  24.630  1.00  0.00     0.062 A 
ATOM      9  C   UNL A   1      32.503  19.392  23.829  1.00  0.00     0.013 A 
ATOM     10  C   UNL A   1      33.442  20.345  24.245  1.00  0.00    -0.004 A 
BRANCH   6  11
ATOM     11  O   UNL A   1      34.250  16.221  24.328  1.00  0.00    -0.497 OA
ATOM     12  C   UNL A   1      33.291  15.516  25.118  1.00  0.00     0.278 C 
ENDBRANCH   6  11
BRANCH  10  13
ATOM     13  C   UNL A   1      33.046  21.749  24.409  1.00  0.00    -0.018 A 
ATOM     14  C   UNL A   1      33.584  22.881  23.156  1.00  0.00     0.009 A 
ATOM     15  C   UNL A   1      31.762  22.310  25.559  1.00  0.00     0.009 A 
ATOM     16  C   UNL A   1      32.920  24.513  22.953  1.00  0.00     0.010 A 
ATOM     17  C   UNL A   1      30.973  24.151  25.261  1.00  0.00     0.010 A 
ATOM     18  C   UNL A   1      31.645  25.186  23.962  1.00  0.00     0.009 A 
BRANCH  18  19
ATOM     19  C   UNL A   1      31.416  26.696  23.981  1.00  0.00     0.212 C 
ATOM     20  C   UNL A   1      30.793  27.218  22.675  1.00  0.00     0.081 C 
BRANCH  19  21
ATOM     21  N   UNL A   1      32.517  27.444  24.597  1.00  0.00    -0.325 N 
ATOM     22  C   UNL A   1      32.724  27.136  26.032  1.00  0.00     0.291 C 
ATOM     23  C   UNL A   1      32.535  28.894  24.415  1.00  0.00     0.291 C 
ATOM     24  H   UNL A   1      33.299  27.088  24.047  1.00  0.00     0.348 HD
ATOM     25  C   UNL A   1      31.861  27.972  27.004  1.00  0.00     0.221 C 
ATOM     26  C   UNL A   1      31.564  29.626  25.335  1.00  0.00     0.221 C 
ATOM     27  O   UNL A   1      31.881  29.382  26.709  1.00  0.00    -0.370 OA
ENDBRANCH  19  21
ENDBRANCH  18  19
ENDBRANCH  10  13
ENDBRANCH   3   5
ENDBRANCH   2   3
ENDBRANCH   1   2
BRANCH   1  28
ATOM     28  C   UNL A   1      39.100  19.928  25.655  1.00  0.00     0.275 C 
BRANCH  28  29
ATOM     29  O   UNL A   1      40.410  20.514  25.748  1.00  0.00    -0.458 OA
BRANCH  29  30
ATOM     30  C   UNL A   1      40.760  20.852  27.005  1.00  0.00     0.338 C 
ATOM     31  O   UNL A   1      40.757  20.126  27.990  1.00  0.00    -0.246 OA
BRANCH  30  32
ATOM     32  C   UNL A   1      41.282  22.217  27.084  1.00  0.00     0.060 A 
ATOM     33  C   UNL A   1      42.482  22.671  28.341  1.00  0.00     0.016 A 
ATOM     34  C   UNL A   1      40.185  23.461  26.505  1.00  0.00     0.016 A 
ATOM     35  C   UNL A   1      42.439  24.563  29.056  1.00  0.00     0.010 A 
ATOM     36  C   UNL A   1      40.218  25.141  27.085  1.00  0.00     0.010 A 
ATOM     37  C   UNL A   1      41.318  25.771  28.338  1.00  0.00    -0.014 A 
BRANCH  37  38
ATOM     38  C   UNL A   1      41.643  27.286  28.377  1.00  0.00     0.031 A 
ATOM     39  C   UNL A   1      43.081  27.748  28.559  1.00  0.00     0.074 A 
ATOM     40  C   UNL A   1      40.697  28.260  28.512  1.00  0.00     0.049 A 
ATOM     41  N   UNL A   1      43.544  28.883  29.030  1.00  0.00    -0.248 NA
ATOM     42  C   UNL A   1      44.142  26.811  28.162  1.00  0.00     0.031 C 
ATOM     43  C   UNL A   1      39.269  28.189  28.232  1.00  0.00     0.029 A 
ATOM     44  N   UNL A   1      40.803  29.534  29.063  1.00  0.00    -0.354 N 
ATOM     45  C   UNL A   1      44.931  28.766  29.025  1.00  0.00     0.074 A 
ATOM     46  C   UNL A   1      45.225  27.401  28.648  1.00  0.00     0.031 C 
ATOM     47  C   UNL A   1      38.611  29.194  28.819  1.00  0.00     0.029 A 
ATOM     48  C   UNL A   1      39.580  30.083  29.417  1.00  0.00     0.049 A 
ATOM     49  H   UNL A   1      41.661  29.999  29.189  1.00  0.00     0.167 HD
ATOM     50  C   UNL A   1      45.882  29.722  29.187  1.00  0.00     0.034 A 
ATOM     51  C   UNL A   1      39.217  31.194  30.088  1.00  0.00     0.034 A 
ATOM     52  C   UNL A   1      45.599  31.118  29.391  1.00  0.00     0.049 A 
ATOM     53  C   UNL A   1      40.258  32.238  30.312  1.00  0.00     0.074 A 
ATOM     54  C   UNL A   1      46.476  32.190  29.370  1.00  0.00     0.029 A 
ATOM     55  N   UNL A   1      44.341  31.642  29.639  1.00  0.00    -0.354 N 
ATOM     56  N   UNL A   1      41.549  32.148  30.137  1.00  0.00    -0.248 NA
ATOM     57  C   UNL A   1      39.779  33.583  30.658  1.00  0.00     0.031 C 
ATOM     58  C   UNL A   1      45.750  33.359  29.626  1.00  0.00     0.029 A 
ATOM     59  C   UNL A   1      44.418  33.018  29.786  1.00  0.00     0.049 A 
ATOM     60  H   UNL A   1      43.511  31.114  29.701  1.00  0.00     0.167 HD
ATOM     61  C   UNL A   1      42.029  33.443  30.238  1.00  0.00     0.074 A 
ATOM     62  C   UNL A   1      40.892  34.293  30.534  1.00  0.00     0.031 C 
ATOM     63  C   UNL A   1      43.297  33.879  30.056  1.00  0.00     0.034 A 
BRANCH  50  64
ATOM     64  C   UNL A   1      47.326  29.306  29.009  1.00  0.00     0.023 A 
ATOM     65  C   UNL A   1      48.085  28.929  30.139  1.00  0.00     0.012 A 
ATOM     66  C   UNL A   1      47.927  29.257  27.736  1.00  0.00     0.148 A 
ATOM     67  C   UNL A   1      49.433  28.593  30.019  1.00  0.00     0.002 A 
ATOM     68  C   UNL A   1      49.257  28.865  27.616  1.00  0.00     0.091 A 
ATOM     69  F   UNL A   1      47.196  29.609  26.668  1.00  0.00    -0.205 F 
ATOM     70  C   UNL A   1      50.016  28.556  28.758  1.00  0.00     0.022 A 
BRANCH  68  71
ATOM     71  S   UNL A   1      50.085  28.694  26.031  1.00  0.00     0.127 S 
ATOM     72  O   UNL A   1      51.109  27.696  26.340  1.00  0.00    -0.237 OA
ATOM     73  O   UNL A   1      49.005  28.210  25.172  1.00  0.00    -0.237 OA
ATOM     74  O   UNL A   1      50.586  30.018  25.693  1.00  0.00    -0.744 OA
ENDBRANCH  68  71
ENDBRANCH  50  64
BRANCH  51  75
ATOM     75  C   UNL A   1      37.777  31.474  30.372  1.00  0.00     0.023 A 
ATOM     76  C   UNL A   1      37.266  31.233  31.662  1.00  0.00     0.012 A 
ATOM     77  C   UNL A   1      36.926  32.007  29.383  1.00  0.00     0.148 A 
ATOM     78  C   UNL A   1      35.931  31.505  31.962  1.00  0.00     0.002 A 
ATOM     79  C   UNL A   1      35.599  32.298  29.695  1.00  0.00     0.091 A 
ATOM     80  F   UNL A   1      37.428  32.212  28.158  1.00  0.00    -0.205 F 
ATOM     81  C   UNL A   1      35.099  32.040  30.982  1.00  0.00     0.022 A 
BRANCH  79  82
ATOM     82  S   UNL A   1      34.447  33.029  28.523  1.00  0.00     0.127 S 
ATOM     83  O   UNL A   1      33.844  31.845  27.916  1.00  0.00    -0.237 OA
ATOM     84  O   UNL A   1      33.560  33.784  29.407  1.00  0.00    -0.237 OA
ATOM     85  O   UNL A   1      35.255  33.842  27.625  1.00  0.00    -0.744 OA
ENDBRANCH  79  82
ENDBRANCH  51  75
BRANCH  63  86
ATOM     86  C   UNL A   1      43.534  35.360  30.127  1.00  0.00     0.023 A 
ATOM     87  C   UNL A   1      43.813  35.969  31.365  1.00  0.00     0.012 A 
ATOM     88  C   UNL A   1      43.531  36.139  28.954  1.00  0.00     0.148 A 
ATOM     89  C   UNL A   1      44.054  37.339  31.439  1.00  0.00     0.002 A 
ATOM     90  C   UNL A   1      43.829  37.493  29.028  1.00  0.00     0.091 A 
ATOM     91  F   UNL A   1      43.233  35.544  27.789  1.00  0.00    -0.205 F 
ATOM     92  C   UNL A   1      44.076  38.098  30.271  1.00  0.00     0.022 A 
BRANCH  90  93
ATOM     93  S   UNL A   1      43.983  38.528  27.569  1.00  0.00     0.127 S 
ATOM     94  O   UNL A   1      42.650  38.412  26.978  1.00  0.00    -0.237 OA
ATOM     95  O   UNL A   1      44.281  39.836  28.151  1.00  0.00    -0.237 OA
ATOM     96  O   UNL A   1      45.066  37.955  26.780  1.00  0.00    -0.744 OA
ENDBRANCH  90  93
ENDBRANCH  63  86
ENDBRANCH  37  38
ENDBRANCH  30  32
ENDBRANCH  29  30
ENDBRANCH  28  29
ENDBRANCH   1  28
TORSDOF 18
ENDMDL
