MODEL 1
REMARK VINA RESULT:     -10.7      0.000      0.000
REMARK SMILES C#CC[C@@H](C(=O)OCCOC(=O)c1ccc(-c2c3nc(c(-c4cccc(S(=O)(=O)[O-])c4F)c4ccc([nH]4)c(-c4cccc(S(=O)(=O)[O-])c4F)c4nc(c(-c5cccc(S(=O)(=O)[O-])c5F)c5ccc2[nH]5)C=C4)C=C3)cc1)c1cccc(Br)c1
REMARK SMILES IDX 9 1 8 2 7 3 5 4 6 5 4 6 3 7 2 8 1 9 76 10 77 11 82 12 78 13
REMARK SMILES IDX 80 14 79 15 81 16 10 17 11 18 12 19 13 20 14 21 75 22 15 23
REMARK SMILES IDX 74 24 16 25 17 26 18 27 68 28 19 29 73 30 67 31 69 32 20 33
REMARK SMILES IDX 72 34 66 35 65 36 21 38 53 39 33 40 52 41 34 42 37 43 51 44
REMARK SMILES IDX 70 45 35 46 36 47 50 49 71 50 38 51 22 52 23 53 31 54 24 55
REMARK SMILES IDX 26 56 32 57 25 58 27 59 28 60 29 61 30 62 54 63 55 64 63 65
REMARK SMILES IDX 56 66 58 67 64 68 57 69 59 70 60 71 61 72 62 73 39 74 40 75
REMARK SMILES IDX 48 76 41 77 43 78 49 79 42 80 44 81 45 82 46 83 47 84
REMARK H PARENT 69 37 37 48
REMARK Flexibility Score: inf
ROOT
ATOM      1  C   UNL A   1      37.523  20.629  25.023  1.00  0.00     0.275 C 
ENDROOT
BRANCH   1   2
ATOM      2  C   UNL A   1      36.124  21.218  25.190  1.00  0.00     0.274 C 
BRANCH   2   3
ATOM      3  O   UNL A   1      36.185  22.619  24.859  1.00  0.00    -0.462 OA
BRANCH   3   4
ATOM      4  C   UNL A   1      35.616  23.020  23.691  1.00  0.00     0.314 C 
ATOM      5  O   UNL A   1      36.221  23.086  22.628  1.00  0.00    -0.252 OA
BRANCH   4   6
ATOM      6  C   UNL A   1      34.135  23.418  23.859  1.00  0.00     0.141 C 
BRANCH   6   7
ATOM      7  C   UNL A   1      33.205  22.609  22.932  1.00  0.00     0.109 C 
BRANCH   7   8
ATOM      8  C   UNL A   1      32.730  21.340  23.621  1.00  0.00    -0.105 C 
ATOM      9  C   UNL A   1      32.323  20.251  24.211  1.00  0.00     0.004 C 
ENDBRANCH   7   8
ENDBRANCH   6   7
BRANCH   6  10
ATOM     10  C   UNL A   1      33.901  24.932  23.801  1.00  0.00    -0.032 A 
ATOM     11  C   UNL A   1      33.635  25.549  22.565  1.00  0.00     0.005 A 
ATOM     12  C   UNL A   1      33.984  25.762  24.936  1.00  0.00     0.020 A 
ATOM     13  C   UNL A   1      33.442  26.932  22.469  1.00  0.00     0.001 A 
ATOM     14  C   UNL A   1      33.802  27.145  24.833  1.00  0.00     0.018 A 
ATOM     15  C   UNL A   1      33.529  27.734  23.604  1.00  0.00     0.016 A 
ATOM     16  Br  UNL A   1      33.899  28.216  26.388  1.00  0.00    -0.051 Br
ENDBRANCH   6  10
ENDBRANCH   4   6
ENDBRANCH   3   4
ENDBRANCH   2   3
ENDBRANCH   1   2
BRANCH   1  17
ATOM     17  O   UNL A   1      38.468  21.668  25.330  1.00  0.00    -0.458 OA
BRANCH  17  18
ATOM     18  C   UNL A   1      39.427  21.346  26.226  1.00  0.00     0.338 C 
ATOM     19  O   UNL A   1      39.886  20.242  26.472  1.00  0.00    -0.246 OA
BRANCH  18  20
ATOM     20  C   UNL A   1      39.950  22.595  26.792  1.00  0.00     0.060 A 
ATOM     21  C   UNL A   1      39.488  23.802  26.272  1.00  0.00     0.016 A 
ATOM     22  C   UNL A   1      40.946  22.578  27.764  1.00  0.00     0.016 A 
ATOM     23  C   UNL A   1      40.066  24.999  26.674  1.00  0.00     0.010 A 
ATOM     24  C   UNL A   1      41.471  23.793  28.221  1.00  0.00     0.010 A 
ATOM     25  C   UNL A   1      41.064  25.016  27.656  1.00  0.00    -0.014 A 
BRANCH  25  26
ATOM     26  C   UNL A   1      41.713  26.299  28.047  1.00  0.00     0.031 A 
ATOM     27  C   UNL A   1      40.935  27.323  28.831  1.00  0.00     0.074 A 
ATOM     28  C   UNL A   1      42.994  26.558  27.714  1.00  0.00     0.049 A 
ATOM     29  N   UNL A   1      41.234  28.570  29.087  1.00  0.00    -0.248 NA
ATOM     30  C   UNL A   1      39.640  26.892  29.386  1.00  0.00     0.031 C 
ATOM     31  C   UNL A   1      43.885  25.647  26.994  1.00  0.00     0.029 A 
ATOM     32  N   UNL A   1      43.769  27.671  27.933  1.00  0.00    -0.354 N 
ATOM     33  C   UNL A   1      40.129  29.097  29.745  1.00  0.00     0.074 A 
ATOM     34  C   UNL A   1      39.163  28.029  29.876  1.00  0.00     0.031 C 
ATOM     35  C   UNL A   1      45.089  26.224  26.856  1.00  0.00     0.029 A 
ATOM     36  C   UNL A   1      45.034  27.576  27.402  1.00  0.00     0.049 A 
ATOM     37  H   UNL A   1      43.449  28.462  28.426  1.00  0.00     0.167 HD
ATOM     38  C   UNL A   1      39.939  30.356  30.205  1.00  0.00     0.034 A 
ATOM     39  C   UNL A   1      46.028  28.483  27.324  1.00  0.00     0.034 A 
ATOM     40  C   UNL A   1      40.939  31.390  30.171  1.00  0.00     0.049 A 
ATOM     41  C   UNL A   1      45.803  29.867  27.869  1.00  0.00     0.074 A 
ATOM     42  C   UNL A   1      40.848  32.690  30.640  1.00  0.00     0.029 A 
ATOM     43  N   UNL A   1      42.219  31.235  29.664  1.00  0.00    -0.354 N 
ATOM     44  N   UNL A   1      44.756  30.346  28.496  1.00  0.00    -0.248 NA
ATOM     45  C   UNL A   1      46.896  30.835  27.697  1.00  0.00     0.031 C 
ATOM     46  C   UNL A   1      42.079  33.318  30.423  1.00  0.00     0.029 A 
ATOM     47  C   UNL A   1      42.933  32.411  29.818  1.00  0.00     0.049 A 
ATOM     48  H   UNL A   1      42.568  30.411  29.256  1.00  0.00     0.167 HD
ATOM     49  C   UNL A   1      45.066  31.667  28.800  1.00  0.00     0.074 A 
ATOM     50  C   UNL A   1      46.413  31.901  28.321  1.00  0.00     0.031 C 
ATOM     51  C   UNL A   1      44.294  32.610  29.391  1.00  0.00     0.034 A 
BRANCH  38  52
ATOM     52  C   UNL A   1      38.604  30.684  30.813  1.00  0.00     0.023 A 
ATOM     53  C   UNL A   1      38.370  30.414  32.175  1.00  0.00     0.012 A 
ATOM     54  C   UNL A   1      37.600  31.311  30.048  1.00  0.00     0.148 A 
ATOM     55  C   UNL A   1      37.148  30.744  32.762  1.00  0.00     0.002 A 
ATOM     56  C   UNL A   1      36.398  31.668  30.648  1.00  0.00     0.091 A 
ATOM     57  F   UNL A   1      37.831  31.532  28.745  1.00  0.00    -0.205 F 
ATOM     58  C   UNL A   1      36.168  31.380  32.003  1.00  0.00     0.022 A 
BRANCH  56  59
ATOM     59  S   UNL A   1      35.111  32.551  29.758  1.00  0.00     0.127 S 
ATOM     60  O   UNL A   1      34.705  31.560  28.764  1.00  0.00    -0.237 OA
ATOM     61  O   UNL A   1      34.121  32.803  30.806  1.00  0.00    -0.237 OA
ATOM     62  O   UNL A   1      35.747  33.751  29.233  1.00  0.00    -0.744 OA
ENDBRANCH  56  59
ENDBRANCH  38  52
BRANCH  39  63
ATOM     63  C   UNL A   1      47.335  28.103  26.716  1.00  0.00     0.023 A 
ATOM     64  C   UNL A   1      48.433  27.838  27.558  1.00  0.00     0.012 A 
ATOM     65  C   UNL A   1      47.491  27.958  25.324  1.00  0.00     0.148 A 
ATOM     66  C   UNL A   1      49.661  27.446  27.023  1.00  0.00     0.002 A 
ATOM     67  C   UNL A   1      48.698  27.507  24.803  1.00  0.00     0.091 A 
ATOM     68  F   UNL A   1      46.448  28.248  24.532  1.00  0.00    -0.205 F 
ATOM     69  C   UNL A   1      49.790  27.264  25.649  1.00  0.00     0.022 A 
BRANCH  67  70
ATOM     70  S   UNL A   1      48.877  27.101  23.062  1.00  0.00     0.127 S 
ATOM     71  O   UNL A   1      48.136  25.847  22.966  1.00  0.00    -0.237 OA
ATOM     72  O   UNL A   1      48.241  28.244  22.406  1.00  0.00    -0.237 OA
ATOM     73  O   UNL A   1      50.315  27.018  22.840  1.00  0.00    -0.744 OA
ENDBRANCH  67  70
ENDBRANCH  39  63
BRANCH  51  74
ATOM     74  C   UNL A   1      44.883  33.982  29.564  1.00  0.00     0.023 A 
ATOM     75  C   UNL A   1      45.554  34.295  30.763  1.00  0.00     0.012 A 
ATOM     76  C   UNL A   1      44.845  34.928  28.523  1.00  0.00     0.148 A 
ATOM     77  C   UNL A   1      46.159  35.540  30.932  1.00  0.00     0.002 A 
ATOM     78  C   UNL A   1      45.482  36.155  28.685  1.00  0.00     0.091 A 
ATOM     79  F   UNL A   1      44.182  34.620  27.399  1.00  0.00    -0.205 F 
ATOM     80  C   UNL A   1      46.133  36.464  29.890  1.00  0.00     0.022 A 
BRANCH  78  81
ATOM     81  S   UNL A   1      45.561  37.365  27.360  1.00  0.00     0.127 S 
ATOM     82  O   UNL A   1      44.151  37.703  27.177  1.00  0.00    -0.237 OA
ATOM     83  O   UNL A   1      46.372  38.432  27.952  1.00  0.00    -0.237 OA
ATOM     84  O   UNL A   1      46.197  36.682  26.241  1.00  0.00    -0.744 OA
ENDBRANCH  78  81
ENDBRANCH  51  74
ENDBRANCH  25  26
ENDBRANCH  18  20
ENDBRANCH  17  18
ENDBRANCH   1  17
TORSDOF 17
ENDMDL
MODEL 2
REMARK VINA RESULT:     -10.7      5.361     10.255
REMARK SMILES C#CC[C@@H](C(=O)OCCOC(=O)c1ccc(-c2c3nc(c(-c4cccc(S(=O)(=O)[O-])c4F)c4ccc([nH]4)c(-c4cccc(S(=O)(=O)[O-])c4F)c4nc(c(-c5cccc(S(=O)(=O)[O-])c5F)c5ccc2[nH]5)C=C4)C=C3)cc1)c1cccc(Br)c1
REMARK SMILES IDX 9 1 8 2 7 3 5 4 6 5 4 6 3 7 2 8 1 9 76 10 77 11 82 12 78 13
REMARK SMILES IDX 80 14 79 15 81 16 10 17 11 18 12 19 13 20 14 21 75 22 15 23
REMARK SMILES IDX 74 24 16 25 17 26 18 27 68 28 19 29 73 30 67 31 69 32 20 33
REMARK SMILES IDX 72 34 66 35 65 36 21 38 53 39 33 40 52 41 34 42 37 43 51 44
REMARK SMILES IDX 70 45 35 46 36 47 50 49 71 50 38 51 22 52 23 53 31 54 24 55
REMARK SMILES IDX 26 56 32 57 25 58 27 59 28 60 29 61 30 62 54 63 55 64 63 65
REMARK SMILES IDX 56 66 58 67 64 68 57 69 59 70 60 71 61 72 62 73 39 74 40 75
REMARK SMILES IDX 48 76 41 77 43 78 49 79 42 80 44 81 45 82 46 83 47 84
REMARK H PARENT 69 37 37 48
REMARK Flexibility Score: inf
ROOT
ATOM      1  C   UNL A   1      31.587  29.650  25.813  1.00  0.00     0.275 C 
ENDROOT
BRANCH   1   2
ATOM      2  C   UNL A   1      31.582  28.350  26.613  1.00  0.00     0.274 C 
BRANCH   2   3
ATOM      3  O   UNL A   1      31.305  27.265  25.706  1.00  0.00    -0.462 OA
BRANCH   3   4
ATOM      4  C   UNL A   1      31.882  26.061  25.960  1.00  0.00     0.314 C 
ATOM      5  O   UNL A   1      31.530  25.318  26.869  1.00  0.00    -0.252 OA
BRANCH   4   6
ATOM      6  C   UNL A   1      33.052  25.750  25.004  1.00  0.00     0.141 C 
BRANCH   6   7
ATOM      7  C   UNL A   1      32.752  26.182  23.555  1.00  0.00     0.109 C 
BRANCH   7   8
ATOM      8  C   UNL A   1      33.472  27.478  23.219  1.00  0.00    -0.105 C 
ATOM      9  C   UNL A   1      34.091  28.589  22.931  1.00  0.00     0.004 C 
ENDBRANCH   7   8
ENDBRANCH   6   7
BRANCH   6  10
ATOM     10  C   UNL A   1      33.573  24.313  25.126  1.00  0.00    -0.032 A 
ATOM     11  C   UNL A   1      34.779  24.064  25.805  1.00  0.00     0.005 A 
ATOM     12  C   UNL A   1      32.918  23.212  24.542  1.00  0.00     0.020 A 
ATOM     13  C   UNL A   1      35.298  22.770  25.914  1.00  0.00     0.001 A 
ATOM     14  C   UNL A   1      33.448  21.921  24.643  1.00  0.00     0.018 A 
ATOM     15  C   UNL A   1      34.635  21.694  25.328  1.00  0.00     0.016 A 
ATOM     16  Br  UNL A   1      32.521  20.469  23.863  1.00  0.00    -0.051 Br
ENDBRANCH   6  10
ENDBRANCH   4   6
ENDBRANCH   3   4
ENDBRANCH   2   3
ENDBRANCH   1   2
BRANCH   1  17
ATOM     17  O   UNL A   1      32.914  30.196  25.885  1.00  0.00    -0.458 OA
BRANCH  17  18
ATOM     18  C   UNL A   1      33.111  31.144  26.826  1.00  0.00     0.338 C 
ATOM     19  O   UNL A   1      32.322  31.990  27.219  1.00  0.00    -0.246 OA
BRANCH  18  20
ATOM     20  C   UNL A   1      34.429  30.915  27.428  1.00  0.00     0.060 A 
ATOM     21  C   UNL A   1      34.803  29.605  27.721  1.00  0.00     0.016 A 
ATOM     22  C   UNL A   1      35.253  31.981  27.777  1.00  0.00     0.016 A 
ATOM     23  C   UNL A   1      35.975  29.357  28.425  1.00  0.00     0.010 A 
ATOM     24  C   UNL A   1      36.470  31.719  28.419  1.00  0.00     0.010 A 
ATOM     25  C   UNL A   1      36.828  30.408  28.783  1.00  0.00    -0.014 A 
BRANCH  25  26
ATOM     26  C   UNL A   1      38.058  30.140  29.581  1.00  0.00     0.031 A 
ATOM     27  C   UNL A   1      39.160  29.295  28.996  1.00  0.00     0.074 A 
ATOM     28  C   UNL A   1      38.205  30.648  30.821  1.00  0.00     0.049 A 
ATOM     29  N   UNL A   1      40.203  28.772  29.587  1.00  0.00    -0.248 NA
ATOM     30  C   UNL A   1      39.066  28.982  27.560  1.00  0.00     0.031 C 
ATOM     31  C   UNL A   1      37.244  31.516  31.503  1.00  0.00     0.029 A 
ATOM     32  N   UNL A   1      39.221  30.501  31.735  1.00  0.00    -0.354 N 
ATOM     33  C   UNL A   1      40.834  27.995  28.623  1.00  0.00     0.074 A 
ATOM     34  C   UNL A   1      40.074  28.134  27.401  1.00  0.00     0.031 C 
ATOM     35  C   UNL A   1      37.727  31.847  32.711  1.00  0.00     0.029 A 
ATOM     36  C   UNL A   1      38.990  31.150  32.926  1.00  0.00     0.049 A 
ATOM     37  H   UNL A   1      40.038  29.981  31.554  1.00  0.00     0.167 HD
ATOM     38  C   UNL A   1      41.949  27.237  28.745  1.00  0.00     0.034 A 
ATOM     39  C   UNL A   1      39.691  31.155  34.077  1.00  0.00     0.034 A 
ATOM     40  C   UNL A   1      42.765  27.181  29.928  1.00  0.00     0.049 A 
ATOM     41  C   UNL A   1      40.944  30.329  34.177  1.00  0.00     0.074 A 
ATOM     42  C   UNL A   1      43.931  26.464  30.136  1.00  0.00     0.029 A 
ATOM     43  N   UNL A   1      42.517  27.888  31.093  1.00  0.00    -0.354 N 
ATOM     44  N   UNL A   1      41.530  29.605  33.254  1.00  0.00    -0.248 NA
ATOM     45  C   UNL A   1      41.631  30.318  35.477  1.00  0.00     0.031 C 
ATOM     46  C   UNL A   1      44.392  26.745  31.426  1.00  0.00     0.029 A 
ATOM     47  C   UNL A   1      43.513  27.635  32.021  1.00  0.00     0.049 A 
ATOM     48  H   UNL A   1      41.747  28.483  31.239  1.00  0.00     0.167 HD
ATOM     49  C   UNL A   1      42.659  29.061  33.858  1.00  0.00     0.074 A 
ATOM     50  C   UNL A   1      42.693  29.568  35.215  1.00  0.00     0.031 C 
ATOM     51  C   UNL A   1      43.565  28.194  33.346  1.00  0.00     0.034 A 
BRANCH  38  52
ATOM     52  C   UNL A   1      42.374  26.422  27.555  1.00  0.00     0.023 A 
ATOM     53  C   UNL A   1      43.170  27.009  26.553  1.00  0.00     0.012 A 
ATOM     54  C   UNL A   1      42.029  25.059  27.457  1.00  0.00     0.148 A 
ATOM     55  C   UNL A   1      43.600  26.257  25.459  1.00  0.00     0.002 A 
ATOM     56  C   UNL A   1      42.490  24.307  26.383  1.00  0.00     0.091 A 
ATOM     57  F   UNL A   1      41.244  24.527  28.406  1.00  0.00    -0.205 F 
ATOM     58  C   UNL A   1      43.270  24.905  25.380  1.00  0.00     0.022 A 
BRANCH  56  59
ATOM     59  S   UNL A   1      42.168  22.545  26.241  1.00  0.00     0.127 S 
ATOM     60  O   UNL A   1      40.710  22.518  26.141  1.00  0.00    -0.237 OA
ATOM     61  O   UNL A   1      42.869  22.196  25.005  1.00  0.00    -0.237 OA
ATOM     62  O   UNL A   1      42.731  21.943  27.441  1.00  0.00    -0.744 OA
ENDBRANCH  56  59
ENDBRANCH  38  52
BRANCH  39  63
ATOM     63  C   UNL A   1      39.228  31.986  35.225  1.00  0.00     0.023 A 
ATOM     64  C   UNL A   1      38.361  31.418  36.180  1.00  0.00     0.012 A 
ATOM     65  C   UNL A   1      39.670  33.310  35.406  1.00  0.00     0.148 A 
ATOM     66  C   UNL A   1      37.937  32.157  37.284  1.00  0.00     0.002 A 
ATOM     67  C   UNL A   1      39.294  34.019  36.541  1.00  0.00     0.091 A 
ATOM     68  F   UNL A   1      40.466  33.851  34.472  1.00  0.00    -0.205 F 
ATOM     69  C   UNL A   1      38.415  33.450  37.475  1.00  0.00     0.022 A 
BRANCH  67  70
ATOM     70  S   UNL A   1      40.001  35.626  36.923  1.00  0.00     0.127 S 
ATOM     71  O   UNL A   1      41.428  35.323  36.974  1.00  0.00    -0.237 OA
ATOM     72  O   UNL A   1      39.583  36.433  35.776  1.00  0.00    -0.237 OA
ATOM     73  O   UNL A   1      39.381  36.022  38.181  1.00  0.00    -0.744 OA
ENDBRANCH  67  70
ENDBRANCH  39  63
BRANCH  51  74
ATOM     74  C   UNL A   1      44.679  27.741  34.249  1.00  0.00     0.023 A 
ATOM     75  C   UNL A   1      45.856  28.511  34.328  1.00  0.00     0.012 A 
ATOM     76  C   UNL A   1      44.535  26.608  35.071  1.00  0.00     0.148 A 
ATOM     77  C   UNL A   1      46.884  28.147  35.197  1.00  0.00     0.002 A 
ATOM     78  C   UNL A   1      45.550  26.271  35.961  1.00  0.00     0.091 A 
ATOM     79  F   UNL A   1      43.417  25.874  34.964  1.00  0.00    -0.205 F 
ATOM     80  C   UNL A   1      46.727  27.035  36.021  1.00  0.00     0.022 A 
BRANCH  78  81
ATOM     81  S   UNL A   1      45.387  24.901  37.112  1.00  0.00     0.127 S 
ATOM     82  O   UNL A   1      46.663  24.953  37.822  1.00  0.00    -0.237 OA
ATOM     83  O   UNL A   1      44.226  25.295  37.914  1.00  0.00    -0.237 OA
ATOM     84  O   UNL A   1      45.170  23.719  36.288  1.00  0.00    -0.744 OA
ENDBRANCH  78  81
ENDBRANCH  51  74
ENDBRANCH  25  26
ENDBRANCH  18  20
ENDBRANCH  17  18
ENDBRANCH   1  17
TORSDOF 17
ENDMDL
MODEL 3
REMARK VINA RESULT:     -10.6      1.690      2.084
REMARK SMILES C#CC[C@@H](C(=O)OCCOC(=O)c1ccc(-c2c3nc(c(-c4cccc(S(=O)(=O)[O-])c4F)c4ccc([nH]4)c(-c4cccc(S(=O)(=O)[O-])c4F)c4nc(c(-c5cccc(S(=O)(=O)[O-])c5F)c5ccc2[nH]5)C=C4)C=C3)cc1)c1cccc(Br)c1
REMARK SMILES IDX 9 1 8 2 7 3 5 4 6 5 4 6 3 7 2 8 1 9 76 10 77 11 82 12 78 13
REMARK SMILES IDX 80 14 79 15 81 16 10 17 11 18 12 19 13 20 14 21 75 22 15 23
REMARK SMILES IDX 74 24 16 25 17 26 18 27 68 28 19 29 73 30 67 31 69 32 20 33
REMARK SMILES IDX 72 34 66 35 65 36 21 38 53 39 33 40 52 41 34 42 37 43 51 44
REMARK SMILES IDX 70 45 35 46 36 47 50 49 71 50 38 51 22 52 23 53 31 54 24 55
REMARK SMILES IDX 26 56 32 57 25 58 27 59 28 60 29 61 30 62 54 63 55 64 63 65
REMARK SMILES IDX 56 66 58 67 64 68 57 69 59 70 60 71 61 72 62 73 39 74 40 75
REMARK SMILES IDX 48 76 41 77 43 78 49 79 42 80 44 81 45 82 46 83 47 84
REMARK H PARENT 69 37 37 48
REMARK Flexibility Score: inf
ROOT
ATOM      1  C   UNL A   1      36.252  21.152  24.649  1.00  0.00     0.275 C 
ENDROOT
BRANCH   1   2
ATOM      2  C   UNL A   1      35.929  22.407  23.841  1.00  0.00     0.274 C 
BRANCH   2   3
ATOM      3  O   UNL A   1      34.529  22.700  24.008  1.00  0.00    -0.462 OA
BRANCH   3   4
ATOM      4  C   UNL A   1      34.114  23.973  23.769  1.00  0.00     0.314 C 
ATOM      5  O   UNL A   1      34.297  24.558  22.708  1.00  0.00    -0.252 OA
BRANCH   4   6
ATOM      6  C   UNL A   1      33.421  24.610  24.990  1.00  0.00     0.141 C 
BRANCH   6   7
ATOM      7  C   UNL A   1      32.304  23.713  25.562  1.00  0.00     0.109 C 
BRANCH   7   8
ATOM      8  C   UNL A   1      32.769  23.019  26.832  1.00  0.00    -0.105 C 
ATOM      9  C   UNL A   1      33.167  22.423  27.922  1.00  0.00     0.004 C 
ENDBRANCH   7   8
ENDBRANCH   6   7
BRANCH   6  10
ATOM     10  C   UNL A   1      32.989  26.063  24.756  1.00  0.00    -0.032 A 
ATOM     11  C   UNL A   1      33.829  27.114  25.165  1.00  0.00     0.005 A 
ATOM     12  C   UNL A   1      31.750  26.407  24.183  1.00  0.00     0.020 A 
ATOM     13  C   UNL A   1      33.457  28.452  24.992  1.00  0.00     0.001 A 
ATOM     14  C   UNL A   1      31.377  27.746  24.024  1.00  0.00     0.018 A 
ATOM     15  C   UNL A   1      32.226  28.771  24.424  1.00  0.00     0.016 A 
ATOM     16  Br  UNL A   1      29.713  28.162  23.226  1.00  0.00    -0.051 Br
ENDBRANCH   6  10
ENDBRANCH   4   6
ENDBRANCH   3   4
ENDBRANCH   2   3
ENDBRANCH   1   2
BRANCH   1  17
ATOM     17  O   UNL A   1      36.966  21.570  25.825  1.00  0.00    -0.458 OA
BRANCH  17  18
ATOM     18  C   UNL A   1      38.290  21.297  25.838  1.00  0.00     0.338 C 
ATOM     19  O   UNL A   1      38.864  20.330  25.360  1.00  0.00    -0.246 OA
BRANCH  18  20
ATOM     20  C   UNL A   1      38.981  22.451  26.423  1.00  0.00     0.060 A 
ATOM     21  C   UNL A   1      38.495  23.726  26.140  1.00  0.00     0.016 A 
ATOM     22  C   UNL A   1      40.143  22.287  27.171  1.00  0.00     0.016 A 
ATOM     23  C   UNL A   1      39.205  24.848  26.550  1.00  0.00     0.010 A 
ATOM     24  C   UNL A   1      40.813  23.420  27.646  1.00  0.00     0.010 A 
ATOM     25  C   UNL A   1      40.373  24.714  27.310  1.00  0.00    -0.014 A 
BRANCH  25  26
ATOM     26  C   UNL A   1      41.156  25.920  27.704  1.00  0.00     0.031 A 
ATOM     27  C   UNL A   1      40.520  26.974  28.572  1.00  0.00     0.074 A 
ATOM     28  C   UNL A   1      42.432  26.081  27.299  1.00  0.00     0.049 A 
ATOM     29  N   UNL A   1      40.943  28.180  28.852  1.00  0.00    -0.248 NA
ATOM     30  C   UNL A   1      39.228  26.635  29.193  1.00  0.00     0.031 C 
ATOM     31  C   UNL A   1      43.194  25.127  26.492  1.00  0.00     0.029 A 
ATOM     32  N   UNL A   1      43.315  27.113  27.508  1.00  0.00    -0.354 N 
ATOM     33  C   UNL A   1      39.932  28.773  29.598  1.00  0.00     0.074 A 
ATOM     34  C   UNL A   1      38.884  27.787  29.752  1.00  0.00     0.031 C 
ATOM     35  C   UNL A   1      44.434  25.603  26.299  1.00  0.00     0.029 A 
ATOM     36  C   UNL A   1      44.532  26.931  26.894  1.00  0.00     0.049 A 
ATOM     37  H   UNL A   1      43.096  27.908  28.047  1.00  0.00     0.167 HD
ATOM     38  C   UNL A   1      39.882  30.024  30.113  1.00  0.00     0.034 A 
ATOM     39  C   UNL A   1      45.595  27.752  26.785  1.00  0.00     0.034 A 
ATOM     40  C   UNL A   1      40.965  30.968  30.051  1.00  0.00     0.049 A 
ATOM     41  C   UNL A   1      45.528  29.127  27.392  1.00  0.00     0.074 A 
ATOM     42  C   UNL A   1      41.018  32.251  30.570  1.00  0.00     0.029 A 
ATOM     43  N   UNL A   1      42.193  30.725  29.459  1.00  0.00    -0.354 N 
ATOM     44  N   UNL A   1      44.566  29.668  28.100  1.00  0.00    -0.248 NA
ATOM     45  C   UNL A   1      46.689  30.003  27.184  1.00  0.00     0.031 C 
ATOM     46  C   UNL A   1      42.285  32.779  30.297  1.00  0.00     0.029 A 
ATOM     47  C   UNL A   1      43.017  31.827  29.607  1.00  0.00     0.049 A 
ATOM     48  H   UNL A   1      42.443  29.891  29.000  1.00  0.00     0.167 HD
ATOM     49  C   UNL A   1      45.010  30.944  28.430  1.00  0.00     0.074 A 
ATOM     50  C   UNL A   1      46.341  31.081  27.875  1.00  0.00     0.031 C 
ATOM     51  C   UNL A   1      44.361  31.925  29.102  1.00  0.00     0.034 A 
BRANCH  38  52
ATOM     52  C   UNL A   1      38.620  30.441  30.815  1.00  0.00     0.023 A 
ATOM     53  C   UNL A   1      38.464  30.175  32.190  1.00  0.00     0.012 A 
ATOM     54  C   UNL A   1      37.612  31.146  30.126  1.00  0.00     0.148 A 
ATOM     55  C   UNL A   1      37.313  30.586  32.863  1.00  0.00     0.002 A 
ATOM     56  C   UNL A   1      36.485  31.582  30.812  1.00  0.00     0.091 A 
ATOM     57  F   UNL A   1      37.766  31.362  28.812  1.00  0.00    -0.205 F 
ATOM     58  C   UNL A   1      36.331  31.298  32.179  1.00  0.00     0.022 A 
BRANCH  56  59
ATOM     59  S   UNL A   1      35.206  32.564  30.021  1.00  0.00     0.127 S 
ATOM     60  O   UNL A   1      34.265  32.768  31.120  1.00  0.00    -0.237 OA
ATOM     61  O   UNL A   1      35.937  33.765  29.615  1.00  0.00    -0.237 OA
ATOM     62  O   UNL A   1      34.718  31.756  28.912  1.00  0.00    -0.744 OA
ENDBRANCH  56  59
ENDBRANCH  38  52
BRANCH  39  63
ATOM     63  C   UNL A   1      46.825  27.286  26.081  1.00  0.00     0.023 A 
ATOM     64  C   UNL A   1      46.994  27.591  24.717  1.00  0.00     0.012 A 
ATOM     65  C   UNL A   1      47.844  26.587  26.757  1.00  0.00     0.148 A 
ATOM     66  C   UNL A   1      48.148  27.200  24.038  1.00  0.00     0.002 A 
ATOM     67  C   UNL A   1      49.018  26.255  26.090  1.00  0.00     0.091 A 
ATOM     68  F   UNL A   1      47.655  26.271  28.046  1.00  0.00    -0.205 F 
ATOM     69  C   UNL A   1      49.167  26.547  24.726  1.00  0.00     0.022 A 
BRANCH  67  70
ATOM     70  S   UNL A   1      50.427  25.559  26.960  1.00  0.00     0.127 S 
ATOM     71  O   UNL A   1      51.392  25.383  25.879  1.00  0.00    -0.237 OA
ATOM     72  O   UNL A   1      50.759  26.616  27.916  1.00  0.00    -0.237 OA
ATOM     73  O   UNL A   1      49.923  24.339  27.579  1.00  0.00    -0.744 OA
ENDBRANCH  67  70
ENDBRANCH  39  63
BRANCH  51  74
ATOM     74  C   UNL A   1      45.080  33.233  29.286  1.00  0.00     0.023 A 
ATOM     75  C   UNL A   1      45.894  33.417  30.420  1.00  0.00     0.012 A 
ATOM     76  C   UNL A   1      45.015  34.244  28.308  1.00  0.00     0.148 A 
ATOM     77  C   UNL A   1      46.617  34.597  30.590  1.00  0.00     0.002 A 
ATOM     78  C   UNL A   1      45.765  35.404  28.467  1.00  0.00     0.091 A 
ATOM     79  F   UNL A   1      44.215  34.060  27.247  1.00  0.00    -0.205 F 
ATOM     80  C   UNL A   1      46.561  35.585  29.610  1.00  0.00     0.022 A 
BRANCH  78  81
ATOM     81  S   UNL A   1      45.810  36.686  27.209  1.00  0.00     0.127 S 
ATOM     82  O   UNL A   1      46.790  37.617  27.765  1.00  0.00    -0.237 OA
ATOM     83  O   UNL A   1      46.267  35.954  26.026  1.00  0.00    -0.237 OA
ATOM     84  O   UNL A   1      44.445  37.189  27.112  1.00  0.00    -0.744 OA
ENDBRANCH  78  81
ENDBRANCH  51  74
ENDBRANCH  25  26
ENDBRANCH  18  20
ENDBRANCH  17  18
ENDBRANCH   1  17
TORSDOF 17
ENDMDL
