MODEL 1
REMARK VINA RESULT:     -10.8      0.000      0.000
REMARK SMILES [NH3+]CCOCC(=O)N[C@H](C(=O)OCCOC(=O)c1ccc(-c2c3nc(c(-c4cccc(S(=O)(=O)[O-])c4F)c4ccc([nH]4)c(-c4cccc(S(=O)(=O)[O-])c4F)c4nc(c(-c5cccc(S(=O)(=O)[O-])c5F)c5ccc2[nH]5)C=C4)C=C3)cc1)c1ccccc1
REMARK SMILES IDX 12 1 10 2 11 3 9 4 8 5 6 6 7 7 5 9 4 10 3 11 2 12 1 13 81 17
REMARK SMILES IDX 82 18 86 19 83 20 85 21 84 22 13 23 14 24 15 25 16 26 17 27
REMARK SMILES IDX 18 28 19 29 80 30 20 31 79 32 21 33 22 34 23 35 73 36 24 37
REMARK SMILES IDX 78 38 72 39 74 40 25 41 77 42 71 43 70 44 26 46 58 47 38 48
REMARK SMILES IDX 57 49 39 50 42 51 56 52 75 53 40 54 41 55 55 57 76 58 43 59
REMARK SMILES IDX 27 60 28 61 36 62 29 63 31 64 37 65 30 66 32 67 33 68 34 69
REMARK SMILES IDX 35 70 59 71 60 72 68 73 61 74 63 75 69 76 62 77 64 78 65 79
REMARK SMILES IDX 66 80 67 81 44 82 45 83 53 84 46 85 48 86 54 87 47 88 49 89
REMARK SMILES IDX 50 90 51 91 52 92
REMARK H PARENT 8 8 1 14 1 15 1 16 74 45 42 56
REMARK Flexibility Score: inf
ROOT
ATOM      1  O   UNL A   1      32.320  28.189  25.248  1.00  0.00    -0.460 OA
ENDROOT
BRANCH   1   2
ATOM      2  C   UNL A   1      32.205  27.571  24.031  1.00  0.00     0.333 C 
ATOM      3  O   UNL A   1      33.116  27.483  23.220  1.00  0.00    -0.249 OA
BRANCH   2   4
ATOM      4  C   UNL A   1      30.748  27.126  23.768  1.00  0.00     0.223 C 
BRANCH   4   5
ATOM      5  N   UNL A   1      30.166  26.497  24.961  1.00  0.00    -0.337 N 
ATOM      6  C   UNL A   1      30.312  25.226  25.434  1.00  0.00     0.246 C 
ATOM      7  O   UNL A   1      29.922  24.986  26.580  1.00  0.00    -0.272 OA
ATOM      8  H   UNL A   1      29.584  27.080  25.500  1.00  0.00     0.164 HD
BRANCH   6   9
ATOM      9  C   UNL A   1      30.885  24.108  24.551  1.00  0.00     0.260 C 
BRANCH   9  10
ATOM     10  O   UNL A   1      31.986  23.399  25.101  1.00  0.00    -0.366 OA
BRANCH  10  11
ATOM     11  C   UNL A   1      32.761  24.096  26.069  1.00  0.00     0.222 C 
BRANCH  11  12
ATOM     12  C   UNL A   1      33.602  23.157  26.942  1.00  0.00     0.287 C 
BRANCH  12  13
ATOM     13  N   UNL A   1      32.837  22.085  27.582  1.00  0.00    -0.356 N 
ATOM     14  H   UNL A   1      33.441  21.576  28.227  1.00  0.00     0.344 HD
ATOM     15  H   UNL A   1      32.486  21.446  26.869  1.00  0.00     0.344 HD
ATOM     16  H   UNL A   1      32.052  22.487  28.095  1.00  0.00     0.344 HD
ENDBRANCH  12  13
ENDBRANCH  11  12
ENDBRANCH  10  11
ENDBRANCH   9  10
ENDBRANCH   6   9
ENDBRANCH   4   5
BRANCH   4  17
ATOM     17  C   UNL A   1      29.847  28.190  23.134  1.00  0.00    -0.014 A 
ATOM     18  C   UNL A   1      28.459  28.140  23.349  1.00  0.00     0.006 A 
ATOM     19  C   UNL A   1      30.340  29.260  22.364  1.00  0.00     0.006 A 
ATOM     20  C   UNL A   1      27.593  29.046  22.727  1.00  0.00     0.000 A 
ATOM     21  C   UNL A   1      29.476  30.173  21.753  1.00  0.00     0.000 A 
ATOM     22  C   UNL A   1      28.100  30.052  21.914  1.00  0.00     0.000 A 
ENDBRANCH   4  17
ENDBRANCH   2   4
ENDBRANCH   1   2
BRANCH   1  23
ATOM     23  C   UNL A   1      32.914  29.504  25.224  1.00  0.00     0.274 C 
BRANCH  23  24
ATOM     24  C   UNL A   1      32.193  30.498  26.134  1.00  0.00     0.275 C 
BRANCH  24  25
ATOM     25  O   UNL A   1      32.864  30.574  27.401  1.00  0.00    -0.458 OA
BRANCH  25  26
ATOM     26  C   UNL A   1      33.627  31.672  27.604  1.00  0.00     0.338 C 
ATOM     27  O   UNL A   1      33.265  32.835  27.614  1.00  0.00    -0.246 OA
BRANCH  26  28
ATOM     28  C   UNL A   1      34.995  31.253  27.938  1.00  0.00     0.060 A 
ATOM     29  C   UNL A   1      35.189  29.932  28.326  1.00  0.00     0.016 A 
ATOM     30  C   UNL A   1      36.038  32.170  28.038  1.00  0.00     0.016 A 
ATOM     31  C   UNL A   1      36.382  29.528  28.900  1.00  0.00     0.010 A 
ATOM     32  C   UNL A   1      37.270  31.748  28.557  1.00  0.00     0.010 A 
ATOM     33  C   UNL A   1      37.433  30.435  29.039  1.00  0.00    -0.014 A 
BRANCH  33  34
ATOM     34  C   UNL A   1      38.627  30.020  29.816  1.00  0.00     0.031 A 
ATOM     35  C   UNL A   1      39.636  29.107  29.177  1.00  0.00     0.074 A 
ATOM     36  C   UNL A   1      38.874  30.547  31.032  1.00  0.00     0.049 A 
ATOM     37  N   UNL A   1      40.677  28.527  29.709  1.00  0.00    -0.248 NA
ATOM     38  C   UNL A   1      39.454  28.816  27.744  1.00  0.00     0.031 C 
ATOM     39  C   UNL A   1      38.036  31.537  31.709  1.00  0.00     0.029 A 
ATOM     40  N   UNL A   1      39.917  30.344  31.900  1.00  0.00    -0.354 N 
ATOM     41  C   UNL A   1      41.226  27.741  28.705  1.00  0.00     0.074 A 
ATOM     42  C   UNL A   1      40.426  27.943  27.518  1.00  0.00     0.031 C 
ATOM     43  C   UNL A   1      38.617  31.886  32.868  1.00  0.00     0.029 A 
ATOM     44  C   UNL A   1      39.814  31.074  33.062  1.00  0.00     0.049 A 
ATOM     45  H   UNL A   1      40.666  29.734  31.711  1.00  0.00     0.167 HD
ATOM     46  C   UNL A   1      42.300  26.921  28.769  1.00  0.00     0.034 A 
ATOM     47  C   UNL A   1      40.573  31.057  34.176  1.00  0.00     0.034 A 
ATOM     48  C   UNL A   1      43.128  26.774  29.934  1.00  0.00     0.049 A 
ATOM     49  C   UNL A   1      41.731  30.098  34.241  1.00  0.00     0.074 A 
ATOM     50  C   UNL A   1      44.211  25.936  30.122  1.00  0.00     0.029 A 
ATOM     51  N   UNL A   1      42.971  27.501  31.104  1.00  0.00    -0.354 N 
ATOM     52  N   UNL A   1      42.213  29.320  33.303  1.00  0.00    -0.248 NA
ATOM     53  C   UNL A   1      42.440  30.004  35.526  1.00  0.00     0.031 C 
ATOM     54  C   UNL A   1      44.709  26.154  31.412  1.00  0.00     0.029 A 
ATOM     55  C   UNL A   1      43.939  27.132  32.022  1.00  0.00     0.049 A 
ATOM     56  H   UNL A   1      42.275  28.179  31.260  1.00  0.00     0.167 HD
ATOM     57  C   UNL A   1      43.278  28.641  33.881  1.00  0.00     0.074 A 
ATOM     58  C   UNL A   1      43.399  29.132  35.239  1.00  0.00     0.031 C 
ATOM     59  C   UNL A   1      44.066  27.673  33.350  1.00  0.00     0.034 A 
BRANCH  46  60
ATOM     60  C   UNL A   1      42.624  26.111  27.547  1.00  0.00     0.023 A 
ATOM     61  C   UNL A   1      43.365  26.685  26.497  1.00  0.00     0.012 A 
ATOM     62  C   UNL A   1      42.207  24.769  27.451  1.00  0.00     0.148 A 
ATOM     63  C   UNL A   1      43.668  25.938  25.358  1.00  0.00     0.002 A 
ATOM     64  C   UNL A   1      42.539  24.023  26.327  1.00  0.00     0.091 A 
ATOM     65  F   UNL A   1      41.470  24.254  28.447  1.00  0.00    -0.205 F 
ATOM     66  C   UNL A   1      43.265  24.607  25.276  1.00  0.00     0.022 A 
BRANCH  64  67
ATOM     67  S   UNL A   1      42.102  22.288  26.165  1.00  0.00     0.127 S 
ATOM     68  O   UNL A   1      42.802  21.920  24.935  1.00  0.00    -0.237 OA
ATOM     69  O   UNL A   1      42.666  21.709  27.384  1.00  0.00    -0.237 OA
ATOM     70  O   UNL A   1      40.648  22.252  26.098  1.00  0.00    -0.744 OA
ENDBRANCH  64  67
ENDBRANCH  46  60
BRANCH  47  71
ATOM     71  C   UNL A   1      40.246  31.955  35.320  1.00  0.00     0.023 A 
ATOM     72  C   UNL A   1      40.939  33.171  35.470  1.00  0.00     0.012 A 
ATOM     73  C   UNL A   1      39.228  31.632  36.238  1.00  0.00     0.148 A 
ATOM     74  C   UNL A   1      40.629  34.042  36.518  1.00  0.00     0.002 A 
ATOM     75  C   UNL A   1      38.878  32.534  37.237  1.00  0.00     0.091 A 
ATOM     76  F   UNL A   1      38.606  30.451  36.114  1.00  0.00    -0.205 F 
ATOM     77  C   UNL A   1      39.588  33.733  37.389  1.00  0.00     0.022 A 
BRANCH  75  78
ATOM     78  S   UNL A   1      37.443  32.263  38.284  1.00  0.00     0.127 S 
ATOM     79  O   UNL A   1      36.400  32.981  37.558  1.00  0.00    -0.237 OA
ATOM     80  O   UNL A   1      37.314  30.805  38.267  1.00  0.00    -0.237 OA
ATOM     81  O   UNL A   1      37.815  32.809  39.584  1.00  0.00    -0.744 OA
ENDBRANCH  75  78
ENDBRANCH  47  71
BRANCH  59  82
ATOM     82  C   UNL A   1      45.123  27.080  34.238  1.00  0.00     0.023 A 
ATOM     83  C   UNL A   1      46.377  27.716  34.334  1.00  0.00     0.012 A 
ATOM     84  C   UNL A   1      44.852  25.953  35.036  1.00  0.00     0.148 A 
ATOM     85  C   UNL A   1      47.354  27.225  35.197  1.00  0.00     0.002 A 
ATOM     86  C   UNL A   1      45.817  25.493  35.924  1.00  0.00     0.091 A 
ATOM     87  F   UNL A   1      43.660  25.350  34.910  1.00  0.00    -0.205 F 
ATOM     88  C   UNL A   1      47.070  26.122  36.001  1.00  0.00     0.022 A 
BRANCH  86  89
ATOM     89  S   UNL A   1      45.501  24.134  37.055  1.00  0.00     0.127 S 
ATOM     90  O   UNL A   1      46.824  23.914  37.635  1.00  0.00    -0.237 OA
ATOM     91  O   UNL A   1      44.520  24.711  37.974  1.00  0.00    -0.237 OA
ATOM     92  O   UNL A   1      44.985  23.048  36.233  1.00  0.00    -0.744 OA
ENDBRANCH  86  89
ENDBRANCH  59  82
ENDBRANCH  33  34
ENDBRANCH  26  28
ENDBRANCH  25  26
ENDBRANCH  24  25
ENDBRANCH  23  24
ENDBRANCH   1  23
TORSDOF 21
ENDMDL
MODEL 2
REMARK VINA RESULT:     -10.7      5.040      9.858
REMARK SMILES [NH3+]CCOCC(=O)N[C@H](C(=O)OCCOC(=O)c1ccc(-c2c3nc(c(-c4cccc(S(=O)(=O)[O-])c4F)c4ccc([nH]4)c(-c4cccc(S(=O)(=O)[O-])c4F)c4nc(c(-c5cccc(S(=O)(=O)[O-])c5F)c5ccc2[nH]5)C=C4)C=C3)cc1)c1ccccc1
REMARK SMILES IDX 12 1 10 2 11 3 9 4 8 5 6 6 7 7 5 9 4 10 3 11 2 12 1 13 81 17
REMARK SMILES IDX 82 18 86 19 83 20 85 21 84 22 13 23 14 24 15 25 16 26 17 27
REMARK SMILES IDX 18 28 19 29 80 30 20 31 79 32 21 33 22 34 23 35 73 36 24 37
REMARK SMILES IDX 78 38 72 39 74 40 25 41 77 42 71 43 70 44 26 46 58 47 38 48
REMARK SMILES IDX 57 49 39 50 42 51 56 52 75 53 40 54 41 55 55 57 76 58 43 59
REMARK SMILES IDX 27 60 28 61 36 62 29 63 31 64 37 65 30 66 32 67 33 68 34 69
REMARK SMILES IDX 35 70 59 71 60 72 68 73 61 74 63 75 69 76 62 77 64 78 65 79
REMARK SMILES IDX 66 80 67 81 44 82 45 83 53 84 46 85 48 86 54 87 47 88 49 89
REMARK SMILES IDX 50 90 51 91 52 92
REMARK H PARENT 8 8 1 14 1 15 1 16 74 45 42 56
REMARK Flexibility Score: inf
ROOT
ATOM      1  O   UNL A   1      35.376  22.646  25.934  1.00  0.00    -0.460 OA
ENDROOT
BRANCH   1   2
ATOM      2  C   UNL A   1      34.215  23.307  26.235  1.00  0.00     0.333 C 
ATOM      3  O   UNL A   1      33.465  22.990  27.149  1.00  0.00    -0.249 OA
BRANCH   2   4
ATOM      4  C   UNL A   1      33.916  24.410  25.195  1.00  0.00     0.223 C 
BRANCH   4   5
ATOM      5  N   UNL A   1      33.486  23.825  23.917  1.00  0.00    -0.337 N 
ATOM      6  C   UNL A   1      33.462  24.378  22.671  1.00  0.00     0.246 C 
ATOM      7  O   UNL A   1      33.287  23.627  21.708  1.00  0.00    -0.272 OA
ATOM      8  H   UNL A   1      33.168  22.894  23.969  1.00  0.00     0.164 HD
BRANCH   6   9
ATOM      9  C   UNL A   1      33.585  25.896  22.471  1.00  0.00     0.260 C 
BRANCH   9  10
ATOM     10  O   UNL A   1      32.625  26.475  21.599  1.00  0.00    -0.366 OA
BRANCH  10  11
ATOM     11  C   UNL A   1      31.390  26.859  22.190  1.00  0.00     0.222 C 
BRANCH  11  12
ATOM     12  C   UNL A   1      31.497  28.161  22.993  1.00  0.00     0.287 C 
BRANCH  12  13
ATOM     13  N   UNL A   1      32.019  29.296  22.231  1.00  0.00    -0.356 N 
ATOM     14  H   UNL A   1      32.330  28.975  21.314  1.00  0.00     0.344 HD
ATOM     15  H   UNL A   1      32.806  29.709  22.731  1.00  0.00     0.344 HD
ATOM     16  H   UNL A   1      31.285  29.995  22.115  1.00  0.00     0.344 HD
ENDBRANCH  12  13
ENDBRANCH  11  12
ENDBRANCH  10  11
ENDBRANCH   9  10
ENDBRANCH   6   9
ENDBRANCH   4   5
BRANCH   4  17
ATOM     17  C   UNL A   1      33.008  25.541  25.688  1.00  0.00    -0.014 A 
ATOM     18  C   UNL A   1      33.579  26.760  26.094  1.00  0.00     0.006 A 
ATOM     19  C   UNL A   1      31.605  25.445  25.725  1.00  0.00     0.006 A 
ATOM     20  C   UNL A   1      32.794  27.790  26.623  1.00  0.00     0.000 A 
ATOM     21  C   UNL A   1      30.819  26.480  26.241  1.00  0.00     0.000 A 
ATOM     22  C   UNL A   1      31.416  27.643  26.713  1.00  0.00     0.000 A 
ENDBRANCH   4  17
ENDBRANCH   2   4
ENDBRANCH   1   2
BRANCH   1  23
ATOM     23  C   UNL A   1      35.243  21.228  25.701  1.00  0.00     0.274 C 
BRANCH  23  24
ATOM     24  C   UNL A   1      36.465  20.622  25.013  1.00  0.00     0.275 C 
BRANCH  24  25
ATOM     25  O   UNL A   1      37.555  21.557  25.044  1.00  0.00    -0.458 OA
BRANCH  25  26
ATOM     26  C   UNL A   1      38.647  21.172  25.741  1.00  0.00     0.338 C 
ATOM     27  O   UNL A   1      39.185  20.079  25.735  1.00  0.00    -0.246 OA
BRANCH  26  28
ATOM     28  C   UNL A   1      39.196  22.333  26.457  1.00  0.00     0.060 A 
ATOM     29  C   UNL A   1      38.702  23.589  26.123  1.00  0.00     0.016 A 
ATOM     30  C   UNL A   1      40.288  22.217  27.312  1.00  0.00     0.016 A 
ATOM     31  C   UNL A   1      39.339  24.740  26.554  1.00  0.00     0.010 A 
ATOM     32  C   UNL A   1      40.895  23.381  27.806  1.00  0.00     0.010 A 
ATOM     33  C   UNL A   1      40.454  24.651  27.389  1.00  0.00    -0.014 A 
BRANCH  33  34
ATOM     34  C   UNL A   1      41.214  25.890  27.686  1.00  0.00     0.031 A 
ATOM     35  C   UNL A   1      40.589  26.943  28.556  1.00  0.00     0.074 A 
ATOM     36  C   UNL A   1      42.496  26.023  27.287  1.00  0.00     0.049 A 
ATOM     37  N   UNL A   1      41.020  28.142  28.840  1.00  0.00    -0.248 NA
ATOM     38  C   UNL A   1      39.310  26.597  29.203  1.00  0.00     0.031 C 
ATOM     39  C   UNL A   1      43.257  25.020  26.542  1.00  0.00     0.029 A 
ATOM     40  N   UNL A   1      43.390  27.045  27.478  1.00  0.00    -0.354 N 
ATOM     41  C   UNL A   1      40.034  28.722  29.627  1.00  0.00     0.074 A 
ATOM     42  C   UNL A   1      38.994  27.733  29.808  1.00  0.00     0.031 C 
ATOM     43  C   UNL A   1      44.515  25.457  26.375  1.00  0.00     0.029 A 
ATOM     44  C   UNL A   1      44.622  26.810  26.912  1.00  0.00     0.049 A 
ATOM     45  H   UNL A   1      43.173  27.868  27.972  1.00  0.00     0.167 HD
ATOM     46  C   UNL A   1      39.997  29.969  30.148  1.00  0.00     0.034 A 
ATOM     47  C   UNL A   1      45.700  27.611  26.798  1.00  0.00     0.034 A 
ATOM     48  C   UNL A   1      41.062  30.924  30.017  1.00  0.00     0.049 A 
ATOM     49  C   UNL A   1      45.615  29.012  27.340  1.00  0.00     0.074 A 
ATOM     50  C   UNL A   1      41.108  32.231  30.465  1.00  0.00     0.029 A 
ATOM     51  N   UNL A   1      42.278  30.664  29.405  1.00  0.00    -0.354 N 
ATOM     52  N   UNL A   1      44.656  29.569  28.040  1.00  0.00    -0.248 NA
ATOM     53  C   UNL A   1      46.754  29.899  27.064  1.00  0.00     0.031 C 
ATOM     54  C   UNL A   1      42.355  32.764  30.119  1.00  0.00     0.029 A 
ATOM     55  C   UNL A   1      43.085  31.786  29.462  1.00  0.00     0.049 A 
ATOM     56  H   UNL A   1      42.530  29.808  28.989  1.00  0.00     0.167 HD
ATOM     57  C   UNL A   1      45.072  30.871  28.285  1.00  0.00     0.074 A 
ATOM     58  C   UNL A   1      46.390  31.007  27.697  1.00  0.00     0.031 C 
ATOM     59  C   UNL A   1      44.412  31.878  28.910  1.00  0.00     0.034 A 
BRANCH  46  60
ATOM     60  C   UNL A   1      38.756  30.370  30.892  1.00  0.00     0.023 A 
ATOM     61  C   UNL A   1      38.613  30.043  32.254  1.00  0.00     0.012 A 
ATOM     62  C   UNL A   1      37.736  31.092  30.241  1.00  0.00     0.148 A 
ATOM     63  C   UNL A   1      37.462  30.411  32.951  1.00  0.00     0.002 A 
ATOM     64  C   UNL A   1      36.607  31.481  30.950  1.00  0.00     0.091 A 
ATOM     65  F   UNL A   1      37.877  31.360  28.934  1.00  0.00    -0.205 F 
ATOM     66  C   UNL A   1      36.465  31.137  32.304  1.00  0.00     0.022 A 
BRANCH  64  67
ATOM     67  S   UNL A   1      35.299  32.462  30.205  1.00  0.00     0.127 S 
ATOM     68  O   UNL A   1      34.834  31.574  29.140  1.00  0.00    -0.237 OA
ATOM     69  O   UNL A   1      34.361  32.626  31.315  1.00  0.00    -0.237 OA
ATOM     70  O   UNL A   1      35.933  33.697  29.765  1.00  0.00    -0.744 OA
ENDBRANCH  64  67
ENDBRANCH  46  60
BRANCH  47  71
ATOM     71  C   UNL A   1      46.934  27.116  26.124  1.00  0.00     0.023 A 
ATOM     72  C   UNL A   1      47.107  27.329  24.743  1.00  0.00     0.012 A 
ATOM     73  C   UNL A   1      47.955  26.467  26.846  1.00  0.00     0.148 A 
ATOM     74  C   UNL A   1      48.268  26.900  24.095  1.00  0.00     0.002 A 
ATOM     75  C   UNL A   1      49.136  26.104  26.210  1.00  0.00     0.091 A 
ATOM     76  F   UNL A   1      47.761  26.226  28.151  1.00  0.00    -0.205 F 
ATOM     77  C   UNL A   1      49.289  26.305  24.832  1.00  0.00     0.022 A 
BRANCH  75  78
ATOM     78  S   UNL A   1      50.547  25.483  27.134  1.00  0.00     0.127 S 
ATOM     79  O   UNL A   1      49.991  24.290  27.767  1.00  0.00    -0.237 OA
ATOM     80  O   UNL A   1      51.523  25.220  26.076  1.00  0.00    -0.237 OA
ATOM     81  O   UNL A   1      50.922  26.571  28.029  1.00  0.00    -0.744 OA
ENDBRANCH  75  78
ENDBRANCH  47  71
BRANCH  59  82
ATOM     82  C   UNL A   1      45.100  33.212  28.988  1.00  0.00     0.023 A 
ATOM     83  C   UNL A   1      44.864  34.167  27.980  1.00  0.00     0.012 A 
ATOM     84  C   UNL A   1      45.905  33.550  30.092  1.00  0.00     0.148 A 
ATOM     85  C   UNL A   1      45.438  35.434  28.059  1.00  0.00     0.002 A 
ATOM     86  C   UNL A   1      46.441  34.828  30.184  1.00  0.00     0.091 A 
ATOM     87  F   UNL A   1      46.134  32.616  31.028  1.00  0.00    -0.205 F 
ATOM     88  C   UNL A   1      46.215  35.769  29.166  1.00  0.00     0.022 A 
BRANCH  86  89
ATOM     89  S   UNL A   1      47.380  35.367  31.617  1.00  0.00     0.127 S 
ATOM     90  O   UNL A   1      48.549  34.492  31.554  1.00  0.00    -0.237 OA
ATOM     91  O   UNL A   1      47.651  36.771  31.306  1.00  0.00    -0.237 OA
ATOM     92  O   UNL A   1      46.504  35.165  32.763  1.00  0.00    -0.744 OA
ENDBRANCH  86  89
ENDBRANCH  59  82
ENDBRANCH  33  34
ENDBRANCH  26  28
ENDBRANCH  25  26
ENDBRANCH  24  25
ENDBRANCH  23  24
ENDBRANCH   1  23
TORSDOF 21
ENDMDL
MODEL 3
REMARK VINA RESULT:     -10.4      1.852      2.471
REMARK SMILES [NH3+]CCOCC(=O)N[C@H](C(=O)OCCOC(=O)c1ccc(-c2c3nc(c(-c4cccc(S(=O)(=O)[O-])c4F)c4ccc([nH]4)c(-c4cccc(S(=O)(=O)[O-])c4F)c4nc(c(-c5cccc(S(=O)(=O)[O-])c5F)c5ccc2[nH]5)C=C4)C=C3)cc1)c1ccccc1
REMARK SMILES IDX 12 1 10 2 11 3 9 4 8 5 6 6 7 7 5 9 4 10 3 11 2 12 1 13 81 17
REMARK SMILES IDX 82 18 86 19 83 20 85 21 84 22 13 23 14 24 15 25 16 26 17 27
REMARK SMILES IDX 18 28 19 29 80 30 20 31 79 32 21 33 22 34 23 35 73 36 24 37
REMARK SMILES IDX 78 38 72 39 74 40 25 41 77 42 71 43 70 44 26 46 58 47 38 48
REMARK SMILES IDX 57 49 39 50 42 51 56 52 75 53 40 54 41 55 55 57 76 58 43 59
REMARK SMILES IDX 27 60 28 61 36 62 29 63 31 64 37 65 30 66 32 67 33 68 34 69
REMARK SMILES IDX 35 70 59 71 60 72 68 73 61 74 63 75 69 76 62 77 64 78 65 79
REMARK SMILES IDX 66 80 67 81 44 82 45 83 53 84 46 85 48 86 54 87 47 88 49 89
REMARK SMILES IDX 50 90 51 91 52 92
REMARK H PARENT 8 8 1 14 1 15 1 16 74 45 42 56
REMARK Flexibility Score: inf
ROOT
ATOM      1  O   UNL A   1      32.299  28.225  25.899  1.00  0.00    -0.460 OA
ENDROOT
BRANCH   1   2
ATOM      2  C   UNL A   1      31.696  27.253  26.651  1.00  0.00     0.333 C 
ATOM      3  O   UNL A   1      31.027  27.478  27.651  1.00  0.00    -0.249 OA
BRANCH   2   4
ATOM      4  C   UNL A   1      32.083  25.842  26.153  1.00  0.00     0.223 C 
BRANCH   4   5
ATOM      5  N   UNL A   1      31.207  24.818  26.736  1.00  0.00    -0.337 N 
ATOM      6  C   UNL A   1      31.436  23.490  26.943  1.00  0.00     0.246 C 
ATOM      7  O   UNL A   1      30.649  22.871  27.663  1.00  0.00    -0.272 OA
ATOM      8  H   UNL A   1      30.320  25.139  27.022  1.00  0.00     0.164 HD
BRANCH   6   9
ATOM      9  C   UNL A   1      32.600  22.766  26.250  1.00  0.00     0.260 C 
BRANCH   9  10
ATOM     10  O   UNL A   1      32.452  21.360  26.118  1.00  0.00    -0.366 OA
BRANCH  10  11
ATOM     11  C   UNL A   1      32.283  20.868  24.794  1.00  0.00     0.222 C 
BRANCH  11  12
ATOM     12  C   UNL A   1      32.505  19.354  24.692  1.00  0.00     0.287 C 
BRANCH  12  13
ATOM     13  N   UNL A   1      33.401  18.808  25.712  1.00  0.00    -0.356 N 
ATOM     14  H   UNL A   1      32.867  18.600  26.556  1.00  0.00     0.344 HD
ATOM     15  H   UNL A   1      34.127  19.490  25.928  1.00  0.00     0.344 HD
ATOM     16  H   UNL A   1      33.832  17.951  25.363  1.00  0.00     0.344 HD
ENDBRANCH  12  13
ENDBRANCH  11  12
ENDBRANCH  10  11
ENDBRANCH   9  10
ENDBRANCH   6   9
ENDBRANCH   4   5
BRANCH   4  17
ATOM     17  C   UNL A   1      32.254  25.712  24.637  1.00  0.00    -0.014 A 
ATOM     18  C   UNL A   1      33.543  25.562  24.094  1.00  0.00     0.006 A 
ATOM     19  C   UNL A   1      31.173  25.695  23.736  1.00  0.00     0.006 A 
ATOM     20  C   UNL A   1      33.750  25.516  22.712  1.00  0.00     0.000 A 
ATOM     21  C   UNL A   1      31.379  25.637  22.354  1.00  0.00     0.000 A 
ATOM     22  C   UNL A   1      32.669  25.572  21.841  1.00  0.00     0.000 A 
ENDBRANCH   4  17
ENDBRANCH   2   4
ENDBRANCH   1   2
BRANCH   1  23
ATOM     23  C   UNL A   1      31.426  29.263  25.406  1.00  0.00     0.274 C 
BRANCH  23  24
ATOM     24  C   UNL A   1      31.633  30.600  26.116  1.00  0.00     0.275 C 
BRANCH  24  25
ATOM     25  O   UNL A   1      33.037  30.892  26.204  1.00  0.00    -0.458 OA
BRANCH  25  26
ATOM     26  C   UNL A   1      33.409  31.722  27.205  1.00  0.00     0.338 C 
ATOM     27  O   UNL A   1      32.725  32.557  27.769  1.00  0.00    -0.246 OA
BRANCH  26  28
ATOM     28  C   UNL A   1      34.779  31.392  27.620  1.00  0.00     0.060 A 
ATOM     29  C   UNL A   1      35.060  30.064  27.921  1.00  0.00     0.016 A 
ATOM     30  C   UNL A   1      35.725  32.381  27.878  1.00  0.00     0.016 A 
ATOM     31  C   UNL A   1      36.237  29.714  28.561  1.00  0.00     0.010 A 
ATOM     32  C   UNL A   1      36.946  32.022  28.466  1.00  0.00     0.010 A 
ATOM     33  C   UNL A   1      37.188  30.691  28.857  1.00  0.00    -0.014 A 
BRANCH  33  34
ATOM     34  C   UNL A   1      38.350  30.313  29.698  1.00  0.00     0.031 A 
ATOM     35  C   UNL A   1      39.443  29.471  29.102  1.00  0.00     0.074 A 
ATOM     36  C   UNL A   1      38.493  30.815  30.941  1.00  0.00     0.049 A 
ATOM     37  N   UNL A   1      40.478  28.928  29.685  1.00  0.00    -0.248 NA
ATOM     38  C   UNL A   1      39.368  29.213  27.653  1.00  0.00     0.031 C 
ATOM     39  C   UNL A   1      37.564  31.742  31.589  1.00  0.00     0.029 A 
ATOM     40  N   UNL A   1      39.488  30.639  31.869  1.00  0.00    -0.354 N 
ATOM     41  C   UNL A   1      41.128  28.200  28.698  1.00  0.00     0.074 A 
ATOM     42  C   UNL A   1      40.395  28.396  27.467  1.00  0.00     0.031 C 
ATOM     43  C   UNL A   1      38.053  32.085  32.791  1.00  0.00     0.029 A 
ATOM     44  C   UNL A   1      39.275  31.328  33.041  1.00  0.00     0.049 A 
ATOM     45  H   UNL A   1      40.278  30.073  31.713  1.00  0.00     0.167 HD
ATOM     46  C   UNL A   1      42.237  27.433  28.809  1.00  0.00     0.034 A 
ATOM     47  C   UNL A   1      39.962  31.316  34.200  1.00  0.00     0.034 A 
ATOM     48  C   UNL A   1      42.996  27.293  30.021  1.00  0.00     0.049 A 
ATOM     49  C   UNL A   1      41.161  30.414  34.315  1.00  0.00     0.074 A 
ATOM     50  C   UNL A   1      44.107  26.505  30.256  1.00  0.00     0.029 A 
ATOM     51  N   UNL A   1      42.729  27.977  31.197  1.00  0.00    -0.354 N 
ATOM     52  N   UNL A   1      41.741  29.689  33.389  1.00  0.00    -0.248 NA
ATOM     53  C   UNL A   1      41.792  30.318  35.640  1.00  0.00     0.031 C 
ATOM     54  C   UNL A   1      44.511  26.709  31.581  1.00  0.00     0.029 A 
ATOM     55  C   UNL A   1      43.655  27.629  32.165  1.00  0.00     0.049 A 
ATOM     56  H   UNL A   1      41.990  28.614  31.325  1.00  0.00     0.167 HD
ATOM     57  C   UNL A   1      42.801  29.048  34.016  1.00  0.00     0.074 A 
ATOM     58  C   UNL A   1      42.811  29.504  35.392  1.00  0.00     0.031 C 
ATOM     59  C   UNL A   1      43.670  28.136  33.513  1.00  0.00     0.034 A 
BRANCH  46  60
ATOM     60  C   UNL A   1      42.678  26.676  27.590  1.00  0.00     0.023 A 
ATOM     61  C   UNL A   1      43.451  27.317  26.603  1.00  0.00     0.012 A 
ATOM     62  C   UNL A   1      42.340  25.317  27.433  1.00  0.00     0.148 A 
ATOM     63  C   UNL A   1      43.864  26.621  25.467  1.00  0.00     0.002 A 
ATOM     64  C   UNL A   1      42.781  24.623  26.313  1.00  0.00     0.091 A 
ATOM     65  F   UNL A   1      41.572  24.737  28.367  1.00  0.00    -0.205 F 
ATOM     66  C   UNL A   1      43.538  25.274  25.326  1.00  0.00     0.022 A 
BRANCH  64  67
ATOM     67  S   UNL A   1      42.448  22.873  26.080  1.00  0.00     0.127 S 
ATOM     68  O   UNL A   1      43.159  22.283  27.212  1.00  0.00    -0.237 OA
ATOM     69  O   UNL A   1      40.989  22.817  26.179  1.00  0.00    -0.237 OA
ATOM     70  O   UNL A   1      42.974  22.543  24.762  1.00  0.00    -0.744 OA
ENDBRANCH  64  67
ENDBRANCH  46  60
BRANCH  47  71
ATOM     71  C   UNL A   1      39.518  32.163  35.344  1.00  0.00     0.023 A 
ATOM     72  C   UNL A   1      38.715  31.601  36.355  1.00  0.00     0.012 A 
ATOM     73  C   UNL A   1      39.914  33.509  35.458  1.00  0.00     0.148 A 
ATOM     74  C   UNL A   1      38.310  32.367  37.451  1.00  0.00     0.002 A 
ATOM     75  C   UNL A   1      39.565  34.246  36.584  1.00  0.00     0.091 A 
ATOM     76  F   UNL A   1      40.640  34.048  34.467  1.00  0.00    -0.205 F 
ATOM     77  C   UNL A   1      38.750  33.683  37.574  1.00  0.00     0.022 A 
BRANCH  75  78
ATOM     78  S   UNL A   1      40.236  35.888  36.875  1.00  0.00     0.127 S 
ATOM     79  O   UNL A   1      39.623  36.242  38.152  1.00  0.00    -0.237 OA
ATOM     80  O   UNL A   1      41.676  35.631  36.934  1.00  0.00    -0.237 OA
ATOM     81  O   UNL A   1      39.822  36.676  35.722  1.00  0.00    -0.744 OA
ENDBRANCH  75  78
ENDBRANCH  47  71
BRANCH  59  82
ATOM     82  C   UNL A   1      44.699  27.570  34.451  1.00  0.00     0.023 A 
ATOM     83  C   UNL A   1      45.917  28.255  34.630  1.00  0.00     0.012 A 
ATOM     84  C   UNL A   1      44.429  26.419  35.213  1.00  0.00     0.148 A 
ATOM     85  C   UNL A   1      46.862  27.789  35.540  1.00  0.00     0.002 A 
ATOM     86  C   UNL A   1      45.360  25.982  36.148  1.00  0.00     0.091 A 
ATOM     87  F   UNL A   1      43.273  25.770  35.009  1.00  0.00    -0.205 F 
ATOM     88  C   UNL A   1      46.579  26.661  36.308  1.00  0.00     0.022 A 
BRANCH  86  89
ATOM     89  S   UNL A   1      45.037  24.590  37.237  1.00  0.00     0.127 S 
ATOM     90  O   UNL A   1      44.822  23.507  36.281  1.00  0.00    -0.237 OA
ATOM     91  O   UNL A   1      46.281  24.493  38.001  1.00  0.00    -0.237 OA
ATOM     92  O   UNL A   1      43.875  24.971  38.029  1.00  0.00    -0.744 OA
ENDBRANCH  86  89
ENDBRANCH  59  82
ENDBRANCH  33  34
ENDBRANCH  26  28
ENDBRANCH  25  26
ENDBRANCH  24  25
ENDBRANCH  23  24
ENDBRANCH   1  23
TORSDOF 21
ENDMDL
