MODEL 1
REMARK VINA RESULT:     -19.2      0.000      0.000
REMARK SMILES O=C(OCCOC(=O)[C@@H]1CCCC[C@@H]1NS(=O)(=O)c1ccc2ccccc2c1)c1ccc(-c2c3nc(c(-c4cccc(S(=O)(=O)[O-])c4F)c4ccc([nH]4)c(-c4cccc(S(=O)(=O)[O-])c4F)c4nc(c(-c5cccc(S(=O)(=O)[O-])c5F)c5ccc2[nH]5)C=C4)C=C3)cc1
REMARK SMILES IDX 4 1 3 2 2 3 1 4 29 5 30 6 91 7 31 8 90 9 32 10 33 11 34 12
REMARK SMILES IDX 84 13 35 14 89 15 83 16 85 17 36 18 88 19 82 20 81 21 37 23
REMARK SMILES IDX 69 24 49 25 68 26 50 27 53 28 67 29 86 30 51 31 52 32 66 34
REMARK SMILES IDX 87 35 54 36 38 37 39 38 47 39 40 40 42 41 48 42 41 43 43 44
REMARK SMILES IDX 44 45 45 46 46 47 70 48 71 49 79 50 72 51 74 52 80 53 73 54
REMARK SMILES IDX 75 55 76 56 77 57 78 58 55 59 56 60 64 61 57 62 59 63 65 64
REMARK SMILES IDX 58 65 60 66 61 67 62 68 63 69 5 70 6 71 7 72 8 73 9 74 10 75
REMARK SMILES IDX 14 76 11 77 13 78 12 79 15 80 16 82 17 83 18 84 19 85 20 86
REMARK SMILES IDX 28 87 21 88 27 89 22 90 26 91 23 92 25 93 24 94
REMARK H PARENT 85 22 53 33 15 81
REMARK Flexibility Score: inf
ROOT
ATOM      1  C   UNL A   1      38.015  19.475  24.802  1.00  0.00     0.275 C 
ENDROOT
BRANCH   1   2
ATOM      2  O   UNL A   1      39.466  18.833  25.541  1.00  0.00    -0.458 OA
BRANCH   2   3
ATOM      3  C   UNL A   1      40.777  19.669  26.127  1.00  0.00     0.338 C 
ATOM      4  O   UNL A   1      41.662  18.835  25.860  1.00  0.00    -0.246 OA
BRANCH   3   5
ATOM      5  C   UNL A   1      40.850  21.500  26.953  1.00  0.00     0.060 A 
ATOM      6  C   UNL A   1      41.666  22.044  28.024  1.00  0.00     0.016 A 
ATOM      7  C   UNL A   1      40.127  22.717  26.536  1.00  0.00     0.016 A 
ATOM      8  C   UNL A   1      41.830  23.374  28.516  1.00  0.00     0.010 A 
ATOM      9  C   UNL A   1      40.349  24.098  26.909  1.00  0.00     0.010 A 
ATOM     10  C   UNL A   1      41.281  24.440  27.863  1.00  0.00    -0.014 A 
BRANCH  10  11
ATOM     11  C   UNL A   1      41.814  25.802  28.113  1.00  0.00     0.031 A 
ATOM     12  C   UNL A   1      43.231  26.166  27.811  1.00  0.00     0.074 A 
ATOM     13  C   UNL A   1      40.979  26.760  28.580  1.00  0.00     0.049 A 
ATOM     14  N   UNL A   1      43.809  27.334  27.932  1.00  0.00    -0.248 NA
ATOM     15  C   UNL A   1      44.088  25.119  27.238  1.00  0.00     0.031 C 
ATOM     16  C   UNL A   1      39.539  26.609  28.777  1.00  0.00     0.029 A 
ATOM     17  N   UNL A   1      41.214  28.047  28.997  1.00  0.00    -0.354 N 
ATOM     18  C   UNL A   1      45.078  27.183  27.399  1.00  0.00     0.074 A 
ATOM     19  C   UNL A   1      45.209  25.793  27.009  1.00  0.00     0.031 C 
ATOM     20  C   UNL A   1      39.044  27.681  29.403  1.00  0.00     0.029 A 
ATOM     21  C   UNL A   1      40.121  28.637  29.592  1.00  0.00     0.049 A 
ATOM     22  H   UNL A   1      42.080  28.503  28.882  1.00  0.00     0.167 HD
ATOM     23  C   UNL A   1      46.020  28.134  27.193  1.00  0.00     0.034 A 
ATOM     24  C   UNL A   1      39.970  29.824  30.205  1.00  0.00     0.034 A 
ATOM     25  C   UNL A   1      45.889  29.517  27.569  1.00  0.00     0.049 A 
ATOM     26  C   UNL A   1      41.096  30.803  30.141  1.00  0.00     0.074 A 
ATOM     27  C   UNL A   1      46.794  30.549  27.390  1.00  0.00     0.029 A 
ATOM     28  N   UNL A   1      44.788  30.062  28.216  1.00  0.00    -0.354 N 
ATOM     29  N   UNL A   1      42.251  30.669  29.539  1.00  0.00    -0.248 NA
ATOM     30  C   UNL A   1      40.880  32.114  30.763  1.00  0.00     0.031 C 
ATOM     31  C   UNL A   1      46.241  31.719  27.930  1.00  0.00     0.029 A 
ATOM     32  C   UNL A   1      44.997  31.410  28.459  1.00  0.00     0.049 A 
ATOM     33  H   UNL A   1      43.978  29.563  28.466  1.00  0.00     0.167 HD
ATOM     34  C   UNL A   1      42.877  31.899  29.649  1.00  0.00     0.074 A 
ATOM     35  C   UNL A   1      41.982  32.760  30.400  1.00  0.00     0.031 C 
ATOM     36  C   UNL A   1      44.081  32.276  29.159  1.00  0.00     0.034 A 
BRANCH  23  37
ATOM     37  C   UNL A   1      47.236  27.706  26.427  1.00  0.00     0.023 A 
ATOM     38  C   UNL A   1      48.353  27.242  27.152  1.00  0.00     0.012 A 
ATOM     39  C   UNL A   1      47.302  27.788  25.027  1.00  0.00     0.148 A 
ATOM     40  C   UNL A   1      49.525  26.875  26.491  1.00  0.00     0.002 A 
ATOM     41  C   UNL A   1      48.475  27.417  24.375  1.00  0.00     0.091 A 
ATOM     42  F   UNL A   1      46.248  28.273  24.356  1.00  0.00    -0.205 F 
ATOM     43  C   UNL A   1      49.586  26.960  25.102  1.00  0.00     0.022 A 
BRANCH  41  44
ATOM     44  S   UNL A   1      48.596  27.525  22.587  1.00  0.00     0.127 S 
ATOM     45  O   UNL A   1      48.579  26.119  22.196  1.00  0.00    -0.237 OA
ATOM     46  O   UNL A   1      47.389  28.271  22.220  1.00  0.00    -0.237 OA
ATOM     47  O   UNL A   1      49.838  28.251  22.348  1.00  0.00    -0.744 OA
ENDBRANCH  41  44
ENDBRANCH  23  37
BRANCH  24  48
ATOM     48  C   UNL A   1      38.662  30.157  30.829  1.00  0.00     0.023 A 
ATOM     49  C   UNL A   1      38.421  29.815  32.173  1.00  0.00     0.012 A 
ATOM     50  C   UNL A   1      37.697  30.902  30.124  1.00  0.00     0.148 A 
ATOM     51  C   UNL A   1      37.237  30.206  32.800  1.00  0.00     0.002 A 
ATOM     52  C   UNL A   1      36.533  31.316  30.765  1.00  0.00     0.091 A 
ATOM     53  F   UNL A   1      37.934  31.206  28.840  1.00  0.00    -0.205 F 
ATOM     54  C   UNL A   1      36.298  30.964  32.102  1.00  0.00     0.022 A 
BRANCH  52  55
ATOM     55  S   UNL A   1      35.347  32.385  29.939  1.00  0.00     0.127 S 
ATOM     56  O   UNL A   1      34.867  31.527  28.860  1.00  0.00    -0.237 OA
ATOM     57  O   UNL A   1      34.366  32.652  30.992  1.00  0.00    -0.237 OA
ATOM     58  O   UNL A   1      36.119  33.556  29.540  1.00  0.00    -0.744 OA
ENDBRANCH  52  55
ENDBRANCH  24  48
BRANCH  36  59
ATOM     59  C   UNL A   1      44.497  33.697  29.398  1.00  0.00     0.023 A 
ATOM     60  C   UNL A   1      45.044  34.051  30.647  1.00  0.00     0.012 A 
ATOM     61  C   UNL A   1      44.393  34.665  28.383  1.00  0.00     0.148 A 
ATOM     62  C   UNL A   1      45.472  35.355  30.883  1.00  0.00     0.002 A 
ATOM     63  C   UNL A   1      44.849  35.957  28.618  1.00  0.00     0.091 A 
ATOM     64  F   UNL A   1      43.835  34.317  27.214  1.00  0.00    -0.205 F 
ATOM     65  C   UNL A   1      45.387  36.305  29.867  1.00  0.00     0.022 A 
BRANCH  63  66
ATOM     66  S   UNL A   1      44.825  37.205  27.325  1.00  0.00     0.127 S 
ATOM     67  O   UNL A   1      43.405  37.261  26.985  1.00  0.00    -0.237 OA
ATOM     68  O   UNL A   1      45.335  38.392  28.013  1.00  0.00    -0.237 OA
ATOM     69  O   UNL A   1      45.712  36.693  26.287  1.00  0.00    -0.744 OA
ENDBRANCH  63  66
ENDBRANCH  36  59
ENDBRANCH  10  11
ENDBRANCH   3   5
ENDBRANCH   2   3
ENDBRANCH   1   2
BRANCH   1  70
ATOM     70  C   UNL A   1      37.663  21.286  25.253  1.00  0.00     0.274 C 
BRANCH  70  71
ATOM     71  O   UNL A   1      35.830  21.571  26.148  1.00  0.00    -0.462 OA
BRANCH  71  72
ATOM     72  C   UNL A   1      34.205  21.077  26.176  1.00  0.00     0.310 C 
ATOM     73  O   UNL A   1      33.679  21.250  27.291  1.00  0.00    -0.252 OA
BRANCH  72  74
ATOM     74  C   UNL A   1      33.161  20.054  24.944  1.00  0.00     0.117 C 
ATOM     75  C   UNL A   1      33.877  18.691  24.792  1.00  0.00     0.017 C 
ATOM     76  C   UNL A   1      32.178  20.284  23.301  1.00  0.00     0.084 C 
ATOM     77  C   UNL A   1      33.067  17.609  24.094  1.00  0.00     0.001 C 
ATOM     78  C   UNL A   1      32.128  19.113  22.278  1.00  0.00     0.021 C 
ATOM     79  C   UNL A   1      32.964  17.888  22.604  1.00  0.00     0.002 C 
BRANCH  76  80
ATOM     80  N   UNL A   1      31.984  21.954  22.354  1.00  0.00    -0.207 NA
ATOM     81  H   UNL A   1      31.189  22.415  22.796  1.00  0.00     0.141 HD
BRANCH  80  82
ATOM     82  S   UNL A   1      33.475  23.510  22.129  1.00  0.00     0.240 S 
ATOM     83  O   UNL A   1      34.781  22.992  22.483  1.00  0.00    -0.207 OA
ATOM     84  O   UNL A   1      33.276  24.107  20.822  1.00  0.00    -0.207 OA
BRANCH  82  85
ATOM     85  C   UNL A   1      33.004  25.020  23.727  1.00  0.00     0.083 A 
ATOM     86  C   UNL A   1      31.951  24.417  24.930  1.00  0.00     0.022 A 
ATOM     87  C   UNL A   1      33.623  26.879  23.814  1.00  0.00     0.030 A 
ATOM     88  C   UNL A   1      31.475  25.520  26.168  1.00  0.00     0.010 A 
ATOM     89  C   UNL A   1      33.061  27.942  25.157  1.00  0.00    -0.017 A 
ATOM     90  C   UNL A   1      31.982  27.196  26.309  1.00  0.00    -0.018 A 
ATOM     91  C   UNL A   1      33.352  29.289  25.373  1.00  0.00     0.009 A 
ATOM     92  C   UNL A   1      31.503  28.013  27.317  1.00  0.00     0.009 A 
ATOM     93  C   UNL A   1      32.760  29.969  26.449  1.00  0.00     0.001 A 
ATOM     94  C   UNL A   1      31.878  29.361  27.374  1.00  0.00     0.001 A 
ENDBRANCH  82  85
ENDBRANCH  80  82
ENDBRANCH  76  80
ENDBRANCH  72  74
ENDBRANCH  71  72
ENDBRANCH  70  71
ENDBRANCH   1  70
TORSDOF 17
ENDMDL
MODEL 2
REMARK VINA RESULT:     -18.7      0.663      7.437
REMARK SMILES O=C(OCCOC(=O)[C@@H]1CCCC[C@@H]1NS(=O)(=O)c1ccc2ccccc2c1)c1ccc(-c2c3nc(c(-c4cccc(S(=O)(=O)[O-])c4F)c4ccc([nH]4)c(-c4cccc(S(=O)(=O)[O-])c4F)c4nc(c(-c5cccc(S(=O)(=O)[O-])c5F)c5ccc2[nH]5)C=C4)C=C3)cc1
REMARK SMILES IDX 4 1 3 2 2 3 1 4 29 5 30 6 91 7 31 8 90 9 32 10 33 11 34 12
REMARK SMILES IDX 84 13 35 14 89 15 83 16 85 17 36 18 88 19 82 20 81 21 37 23
REMARK SMILES IDX 69 24 49 25 68 26 50 27 53 28 67 29 86 30 51 31 52 32 66 34
REMARK SMILES IDX 87 35 54 36 38 37 39 38 47 39 40 40 42 41 48 42 41 43 43 44
REMARK SMILES IDX 44 45 45 46 46 47 70 48 71 49 79 50 72 51 74 52 80 53 73 54
REMARK SMILES IDX 75 55 76 56 77 57 78 58 55 59 56 60 64 61 57 62 59 63 65 64
REMARK SMILES IDX 58 65 60 66 61 67 62 68 63 69 5 70 6 71 7 72 8 73 9 74 10 75
REMARK SMILES IDX 14 76 11 77 13 78 12 79 15 80 16 82 17 83 18 84 19 85 20 86
REMARK SMILES IDX 28 87 21 88 27 89 22 90 26 91 23 92 25 93 24 94
REMARK H PARENT 85 22 53 33 15 81
REMARK Flexibility Score: inf
ROOT
ATOM      1  C   UNL A   1      38.040  19.461  24.924  1.00  0.00     0.275 C 
ENDROOT
BRANCH   1   2
ATOM      2  O   UNL A   1      39.537  18.877  25.618  1.00  0.00    -0.458 OA
BRANCH   2   3
ATOM      3  C   UNL A   1      40.831  19.764  26.165  1.00  0.00     0.338 C 
ATOM      4  O   UNL A   1      41.735  18.945  25.914  1.00  0.00    -0.246 OA
BRANCH   3   5
ATOM      5  C   UNL A   1      40.865  21.620  26.936  1.00  0.00     0.060 A 
ATOM      6  C   UNL A   1      41.646  22.205  28.012  1.00  0.00     0.016 A 
ATOM      7  C   UNL A   1      40.143  22.816  26.461  1.00  0.00     0.016 A 
ATOM      8  C   UNL A   1      41.784  23.551  28.466  1.00  0.00     0.010 A 
ATOM      9  C   UNL A   1      40.342  24.210  26.797  1.00  0.00     0.010 A 
ATOM     10  C   UNL A   1      41.244  24.591  27.766  1.00  0.00    -0.014 A 
BRANCH  10  11
ATOM     11  C   UNL A   1      41.757  25.965  27.988  1.00  0.00     0.031 A 
ATOM     12  C   UNL A   1      40.904  27.045  28.570  1.00  0.00     0.074 A 
ATOM     13  C   UNL A   1      43.052  26.238  27.704  1.00  0.00     0.049 A 
ATOM     14  N   UNL A   1      41.244  28.274  28.864  1.00  0.00    -0.248 NA
ATOM     15  C   UNL A   1      39.524  26.692  28.932  1.00  0.00     0.031 C 
ATOM     16  C   UNL A   1      44.053  25.261  27.280  1.00  0.00     0.029 A 
ATOM     17  N   UNL A   1      43.754  27.418  27.705  1.00  0.00    -0.354 N 
ATOM     18  C   UNL A   1      40.145  28.828  29.498  1.00  0.00     0.074 A 
ATOM     19  C   UNL A   1      39.103  27.820  29.492  1.00  0.00     0.031 C 
ATOM     20  C   UNL A   1      45.181  25.882  26.923  1.00  0.00     0.029 A 
ATOM     21  C   UNL A   1      45.014  27.305  27.161  1.00  0.00     0.049 A 
ATOM     22  H   UNL A   1      43.392  28.263  28.061  1.00  0.00     0.167 HD
ATOM     23  C   UNL A   1      40.041  30.041  30.091  1.00  0.00     0.034 A 
ATOM     24  C   UNL A   1      45.958  28.225  26.894  1.00  0.00     0.034 A 
ATOM     25  C   UNL A   1      41.077  31.039  30.109  1.00  0.00     0.049 A 
ATOM     26  C   UNL A   1      45.747  29.619  27.385  1.00  0.00     0.074 A 
ATOM     27  C   UNL A   1      41.057  32.294  30.694  1.00  0.00     0.029 A 
ATOM     28  N   UNL A   1      42.318  30.905  29.501  1.00  0.00    -0.354 N 
ATOM     29  N   UNL A   1      44.739  30.091  28.075  1.00  0.00    -0.248 NA
ATOM     30  C   UNL A   1      46.822  30.586  27.138  1.00  0.00     0.031 C 
ATOM     31  C   UNL A   1      42.285  32.919  30.439  1.00  0.00     0.029 A 
ATOM     32  C   UNL A   1      43.065  32.058  29.681  1.00  0.00     0.049 A 
ATOM     33  H   UNL A   1      42.623  30.107  29.012  1.00  0.00     0.167 HD
ATOM     34  C   UNL A   1      45.083  31.390  28.404  1.00  0.00     0.074 A 
ATOM     35  C   UNL A   1      46.385  31.642  27.815  1.00  0.00     0.031 C 
ATOM     36  C   UNL A   1      44.381  32.285  29.139  1.00  0.00     0.034 A 
BRANCH  23  37
ATOM     37  C   UNL A   1      38.780  30.295  30.861  1.00  0.00     0.023 A 
ATOM     38  C   UNL A   1      38.602  29.627  32.090  1.00  0.00     0.012 A 
ATOM     39  C   UNL A   1      37.770  31.144  30.381  1.00  0.00     0.148 A 
ATOM     40  C   UNL A   1      37.428  29.792  32.824  1.00  0.00     0.002 A 
ATOM     41  C   UNL A   1      36.602  31.305  31.121  1.00  0.00     0.091 A 
ATOM     42  F   UNL A   1      37.936  31.738  29.190  1.00  0.00    -0.205 F 
ATOM     43  C   UNL A   1      36.429  30.632  32.341  1.00  0.00     0.022 A 
BRANCH  41  44
ATOM     44  S   UNL A   1      35.287  32.371  30.525  1.00  0.00     0.127 S 
ATOM     45  O   UNL A   1      34.300  32.263  31.595  1.00  0.00    -0.237 OA
ATOM     46  O   UNL A   1      35.939  33.679  30.430  1.00  0.00    -0.237 OA
ATOM     47  O   UNL A   1      34.911  31.801  29.236  1.00  0.00    -0.744 OA
ENDBRANCH  41  44
ENDBRANCH  23  37
BRANCH  24  48
ATOM     48  C   UNL A   1      47.214  27.801  26.220  1.00  0.00     0.023 A 
ATOM     49  C   UNL A   1      48.216  27.143  26.957  1.00  0.00     0.012 A 
ATOM     50  C   UNL A   1      47.372  27.957  24.828  1.00  0.00     0.148 A 
ATOM     51  C   UNL A   1      49.357  26.654  26.319  1.00  0.00     0.002 A 
ATOM     52  C   UNL A   1      48.497  27.438  24.195  1.00  0.00     0.091 A 
ATOM     53  F   UNL A   1      46.416  28.600  24.143  1.00  0.00    -0.205 F 
ATOM     54  C   UNL A   1      49.494  26.792  24.938  1.00  0.00     0.022 A 
BRANCH  52  55
ATOM     55  S   UNL A   1      48.664  27.495  22.405  1.00  0.00     0.127 S 
ATOM     56  O   UNL A   1      47.481  28.256  22.015  1.00  0.00    -0.237 OA
ATOM     57  O   UNL A   1      49.934  28.199  22.223  1.00  0.00    -0.237 OA
ATOM     58  O   UNL A   1      48.700  26.097  21.992  1.00  0.00    -0.744 OA
ENDBRANCH  52  55
ENDBRANCH  24  48
BRANCH  36  59
ATOM     59  C   UNL A   1      45.020  33.622  29.371  1.00  0.00     0.023 A 
ATOM     60  C   UNL A   1      45.744  33.839  30.559  1.00  0.00     0.012 A 
ATOM     61  C   UNL A   1      44.945  34.640  28.403  1.00  0.00     0.148 A 
ATOM     62  C   UNL A   1      46.378  35.059  30.783  1.00  0.00     0.002 A 
ATOM     63  C   UNL A   1      45.604  35.844  28.623  1.00  0.00     0.091 A 
ATOM     64  F   UNL A   1      44.219  34.427  27.296  1.00  0.00    -0.205 F 
ATOM     65  C   UNL A   1      46.319  36.057  29.812  1.00  0.00     0.022 A 
BRANCH  63  66
ATOM     66  S   UNL A   1      45.619  37.140  27.378  1.00  0.00     0.127 S 
ATOM     67  O   UNL A   1      46.421  38.174  28.028  1.00  0.00    -0.237 OA
ATOM     68  O   UNL A   1      46.271  36.489  26.241  1.00  0.00    -0.237 OA
ATOM     69  O   UNL A   1      44.216  37.467  27.153  1.00  0.00    -0.744 OA
ENDBRANCH  63  66
ENDBRANCH  36  59
ENDBRANCH  10  11
ENDBRANCH   3   5
ENDBRANCH   2   3
ENDBRANCH   1   2
BRANCH   1  70
ATOM     70  C   UNL A   1      37.703  21.300  25.266  1.00  0.00     0.274 C 
BRANCH  70  71
ATOM     71  O   UNL A   1      35.886  21.650  26.169  1.00  0.00    -0.462 OA
BRANCH  71  72
ATOM     72  C   UNL A   1      34.243  21.221  26.199  1.00  0.00     0.310 C 
ATOM     73  O   UNL A   1      33.718  21.441  27.307  1.00  0.00    -0.252 OA
BRANCH  72  74
ATOM     74  C   UNL A   1      33.166  20.209  24.986  1.00  0.00     0.117 C 
ATOM     75  C   UNL A   1      33.880  18.850  24.799  1.00  0.00     0.017 C 
ATOM     76  C   UNL A   1      32.137  20.455  23.375  1.00  0.00     0.084 C 
ATOM     77  C   UNL A   1      33.053  17.774  24.111  1.00  0.00     0.001 C 
ATOM     78  C   UNL A   1      32.060  19.296  22.340  1.00  0.00     0.021 C 
ATOM     79  C   UNL A   1      32.906  18.070  22.628  1.00  0.00     0.002 C 
BRANCH  76  80
ATOM     80  N   UNL A   1      31.913  22.136  22.452  1.00  0.00    -0.207 NA
ATOM     81  H   UNL A   1      31.227  22.649  23.005  1.00  0.00     0.141 HD
BRANCH  80  82
ATOM     82  S   UNL A   1      33.453  23.588  21.990  1.00  0.00     0.240 S 
ATOM     83  O   UNL A   1      34.722  23.145  22.529  1.00  0.00    -0.207 OA
ATOM     84  O   UNL A   1      33.346  23.888  20.574  1.00  0.00    -0.207 OA
BRANCH  82  85
ATOM     85  C   UNL A   1      32.926  25.415  23.190  1.00  0.00     0.083 A 
ATOM     86  C   UNL A   1      31.645  26.319  22.509  1.00  0.00     0.022 A 
ATOM     87  C   UNL A   1      33.804  26.047  24.826  1.00  0.00     0.030 A 
ATOM     88  C   UNL A   1      31.208  27.777  23.320  1.00  0.00     0.010 A 
ATOM     89  C   UNL A   1      33.261  27.588  25.589  1.00  0.00    -0.017 A 
ATOM     90  C   UNL A   1      31.949  28.409  24.781  1.00  0.00    -0.018 A 
ATOM     91  C   UNL A   1      33.776  28.220  26.720  1.00  0.00     0.009 A 
ATOM     92  C   UNL A   1      31.554  29.617  25.328  1.00  0.00     0.009 A 
ATOM     93  C   UNL A   1      33.258  29.460  27.125  1.00  0.00     0.001 A 
ATOM     94  C   UNL A   1      32.200  30.126  26.461  1.00  0.00     0.001 A 
ENDBRANCH  82  85
ENDBRANCH  80  82
ENDBRANCH  76  80
ENDBRANCH  72  74
ENDBRANCH  71  72
ENDBRANCH  70  71
ENDBRANCH   1  70
TORSDOF 17
ENDMDL
MODEL 3
REMARK VINA RESULT:     -17.1      1.671      2.441
REMARK SMILES O=C(OCCOC(=O)[C@@H]1CCCC[C@@H]1NS(=O)(=O)c1ccc2ccccc2c1)c1ccc(-c2c3nc(c(-c4cccc(S(=O)(=O)[O-])c4F)c4ccc([nH]4)c(-c4cccc(S(=O)(=O)[O-])c4F)c4nc(c(-c5cccc(S(=O)(=O)[O-])c5F)c5ccc2[nH]5)C=C4)C=C3)cc1
REMARK SMILES IDX 4 1 3 2 2 3 1 4 29 5 30 6 91 7 31 8 90 9 32 10 33 11 34 12
REMARK SMILES IDX 84 13 35 14 89 15 83 16 85 17 36 18 88 19 82 20 81 21 37 23
REMARK SMILES IDX 69 24 49 25 68 26 50 27 53 28 67 29 86 30 51 31 52 32 66 34
REMARK SMILES IDX 87 35 54 36 38 37 39 38 47 39 40 40 42 41 48 42 41 43 43 44
REMARK SMILES IDX 44 45 45 46 46 47 70 48 71 49 79 50 72 51 74 52 80 53 73 54
REMARK SMILES IDX 75 55 76 56 77 57 78 58 55 59 56 60 64 61 57 62 59 63 65 64
REMARK SMILES IDX 58 65 60 66 61 67 62 68 63 69 5 70 6 71 7 72 8 73 9 74 10 75
REMARK SMILES IDX 14 76 11 77 13 78 12 79 15 80 16 82 17 83 18 84 19 85 20 86
REMARK SMILES IDX 28 87 21 88 27 89 22 90 26 91 23 92 25 93 24 94
REMARK H PARENT 85 22 53 33 15 81
REMARK Flexibility Score: inf
ROOT
ATOM      1  C   UNL A   1      38.130  19.225  24.480  1.00  0.00     0.275 C 
ENDROOT
BRANCH   1   2
ATOM      2  O   UNL A   1      39.335  18.806  25.679  1.00  0.00    -0.458 OA
BRANCH   2   3
ATOM      3  C   UNL A   1      40.658  19.690  26.158  1.00  0.00     0.338 C 
ATOM      4  O   UNL A   1      41.547  18.879  25.838  1.00  0.00    -0.246 OA
BRANCH   3   5
ATOM      5  C   UNL A   1      40.734  21.535  26.954  1.00  0.00     0.060 A 
ATOM      6  C   UNL A   1      41.524  22.086  28.041  1.00  0.00     0.016 A 
ATOM      7  C   UNL A   1      40.043  22.754  26.493  1.00  0.00     0.016 A 
ATOM      8  C   UNL A   1      41.692  23.422  28.514  1.00  0.00     0.010 A 
ATOM      9  C   UNL A   1      40.274  24.138  26.848  1.00  0.00     0.010 A 
ATOM     10  C   UNL A   1      41.181  24.484  27.826  1.00  0.00    -0.014 A 
BRANCH  10  11
ATOM     11  C   UNL A   1      41.727  25.842  28.068  1.00  0.00     0.031 A 
ATOM     12  C   UNL A   1      43.125  26.213  27.693  1.00  0.00     0.074 A 
ATOM     13  C   UNL A   1      40.920  26.791  28.597  1.00  0.00     0.049 A 
ATOM     14  N   UNL A   1      43.709  27.379  27.801  1.00  0.00    -0.248 NA
ATOM     15  C   UNL A   1      43.948  25.177  27.055  1.00  0.00     0.031 C 
ATOM     16  C   UNL A   1      39.493  26.635  28.873  1.00  0.00     0.029 A 
ATOM     17  N   UNL A   1      41.177  28.071  29.022  1.00  0.00    -0.354 N 
ATOM     18  C   UNL A   1      44.945  27.239  27.195  1.00  0.00     0.074 A 
ATOM     19  C   UNL A   1      45.054  25.856  26.774  1.00  0.00     0.031 C 
ATOM     20  C   UNL A   1      39.034  27.696  29.544  1.00  0.00     0.029 A 
ATOM     21  C   UNL A   1      40.119  28.650  29.688  1.00  0.00     0.049 A 
ATOM     22  H   UNL A   1      42.035  28.530  28.866  1.00  0.00     0.167 HD
ATOM     23  C   UNL A   1      45.874  28.195  26.953  1.00  0.00     0.034 A 
ATOM     24  C   UNL A   1      40.003  29.826  30.329  1.00  0.00     0.034 A 
ATOM     25  C   UNL A   1      45.764  29.571  27.359  1.00  0.00     0.049 A 
ATOM     26  C   UNL A   1      41.123  30.807  30.218  1.00  0.00     0.074 A 
ATOM     27  C   UNL A   1      46.657  30.607  27.147  1.00  0.00     0.029 A 
ATOM     28  N   UNL A   1      44.702  30.103  28.076  1.00  0.00    -0.354 N 
ATOM     29  N   UNL A   1      42.243  30.685  29.550  1.00  0.00    -0.248 NA
ATOM     30  C   UNL A   1      40.943  32.107  30.874  1.00  0.00     0.031 C 
ATOM     31  C   UNL A   1      46.135  31.766  27.736  1.00  0.00     0.029 A 
ATOM     32  C   UNL A   1      44.923  31.448  28.330  1.00  0.00     0.049 A 
ATOM     33  H   UNL A   1      43.907  29.599  28.363  1.00  0.00     0.167 HD
ATOM     34  C   UNL A   1      42.874  31.914  29.646  1.00  0.00     0.074 A 
ATOM     35  C   UNL A   1      42.022  32.760  30.460  1.00  0.00     0.031 C 
ATOM     36  C   UNL A   1      44.048  32.300  29.095  1.00  0.00     0.034 A 
BRANCH  23  37
ATOM     37  C   UNL A   1      47.045  27.781  26.111  1.00  0.00     0.023 A 
ATOM     38  C   UNL A   1      46.911  27.836  24.708  1.00  0.00     0.012 A 
ATOM     39  C   UNL A   1      48.242  27.315  26.676  1.00  0.00     0.148 A 
ATOM     40  C   UNL A   1      47.952  27.420  23.880  1.00  0.00     0.002 A 
ATOM     41  C   UNL A   1      49.278  26.904  25.842  1.00  0.00     0.091 A 
ATOM     42  F   UNL A   1      48.337  27.227  28.011  1.00  0.00    -0.205 F 
ATOM     43  C   UNL A   1      49.137  26.955  24.446  1.00  0.00     0.022 A 
BRANCH  41  44
ATOM     44  S   UNL A   1      50.814  26.287  26.535  1.00  0.00     0.127 S 
ATOM     45  O   UNL A   1      50.446  24.930  26.928  1.00  0.00    -0.237 OA
ATOM     46  O   UNL A   1      51.741  26.360  25.403  1.00  0.00    -0.237 OA
ATOM     47  O   UNL A   1      51.125  27.214  27.617  1.00  0.00    -0.744 OA
ENDBRANCH  41  44
ENDBRANCH  23  37
BRANCH  24  48
ATOM     48  C   UNL A   1      38.732  30.146  31.032  1.00  0.00     0.023 A 
ATOM     49  C   UNL A   1      38.556  29.756  32.372  1.00  0.00     0.012 A 
ATOM     50  C   UNL A   1      37.740  30.927  30.405  1.00  0.00     0.148 A 
ATOM     51  C   UNL A   1      37.410  30.133  33.073  1.00  0.00     0.002 A 
ATOM     52  C   UNL A   1      36.616  31.326  31.120  1.00  0.00     0.091 A 
ATOM     53  F   UNL A   1      37.916  31.277  29.123  1.00  0.00    -0.205 F 
ATOM     54  C   UNL A   1      36.445  30.926  32.453  1.00  0.00     0.022 A 
BRANCH  52  55
ATOM     55  S   UNL A   1      35.401  32.436  30.397  1.00  0.00     0.127 S 
ATOM     56  O   UNL A   1      36.223  33.583  30.024  1.00  0.00    -0.237 OA
ATOM     57  O   UNL A   1      34.884  31.659  29.270  1.00  0.00    -0.237 OA
ATOM     58  O   UNL A   1      34.425  32.659  31.458  1.00  0.00    -0.744 OA
ENDBRANCH  52  55
ENDBRANCH  24  48
BRANCH  36  59
ATOM     59  C   UNL A   1      44.476  33.717  29.334  1.00  0.00     0.023 A 
ATOM     60  C   UNL A   1      45.269  34.013  30.460  1.00  0.00     0.012 A 
ATOM     61  C   UNL A   1      44.139  34.740  28.430  1.00  0.00     0.148 A 
ATOM     62  C   UNL A   1      45.712  35.315  30.687  1.00  0.00     0.002 A 
ATOM     63  C   UNL A   1      44.609  36.031  28.649  1.00  0.00     0.091 A 
ATOM     64  F   UNL A   1      43.352  34.446  27.386  1.00  0.00    -0.205 F 
ATOM     65  C   UNL A   1      45.393  36.321  29.777  1.00  0.00     0.022 A 
BRANCH  63  66
ATOM     66  S   UNL A   1      44.285  37.353  27.476  1.00  0.00     0.127 S 
ATOM     67  O   UNL A   1      44.277  38.530  28.342  1.00  0.00    -0.237 OA
ATOM     68  O   UNL A   1      45.433  37.271  26.571  1.00  0.00    -0.237 OA
ATOM     69  O   UNL A   1      43.013  37.007  26.854  1.00  0.00    -0.744 OA
ENDBRANCH  63  66
ENDBRANCH  36  59
ENDBRANCH  10  11
ENDBRANCH   3   5
ENDBRANCH   2   3
ENDBRANCH   1   2
BRANCH   1  70
ATOM     70  C   UNL A   1      36.932  20.588  25.042  1.00  0.00     0.274 C 
BRANCH  70  71
ATOM     71  O   UNL A   1      34.949  20.042  24.924  1.00  0.00    -0.462 OA
BRANCH  71  72
ATOM     72  C   UNL A   1      33.358  20.611  24.756  1.00  0.00     0.310 C 
ATOM     73  O   UNL A   1      32.670  19.878  24.022  1.00  0.00    -0.252 OA
BRANCH  72  74
ATOM     74  C   UNL A   1      32.545  22.279  25.218  1.00  0.00     0.117 C 
ATOM     75  C   UNL A   1      31.570  21.982  26.381  1.00  0.00     0.017 C 
ATOM     76  C   UNL A   1      31.836  23.857  24.366  1.00  0.00     0.084 C 
ATOM     77  C   UNL A   1      31.036  23.208  27.107  1.00  0.00     0.001 C 
ATOM     78  C   UNL A   1      30.633  24.595  25.020  1.00  0.00     0.021 C 
ATOM     79  C   UNL A   1      30.022  23.945  26.248  1.00  0.00     0.002 C 
BRANCH  76  80
ATOM     80  N   UNL A   1      31.799  24.162  22.461  1.00  0.00    -0.207 NA
ATOM     81  H   UNL A   1      30.831  23.995  22.187  1.00  0.00     0.141 HD
BRANCH  80  82
ATOM     82  S   UNL A   1      32.366  25.974  21.417  1.00  0.00     0.240 S 
ATOM     83  O   UNL A   1      33.806  26.028  21.275  1.00  0.00    -0.207 OA
ATOM     84  O   UNL A   1      31.530  26.066  20.235  1.00  0.00    -0.207 OA
BRANCH  82  85
ATOM     85  C   UNL A   1      31.865  27.654  22.826  1.00  0.00     0.083 A 
ATOM     86  C   UNL A   1      30.444  28.496  22.388  1.00  0.00     0.022 A 
ATOM     87  C   UNL A   1      32.899  28.230  24.391  1.00  0.00     0.030 A 
ATOM     88  C   UNL A   1      30.009  29.846  23.371  1.00  0.00     0.010 A 
ATOM     89  C   UNL A   1      32.347  29.656  25.346  1.00  0.00    -0.017 A 
ATOM     90  C   UNL A   1      30.884  30.424  24.779  1.00  0.00    -0.018 A 
ATOM     91  C   UNL A   1      32.955  30.241  26.455  1.00  0.00     0.009 A 
ATOM     92  C   UNL A   1      30.476  31.549  25.473  1.00  0.00     0.009 A 
ATOM     93  C   UNL A   1      32.404  31.398  27.027  1.00  0.00     0.001 A 
ATOM     94  C   UNL A   1      31.224  32.021  26.558  1.00  0.00     0.001 A 
ENDBRANCH  82  85
ENDBRANCH  80  82
ENDBRANCH  76  80
ENDBRANCH  72  74
ENDBRANCH  71  72
ENDBRANCH  70  71
ENDBRANCH   1  70
TORSDOF 17
ENDMDL
