MODEL 1
REMARK VINA RESULT:     -13.1      0.000      0.000
REMARK SMILES Cc1ccc2nc(Cl)c([C@@H]3CC(c4cccs4)=NN3C(=O)CCCC(=O)OCCOC(=O)c3ccc(-c4c5nc(c(-c6cccc(S(=O)(=O)[O-])c6F)c6ccc([nH]6)c(-c6cccc(S(=O)(=O)[O-])c6F)c6nc(c(-c7cccc(S(=O)(=O)[O-])c7F)c7ccc4[nH]7)C=C6)C=C5)cc3)cc2c1
REMARK SMILES IDX 28 1 27 2 25 3 26 4 24 5 23 6 22 7 20 8 21 9 19 10 10 11
REMARK SMILES IDX 11 12 12 13 18 14 9 15 1 16 2 17 3 18 98 19 4 20 97 21 5 22
REMARK SMILES IDX 96 23 6 24 7 25 8 26 13 27 14 28 17 29 15 30 16 31 29 32
REMARK SMILES IDX 30 33 31 34 32 35 33 36 34 37 95 38 35 39 94 40 36 41 37 42
REMARK SMILES IDX 38 43 88 44 39 45 93 46 87 47 89 48 40 49 92 50 86 51 85 52
REMARK SMILES IDX 41 54 73 55 53 56 72 57 54 58 57 59 71 60 90 61 55 62 56 63
REMARK SMILES IDX 70 65 91 66 58 67 42 68 43 69 51 70 44 71 46 72 52 73 45 74
REMARK SMILES IDX 47 75 48 76 49 77 50 78 74 79 75 80 83 81 76 82 78 83 84 84
REMARK SMILES IDX 77 85 79 86 80 87 81 88 82 89 59 90 60 91 68 92 61 93 63 94
REMARK SMILES IDX 69 95 62 96 64 97 65 98 66 99 67 100
REMARK H PARENT 89 53 57 64
REMARK Flexibility Score: inf
ROOT
ATOM      1  C   UNL A   1      31.146  31.830  26.148  1.00  0.00     0.274 C 
ENDROOT
BRANCH   1   2
ATOM      2  O   UNL A   1      31.310  29.823  26.529  1.00  0.00    -0.462 OA
BRANCH   2   3
ATOM      3  C   UNL A   1      31.908  28.677  27.255  1.00  0.00     0.305 C 
ATOM      4  O   UNL A   1      31.338  27.922  28.043  1.00  0.00    -0.252 OA
BRANCH   3   5
ATOM      5  C   UNL A   1      33.424  28.575  27.147  1.00  0.00     0.123 C 
BRANCH   5   6
ATOM      6  C   UNL A   1      33.879  29.224  25.872  1.00  0.00     0.022 C 
BRANCH   6   7
ATOM      7  C   UNL A   1      34.549  28.195  25.001  1.00  0.00     0.103 C 
BRANCH   7   8
ATOM      8  C   UNL A   1      33.669  27.742  23.856  1.00  0.00     0.243 C 
ATOM      9  O   UNL A   1      34.191  27.784  22.730  1.00  0.00    -0.273 OA
BRANCH   8  10
ATOM     10  N   UNL A   1      32.419  27.166  24.060  1.00  0.00    -0.225 N 
ATOM     11  C   UNL A   1      31.828  25.938  24.765  1.00  0.00     0.150 C 
ATOM     12  C   UNL A   1      30.317  26.068  24.454  1.00  0.00     0.092 C 
ATOM     13  C   UNL A   1      30.271  27.419  23.804  1.00  0.00     0.081 C 
ATOM     14  N   UNL A   1      31.411  27.993  23.636  1.00  0.00    -0.173 NA
BRANCH  11  15
ATOM     15  C   UNL A   1      32.421  24.603  24.363  1.00  0.00     0.015 A 
ATOM     16  C   UNL A   1      32.300  17.863  22.166  1.00  0.00     0.044 C 
ATOM     17  C   UNL A   1      32.572  19.084  23.011  1.00  0.00    -0.050 A 
ATOM     18  C   UNL A   1      33.477  18.898  24.085  1.00  0.00     0.005 A 
ATOM     19  C   UNL A   1      31.940  20.334  22.700  1.00  0.00     0.013 A 
ATOM     20  C   UNL A   1      33.946  19.938  24.861  1.00  0.00     0.029 A 
ATOM     21  C   UNL A   1      32.271  21.544  23.376  1.00  0.00     0.001 A 
ATOM     22  C   UNL A   1      33.537  21.213  24.613  1.00  0.00     0.072 A 
ATOM     23  C   UNL A   1      31.675  23.329  23.284  1.00  0.00     0.019 A 
ATOM     24  N   UNL A   1      34.236  22.466  25.551  1.00  0.00    -0.236 NA
ATOM     25  C   UNL A   1      33.728  24.077  25.417  1.00  0.00     0.135 A 
ATOM     26  Cl  UNL A   1      34.765  25.170  26.246  1.00  0.00    -0.062 Cl
ENDBRANCH  11  15
BRANCH  13  27
ATOM     27  C   UNL A   1      29.091  28.097  23.341  1.00  0.00     0.050 A 
ATOM     28  C   UNL A   1      27.764  27.751  23.471  1.00  0.00     0.022 A 
ATOM     29  S   UNL A   1      29.273  29.664  22.660  1.00  0.00    -0.142 S 
ATOM     30  C   UNL A   1      26.892  28.814  23.075  1.00  0.00     0.012 A 
ATOM     31  C   UNL A   1      27.584  29.913  22.617  1.00  0.00     0.065 A 
ENDBRANCH  13  27
ENDBRANCH   8  10
ENDBRANCH   7   8
ENDBRANCH   6   7
ENDBRANCH   5   6
ENDBRANCH   3   5
ENDBRANCH   2   3
ENDBRANCH   1   2
BRANCH   1  32
ATOM     32  C   UNL A   1      31.947  33.184  26.873  1.00  0.00     0.275 C 
BRANCH  32  33
ATOM     33  O   UNL A   1      32.893  32.943  27.958  1.00  0.00    -0.458 OA
BRANCH  33  34
ATOM     34  C   UNL A   1      34.100  33.581  27.873  1.00  0.00     0.338 C 
ATOM     35  O   UNL A   1      34.246  34.750  27.542  1.00  0.00    -0.246 OA
BRANCH  34  36
ATOM     36  C   UNL A   1      35.259  32.748  28.357  1.00  0.00     0.060 A 
ATOM     37  C   UNL A   1      36.578  33.213  28.436  1.00  0.00     0.016 A 
ATOM     38  C   UNL A   1      35.012  31.412  28.713  1.00  0.00     0.016 A 
ATOM     39  C   UNL A   1      37.625  32.362  28.839  1.00  0.00     0.010 A 
ATOM     40  C   UNL A   1      36.039  30.589  29.202  1.00  0.00     0.010 A 
ATOM     41  C   UNL A   1      37.355  31.062  29.297  1.00  0.00    -0.014 A 
BRANCH  41  42
ATOM     42  C   UNL A   1      38.343  30.302  30.123  1.00  0.00     0.031 A 
ATOM     43  C   UNL A   1      38.705  30.707  31.528  1.00  0.00     0.074 A 
ATOM     44  C   UNL A   1      39.043  29.331  29.496  1.00  0.00     0.049 A 
ATOM     45  N   UNL A   1      39.712  30.312  32.267  1.00  0.00    -0.248 NA
ATOM     46  C   UNL A   1      37.828  31.684  32.190  1.00  0.00     0.031 C 
ATOM     47  C   UNL A   1      38.807  28.888  28.119  1.00  0.00     0.029 A 
ATOM     48  N   UNL A   1      40.126  28.586  29.897  1.00  0.00    -0.354 N 
ATOM     49  C   UNL A   1      39.621  31.022  33.463  1.00  0.00     0.074 A 
ATOM     50  C   UNL A   1      38.442  31.859  33.355  1.00  0.00     0.031 C 
ATOM     51  C   UNL A   1      39.729  27.980  27.776  1.00  0.00     0.029 A 
ATOM     52  C   UNL A   1      40.663  27.824  28.880  1.00  0.00     0.049 A 
ATOM     53  H   UNL A   1      40.482  28.595  30.814  1.00  0.00     0.167 HD
ATOM     54  C   UNL A   1      40.445  30.977  34.542  1.00  0.00     0.034 A 
ATOM     55  C   UNL A   1      41.809  27.122  28.809  1.00  0.00     0.034 A 
ATOM     56  C   UNL A   1      41.610  30.129  34.627  1.00  0.00     0.049 A 
ATOM     57  C   UNL A   1      42.695  27.078  30.016  1.00  0.00     0.074 A 
ATOM     58  C   UNL A   1      42.499  29.980  35.678  1.00  0.00     0.029 A 
ATOM     59  N   UNL A   1      42.053  29.289  33.613  1.00  0.00    -0.354 N 
ATOM     60  N   UNL A   1      42.541  27.691  31.165  1.00  0.00    -0.248 NA
ATOM     61  C   UNL A   1      43.889  26.230  29.934  1.00  0.00     0.031 C 
ATOM     62  C   UNL A   1      43.484  29.061  35.296  1.00  0.00     0.029 A 
ATOM     63  C   UNL A   1      43.199  28.620  34.012  1.00  0.00     0.049 A 
ATOM     64  H   UNL A   1      41.617  29.184  32.738  1.00  0.00     0.167 HD
ATOM     65  C   UNL A   1      43.609  27.289  31.953  1.00  0.00     0.074 A 
ATOM     66  C   UNL A   1      44.385  26.356  31.158  1.00  0.00     0.031 C 
ATOM     67  C   UNL A   1      43.930  27.668  33.215  1.00  0.00     0.034 A 
BRANCH  54  68
ATOM     68  C   UNL A   1      40.110  31.842  35.738  1.00  0.00     0.023 A 
ATOM     69  C   UNL A   1      40.840  33.027  35.962  1.00  0.00     0.012 A 
ATOM     70  C   UNL A   1      39.030  31.532  36.591  1.00  0.00     0.148 A 
ATOM     71  C   UNL A   1      40.525  33.870  37.030  1.00  0.00     0.002 A 
ATOM     72  C   UNL A   1      38.701  32.394  37.636  1.00  0.00     0.091 A 
ATOM     73  F   UNL A   1      38.347  30.400  36.373  1.00  0.00    -0.205 F 
ATOM     74  C   UNL A   1      39.453  33.558  37.862  1.00  0.00     0.022 A 
BRANCH  72  75
ATOM     75  S   UNL A   1      37.300  32.115  38.730  1.00  0.00     0.127 S 
ATOM     76  O   UNL A   1      37.123  30.669  38.618  1.00  0.00    -0.237 OA
ATOM     77  O   UNL A   1      37.820  32.566  40.022  1.00  0.00    -0.237 OA
ATOM     78  O   UNL A   1      36.211  32.922  38.199  1.00  0.00    -0.744 OA
ENDBRANCH  72  75
ENDBRANCH  54  68
BRANCH  55  79
ATOM     79  C   UNL A   1      42.145  26.394  27.550  1.00  0.00     0.023 A 
ATOM     80  C   UNL A   1      42.844  27.065  26.530  1.00  0.00     0.012 A 
ATOM     81  C   UNL A   1      41.875  25.017  27.405  1.00  0.00     0.148 A 
ATOM     82  C   UNL A   1      43.257  26.383  25.384  1.00  0.00     0.002 A 
ATOM     83  C   UNL A   1      42.347  24.330  26.292  1.00  0.00     0.091 A 
ATOM     84  F   UNL A   1      41.196  24.394  28.379  1.00  0.00    -0.205 F 
ATOM     85  C   UNL A   1      43.025  25.015  25.273  1.00  0.00     0.022 A 
BRANCH  83  86
ATOM     86  S   UNL A   1      42.244  22.540  26.165  1.00  0.00     0.127 S 
ATOM     87  O   UNL A   1      42.907  22.112  27.393  1.00  0.00    -0.237 OA
ATOM     88  O   UNL A   1      40.798  22.315  26.133  1.00  0.00    -0.237 OA
ATOM     89  O   UNL A   1      42.921  22.205  24.920  1.00  0.00    -0.744 OA
ENDBRANCH  83  86
ENDBRANCH  55  79
BRANCH  67  90
ATOM     90  C   UNL A   1      45.165  27.053  33.813  1.00  0.00     0.023 A 
ATOM     91  C   UNL A   1      46.415  27.671  33.621  1.00  0.00     0.012 A 
ATOM     92  C   UNL A   1      45.077  25.888  34.597  1.00  0.00     0.148 A 
ATOM     93  C   UNL A   1      47.568  27.121  34.178  1.00  0.00     0.002 A 
ATOM     94  C   UNL A   1      46.224  25.370  35.186  1.00  0.00     0.091 A 
ATOM     95  F   UNL A   1      43.881  25.301  34.742  1.00  0.00    -0.205 F 
ATOM     96  C   UNL A   1      47.471  25.978  34.968  1.00  0.00     0.022 A 
BRANCH  94  97
ATOM     97  S   UNL A   1      46.175  23.953  36.287  1.00  0.00     0.127 S 
ATOM     98  O   UNL A   1      46.140  22.840  35.339  1.00  0.00    -0.237 OA
ATOM     99  O   UNL A   1      47.432  24.087  37.025  1.00  0.00    -0.237 OA
ATOM    100  O   UNL A   1      44.979  24.123  37.102  1.00  0.00    -0.744 OA
ENDBRANCH  94  97
ENDBRANCH  67  90
ENDBRANCH  41  42
ENDBRANCH  34  36
ENDBRANCH  33  34
ENDBRANCH  32  33
ENDBRANCH   1  32
TORSDOF 20
ENDMDL
MODEL 2
REMARK VINA RESULT:     -11.7      2.913      4.184
REMARK SMILES Cc1ccc2nc(Cl)c([C@@H]3CC(c4cccs4)=NN3C(=O)CCCC(=O)OCCOC(=O)c3ccc(-c4c5nc(c(-c6cccc(S(=O)(=O)[O-])c6F)c6ccc([nH]6)c(-c6cccc(S(=O)(=O)[O-])c6F)c6nc(c(-c7cccc(S(=O)(=O)[O-])c7F)c7ccc4[nH]7)C=C6)C=C5)cc3)cc2c1
REMARK SMILES IDX 28 1 27 2 25 3 26 4 24 5 23 6 22 7 20 8 21 9 19 10 10 11
REMARK SMILES IDX 11 12 12 13 18 14 9 15 1 16 2 17 3 18 98 19 4 20 97 21 5 22
REMARK SMILES IDX 96 23 6 24 7 25 8 26 13 27 14 28 17 29 15 30 16 31 29 32
REMARK SMILES IDX 30 33 31 34 32 35 33 36 34 37 95 38 35 39 94 40 36 41 37 42
REMARK SMILES IDX 38 43 88 44 39 45 93 46 87 47 89 48 40 49 92 50 86 51 85 52
REMARK SMILES IDX 41 54 73 55 53 56 72 57 54 58 57 59 71 60 90 61 55 62 56 63
REMARK SMILES IDX 70 65 91 66 58 67 42 68 43 69 51 70 44 71 46 72 52 73 45 74
REMARK SMILES IDX 47 75 48 76 49 77 50 78 74 79 75 80 83 81 76 82 78 83 84 84
REMARK SMILES IDX 77 85 79 86 80 87 81 88 82 89 59 90 60 91 68 92 61 93 63 94
REMARK SMILES IDX 69 95 62 96 64 97 65 98 66 99 67 100
REMARK H PARENT 89 53 57 64
REMARK Flexibility Score: inf
ROOT
ATOM      1  C   UNL A   1      34.268  35.228  28.121  1.00  0.00     0.274 C 
ENDROOT
BRANCH   1   2
ATOM      2  O   UNL A   1      34.890  33.289  27.885  1.00  0.00    -0.462 OA
BRANCH   2   3
ATOM      3  C   UNL A   1      34.944  31.873  28.319  1.00  0.00     0.305 C 
ATOM      4  O   UNL A   1      35.419  31.440  29.370  1.00  0.00    -0.252 OA
BRANCH   3   5
ATOM      5  C   UNL A   1      34.546  30.863  27.252  1.00  0.00     0.123 C 
BRANCH   5   6
ATOM      6  C   UNL A   1      33.237  30.229  27.626  1.00  0.00     0.022 C 
BRANCH   6   7
ATOM      7  C   UNL A   1      32.326  30.226  26.427  1.00  0.00     0.103 C 
BRANCH   7   8
ATOM      8  C   UNL A   1      32.136  28.841  25.847  1.00  0.00     0.243 C 
ATOM      9  O   UNL A   1      32.809  27.941  26.376  1.00  0.00    -0.273 OA
BRANCH   8  10
ATOM     10  N   UNL A   1      31.160  28.558  24.897  1.00  0.00    -0.225 N 
ATOM     11  C   UNL A   1      30.334  27.352  24.431  1.00  0.00     0.150 C 
ATOM     12  C   UNL A   1      29.491  27.948  23.277  1.00  0.00     0.092 C 
ATOM     13  C   UNL A   1      29.823  29.405  23.401  1.00  0.00     0.081 C 
ATOM     14  N   UNL A   1      30.698  29.702  24.298  1.00  0.00    -0.173 NA
BRANCH  11  15
ATOM     15  C   UNL A   1      31.132  26.127  24.033  1.00  0.00     0.015 A 
ATOM     16  C   UNL A   1      33.873  19.639  24.855  1.00  0.00     0.044 C 
ATOM     17  C   UNL A   1      33.773  21.127  24.618  1.00  0.00    -0.050 A 
ATOM     18  C   UNL A   1      34.957  21.757  24.162  1.00  0.00     0.005 A 
ATOM     19  C   UNL A   1      32.532  21.813  24.841  1.00  0.00     0.013 A 
ATOM     20  C   UNL A   1      34.999  23.075  23.758  1.00  0.00     0.029 A 
ATOM     21  C   UNL A   1      32.347  23.183  24.498  1.00  0.00     0.001 A 
ATOM     22  C   UNL A   1      33.869  23.835  23.790  1.00  0.00     0.072 A 
ATOM     23  C   UNL A   1      30.929  24.416  24.646  1.00  0.00     0.019 A 
ATOM     24  N   UNL A   1      33.973  25.434  23.181  1.00  0.00    -0.236 NA
ATOM     25  C   UNL A   1      32.669  26.514  23.271  1.00  0.00     0.135 A 
ATOM     26  Cl  UNL A   1      32.927  27.942  22.348  1.00  0.00    -0.062 Cl
ENDBRANCH  11  15
BRANCH  13  27
ATOM     27  C   UNL A   1      29.280  30.469  22.601  1.00  0.00     0.050 A 
ATOM     28  C   UNL A   1      28.871  30.466  21.285  1.00  0.00     0.022 A 
ATOM     29  S   UNL A   1      28.895  31.952  23.379  1.00  0.00    -0.142 S 
ATOM     30  C   UNL A   1      28.173  31.666  20.939  1.00  0.00     0.012 A 
ATOM     31  C   UNL A   1      28.112  32.555  21.987  1.00  0.00     0.065 A 
ENDBRANCH  13  27
ENDBRANCH   8  10
ENDBRANCH   7   8
ENDBRANCH   6   7
ENDBRANCH   5   6
ENDBRANCH   3   5
ENDBRANCH   2   3
ENDBRANCH   1   2
BRANCH   1  32
ATOM     32  C   UNL A   1      33.182  35.930  29.274  1.00  0.00     0.275 C 
BRANCH  32  33
ATOM     33  O   UNL A   1      32.551  35.063  30.264  1.00  0.00    -0.458 OA
BRANCH  33  34
ATOM     34  C   UNL A   1      32.881  35.284  31.574  1.00  0.00     0.338 C 
ATOM     35  O   UNL A   1      32.165  35.858  32.382  1.00  0.00    -0.246 OA
BRANCH  34  36
ATOM     36  C   UNL A   1      34.175  34.634  31.988  1.00  0.00     0.060 A 
ATOM     37  C   UNL A   1      35.405  35.302  32.043  1.00  0.00     0.016 A 
ATOM     38  C   UNL A   1      34.158  33.264  32.300  1.00  0.00     0.016 A 
ATOM     39  C   UNL A   1      36.588  34.619  32.379  1.00  0.00     0.010 A 
ATOM     40  C   UNL A   1      35.322  32.602  32.725  1.00  0.00     0.010 A 
ATOM     41  C   UNL A   1      36.548  33.278  32.796  1.00  0.00    -0.014 A 
BRANCH  41  42
ATOM     42  C   UNL A   1      37.675  32.661  33.561  1.00  0.00     0.031 A 
ATOM     43  C   UNL A   1      37.942  32.981  35.009  1.00  0.00     0.074 A 
ATOM     44  C   UNL A   1      38.567  31.934  32.852  1.00  0.00     0.049 A 
ATOM     45  N   UNL A   1      39.010  32.732  35.726  1.00  0.00    -0.248 NA
ATOM     46  C   UNL A   1      36.876  33.672  35.748  1.00  0.00     0.031 C 
ATOM     47  C   UNL A   1      38.432  31.602  31.431  1.00  0.00     0.029 A 
ATOM     48  N   UNL A   1      39.784  31.397  33.198  1.00  0.00    -0.354 N 
ATOM     49  C   UNL A   1      38.768  33.274  36.986  1.00  0.00     0.074 A 
ATOM     50  C   UNL A   1      37.438  33.848  36.940  1.00  0.00     0.031 C 
ATOM     51  C   UNL A   1      39.526  30.953  31.017  1.00  0.00     0.029 A 
ATOM     52  C   UNL A   1      40.472  30.881  32.120  1.00  0.00     0.049 A 
ATOM     53  H   UNL A   1      40.130  31.383  34.119  1.00  0.00     0.167 HD
ATOM     54  C   UNL A   1      39.582  33.289  38.075  1.00  0.00     0.034 A 
ATOM     55  C   UNL A   1      41.741  30.450  32.002  1.00  0.00     0.034 A 
ATOM     56  C   UNL A   1      40.902  32.704  38.097  1.00  0.00     0.049 A 
ATOM     57  C   UNL A   1      42.615  30.466  33.218  1.00  0.00     0.074 A 
ATOM     58  C   UNL A   1      41.801  32.635  39.147  1.00  0.00     0.029 A 
ATOM     59  N   UNL A   1      41.515  32.091  37.011  1.00  0.00    -0.354 N 
ATOM     60  N   UNL A   1      42.334  30.905  34.421  1.00  0.00    -0.248 NA
ATOM     61  C   UNL A   1      43.963  29.905  33.076  1.00  0.00     0.031 C 
ATOM     62  C   UNL A   1      42.961  31.993  38.694  1.00  0.00     0.029 A 
ATOM     63  C   UNL A   1      42.777  31.642  37.365  1.00  0.00     0.049 A 
ATOM     64  H   UNL A   1      41.111  31.990  36.120  1.00  0.00     0.167 HD
ATOM     65  C   UNL A   1      43.463  30.657  35.188  1.00  0.00     0.074 A 
ATOM     66  C   UNL A   1      44.420  30.001  34.318  1.00  0.00     0.031 C 
ATOM     67  C   UNL A   1      43.695  30.958  36.489  1.00  0.00     0.034 A 
BRANCH  54  68
ATOM     68  C   UNL A   1      39.070  33.930  39.346  1.00  0.00     0.023 A 
ATOM     69  C   UNL A   1      39.439  35.256  39.652  1.00  0.00     0.012 A 
ATOM     70  C   UNL A   1      38.166  33.258  40.196  1.00  0.00     0.148 A 
ATOM     71  C   UNL A   1      38.946  35.891  40.793  1.00  0.00     0.002 A 
ATOM     72  C   UNL A   1      37.653  33.909  41.316  1.00  0.00     0.091 A 
ATOM     73  F   UNL A   1      37.826  31.996  39.899  1.00  0.00    -0.205 F 
ATOM     74  C   UNL A   1      38.048  35.221  41.621  1.00  0.00     0.022 A 
BRANCH  72  75
ATOM     75  S   UNL A   1      36.442  33.157  42.416  1.00  0.00     0.127 S 
ATOM     76  O   UNL A   1      35.396  32.763  41.475  1.00  0.00    -0.237 OA
ATOM     77  O   UNL A   1      37.196  32.041  42.990  1.00  0.00    -0.237 OA
ATOM     78  O   UNL A   1      36.070  34.192  43.369  1.00  0.00    -0.744 OA
ENDBRANCH  72  75
ENDBRANCH  54  68
BRANCH  55  79
ATOM     79  C   UNL A   1      42.225  29.949  30.682  1.00  0.00     0.023 A 
ATOM     80  C   UNL A   1      42.907  30.827  29.819  1.00  0.00     0.012 A 
ATOM     81  C   UNL A   1      42.113  28.588  30.328  1.00  0.00     0.148 A 
ATOM     82  C   UNL A   1      43.456  30.362  28.622  1.00  0.00     0.002 A 
ATOM     83  C   UNL A   1      42.720  28.121  29.168  1.00  0.00     0.091 A 
ATOM     84  F   UNL A   1      41.449  27.767  31.154  1.00  0.00    -0.205 F 
ATOM     85  C   UNL A   1      43.379  29.009  28.305  1.00  0.00     0.022 A 
BRANCH  83  86
ATOM     86  S   UNL A   1      42.816  26.366  28.786  1.00  0.00     0.127 S 
ATOM     87  O   UNL A   1      43.550  26.372  27.524  1.00  0.00    -0.237 OA
ATOM     88  O   UNL A   1      43.562  25.841  29.931  1.00  0.00    -0.237 OA
ATOM     89  O   UNL A   1      41.434  25.912  28.722  1.00  0.00    -0.744 OA
ENDBRANCH  83  86
ENDBRANCH  55  79
BRANCH  67  90
ATOM     90  C   UNL A   1      45.032  30.558  37.049  1.00  0.00     0.023 A 
ATOM     91  C   UNL A   1      46.095  31.482  37.039  1.00  0.00     0.012 A 
ATOM     92  C   UNL A   1      45.219  29.285  37.618  1.00  0.00     0.148 A 
ATOM     93  C   UNL A   1      47.339  31.132  37.564  1.00  0.00     0.002 A 
ATOM     94  C   UNL A   1      46.448  28.960  38.179  1.00  0.00     0.091 A 
ATOM     95  F   UNL A   1      44.201  28.414  37.589  1.00  0.00    -0.205 F 
ATOM     96  C   UNL A   1      47.511  29.877  38.143  1.00  0.00     0.022 A 
BRANCH  94  97
ATOM     97  S   UNL A   1      46.729  27.399  39.020  1.00  0.00     0.127 S 
ATOM     98  O   UNL A   1      48.089  27.573  39.527  1.00  0.00    -0.237 OA
ATOM     99  O   UNL A   1      45.688  27.407  40.049  1.00  0.00    -0.237 OA
ATOM    100  O   UNL A   1      46.564  26.365  38.006  1.00  0.00    -0.744 OA
ENDBRANCH  94  97
ENDBRANCH  67  90
ENDBRANCH  41  42
ENDBRANCH  34  36
ENDBRANCH  33  34
ENDBRANCH  32  33
ENDBRANCH   1  32
TORSDOF 20
ENDMDL
MODEL 3
REMARK VINA RESULT:     -11.6      2.885      8.033
REMARK SMILES Cc1ccc2nc(Cl)c([C@@H]3CC(c4cccs4)=NN3C(=O)CCCC(=O)OCCOC(=O)c3ccc(-c4c5nc(c(-c6cccc(S(=O)(=O)[O-])c6F)c6ccc([nH]6)c(-c6cccc(S(=O)(=O)[O-])c6F)c6nc(c(-c7cccc(S(=O)(=O)[O-])c7F)c7ccc4[nH]7)C=C6)C=C5)cc3)cc2c1
REMARK SMILES IDX 28 1 27 2 25 3 26 4 24 5 23 6 22 7 20 8 21 9 19 10 10 11
REMARK SMILES IDX 11 12 12 13 18 14 9 15 1 16 2 17 3 18 98 19 4 20 97 21 5 22
REMARK SMILES IDX 96 23 6 24 7 25 8 26 13 27 14 28 17 29 15 30 16 31 29 32
REMARK SMILES IDX 30 33 31 34 32 35 33 36 34 37 95 38 35 39 94 40 36 41 37 42
REMARK SMILES IDX 38 43 88 44 39 45 93 46 87 47 89 48 40 49 92 50 86 51 85 52
REMARK SMILES IDX 41 54 73 55 53 56 72 57 54 58 57 59 71 60 90 61 55 62 56 63
REMARK SMILES IDX 70 65 91 66 58 67 42 68 43 69 51 70 44 71 46 72 52 73 45 74
REMARK SMILES IDX 47 75 48 76 49 77 50 78 74 79 75 80 83 81 76 82 78 83 84 84
REMARK SMILES IDX 77 85 79 86 80 87 81 88 82 89 59 90 60 91 68 92 61 93 63 94
REMARK SMILES IDX 69 95 62 96 64 97 65 98 66 99 67 100
REMARK H PARENT 89 53 57 64
REMARK Flexibility Score: inf
ROOT
ATOM      1  C   UNL A   1      34.613  34.491  27.745  1.00  0.00     0.274 C 
ENDROOT
BRANCH   1   2
ATOM      2  O   UNL A   1      35.173  32.520  27.679  1.00  0.00    -0.462 OA
BRANCH   2   3
ATOM      3  C   UNL A   1      35.080  31.120  28.156  1.00  0.00     0.305 C 
ATOM      4  O   UNL A   1      35.268  30.716  29.304  1.00  0.00    -0.252 OA
BRANCH   3   5
ATOM      5  C   UNL A   1      34.933  30.079  27.054  1.00  0.00     0.123 C 
BRANCH   5   6
ATOM      6  C   UNL A   1      33.476  29.852  26.771  1.00  0.00     0.022 C 
BRANCH   6   7
ATOM      7  C   UNL A   1      33.234  28.382  26.555  1.00  0.00     0.103 C 
BRANCH   7   8
ATOM      8  C   UNL A   1      31.761  28.036  26.518  1.00  0.00     0.243 C 
ATOM      9  O   UNL A   1      31.183  28.032  27.617  1.00  0.00    -0.273 OA
BRANCH   8  10
ATOM     10  N   UNL A   1      31.060  27.890  25.325  1.00  0.00    -0.225 N 
ATOM     11  C   UNL A   1      30.455  26.757  24.487  1.00  0.00     0.150 C 
ATOM     12  C   UNL A   1      29.869  27.514  23.271  1.00  0.00     0.092 C 
ATOM     13  C   UNL A   1      30.060  28.939  23.699  1.00  0.00     0.081 C 
ATOM     14  N   UNL A   1      30.674  29.105  24.819  1.00  0.00    -0.173 NA
BRANCH  11  15
ATOM     15  C   UNL A   1      31.407  25.641  24.110  1.00  0.00     0.015 A 
ATOM     16  C   UNL A   1      34.526  19.303  24.733  1.00  0.00     0.044 C 
ATOM     17  C   UNL A   1      34.338  20.798  24.631  1.00  0.00    -0.050 A 
ATOM     18  C   UNL A   1      35.522  21.554  24.445  1.00  0.00     0.005 A 
ATOM     19  C   UNL A   1      33.024  21.369  24.710  1.00  0.00     0.013 A 
ATOM     20  C   UNL A   1      35.515  22.909  24.186  1.00  0.00     0.029 A 
ATOM     21  C   UNL A   1      32.780  22.753  24.478  1.00  0.00     0.001 A 
ATOM     22  C   UNL A   1      34.334  23.582  24.103  1.00  0.00     0.072 A 
ATOM     23  C   UNL A   1      31.257  23.862  24.507  1.00  0.00     0.019 A 
ATOM     24  N   UNL A   1      34.396  25.242  23.681  1.00  0.00    -0.236 NA
ATOM     25  C   UNL A   1      33.008  26.214  23.658  1.00  0.00     0.135 A 
ATOM     26  Cl  UNL A   1      33.287  27.751  22.937  1.00  0.00    -0.062 Cl
ENDBRANCH  11  15
BRANCH  13  27
ATOM     27  C   UNL A   1      29.649  30.106  22.968  1.00  0.00     0.050 A 
ATOM     28  C   UNL A   1      29.433  30.274  21.618  1.00  0.00     0.022 A 
ATOM     29  S   UNL A   1      29.175  31.496  23.861  1.00  0.00    -0.142 S 
ATOM     30  C   UNL A   1      28.805  31.526  21.327  1.00  0.00     0.012 A 
ATOM     31  C   UNL A   1      28.605  32.284  22.458  1.00  0.00     0.065 A 
ENDBRANCH  13  27
ENDBRANCH   8  10
ENDBRANCH   7   8
ENDBRANCH   6   7
ENDBRANCH   5   6
ENDBRANCH   3   5
ENDBRANCH   2   3
ENDBRANCH   1   2
BRANCH   1  32
ATOM     32  C   UNL A   1      33.573  35.330  28.847  1.00  0.00     0.275 C 
BRANCH  32  33
ATOM     33  O   UNL A   1      32.847  34.561  29.853  1.00  0.00    -0.458 OA
BRANCH  33  34
ATOM     34  C   UNL A   1      33.046  34.915  31.160  1.00  0.00     0.338 C 
ATOM     35  O   UNL A   1      32.261  35.575  31.827  1.00  0.00    -0.246 OA
BRANCH  34  36
ATOM     36  C   UNL A   1      34.280  34.304  31.770  1.00  0.00     0.060 A 
ATOM     37  C   UNL A   1      34.400  32.949  32.104  1.00  0.00     0.016 A 
ATOM     38  C   UNL A   1      35.363  35.150  32.062  1.00  0.00     0.016 A 
ATOM     39  C   UNL A   1      35.560  32.455  32.730  1.00  0.00     0.010 A 
ATOM     40  C   UNL A   1      36.556  34.643  32.603  1.00  0.00     0.010 A 
ATOM     41  C   UNL A   1      36.680  33.283  32.918  1.00  0.00    -0.014 A 
BRANCH  41  42
ATOM     42  C   UNL A   1      38.041  32.715  33.164  1.00  0.00     0.031 A 
ATOM     43  C   UNL A   1      38.619  31.606  32.324  1.00  0.00     0.074 A 
ATOM     44  C   UNL A   1      38.673  33.110  34.291  1.00  0.00     0.049 A 
ATOM     45  N   UNL A   1      39.657  30.844  32.563  1.00  0.00    -0.248 NA
ATOM     46  C   UNL A   1      37.943  31.309  31.052  1.00  0.00     0.031 C 
ATOM     47  C   UNL A   1      38.181  34.146  35.205  1.00  0.00     0.029 A 
ATOM     48  N   UNL A   1      39.821  32.659  34.898  1.00  0.00    -0.354 N 
ATOM     49  C   UNL A   1      39.737  29.947  31.500  1.00  0.00     0.074 A 
ATOM     50  C   UNL A   1      38.649  30.276  30.601  1.00  0.00     0.031 C 
ATOM     51  C   UNL A   1      38.993  34.230  36.264  1.00  0.00     0.029 A 
ATOM     52  C   UNL A   1      40.024  33.211  36.145  1.00  0.00     0.049 A 
ATOM     53  H   UNL A   1      40.434  32.009  34.486  1.00  0.00     0.167 HD
ATOM     54  C   UNL A   1      40.634  28.946  31.299  1.00  0.00     0.034 A 
ATOM     55  C   UNL A   1      40.901  32.903  37.119  1.00  0.00     0.034 A 
ATOM     56  C   UNL A   1      41.714  28.642  32.208  1.00  0.00     0.049 A 
ATOM     57  C   UNL A   1      41.886  31.803  36.869  1.00  0.00     0.074 A 
ATOM     58  C   UNL A   1      42.697  27.674  32.093  1.00  0.00     0.029 A 
ATOM     59  N   UNL A   1      41.950  29.303  33.407  1.00  0.00    -0.354 N 
ATOM     60  N   UNL A   1      41.995  31.027  35.818  1.00  0.00    -0.248 NA
ATOM     61  C   UNL A   1      42.885  31.554  37.915  1.00  0.00     0.031 C 
ATOM     62  C   UNL A   1      43.516  27.740  33.227  1.00  0.00     0.029 A 
ATOM     63  C   UNL A   1      43.057  28.765  34.041  1.00  0.00     0.049 A 
ATOM     64  H   UNL A   1      41.407  30.046  33.757  1.00  0.00     0.167 HD
ATOM     65  C   UNL A   1      43.086  30.207  36.065  1.00  0.00     0.074 A 
ATOM     66  C   UNL A   1      43.621  30.604  37.354  1.00  0.00     0.031 C 
ATOM     67  C   UNL A   1      43.591  29.205  35.305  1.00  0.00     0.034 A 
BRANCH  54  68
ATOM     68  C   UNL A   1      40.516  28.118  30.039  1.00  0.00     0.023 A 
ATOM     69  C   UNL A   1      39.503  27.142  29.943  1.00  0.00     0.012 A 
ATOM     70  C   UNL A   1      41.345  28.353  28.922  1.00  0.00     0.148 A 
ATOM     71  C   UNL A   1      39.338  26.393  28.776  1.00  0.00     0.002 A 
ATOM     72  C   UNL A   1      41.154  27.625  27.749  1.00  0.00     0.091 A 
ATOM     73  F   UNL A   1      42.308  29.280  29.025  1.00  0.00    -0.205 F 
ATOM     74  C   UNL A   1      40.158  26.639  27.678  1.00  0.00     0.022 A 
BRANCH  72  75
ATOM     75  S   UNL A   1      42.118  27.906  26.255  1.00  0.00     0.127 S 
ATOM     76  O   UNL A   1      41.791  29.298  25.953  1.00  0.00    -0.237 OA
ATOM     77  O   UNL A   1      43.488  27.691  26.725  1.00  0.00    -0.237 OA
ATOM     78  O   UNL A   1      41.648  26.928  25.286  1.00  0.00    -0.744 OA
ENDBRANCH  72  75
ENDBRANCH  54  68
BRANCH  55  79
ATOM     79  C   UNL A   1      40.880  33.677  38.395  1.00  0.00     0.023 A 
ATOM     80  C   UNL A   1      40.247  33.127  39.525  1.00  0.00     0.012 A 
ATOM     81  C   UNL A   1      41.576  34.897  38.524  1.00  0.00     0.148 A 
ATOM     82  C   UNL A   1      40.297  33.783  40.757  1.00  0.00     0.002 A 
ATOM     83  C   UNL A   1      41.677  35.510  39.768  1.00  0.00     0.091 A 
ATOM     84  F   UNL A   1      42.162  35.414  37.435  1.00  0.00    -0.205 F 
ATOM     85  C   UNL A   1      41.025  34.963  40.882  1.00  0.00     0.022 A 
BRANCH  83  86
ATOM     86  S   UNL A   1      42.744  36.931  40.044  1.00  0.00     0.127 S 
ATOM     87  O   UNL A   1      44.035  36.432  39.579  1.00  0.00    -0.237 OA
ATOM     88  O   UNL A   1      42.130  37.948  39.188  1.00  0.00    -0.237 OA
ATOM     89  O   UNL A   1      42.641  37.216  41.468  1.00  0.00    -0.744 OA
ENDBRANCH  83  86
ENDBRANCH  55  79
BRANCH  67  90
ATOM     90  C   UNL A   1      44.797  28.487  35.845  1.00  0.00     0.023 A 
ATOM     91  C   UNL A   1      46.087  28.939  35.504  1.00  0.00     0.012 A 
ATOM     92  C   UNL A   1      44.650  27.394  36.719  1.00  0.00     0.148 A 
ATOM     93  C   UNL A   1      47.217  28.292  36.005  1.00  0.00     0.002 A 
ATOM     94  C   UNL A   1      45.780  26.783  37.248  1.00  0.00     0.091 A 
ATOM     95  F   UNL A   1      43.413  26.964  37.004  1.00  0.00    -0.205 F 
ATOM     96  C   UNL A   1      47.062  27.223  36.884  1.00  0.00     0.022 A 
BRANCH  94  97
ATOM     97  S   UNL A   1      45.671  25.455  38.453  1.00  0.00     0.127 S 
ATOM     98  O   UNL A   1      45.492  24.287  37.593  1.00  0.00    -0.237 OA
ATOM     99  O   UNL A   1      46.972  25.530  39.118  1.00  0.00    -0.237 OA
ATOM    100  O   UNL A   1      44.538  25.786  39.308  1.00  0.00    -0.744 OA
ENDBRANCH  94  97
ENDBRANCH  67  90
ENDBRANCH  41  42
ENDBRANCH  34  36
ENDBRANCH  33  34
ENDBRANCH  32  33
ENDBRANCH   1  32
TORSDOF 20
ENDMDL
