MODEL 1
REMARK VINA RESULT:      -8.7      0.000      0.000
REMARK SMILES C[C@@H](CC(=O)OCCOC(=O)c1ccc(-c2c3nc(c(-c4cccc(S(=O)(=O)[O-])c4F)c4ccc([nH]4)c(-c4cccc(S(=O)(=O)[O-])c4F)c4nc(c(-c5cccc(S(=O)(=O)[O-])c5F)c5ccc2[nH]5)C=C4)C=C3)cc1)NC(=O)/C=C/c1cccnc1
REMARK SMILES IDX 7 1 6 2 4 3 5 4 3 5 2 6 1 7 75 8 76 9 77 11 78 12 79 13
REMARK SMILES IDX 80 14 81 15 85 16 82 17 84 18 83 19 8 20 9 21 10 22 11 23
REMARK SMILES IDX 12 24 13 25 74 26 14 27 73 28 15 29 16 30 17 31 67 32 18 33
REMARK SMILES IDX 72 34 66 35 68 36 19 37 71 38 65 39 64 40 20 42 52 43 32 44
REMARK SMILES IDX 51 45 33 46 36 47 50 48 69 49 34 50 35 51 49 53 70 54 37 55
REMARK SMILES IDX 21 56 22 57 30 58 23 59 25 60 31 61 24 62 26 63 27 64 28 65
REMARK SMILES IDX 29 66 53 67 54 68 62 69 55 70 57 71 63 72 56 73 58 74 59 75
REMARK SMILES IDX 60 76 61 77 38 78 39 79 47 80 40 81 42 82 48 83 41 84 43 85
REMARK SMILES IDX 44 86 45 87 46 88
REMARK H PARENT 75 10 68 41 36 52
REMARK Flexibility Score: inf
ROOT
ATOM      1  C   UNL A   1      44.437  18.535  24.781  1.00  0.00     0.274 C 
ENDROOT
BRANCH   1   2
ATOM      2  O   UNL A   1      45.729  18.796  25.371  1.00  0.00    -0.462 OA
BRANCH   2   3
ATOM      3  C   UNL A   1      46.319  19.970  25.039  1.00  0.00     0.307 C 
ATOM      4  O   UNL A   1      47.335  20.067  24.361  1.00  0.00    -0.252 OA
BRANCH   3   5
ATOM      5  C   UNL A   1      45.677  21.180  25.679  1.00  0.00     0.147 C 
BRANCH   5   6
ATOM      6  C   UNL A   1      45.310  22.394  24.820  1.00  0.00     0.090 C 
ATOM      7  C   UNL A   1      44.663  22.047  23.481  1.00  0.00     0.031 C 
BRANCH   6   8
ATOM      8  N   UNL A   1      46.429  23.312  24.630  1.00  0.00    -0.350 N 
ATOM      9  C   UNL A   1      46.508  24.668  24.687  1.00  0.00     0.244 C 
ATOM     10  H   UNL A   1      47.283  22.868  24.424  1.00  0.00     0.164 HD
ATOM     11  O   UNL A   1      47.529  25.257  24.340  1.00  0.00    -0.270 OA
BRANCH   9  12
ATOM     12  C   UNL A   1      45.326  25.463  25.069  1.00  0.00     0.072 C 
ATOM     13  C   UNL A   1      45.350  26.797  25.202  1.00  0.00     0.015 C 
BRANCH  13  14
ATOM     14  C   UNL A   1      44.195  27.629  25.579  1.00  0.00    -0.007 A 
ATOM     15  C   UNL A   1      42.874  27.345  25.216  1.00  0.00     0.011 A 
ATOM     16  C   UNL A   1      44.390  28.766  26.363  1.00  0.00     0.119 A 
ATOM     17  C   UNL A   1      41.835  28.172  25.642  1.00  0.00     0.021 A 
ATOM     18  N   UNL A   1      43.401  29.583  26.804  1.00  0.00    -0.264 NA
ATOM     19  C   UNL A   1      42.146  29.268  26.427  1.00  0.00     0.111 A 
ENDBRANCH  13  14
ENDBRANCH   9  12
ENDBRANCH   6   8
ENDBRANCH   5   6
ENDBRANCH   3   5
ENDBRANCH   2   3
ENDBRANCH   1   2
BRANCH   1  20
ATOM     20  C   UNL A   1      43.296  18.809  25.762  1.00  0.00     0.275 C 
BRANCH  20  21
ATOM     21  O   UNL A   1      42.264  19.610  25.163  1.00  0.00    -0.458 OA
BRANCH  21  22
ATOM     22  C   UNL A   1      41.288  20.007  26.008  1.00  0.00     0.338 C 
ATOM     23  O   UNL A   1      40.302  19.357  26.338  1.00  0.00    -0.246 OA
BRANCH  22  24
ATOM     24  C   UNL A   1      41.647  21.294  26.609  1.00  0.00     0.060 A 
ATOM     25  C   UNL A   1      41.808  21.373  27.995  1.00  0.00     0.016 A 
ATOM     26  C   UNL A   1      41.792  22.429  25.810  1.00  0.00     0.016 A 
ATOM     27  C   UNL A   1      42.138  22.587  28.590  1.00  0.00     0.010 A 
ATOM     28  C   UNL A   1      42.141  23.642  26.408  1.00  0.00     0.010 A 
ATOM     29  C   UNL A   1      42.324  23.728  27.799  1.00  0.00    -0.014 A 
BRANCH  29  30
ATOM     30  C   UNL A   1      42.769  25.004  28.407  1.00  0.00     0.031 A 
ATOM     31  C   UNL A   1      41.767  26.033  28.840  1.00  0.00     0.074 A 
ATOM     32  C   UNL A   1      44.089  25.259  28.501  1.00  0.00     0.049 A 
ATOM     33  N   UNL A   1      41.970  27.257  29.252  1.00  0.00    -0.248 NA
ATOM     34  C   UNL A   1      40.351  25.635  28.798  1.00  0.00     0.031 C 
ATOM     35  C   UNL A   1      45.154  24.333  28.114  1.00  0.00     0.029 A 
ATOM     36  N   UNL A   1      44.757  26.383  28.917  1.00  0.00    -0.354 N 
ATOM     37  C   UNL A   1      40.710  27.793  29.482  1.00  0.00     0.074 A 
ATOM     38  C   UNL A   1      39.747  26.759  29.164  1.00  0.00     0.031 C 
ATOM     39  C   UNL A   1      46.341  24.934  28.286  1.00  0.00     0.029 A 
ATOM     40  C   UNL A   1      46.119  26.301  28.748  1.00  0.00     0.049 A 
ATOM     41  H   UNL A   1      44.306  27.171  29.298  1.00  0.00     0.167 HD
ATOM     42  C   UNL A   1      40.389  29.030  29.931  1.00  0.00     0.034 A 
ATOM     43  C   UNL A   1      47.079  27.233  28.905  1.00  0.00     0.034 A 
ATOM     44  C   UNL A   1      41.354  30.041  30.276  1.00  0.00     0.049 A 
ATOM     45  C   UNL A   1      46.691  28.613  29.355  1.00  0.00     0.074 A 
ATOM     46  C   UNL A   1      41.129  31.299  30.807  1.00  0.00     0.029 A 
ATOM     47  N   UNL A   1      42.725  29.916  30.113  1.00  0.00    -0.354 N 
ATOM     48  N   UNL A   1      45.507  29.072  29.678  1.00  0.00    -0.248 NA
ATOM     49  C   UNL A   1      47.772  29.603  29.473  1.00  0.00     0.031 C 
ATOM     50  C   UNL A   1      42.365  31.944  30.945  1.00  0.00     0.029 A 
ATOM     51  C   UNL A   1      43.359  31.082  30.508  1.00  0.00     0.049 A 
ATOM     52  H   UNL A   1      43.182  29.116  29.767  1.00  0.00     0.167 HD
ATOM     53  C   UNL A   1      45.698  30.397  30.050  1.00  0.00     0.074 A 
ATOM     54  C   UNL A   1      47.120  30.659  29.940  1.00  0.00     0.031 C 
ATOM     55  C   UNL A   1      44.778  31.319  30.427  1.00  0.00     0.034 A 
BRANCH  42  56
ATOM     56  C   UNL A   1      38.929  29.351  30.108  1.00  0.00     0.023 A 
ATOM     57  C   UNL A   1      38.320  29.134  31.360  1.00  0.00     0.012 A 
ATOM     58  C   UNL A   1      38.177  29.917  29.061  1.00  0.00     0.148 A 
ATOM     59  C   UNL A   1      36.977  29.450  31.559  1.00  0.00     0.002 A 
ATOM     60  C   UNL A   1      36.847  30.262  29.278  1.00  0.00     0.091 A 
ATOM     61  F   UNL A   1      38.767  30.093  27.869  1.00  0.00    -0.205 F 
ATOM     62  C   UNL A   1      36.244  30.023  30.523  1.00  0.00     0.022 A 
BRANCH  60  63
ATOM     63  S   UNL A   1      35.844  31.065  28.021  1.00  0.00     0.127 S 
ATOM     64  O   UNL A   1      36.574  32.314  27.812  1.00  0.00    -0.237 OA
ATOM     65  O   UNL A   1      35.924  30.120  26.906  1.00  0.00    -0.237 OA
ATOM     66  O   UNL A   1      34.515  31.200  28.601  1.00  0.00    -0.744 OA
ENDBRANCH  60  63
ENDBRANCH  42  56
BRANCH  43  67
ATOM     67  C   UNL A   1      48.502  26.875  28.648  1.00  0.00     0.023 A 
ATOM     68  C   UNL A   1      48.970  26.827  27.321  1.00  0.00     0.012 A 
ATOM     69  C   UNL A   1      49.404  26.635  29.705  1.00  0.00     0.148 A 
ATOM     70  C   UNL A   1      50.307  26.538  27.051  1.00  0.00     0.002 A 
ATOM     71  C   UNL A   1      50.745  26.400  29.430  1.00  0.00     0.091 A 
ATOM     72  F   UNL A   1      48.933  26.661  30.960  1.00  0.00    -0.205 F 
ATOM     73  C   UNL A   1      51.197  26.338  28.103  1.00  0.00     0.022 A 
BRANCH  71  74
ATOM     74  S   UNL A   1      51.982  26.265  30.727  1.00  0.00     0.127 S 
ATOM     75  O   UNL A   1      51.863  27.559  31.391  1.00  0.00    -0.237 OA
ATOM     76  O   UNL A   1      51.488  25.125  31.502  1.00  0.00    -0.237 OA
ATOM     77  O   UNL A   1      53.243  26.018  30.040  1.00  0.00    -0.744 OA
ENDBRANCH  71  74
ENDBRANCH  43  67
BRANCH  55  78
ATOM     78  C   UNL A   1      45.275  32.706  30.742  1.00  0.00     0.023 A 
ATOM     79  C   UNL A   1      45.755  32.985  32.037  1.00  0.00     0.012 A 
ATOM     80  C   UNL A   1      45.339  33.702  29.749  1.00  0.00     0.148 A 
ATOM     81  C   UNL A   1      46.273  34.243  32.344  1.00  0.00     0.002 A 
ATOM     82  C   UNL A   1      45.893  34.941  30.052  1.00  0.00     0.091 A 
ATOM     83  F   UNL A   1      44.861  33.421  28.528  1.00  0.00    -0.205 F 
ATOM     84  C   UNL A   1      46.353  35.215  31.351  1.00  0.00     0.022 A 
BRANCH  82  85
ATOM     85  S   UNL A   1      46.114  36.229  28.820  1.00  0.00     0.127 S 
ATOM     86  O   UNL A   1      47.317  35.773  28.123  1.00  0.00    -0.237 OA
ATOM     87  O   UNL A   1      44.882  36.127  28.038  1.00  0.00    -0.237 OA
ATOM     88  O   UNL A   1      46.259  37.475  29.560  1.00  0.00    -0.744 OA
ENDBRANCH  82  85
ENDBRANCH  55  78
ENDBRANCH  29  30
ENDBRANCH  22  24
ENDBRANCH  21  22
ENDBRANCH  20  21
ENDBRANCH   1  20
TORSDOF 18
ENDMDL
MODEL 2
REMARK VINA RESULT:      -8.7      4.916      6.981
REMARK SMILES C[C@@H](CC(=O)OCCOC(=O)c1ccc(-c2c3nc(c(-c4cccc(S(=O)(=O)[O-])c4F)c4ccc([nH]4)c(-c4cccc(S(=O)(=O)[O-])c4F)c4nc(c(-c5cccc(S(=O)(=O)[O-])c5F)c5ccc2[nH]5)C=C4)C=C3)cc1)NC(=O)/C=C/c1cccnc1
REMARK SMILES IDX 7 1 6 2 4 3 5 4 3 5 2 6 1 7 75 8 76 9 77 11 78 12 79 13
REMARK SMILES IDX 80 14 81 15 85 16 82 17 84 18 83 19 8 20 9 21 10 22 11 23
REMARK SMILES IDX 12 24 13 25 74 26 14 27 73 28 15 29 16 30 17 31 67 32 18 33
REMARK SMILES IDX 72 34 66 35 68 36 19 37 71 38 65 39 64 40 20 42 52 43 32 44
REMARK SMILES IDX 51 45 33 46 36 47 50 48 69 49 34 50 35 51 49 53 70 54 37 55
REMARK SMILES IDX 21 56 22 57 30 58 23 59 25 60 31 61 24 62 26 63 27 64 28 65
REMARK SMILES IDX 29 66 53 67 54 68 62 69 55 70 57 71 63 72 56 73 58 74 59 75
REMARK SMILES IDX 60 76 61 77 38 78 39 79 47 80 40 81 42 82 48 83 41 84 43 85
REMARK SMILES IDX 44 86 45 87 46 88
REMARK H PARENT 75 10 68 41 36 52
REMARK Flexibility Score: inf
ROOT
ATOM      1  C   UNL A   1      35.383  21.063  24.711  1.00  0.00     0.274 C 
ENDROOT
BRANCH   1   2
ATOM      2  O   UNL A   1      35.197  22.458  24.390  1.00  0.00    -0.462 OA
BRANCH   2   3
ATOM      3  C   UNL A   1      34.432  23.178  25.245  1.00  0.00     0.307 C 
ATOM      4  O   UNL A   1      34.854  23.731  26.254  1.00  0.00    -0.252 OA
BRANCH   3   5
ATOM      5  C   UNL A   1      32.957  23.154  24.915  1.00  0.00     0.147 C 
BRANCH   5   6
ATOM      6  C   UNL A   1      32.489  23.435  23.484  1.00  0.00     0.090 C 
ATOM      7  C   UNL A   1      32.327  22.189  22.617  1.00  0.00     0.031 C 
BRANCH   6   8
ATOM      8  N   UNL A   1      33.313  24.431  22.806  1.00  0.00    -0.350 N 
ATOM      9  C   UNL A   1      32.999  25.613  22.210  1.00  0.00     0.244 C 
ATOM     10  H   UNL A   1      34.271  24.208  22.774  1.00  0.00     0.164 HD
ATOM     11  O   UNL A   1      33.833  26.232  21.555  1.00  0.00    -0.270 OA
BRANCH   9  12
ATOM     12  C   UNL A   1      31.614  26.118  22.253  1.00  0.00     0.072 C 
ATOM     13  C   UNL A   1      31.278  27.293  22.805  1.00  0.00     0.015 C 
BRANCH  13  14
ATOM     14  C   UNL A   1      29.911  27.836  22.868  1.00  0.00    -0.007 A 
ATOM     15  C   UNL A   1      28.852  27.216  23.540  1.00  0.00     0.011 A 
ATOM     16  C   UNL A   1      29.622  29.052  22.247  1.00  0.00     0.119 A 
ATOM     17  C   UNL A   1      27.594  27.816  23.574  1.00  0.00     0.021 A 
ATOM     18  N   UNL A   1      28.413  29.668  22.273  1.00  0.00    -0.264 NA
ATOM     19  C   UNL A   1      27.425  29.030  22.933  1.00  0.00     0.111 A 
ENDBRANCH  13  14
ENDBRANCH   9  12
ENDBRANCH   6   8
ENDBRANCH   5   6
ENDBRANCH   3   5
ENDBRANCH   2   3
ENDBRANCH   1   2
BRANCH   1  20
ATOM     20  C   UNL A   1      36.862  20.711  24.885  1.00  0.00     0.275 C 
BRANCH  20  21
ATOM     21  O   UNL A   1      37.491  21.537  25.878  1.00  0.00    -0.458 OA
BRANCH  21  22
ATOM     22  C   UNL A   1      38.815  21.328  26.038  1.00  0.00     0.338 C 
ATOM     23  O   UNL A   1      39.439  20.325  25.711  1.00  0.00    -0.246 OA
BRANCH  22  24
ATOM     24  C   UNL A   1      39.452  22.551  26.536  1.00  0.00     0.060 A 
ATOM     25  C   UNL A   1      40.494  22.443  27.462  1.00  0.00     0.016 A 
ATOM     26  C   UNL A   1      38.999  23.802  26.116  1.00  0.00     0.016 A 
ATOM     27  C   UNL A   1      41.106  23.590  27.958  1.00  0.00     0.010 A 
ATOM     28  C   UNL A   1      39.628  24.951  26.601  1.00  0.00     0.010 A 
ATOM     29  C   UNL A   1      40.690  24.853  27.517  1.00  0.00    -0.014 A 
BRANCH  29  30
ATOM     30  C   UNL A   1      41.395  26.079  27.962  1.00  0.00     0.031 A 
ATOM     31  C   UNL A   1      40.662  27.150  28.715  1.00  0.00     0.074 A 
ATOM     32  C   UNL A   1      42.687  26.251  27.620  1.00  0.00     0.049 A 
ATOM     33  N   UNL A   1      41.072  28.344  29.054  1.00  0.00    -0.248 NA
ATOM     34  C   UNL A   1      39.287  26.839  29.136  1.00  0.00     0.031 C 
ATOM     35  C   UNL A   1      43.501  25.277  26.890  1.00  0.00     0.029 A 
ATOM     36  N   UNL A   1      43.529  27.318  27.808  1.00  0.00    -0.354 N 
ATOM     37  C   UNL A   1      39.997  28.946  29.693  1.00  0.00     0.074 A 
ATOM     38  C   UNL A   1      38.915  27.983  29.697  1.00  0.00     0.031 C 
ATOM     39  C   UNL A   1      44.717  25.800  26.670  1.00  0.00     0.029 A 
ATOM     40  C   UNL A   1      44.751  27.161  27.198  1.00  0.00     0.049 A 
ATOM     41  H   UNL A   1      43.282  28.117  28.327  1.00  0.00     0.167 HD
ATOM     42  C   UNL A   1      39.925  30.183  30.240  1.00  0.00     0.034 A 
ATOM     43  C   UNL A   1      45.771  28.027  27.043  1.00  0.00     0.034 A 
ATOM     44  C   UNL A   1      41.016  31.122  30.262  1.00  0.00     0.049 A 
ATOM     45  C   UNL A   1      45.646  29.412  27.615  1.00  0.00     0.074 A 
ATOM     46  C   UNL A   1      41.064  32.372  30.855  1.00  0.00     0.029 A 
ATOM     47  N   UNL A   1      42.247  30.921  29.655  1.00  0.00    -0.354 N 
ATOM     48  N   UNL A   1      44.668  29.928  28.316  1.00  0.00    -0.248 NA
ATOM     49  C   UNL A   1      46.771  30.331  27.384  1.00  0.00     0.031 C 
ATOM     50  C   UNL A   1      42.318  32.936  30.586  1.00  0.00     0.029 A 
ATOM     51  C   UNL A   1      43.053  32.032  29.835  1.00  0.00     0.049 A 
ATOM     52  H   UNL A   1      42.509  30.108  29.166  1.00  0.00     0.167 HD
ATOM     53  C   UNL A   1      45.060  31.226  28.623  1.00  0.00     0.074 A 
ATOM     54  C   UNL A   1      46.381  31.407  28.053  1.00  0.00     0.031 C 
ATOM     55  C   UNL A   1      44.379  32.187  29.294  1.00  0.00     0.034 A 
BRANCH  42  56
ATOM     56  C   UNL A   1      38.629  30.584  30.893  1.00  0.00     0.023 A 
ATOM     57  C   UNL A   1      38.440  30.333  32.266  1.00  0.00     0.012 A 
ATOM     58  C   UNL A   1      37.628  31.257  30.167  1.00  0.00     0.148 A 
ATOM     59  C   UNL A   1      37.261  30.720  32.902  1.00  0.00     0.002 A 
ATOM     60  C   UNL A   1      36.469  31.671  30.816  1.00  0.00     0.091 A 
ATOM     61  F   UNL A   1      37.815  31.465  28.856  1.00  0.00    -0.205 F 
ATOM     62  C   UNL A   1      36.281  31.397  32.180  1.00  0.00     0.022 A 
BRANCH  60  63
ATOM     63  S   UNL A   1      35.182  32.608  29.982  1.00  0.00     0.127 S 
ATOM     64  O   UNL A   1      34.245  32.862  31.075  1.00  0.00    -0.237 OA
ATOM     65  O   UNL A   1      35.907  33.791  29.516  1.00  0.00    -0.237 OA
ATOM     66  O   UNL A   1      34.690  31.745  28.917  1.00  0.00    -0.744 OA
ENDBRANCH  60  63
ENDBRANCH  42  56
BRANCH  43  67
ATOM     67  C   UNL A   1      47.003  27.595  26.327  1.00  0.00     0.023 A 
ATOM     68  C   UNL A   1      47.981  26.859  27.024  1.00  0.00     0.012 A 
ATOM     69  C   UNL A   1      47.189  27.859  24.955  1.00  0.00     0.148 A 
ATOM     70  C   UNL A   1      49.125  26.404  26.369  1.00  0.00     0.002 A 
ATOM     71  C   UNL A   1      48.305  27.356  24.298  1.00  0.00     0.091 A 
ATOM     72  F   UNL A   1      46.258  28.581  24.316  1.00  0.00    -0.205 F 
ATOM     73  C   UNL A   1      49.282  26.639  25.005  1.00  0.00     0.022 A 
BRANCH  71  74
ATOM     74  S   UNL A   1      48.518  27.498  22.519  1.00  0.00     0.127 S 
ATOM     75  O   UNL A   1      48.426  26.104  22.094  1.00  0.00    -0.237 OA
ATOM     76  O   UNL A   1      47.377  28.335  22.141  1.00  0.00    -0.237 OA
ATOM     77  O   UNL A   1      49.815  28.135  22.330  1.00  0.00    -0.744 OA
ENDBRANCH  71  74
ENDBRANCH  43  67
BRANCH  55  78
ATOM     78  C   UNL A   1      45.045  33.530  29.447  1.00  0.00     0.023 A 
ATOM     79  C   UNL A   1      45.896  33.752  30.547  1.00  0.00     0.012 A 
ATOM     80  C   UNL A   1      44.893  34.536  28.473  1.00  0.00     0.148 A 
ATOM     81  C   UNL A   1      46.570  34.965  30.688  1.00  0.00     0.002 A 
ATOM     82  C   UNL A   1      45.600  35.727  28.599  1.00  0.00     0.091 A 
ATOM     83  F   UNL A   1      44.065  34.309  27.443  1.00  0.00    -0.205 F 
ATOM     84  C   UNL A   1      46.431  35.946  29.709  1.00  0.00     0.022 A 
BRANCH  82  85
ATOM     85  S   UNL A   1      45.550  37.016  27.349  1.00  0.00     0.127 S 
ATOM     86  O   UNL A   1      44.111  37.188  27.153  1.00  0.00    -0.237 OA
ATOM     87  O   UNL A   1      46.210  38.132  28.026  1.00  0.00    -0.237 OA
ATOM     88  O   UNL A   1      46.276  36.492  26.200  1.00  0.00    -0.744 OA
ENDBRANCH  82  85
ENDBRANCH  55  78
ENDBRANCH  29  30
ENDBRANCH  22  24
ENDBRANCH  21  22
ENDBRANCH  20  21
ENDBRANCH   1  20
TORSDOF 18
ENDMDL
MODEL 3
REMARK VINA RESULT:      -8.6      6.090     11.559
REMARK SMILES C[C@@H](CC(=O)OCCOC(=O)c1ccc(-c2c3nc(c(-c4cccc(S(=O)(=O)[O-])c4F)c4ccc([nH]4)c(-c4cccc(S(=O)(=O)[O-])c4F)c4nc(c(-c5cccc(S(=O)(=O)[O-])c5F)c5ccc2[nH]5)C=C4)C=C3)cc1)NC(=O)/C=C/c1cccnc1
REMARK SMILES IDX 7 1 6 2 4 3 5 4 3 5 2 6 1 7 75 8 76 9 77 11 78 12 79 13
REMARK SMILES IDX 80 14 81 15 85 16 82 17 84 18 83 19 8 20 9 21 10 22 11 23
REMARK SMILES IDX 12 24 13 25 74 26 14 27 73 28 15 29 16 30 17 31 67 32 18 33
REMARK SMILES IDX 72 34 66 35 68 36 19 37 71 38 65 39 64 40 20 42 52 43 32 44
REMARK SMILES IDX 51 45 33 46 36 47 50 48 69 49 34 50 35 51 49 53 70 54 37 55
REMARK SMILES IDX 21 56 22 57 30 58 23 59 25 60 31 61 24 62 26 63 27 64 28 65
REMARK SMILES IDX 29 66 53 67 54 68 62 69 55 70 57 71 63 72 56 73 58 74 59 75
REMARK SMILES IDX 60 76 61 77 38 78 39 79 47 80 40 81 42 82 48 83 41 84 43 85
REMARK SMILES IDX 44 86 45 87 46 88
REMARK H PARENT 75 10 68 41 36 52
REMARK Flexibility Score: inf
ROOT
ATOM      1  C   UNL A   1      32.764  28.464  25.314  1.00  0.00     0.274 C 
ENDROOT
BRANCH   1   2
ATOM      2  O   UNL A   1      33.853  27.539  25.106  1.00  0.00    -0.462 OA
BRANCH   2   3
ATOM      3  C   UNL A   1      33.725  26.316  25.674  1.00  0.00     0.307 C 
ATOM      4  O   UNL A   1      34.506  25.388  25.503  1.00  0.00    -0.252 OA
BRANCH   3   5
ATOM      5  C   UNL A   1      32.449  26.140  26.464  1.00  0.00     0.147 C 
BRANCH   5   6
ATOM      6  C   UNL A   1      31.494  24.989  26.127  1.00  0.00     0.090 C 
ATOM      7  C   UNL A   1      31.728  23.717  26.938  1.00  0.00     0.031 C 
BRANCH   6   8
ATOM      8  N   UNL A   1      31.452  24.691  24.698  1.00  0.00    -0.350 N 
ATOM      9  C   UNL A   1      30.809  25.298  23.665  1.00  0.00     0.244 C 
ATOM     10  H   UNL A   1      31.986  23.907  24.435  1.00  0.00     0.164 HD
ATOM     11  O   UNL A   1      30.785  24.787  22.548  1.00  0.00    -0.270 OA
BRANCH   9  12
ATOM     12  C   UNL A   1      30.039  26.534  23.896  1.00  0.00     0.072 C 
ATOM     13  C   UNL A   1      29.947  27.522  22.993  1.00  0.00     0.015 C 
BRANCH  13  14
ATOM     14  C   UNL A   1      29.189  28.769  23.181  1.00  0.00    -0.007 A 
ATOM     15  C   UNL A   1      29.774  30.005  23.477  1.00  0.00     0.011 A 
ATOM     16  C   UNL A   1      27.800  28.760  23.044  1.00  0.00     0.119 A 
ATOM     17  C   UNL A   1      28.981  31.144  23.609  1.00  0.00     0.021 A 
ATOM     18  N   UNL A   1      27.003  29.852  23.154  1.00  0.00    -0.264 NA
ATOM     19  C   UNL A   1      27.614  31.019  23.440  1.00  0.00     0.111 A 
ENDBRANCH  13  14
ENDBRANCH   9  12
ENDBRANCH   6   8
ENDBRANCH   5   6
ENDBRANCH   3   5
ENDBRANCH   2   3
ENDBRANCH   1   2
BRANCH   1  20
ATOM     20  C   UNL A   1      33.265  29.868  25.654  1.00  0.00     0.275 C 
BRANCH  20  21
ATOM     21  O   UNL A   1      32.968  30.222  27.015  1.00  0.00    -0.458 OA
BRANCH  21  22
ATOM     22  C   UNL A   1      33.578  31.342  27.459  1.00  0.00     0.338 C 
ATOM     23  O   UNL A   1      33.087  32.463  27.521  1.00  0.00    -0.246 OA
BRANCH  22  24
ATOM     24  C   UNL A   1      34.893  31.003  28.010  1.00  0.00     0.060 A 
ATOM     25  C   UNL A   1      35.902  31.971  27.999  1.00  0.00     0.016 A 
ATOM     26  C   UNL A   1      35.141  29.722  28.505  1.00  0.00     0.016 A 
ATOM     27  C   UNL A   1      37.162  31.669  28.505  1.00  0.00     0.010 A 
ATOM     28  C   UNL A   1      36.402  29.428  29.030  1.00  0.00     0.010 A 
ATOM     29  C   UNL A   1      37.417  30.400  29.041  1.00  0.00    -0.014 A 
BRANCH  29  30
ATOM     30  C   UNL A   1      38.723  30.095  29.672  1.00  0.00     0.031 A 
ATOM     31  C   UNL A   1      39.649  29.087  29.058  1.00  0.00     0.074 A 
ATOM     32  C   UNL A   1      39.038  30.683  30.842  1.00  0.00     0.049 A 
ATOM     33  N   UNL A   1      40.757  28.586  29.540  1.00  0.00    -0.248 NA
ATOM     34  C   UNL A   1      39.278  28.570  27.732  1.00  0.00     0.031 C 
ATOM     35  C   UNL A   1      38.216  31.679  31.531  1.00  0.00     0.029 A 
ATOM     36  N   UNL A   1      40.113  30.501  31.676  1.00  0.00    -0.354 N 
ATOM     37  C   UNL A   1      41.198  27.666  28.599  1.00  0.00     0.074 A 
ATOM     38  C   UNL A   1      40.237  27.679  27.514  1.00  0.00     0.031 C 
ATOM     39  C   UNL A   1      38.804  32.003  32.694  1.00  0.00     0.029 A 
ATOM     40  C   UNL A   1      40.014  31.203  32.854  1.00  0.00     0.049 A 
ATOM     41  H   UNL A   1      40.880  29.925  31.453  1.00  0.00     0.167 HD
ATOM     42  C   UNL A   1      42.310  26.893  28.631  1.00  0.00     0.034 A 
ATOM     43  C   UNL A   1      40.786  31.176  33.958  1.00  0.00     0.034 A 
ATOM     44  C   UNL A   1      43.277  26.911  29.697  1.00  0.00     0.049 A 
ATOM     45  C   UNL A   1      41.986  30.272  33.988  1.00  0.00     0.074 A 
ATOM     46  C   UNL A   1      44.471  26.219  29.787  1.00  0.00     0.029 A 
ATOM     47  N   UNL A   1      43.156  27.651  30.864  1.00  0.00    -0.354 N 
ATOM     48  N   UNL A   1      42.454  29.492  33.045  1.00  0.00    -0.248 NA
ATOM     49  C   UNL A   1      42.772  30.250  35.231  1.00  0.00     0.031 C 
ATOM     50  C   UNL A   1      45.062  26.523  31.020  1.00  0.00     0.029 A 
ATOM     51  C   UNL A   1      44.239  27.412  31.692  1.00  0.00     0.049 A 
ATOM     52  H   UNL A   1      42.408  28.256  31.073  1.00  0.00     0.167 HD
ATOM     53  C   UNL A   1      43.594  28.897  33.571  1.00  0.00     0.074 A 
ATOM     54  C   UNL A   1      43.762  29.430  34.909  1.00  0.00     0.031 C 
ATOM     55  C   UNL A   1      44.414  27.976  33.007  1.00  0.00     0.034 A 
BRANCH  42  56
ATOM     56  C   UNL A   1      42.561  25.983  27.459  1.00  0.00     0.023 A 
ATOM     57  C   UNL A   1      43.313  26.455  26.365  1.00  0.00     0.012 A 
ATOM     58  C   UNL A   1      42.106  24.650  27.463  1.00  0.00     0.148 A 
ATOM     59  C   UNL A   1      43.585  25.623  25.279  1.00  0.00     0.002 A 
ATOM     60  C   UNL A   1      42.411  23.816  26.393  1.00  0.00     0.091 A 
ATOM     61  F   UNL A   1      41.371  24.226  28.501  1.00  0.00    -0.205 F 
ATOM     62  C   UNL A   1      43.143  24.302  25.298  1.00  0.00     0.022 A 
BRANCH  60  63
ATOM     63  S   UNL A   1      41.941  22.081  26.360  1.00  0.00     0.127 S 
ATOM     64  O   UNL A   1      42.680  21.596  25.196  1.00  0.00    -0.237 OA
ATOM     65  O   UNL A   1      42.444  21.596  27.646  1.00  0.00    -0.237 OA
ATOM     66  O   UNL A   1      40.490  22.067  26.236  1.00  0.00    -0.744 OA
ENDBRANCH  60  63
ENDBRANCH  42  56
BRANCH  43  67
ATOM     67  C   UNL A   1      40.448  32.051  35.115  1.00  0.00     0.023 A 
ATOM     68  C   UNL A   1      41.188  33.230  35.325  1.00  0.00     0.012 A 
ATOM     69  C   UNL A   1      39.370  31.753  35.973  1.00  0.00     0.148 A 
ATOM     70  C   UNL A   1      40.867  34.090  36.375  1.00  0.00     0.002 A 
ATOM     71  C   UNL A   1      39.023  32.641  36.984  1.00  0.00     0.091 A 
ATOM     72  F   UNL A   1      38.694  30.613  35.771  1.00  0.00    -0.205 F 
ATOM     73  C   UNL A   1      39.778  33.804  37.195  1.00  0.00     0.022 A 
BRANCH  71  74
ATOM     74  S   UNL A   1      37.557  32.418  37.999  1.00  0.00     0.127 S 
ATOM     75  O   UNL A   1      37.911  33.161  39.204  1.00  0.00    -0.237 OA
ATOM     76  O   UNL A   1      36.518  33.038  37.174  1.00  0.00    -0.237 OA
ATOM     77  O   UNL A   1      37.409  30.977  38.161  1.00  0.00    -0.744 OA
ENDBRANCH  71  74
ENDBRANCH  43  67
BRANCH  55  78
ATOM     78  C   UNL A   1      45.568  27.475  33.835  1.00  0.00     0.023 A 
ATOM     79  C   UNL A   1      46.742  28.249  33.915  1.00  0.00     0.012 A 
ATOM     80  C   UNL A   1      45.466  26.290  34.589  1.00  0.00     0.148 A 
ATOM     81  C   UNL A   1      47.807  27.840  34.717  1.00  0.00     0.002 A 
ATOM     82  C   UNL A   1      46.516  25.909  35.417  1.00  0.00     0.091 A 
ATOM     83  F   UNL A   1      44.346  25.560  34.485  1.00  0.00    -0.205 F 
ATOM     84  C   UNL A   1      47.690  26.679  35.476  1.00  0.00     0.022 A 
BRANCH  82  85
ATOM     85  S   UNL A   1      46.426  24.474  36.495  1.00  0.00     0.127 S 
ATOM     86  O   UNL A   1      46.321  23.382  35.528  1.00  0.00    -0.237 OA
ATOM     87  O   UNL A   1      47.703  24.538  37.206  1.00  0.00    -0.237 OA
ATOM     88  O   UNL A   1      45.255  24.676  37.337  1.00  0.00    -0.744 OA
ENDBRANCH  82  85
ENDBRANCH  55  78
ENDBRANCH  29  30
ENDBRANCH  22  24
ENDBRANCH  21  22
ENDBRANCH  20  21
ENDBRANCH   1  20
TORSDOF 18
ENDMDL
