MODEL 1
REMARK VINA RESULT:     -12.2      0.000      0.000
REMARK SMILES O=C(OCCOC(=O)[C@H]1CC[C@@H]2CCCC[C@H]2N1C(=O)N1CCSCC1)c1ccc(-c2c3nc(c(-c4cccc(S(=O)(=O)[O-])c4F)c4ccc([nH]4)c(-c4cccc(S(=O)(=O)[O-])c4F)c4nc(c(-c5cccc(S(=O)(=O)[O-])c5F)c5ccc2[nH]5)C=C4)C=C3)cc1
REMARK SMILES IDX 4 1 3 2 2 3 1 4 27 5 28 6 89 7 29 8 88 9 30 10 31 11 32 12
REMARK SMILES IDX 82 13 33 14 87 15 81 16 83 17 34 18 86 19 80 20 79 21 35 23
REMARK SMILES IDX 67 24 47 25 66 26 48 27 51 28 65 29 84 30 49 31 50 32 64 34
REMARK SMILES IDX 85 35 52 36 36 37 37 38 45 39 38 40 40 41 46 42 39 43 41 44
REMARK SMILES IDX 42 45 43 46 44 47 68 48 69 49 77 50 70 51 72 52 78 53 71 54
REMARK SMILES IDX 73 55 74 56 75 57 76 58 53 59 54 60 62 61 55 62 57 63 63 64
REMARK SMILES IDX 56 65 58 66 59 67 60 68 61 69 5 70 6 71 7 72 8 73 9 74 10 75
REMARK SMILES IDX 18 76 11 77 17 78 12 79 16 80 13 81 15 82 14 83 19 84 20 85
REMARK SMILES IDX 21 86 22 87 26 88 23 89 25 90 24 91
REMARK H PARENT 83 22 51 33
REMARK Flexibility Score: inf
ROOT
ATOM      1  C   UNL A   1      31.928  30.021  26.961  1.00  0.00     0.275 C 
ENDROOT
BRANCH   1   2
ATOM      2  O   UNL A   1      32.954  31.014  26.705  1.00  0.00    -0.458 OA
BRANCH   2   3
ATOM      3  C   UNL A   1      33.731  31.740  27.552  1.00  0.00     0.338 C 
ATOM      4  O   UNL A   1      33.356  32.856  27.903  1.00  0.00    -0.246 OA
BRANCH   3   5
ATOM      5  C   UNL A   1      35.066  31.265  28.012  1.00  0.00     0.060 A 
ATOM      6  C   UNL A   1      35.342  29.925  28.286  1.00  0.00     0.016 A 
ATOM      7  C   UNL A   1      36.096  32.215  28.163  1.00  0.00     0.016 A 
ATOM      8  C   UNL A   1      36.633  29.511  28.576  1.00  0.00     0.010 A 
ATOM      9  C   UNL A   1      37.388  31.814  28.521  1.00  0.00     0.010 A 
ATOM     10  C   UNL A   1      37.650  30.454  28.729  1.00  0.00    -0.014 A 
BRANCH  10  11
ATOM     11  C   UNL A   1      38.862  29.978  29.419  1.00  0.00     0.031 A 
ATOM     12  C   UNL A   1      39.016  30.392  30.850  1.00  0.00     0.074 A 
ATOM     13  C   UNL A   1      39.672  29.071  28.850  1.00  0.00     0.049 A 
ATOM     14  N   UNL A   1      39.856  29.961  31.744  1.00  0.00    -0.248 NA
ATOM     15  C   UNL A   1      38.047  31.383  31.352  1.00  0.00     0.031 C 
ATOM     16  C   UNL A   1      39.514  28.543  27.498  1.00  0.00     0.029 A 
ATOM     17  N   UNL A   1      40.778  28.425  29.329  1.00  0.00    -0.354 N 
ATOM     18  C   UNL A   1      39.519  30.626  32.915  1.00  0.00     0.074 A 
ATOM     19  C   UNL A   1      38.401  31.490  32.621  1.00  0.00     0.031 C 
ATOM     20  C   UNL A   1      40.523  27.700  27.227  1.00  0.00     0.029 A 
ATOM     21  C   UNL A   1      41.393  27.625  28.396  1.00  0.00     0.049 A 
ATOM     22  H   UNL A   1      41.103  28.525  30.254  1.00  0.00     0.167 HD
ATOM     23  C   UNL A   1      40.095  30.516  34.131  1.00  0.00     0.034 A 
ATOM     24  C   UNL A   1      42.542  26.925  28.483  1.00  0.00     0.034 A 
ATOM     25  C   UNL A   1      41.239  29.687  34.372  1.00  0.00     0.049 A 
ATOM     26  C   UNL A   1      43.228  26.893  29.821  1.00  0.00     0.074 A 
ATOM     27  C   UNL A   1      41.952  29.517  35.542  1.00  0.00     0.029 A 
ATOM     28  N   UNL A   1      41.861  28.915  33.399  1.00  0.00    -0.354 N 
ATOM     29  N   UNL A   1      42.859  27.467  30.943  1.00  0.00    -0.248 NA
ATOM     30  C   UNL A   1      44.451  26.089  29.929  1.00  0.00     0.031 C 
ATOM     31  C   UNL A   1      43.036  28.678  35.260  1.00  0.00     0.029 A 
ATOM     32  C   UNL A   1      42.968  28.286  33.929  1.00  0.00     0.049 A 
ATOM     33  H   UNL A   1      41.557  28.831  32.466  1.00  0.00     0.167 HD
ATOM     34  C   UNL A   1      43.783  27.072  31.899  1.00  0.00     0.074 A 
ATOM     35  C   UNL A   1      44.724  26.197  31.223  1.00  0.00     0.031 C 
ATOM     36  C   UNL A   1      43.857  27.401  33.214  1.00  0.00     0.034 A 
BRANCH  23  37
ATOM     37  C   UNL A   1      39.520  31.366  35.229  1.00  0.00     0.023 A 
ATOM     38  C   UNL A   1      38.480  30.869  36.045  1.00  0.00     0.012 A 
ATOM     39  C   UNL A   1      39.957  32.693  35.399  1.00  0.00     0.148 A 
ATOM     40  C   UNL A   1      37.852  31.696  36.977  1.00  0.00     0.002 A 
ATOM     41  C   UNL A   1      39.357  33.496  36.361  1.00  0.00     0.091 A 
ATOM     42  F   UNL A   1      40.918  33.156  34.589  1.00  0.00    -0.205 F 
ATOM     43  C   UNL A   1      38.294  33.006  37.138  1.00  0.00     0.022 A 
BRANCH  41  44
ATOM     44  S   UNL A   1      39.888  35.181  36.676  1.00  0.00     0.127 S 
ATOM     45  O   UNL A   1      39.383  35.877  35.493  1.00  0.00    -0.237 OA
ATOM     46  O   UNL A   1      39.179  35.495  37.917  1.00  0.00    -0.237 OA
ATOM     47  O   UNL A   1      41.337  35.130  36.799  1.00  0.00    -0.744 OA
ENDBRANCH  41  44
ENDBRANCH  23  37
BRANCH  24  48
ATOM     48  C   UNL A   1      43.078  26.220  27.284  1.00  0.00     0.023 A 
ATOM     49  C   UNL A   1      44.009  26.847  26.435  1.00  0.00     0.012 A 
ATOM     50  C   UNL A   1      42.697  24.887  27.015  1.00  0.00     0.148 A 
ATOM     51  C   UNL A   1      44.538  26.165  25.335  1.00  0.00     0.002 A 
ATOM     52  C   UNL A   1      43.266  24.200  25.949  1.00  0.00     0.091 A 
ATOM     53  F   UNL A   1      41.796  24.311  27.823  1.00  0.00    -0.205 F 
ATOM     54  C   UNL A   1      44.177  24.841  25.099  1.00  0.00     0.022 A 
BRANCH  52  55
ATOM     55  S   UNL A   1      42.949  22.455  25.653  1.00  0.00     0.127 S 
ATOM     56  O   UNL A   1      43.589  22.251  24.356  1.00  0.00    -0.237 OA
ATOM     57  O   UNL A   1      43.635  21.828  26.784  1.00  0.00    -0.237 OA
ATOM     58  O   UNL A   1      41.500  22.308  25.675  1.00  0.00    -0.744 OA
ENDBRANCH  52  55
ENDBRANCH  24  48
BRANCH  36  59
ATOM     59  C   UNL A   1      44.974  26.792  34.011  1.00  0.00     0.023 A 
ATOM     60  C   UNL A   1      46.222  27.441  34.080  1.00  0.00     0.012 A 
ATOM     61  C   UNL A   1      44.741  25.637  34.779  1.00  0.00     0.148 A 
ATOM     62  C   UNL A   1      47.232  26.932  34.892  1.00  0.00     0.002 A 
ATOM     63  C   UNL A   1      45.732  25.170  35.629  1.00  0.00     0.091 A 
ATOM     64  F   UNL A   1      43.549  25.031  34.677  1.00  0.00    -0.205 F 
ATOM     65  C   UNL A   1      46.982  25.808  35.677  1.00  0.00     0.022 A 
BRANCH  63  66
ATOM     66  S   UNL A   1      45.456  23.803  36.759  1.00  0.00     0.127 S 
ATOM     67  O   UNL A   1      44.564  24.410  37.746  1.00  0.00    -0.237 OA
ATOM     68  O   UNL A   1      44.823  22.810  35.891  1.00  0.00    -0.237 OA
ATOM     69  O   UNL A   1      46.770  23.421  37.257  1.00  0.00    -0.744 OA
ENDBRANCH  63  66
ENDBRANCH  36  59
ENDBRANCH  10  11
ENDBRANCH   3   5
ENDBRANCH   2   3
ENDBRANCH   1   2
BRANCH   1  70
ATOM     70  C   UNL A   1      31.771  28.900  25.918  1.00  0.00     0.274 C 
BRANCH  70  71
ATOM     71  O   UNL A   1      32.940  28.083  25.905  1.00  0.00    -0.461 OA
BRANCH  71  72
ATOM     72  C   UNL A   1      33.619  27.884  24.744  1.00  0.00     0.329 C 
ATOM     73  O   UNL A   1      34.056  28.777  24.027  1.00  0.00    -0.250 OA
BRANCH  72  74
ATOM     74  C   UNL A   1      33.680  26.366  24.487  1.00  0.00     0.197 C 
ATOM     75  C   UNL A   1      34.027  25.745  25.844  1.00  0.00     0.038 C 
ATOM     76  N   UNL A   1      32.619  25.587  23.796  1.00  0.00    -0.308 N 
ATOM     77  C   UNL A   1      34.509  24.318  25.662  1.00  0.00     0.008 C 
ATOM     78  C   UNL A   1      32.990  24.135  23.629  1.00  0.00     0.091 C 
ATOM     79  C   UNL A   1      33.405  23.508  24.990  1.00  0.00     0.012 C 
ATOM     80  C   UNL A   1      31.931  23.224  22.960  1.00  0.00     0.025 C 
ATOM     81  C   UNL A   1      33.858  22.049  24.858  1.00  0.00     0.006 C 
ATOM     82  C   UNL A   1      32.366  21.757  22.883  1.00  0.00     0.002 C 
ATOM     83  C   UNL A   1      32.760  21.200  24.239  1.00  0.00     0.000 C 
BRANCH  76  84
ATOM     84  C   UNL A   1      31.958  26.221  22.736  1.00  0.00     0.321 C 
ATOM     85  O   UNL A   1      32.363  26.238  21.576  1.00  0.00    -0.248 OA
ATOM     86  N   UNL A   1      30.772  26.879  23.063  1.00  0.00    -0.323 N 
ATOM     87  C   UNL A   1      29.612  26.045  23.403  1.00  0.00     0.132 C 
ATOM     88  C   UNL A   1      30.491  28.068  22.258  1.00  0.00     0.132 C 
ATOM     89  C   UNL A   1      28.439  26.778  24.064  1.00  0.00     0.091 C 
ATOM     90  C   UNL A   1      29.470  29.012  22.877  1.00  0.00     0.091 C 
ATOM     91  S   UNL A   1      27.854  28.214  23.100  1.00  0.00    -0.158 SA
ENDBRANCH  76  84
ENDBRANCH  72  74
ENDBRANCH  71  72
ENDBRANCH  70  71
ENDBRANCH   1  70
TORSDOF 15
ENDMDL
MODEL 2
REMARK VINA RESULT:     -12.1      1.224      1.487
REMARK SMILES O=C(OCCOC(=O)[C@H]1CC[C@@H]2CCCC[C@H]2N1C(=O)N1CCSCC1)c1ccc(-c2c3nc(c(-c4cccc(S(=O)(=O)[O-])c4F)c4ccc([nH]4)c(-c4cccc(S(=O)(=O)[O-])c4F)c4nc(c(-c5cccc(S(=O)(=O)[O-])c5F)c5ccc2[nH]5)C=C4)C=C3)cc1
REMARK SMILES IDX 4 1 3 2 2 3 1 4 27 5 28 6 89 7 29 8 88 9 30 10 31 11 32 12
REMARK SMILES IDX 82 13 33 14 87 15 81 16 83 17 34 18 86 19 80 20 79 21 35 23
REMARK SMILES IDX 67 24 47 25 66 26 48 27 51 28 65 29 84 30 49 31 50 32 64 34
REMARK SMILES IDX 85 35 52 36 36 37 37 38 45 39 38 40 40 41 46 42 39 43 41 44
REMARK SMILES IDX 42 45 43 46 44 47 68 48 69 49 77 50 70 51 72 52 78 53 71 54
REMARK SMILES IDX 73 55 74 56 75 57 76 58 53 59 54 60 62 61 55 62 57 63 63 64
REMARK SMILES IDX 56 65 58 66 59 67 60 68 61 69 5 70 6 71 7 72 8 73 9 74 10 75
REMARK SMILES IDX 18 76 11 77 17 78 12 79 16 80 13 81 15 82 14 83 19 84 20 85
REMARK SMILES IDX 21 86 22 87 26 88 23 89 25 90 24 91
REMARK H PARENT 83 22 51 33
REMARK Flexibility Score: inf
ROOT
ATOM      1  C   UNL A   1      32.005  29.686  27.096  1.00  0.00     0.275 C 
ENDROOT
BRANCH   1   2
ATOM      2  O   UNL A   1      32.622  30.955  26.757  1.00  0.00    -0.458 OA
BRANCH   2   3
ATOM      3  C   UNL A   1      33.444  31.771  27.468  1.00  0.00     0.338 C 
ATOM      4  O   UNL A   1      33.108  32.934  27.671  1.00  0.00    -0.246 OA
BRANCH   3   5
ATOM      5  C   UNL A   1      34.784  31.329  27.947  1.00  0.00     0.060 A 
ATOM      6  C   UNL A   1      35.075  30.003  28.269  1.00  0.00     0.016 A 
ATOM      7  C   UNL A   1      35.803  32.295  28.064  1.00  0.00     0.016 A 
ATOM      8  C   UNL A   1      36.371  29.614  28.575  1.00  0.00     0.010 A 
ATOM      9  C   UNL A   1      37.099  31.923  28.439  1.00  0.00     0.010 A 
ATOM     10  C   UNL A   1      37.376  30.575  28.696  1.00  0.00    -0.014 A 
BRANCH  10  11
ATOM     11  C   UNL A   1      38.592  30.138  29.404  1.00  0.00     0.031 A 
ATOM     12  C   UNL A   1      38.772  30.659  30.796  1.00  0.00     0.074 A 
ATOM     13  C   UNL A   1      39.384  29.179  28.897  1.00  0.00     0.049 A 
ATOM     14  N   UNL A   1      39.620  30.289  31.710  1.00  0.00    -0.248 NA
ATOM     15  C   UNL A   1      37.822  31.700  31.233  1.00  0.00     0.031 C 
ATOM     16  C   UNL A   1      39.199  28.550  27.592  1.00  0.00     0.029 A 
ATOM     17  N   UNL A   1      40.488  28.558  29.409  1.00  0.00    -0.354 N 
ATOM     18  C   UNL A   1      39.308  31.047  32.830  1.00  0.00     0.074 A 
ATOM     19  C   UNL A   1      38.196  31.900  32.485  1.00  0.00     0.031 C 
ATOM     20  C   UNL A   1      40.194  27.676  27.374  1.00  0.00     0.029 A 
ATOM     21  C   UNL A   1      41.080  27.680  28.533  1.00  0.00     0.049 A 
ATOM     22  H   UNL A   1      40.828  28.726  30.319  1.00  0.00     0.167 HD
ATOM     23  C   UNL A   1      39.901  31.024  34.043  1.00  0.00     0.034 A 
ATOM     24  C   UNL A   1      42.222  26.974  28.658  1.00  0.00     0.034 A 
ATOM     25  C   UNL A   1      41.039  30.202  34.332  1.00  0.00     0.049 A 
ATOM     26  C   UNL A   1      42.927  27.037  29.985  1.00  0.00     0.074 A 
ATOM     27  C   UNL A   1      41.767  30.115  35.501  1.00  0.00     0.029 A 
ATOM     28  N   UNL A   1      41.637  29.349  33.413  1.00  0.00    -0.354 N 
ATOM     29  N   UNL A   1      42.582  27.702  31.064  1.00  0.00    -0.248 NA
ATOM     30  C   UNL A   1      44.142  26.228  30.138  1.00  0.00     0.031 C 
ATOM     31  C   UNL A   1      42.836  29.242  35.271  1.00  0.00     0.029 A 
ATOM     32  C   UNL A   1      42.745  28.749  33.975  1.00  0.00     0.049 A 
ATOM     33  H   UNL A   1      41.318  29.196  32.494  1.00  0.00     0.167 HD
ATOM     34  C   UNL A   1      43.515  27.370  32.035  1.00  0.00     0.074 A 
ATOM     35  C   UNL A   1      44.435  26.433  31.416  1.00  0.00     0.031 C 
ATOM     36  C   UNL A   1      43.612  27.799  33.319  1.00  0.00     0.034 A 
BRANCH  23  37
ATOM     37  C   UNL A   1      39.352  31.965  35.079  1.00  0.00     0.023 A 
ATOM     38  C   UNL A   1      39.599  33.352  34.983  1.00  0.00     0.012 A 
ATOM     39  C   UNL A   1      38.657  31.463  36.194  1.00  0.00     0.148 A 
ATOM     40  C   UNL A   1      39.206  34.215  36.007  1.00  0.00     0.002 A 
ATOM     41  C   UNL A   1      38.230  32.334  37.188  1.00  0.00     0.091 A 
ATOM     42  F   UNL A   1      38.467  30.139  36.284  1.00  0.00    -0.205 F 
ATOM     43  C   UNL A   1      38.519  33.707  37.105  1.00  0.00     0.022 A 
BRANCH  41  44
ATOM     44  S   UNL A   1      37.295  31.782  38.617  1.00  0.00     0.127 S 
ATOM     45  O   UNL A   1      38.270  31.957  39.693  1.00  0.00    -0.237 OA
ATOM     46  O   UNL A   1      36.185  32.736  38.639  1.00  0.00    -0.237 OA
ATOM     47  O   UNL A   1      36.910  30.406  38.340  1.00  0.00    -0.744 OA
ENDBRANCH  41  44
ENDBRANCH  23  37
BRANCH  24  48
ATOM     48  C   UNL A   1      42.731  26.171  27.510  1.00  0.00     0.023 A 
ATOM     49  C   UNL A   1      43.679  26.708  26.620  1.00  0.00     0.012 A 
ATOM     50  C   UNL A   1      42.309  24.836  27.335  1.00  0.00     0.148 A 
ATOM     51  C   UNL A   1      44.184  25.935  25.569  1.00  0.00     0.002 A 
ATOM     52  C   UNL A   1      42.852  24.058  26.319  1.00  0.00     0.091 A 
ATOM     53  F   UNL A   1      41.393  24.345  28.182  1.00  0.00    -0.205 F 
ATOM     54  C   UNL A   1      43.780  24.610  25.425  1.00  0.00     0.022 A 
BRANCH  52  55
ATOM     55  S   UNL A   1      42.480  22.308  26.145  1.00  0.00     0.127 S 
ATOM     56  O   UNL A   1      42.914  21.780  27.436  1.00  0.00    -0.237 OA
ATOM     57  O   UNL A   1      41.031  22.327  25.942  1.00  0.00    -0.237 OA
ATOM     58  O   UNL A   1      43.241  21.857  24.987  1.00  0.00    -0.744 OA
ENDBRANCH  52  55
ENDBRANCH  24  48
BRANCH  36  59
ATOM     59  C   UNL A   1      44.734  27.240  34.145  1.00  0.00     0.023 A 
ATOM     60  C   UNL A   1      45.966  27.917  34.206  1.00  0.00     0.012 A 
ATOM     61  C   UNL A   1      44.517  26.105  34.948  1.00  0.00     0.148 A 
ATOM     62  C   UNL A   1      46.979  27.456  35.044  1.00  0.00     0.002 A 
ATOM     63  C   UNL A   1      45.508  25.686  35.822  1.00  0.00     0.091 A 
ATOM     64  F   UNL A   1      43.339  25.470  34.853  1.00  0.00    -0.205 F 
ATOM     65  C   UNL A   1      46.745  26.352  35.861  1.00  0.00     0.022 A 
BRANCH  63  66
ATOM     66  S   UNL A   1      45.250  24.350  36.992  1.00  0.00     0.127 S 
ATOM     67  O   UNL A   1      44.145  24.869  37.795  1.00  0.00    -0.237 OA
ATOM     68  O   UNL A   1      44.896  23.236  36.112  1.00  0.00    -0.237 OA
ATOM     69  O   UNL A   1      46.512  24.184  37.699  1.00  0.00    -0.744 OA
ENDBRANCH  63  66
ENDBRANCH  36  59
ENDBRANCH  10  11
ENDBRANCH   3   5
ENDBRANCH   2   3
ENDBRANCH   1   2
BRANCH   1  70
ATOM     70  C   UNL A   1      31.824  28.675  25.950  1.00  0.00     0.274 C 
BRANCH  70  71
ATOM     71  O   UNL A   1      32.900  27.740  25.955  1.00  0.00    -0.461 OA
BRANCH  71  72
ATOM     72  C   UNL A   1      33.638  27.546  24.828  1.00  0.00     0.329 C 
ATOM     73  O   UNL A   1      34.139  28.440  24.157  1.00  0.00    -0.250 OA
BRANCH  72  74
ATOM     74  C   UNL A   1      33.671  26.032  24.541  1.00  0.00     0.197 C 
ATOM     75  C   UNL A   1      33.980  25.376  25.891  1.00  0.00     0.038 C 
ATOM     76  N   UNL A   1      32.605  25.291  23.816  1.00  0.00    -0.308 N 
ATOM     77  C   UNL A   1      34.435  23.944  25.687  1.00  0.00     0.008 C 
ATOM     78  C   UNL A   1      32.949  23.834  23.625  1.00  0.00     0.091 C 
ATOM     79  C   UNL A   1      33.326  23.172  24.980  1.00  0.00     0.012 C 
ATOM     80  C   UNL A   1      31.883  22.961  22.919  1.00  0.00     0.025 C 
ATOM     81  C   UNL A   1      33.750  21.706  24.825  1.00  0.00     0.006 C 
ATOM     82  C   UNL A   1      32.288  21.486  22.819  1.00  0.00     0.002 C 
ATOM     83  C   UNL A   1      32.645  20.894  24.170  1.00  0.00     0.000 C 
BRANCH  76  84
ATOM     84  C   UNL A   1      31.977  25.960  22.758  1.00  0.00     0.321 C 
ATOM     85  O   UNL A   1      32.383  25.961  21.598  1.00  0.00    -0.248 OA
ATOM     86  N   UNL A   1      30.825  26.675  23.088  1.00  0.00    -0.323 N 
ATOM     87  C   UNL A   1      29.626  25.897  23.423  1.00  0.00     0.132 C 
ATOM     88  C   UNL A   1      30.604  27.879  22.286  1.00  0.00     0.132 C 
ATOM     89  C   UNL A   1      28.489  26.685  24.087  1.00  0.00     0.091 C 
ATOM     90  C   UNL A   1      29.630  28.870  22.909  1.00  0.00     0.091 C 
ATOM     91  S   UNL A   1      27.977  28.151  23.128  1.00  0.00    -0.158 SA
ENDBRANCH  76  84
ENDBRANCH  72  74
ENDBRANCH  71  72
ENDBRANCH  70  71
ENDBRANCH   1  70
TORSDOF 15
ENDMDL
MODEL 3
REMARK VINA RESULT:     -11.4      5.396     10.477
REMARK SMILES O=C(OCCOC(=O)[C@H]1CC[C@@H]2CCCC[C@H]2N1C(=O)N1CCSCC1)c1ccc(-c2c3nc(c(-c4cccc(S(=O)(=O)[O-])c4F)c4ccc([nH]4)c(-c4cccc(S(=O)(=O)[O-])c4F)c4nc(c(-c5cccc(S(=O)(=O)[O-])c5F)c5ccc2[nH]5)C=C4)C=C3)cc1
REMARK SMILES IDX 4 1 3 2 2 3 1 4 27 5 28 6 89 7 29 8 88 9 30 10 31 11 32 12
REMARK SMILES IDX 82 13 33 14 87 15 81 16 83 17 34 18 86 19 80 20 79 21 35 23
REMARK SMILES IDX 67 24 47 25 66 26 48 27 51 28 65 29 84 30 49 31 50 32 64 34
REMARK SMILES IDX 85 35 52 36 36 37 37 38 45 39 38 40 40 41 46 42 39 43 41 44
REMARK SMILES IDX 42 45 43 46 44 47 68 48 69 49 77 50 70 51 72 52 78 53 71 54
REMARK SMILES IDX 73 55 74 56 75 57 76 58 53 59 54 60 62 61 55 62 57 63 63 64
REMARK SMILES IDX 56 65 58 66 59 67 60 68 61 69 5 70 6 71 7 72 8 73 9 74 10 75
REMARK SMILES IDX 18 76 11 77 17 78 12 79 16 80 13 81 15 82 14 83 19 84 20 85
REMARK SMILES IDX 21 86 22 87 26 88 23 89 25 90 24 91
REMARK H PARENT 83 22 51 33
REMARK Flexibility Score: inf
ROOT
ATOM      1  C   UNL A   1      38.670  20.172  25.382  1.00  0.00     0.275 C 
ENDROOT
BRANCH   1   2
ATOM      2  O   UNL A   1      39.759  19.559  26.119  1.00  0.00    -0.458 OA
BRANCH   2   3
ATOM      3  C   UNL A   1      41.095  19.811  26.119  1.00  0.00     0.338 C 
ATOM      4  O   UNL A   1      41.877  18.907  25.838  1.00  0.00    -0.246 OA
BRANCH   3   5
ATOM      5  C   UNL A   1      41.656  21.129  26.529  1.00  0.00     0.060 A 
ATOM      6  C   UNL A   1      41.849  21.490  27.863  1.00  0.00     0.016 A 
ATOM      7  C   UNL A   1      42.019  22.043  25.519  1.00  0.00     0.016 A 
ATOM      8  C   UNL A   1      42.503  22.668  28.192  1.00  0.00     0.010 A 
ATOM      9  C   UNL A   1      42.618  23.265  25.846  1.00  0.00     0.010 A 
ATOM     10  C   UNL A   1      42.856  23.573  27.190  1.00  0.00    -0.014 A 
BRANCH  10  11
ATOM     11  C   UNL A   1      43.165  24.939  27.646  1.00  0.00     0.031 A 
ATOM     12  C   UNL A   1      44.561  25.422  27.395  1.00  0.00     0.074 A 
ATOM     13  C   UNL A   1      42.196  25.762  28.081  1.00  0.00     0.049 A 
ATOM     14  N   UNL A   1      45.046  26.624  27.500  1.00  0.00    -0.248 NA
ATOM     15  C   UNL A   1      45.521  24.418  26.902  1.00  0.00     0.031 C 
ATOM     16  C   UNL A   1      40.795  25.386  28.243  1.00  0.00     0.029 A 
ATOM     17  N   UNL A   1      42.232  27.075  28.457  1.00  0.00    -0.354 N 
ATOM     18  C   UNL A   1      46.367  26.524  27.084  1.00  0.00     0.074 A 
ATOM     19  C   UNL A   1      46.610  25.147  26.728  1.00  0.00     0.031 C 
ATOM     20  C   UNL A   1      40.110  26.425  28.746  1.00  0.00     0.029 A 
ATOM     21  C   UNL A   1      41.029  27.542  28.933  1.00  0.00     0.049 A 
ATOM     22  H   UNL A   1      43.041  27.633  28.393  1.00  0.00     0.167 HD
ATOM     23  C   UNL A   1      47.292  27.504  27.004  1.00  0.00     0.034 A 
ATOM     24  C   UNL A   1      40.721  28.738  29.472  1.00  0.00     0.034 A 
ATOM     25  C   UNL A   1      47.028  28.851  27.419  1.00  0.00     0.049 A 
ATOM     26  C   UNL A   1      41.794  29.792  29.467  1.00  0.00     0.074 A 
ATOM     27  C   UNL A   1      47.885  29.932  27.436  1.00  0.00     0.029 A 
ATOM     28  N   UNL A   1      45.812  29.285  27.929  1.00  0.00    -0.354 N 
ATOM     29  N   UNL A   1      43.020  29.709  29.004  1.00  0.00    -0.248 NA
ATOM     30  C   UNL A   1      41.443  31.111  30.008  1.00  0.00     0.031 C 
ATOM     31  C   UNL A   1      47.197  31.010  28.004  1.00  0.00     0.029 A 
ATOM     32  C   UNL A   1      45.898  30.613  28.294  1.00  0.00     0.049 A 
ATOM     33  H   UNL A   1      45.006  28.727  28.019  1.00  0.00     0.167 HD
ATOM     34  C   UNL A   1      43.580  30.968  29.166  1.00  0.00     0.074 A 
ATOM     35  C   UNL A   1      42.550  31.800  29.761  1.00  0.00     0.031 C 
ATOM     36  C   UNL A   1      44.828  31.402  28.858  1.00  0.00     0.034 A 
BRANCH  23  37
ATOM     37  C   UNL A   1      48.657  27.105  26.518  1.00  0.00     0.023 A 
ATOM     38  C   UNL A   1      49.584  26.517  27.406  1.00  0.00     0.012 A 
ATOM     39  C   UNL A   1      49.048  27.387  25.196  1.00  0.00     0.148 A 
ATOM     40  C   UNL A   1      50.895  26.265  26.997  1.00  0.00     0.002 A 
ATOM     41  C   UNL A   1      50.342  27.091  24.785  1.00  0.00     0.091 A 
ATOM     42  F   UNL A   1      48.165  27.980  24.382  1.00  0.00    -0.205 F 
ATOM     43  C   UNL A   1      51.271  26.547  25.687  1.00  0.00     0.022 A 
BRANCH  41  44
ATOM     44  S   UNL A   1      50.906  27.373  23.105  1.00  0.00     0.127 S 
ATOM     45  O   UNL A   1      49.835  26.754  22.325  1.00  0.00    -0.237 OA
ATOM     46  O   UNL A   1      50.942  28.834  23.038  1.00  0.00    -0.237 OA
ATOM     47  O   UNL A   1      52.206  26.727  23.003  1.00  0.00    -0.744 OA
ENDBRANCH  41  44
ENDBRANCH  23  37
BRANCH  24  48
ATOM     48  C   UNL A   1      39.361  28.974  30.036  1.00  0.00     0.023 A 
ATOM     49  C   UNL A   1      39.012  28.479  31.306  1.00  0.00     0.012 A 
ATOM     50  C   UNL A   1      38.421  29.747  29.321  1.00  0.00     0.148 A 
ATOM     51  C   UNL A   1      37.749  28.738  31.847  1.00  0.00     0.002 A 
ATOM     52  C   UNL A   1      37.186  30.043  29.887  1.00  0.00     0.091 A 
ATOM     53  F   UNL A   1      38.763  30.196  28.106  1.00  0.00    -0.205 F 
ATOM     54  C   UNL A   1      36.841  29.528  31.144  1.00  0.00     0.022 A 
BRANCH  52  55
ATOM     55  S   UNL A   1      36.012  31.156  29.102  1.00  0.00     0.127 S 
ATOM     56  O   UNL A   1      35.353  30.270  28.146  1.00  0.00    -0.237 OA
ATOM     57  O   UNL A   1      35.182  31.566  30.236  1.00  0.00    -0.237 OA
ATOM     58  O   UNL A   1      36.811  32.229  28.526  1.00  0.00    -0.744 OA
ENDBRANCH  52  55
ENDBRANCH  24  48
BRANCH  36  59
ATOM     59  C   UNL A   1      45.139  32.844  29.135  1.00  0.00     0.023 A 
ATOM     60  C   UNL A   1      45.737  33.212  30.356  1.00  0.00     0.012 A 
ATOM     61  C   UNL A   1      44.941  33.811  28.132  1.00  0.00     0.148 A 
ATOM     62  C   UNL A   1      46.114  34.534  30.581  1.00  0.00     0.002 A 
ATOM     63  C   UNL A   1      45.372  35.112  28.341  1.00  0.00     0.091 A 
ATOM     64  F   UNL A   1      44.351  33.433  26.988  1.00  0.00    -0.205 F 
ATOM     65  C   UNL A   1      45.946  35.478  29.570  1.00  0.00     0.022 A 
BRANCH  63  66
ATOM     66  S   UNL A   1      45.302  36.361  27.055  1.00  0.00     0.127 S 
ATOM     67  O   UNL A   1      46.068  37.450  27.657  1.00  0.00    -0.237 OA
ATOM     68  O   UNL A   1      45.968  35.689  25.938  1.00  0.00    -0.237 OA
ATOM     69  O   UNL A   1      43.889  36.637  26.837  1.00  0.00    -0.744 OA
ENDBRANCH  63  66
ENDBRANCH  36  59
ENDBRANCH  10  11
ENDBRANCH   3   5
ENDBRANCH   2   3
ENDBRANCH   1   2
BRANCH   1  70
ATOM     70  C   UNL A   1      38.363  21.647  25.697  1.00  0.00     0.274 C 
BRANCH  70  71
ATOM     71  O   UNL A   1      36.952  21.851  25.735  1.00  0.00    -0.461 OA
BRANCH  71  72
ATOM     72  C   UNL A   1      36.308  22.359  24.650  1.00  0.00     0.329 C 
ATOM     73  O   UNL A   1      36.683  22.233  23.491  1.00  0.00    -0.250 OA
BRANCH  72  74
ATOM     74  C   UNL A   1      35.084  23.147  25.155  1.00  0.00     0.197 C 
ATOM     75  C   UNL A   1      35.023  24.399  24.274  1.00  0.00     0.038 C 
ATOM     76  N   UNL A   1      33.731  22.562  25.352  1.00  0.00    -0.308 N 
ATOM     77  C   UNL A   1      34.127  25.445  24.909  1.00  0.00     0.008 C 
ATOM     78  C   UNL A   1      32.753  23.559  25.923  1.00  0.00     0.091 C 
ATOM     79  C   UNL A   1      32.728  24.861  25.073  1.00  0.00     0.012 C 
ATOM     80  C   UNL A   1      31.300  23.063  26.124  1.00  0.00     0.025 C 
ATOM     81  C   UNL A   1      31.797  25.931  25.656  1.00  0.00     0.006 C 
ATOM     82  C   UNL A   1      30.362  24.154  26.652  1.00  0.00     0.002 C 
ATOM     83  C   UNL A   1      30.380  25.399  25.785  1.00  0.00     0.000 C 
BRANCH  76  84
ATOM     84  C   UNL A   1      33.673  21.244  25.822  1.00  0.00     0.321 C 
ATOM     85  O   UNL A   1      33.731  20.927  27.007  1.00  0.00    -0.248 OA
ATOM     86  N   UNL A   1      33.559  20.254  24.846  1.00  0.00    -0.323 N 
ATOM     87  C   UNL A   1      32.275  20.151  24.141  1.00  0.00     0.132 C 
ATOM     88  C   UNL A   1      34.207  18.986  25.185  1.00  0.00     0.132 C 
ATOM     89  C   UNL A   1      32.283  19.289  22.872  1.00  0.00     0.091 C 
ATOM     90  C   UNL A   1      34.464  18.080  23.988  1.00  0.00     0.091 C 
ATOM     91  S   UNL A   1      32.923  17.602  23.154  1.00  0.00    -0.158 SA
ENDBRANCH  76  84
ENDBRANCH  72  74
ENDBRANCH  71  72
ENDBRANCH  70  71
ENDBRANCH   1  70
TORSDOF 15
ENDMDL
