MODEL 1
REMARK VINA RESULT:      -9.7      0.000      0.000
REMARK SMILES CC(C)(C)SSC[C@H]([NH3+])C(=O)OCCOC(=O)c1ccc(-c2c3nc(c(-c4cccc(S(=O)(=O)[O-])c4F)c4ccc([nH]4)c(-c4cccc(S(=O)(=O)[O-])c4F)c4nc(c(-c5cccc(S(=O)(=O)[O-])c5F)c5ccc2[nH]5)C=C4)C=C3)cc1
REMARK SMILES IDX 13 1 12 2 10 3 11 4 8 5 7 6 6 7 5 8 2 9 1 10 3 11 4 12 9 13
REMARK SMILES IDX 14 17 15 18 16 19 17 20 18 21 19 22 80 23 20 24 79 25 21 26
REMARK SMILES IDX 22 27 23 28 73 29 24 30 78 31 72 32 74 33 25 34 77 35 71 36
REMARK SMILES IDX 70 37 26 39 58 40 38 41 57 42 39 43 42 44 56 45 75 46 40 47
REMARK SMILES IDX 41 48 55 50 76 51 43 52 27 53 28 54 36 55 29 56 31 57 37 58
REMARK SMILES IDX 30 59 32 60 33 61 34 62 35 63 59 64 60 65 68 66 61 67 63 68
REMARK SMILES IDX 69 69 62 70 64 71 65 72 66 73 67 74 44 75 45 76 53 77 46 78
REMARK SMILES IDX 48 79 54 80 47 81 49 82 50 83 51 84 52 85
REMARK H PARENT 9 14 9 15 9 16 74 38 42 49
REMARK Flexibility Score: inf
ROOT
ATOM      1  C   UNL A   1      34.941  20.637  25.333  1.00  0.00     0.274 C 
ENDROOT
BRANCH   1   2
ATOM      2  O   UNL A   1      34.294  21.564  24.440  1.00  0.00    -0.458 OA
BRANCH   2   3
ATOM      3  C   UNL A   1      33.027  21.275  24.050  1.00  0.00     0.365 C 
ATOM      4  O   UNL A   1      32.233  20.605  24.697  1.00  0.00    -0.245 OA
BRANCH   3   5
ATOM      5  C   UNL A   1      32.692  21.864  22.675  1.00  0.00     0.302 C 
BRANCH   5   6
ATOM      6  C   UNL A   1      32.343  23.351  22.808  1.00  0.00     0.159 C 
BRANCH   6   7
ATOM      7  S   UNL A   1      31.157  23.856  24.132  1.00  0.00    -0.087 SA
BRANCH   7   8
ATOM      8  S   UNL A   1      32.319  24.763  25.572  1.00  0.00    -0.088 SA
BRANCH   8   9
ATOM      9  C   UNL A   1      32.431  26.560  25.107  1.00  0.00     0.018 C 
ATOM     10  C   UNL A   1      33.074  27.286  26.298  1.00  0.00     0.023 C 
ATOM     11  C   UNL A   1      31.007  27.087  24.887  1.00  0.00     0.023 C 
ATOM     12  C   UNL A   1      33.278  26.820  23.860  1.00  0.00     0.023 C 
ENDBRANCH   8   9
ENDBRANCH   7   8
ENDBRANCH   6   7
ENDBRANCH   5   6
BRANCH   5  13
ATOM     13  N   UNL A   1      31.693  21.086  21.911  1.00  0.00    -0.345 N 
ATOM     14  H   UNL A   1      30.760  21.456  22.095  1.00  0.00     0.345 HD
ATOM     15  H   UNL A   1      31.733  20.108  22.197  1.00  0.00     0.345 HD
ATOM     16  H   UNL A   1      31.896  21.158  20.915  1.00  0.00     0.345 HD
ENDBRANCH   5  13
ENDBRANCH   3   5
ENDBRANCH   2   3
ENDBRANCH   1   2
BRANCH   1  17
ATOM     17  C   UNL A   1      36.432  20.557  25.004  1.00  0.00     0.275 C 
BRANCH  17  18
ATOM     18  O   UNL A   1      37.167  21.572  25.712  1.00  0.00    -0.458 OA
BRANCH  18  19
ATOM     19  C   UNL A   1      38.468  21.279  25.935  1.00  0.00     0.338 C 
ATOM     20  O   UNL A   1      39.067  20.263  25.625  1.00  0.00    -0.246 OA
BRANCH  19  21
ATOM     21  C   UNL A   1      39.152  22.458  26.474  1.00  0.00     0.060 A 
ATOM     22  C   UNL A   1      38.665  23.718  26.115  1.00  0.00     0.016 A 
ATOM     23  C   UNL A   1      40.304  22.325  27.244  1.00  0.00     0.016 A 
ATOM     24  C   UNL A   1      39.350  24.860  26.499  1.00  0.00     0.010 A 
ATOM     25  C   UNL A   1      40.978  23.476  27.654  1.00  0.00     0.010 A 
ATOM     26  C   UNL A   1      40.513  24.746  27.270  1.00  0.00    -0.014 A 
BRANCH  26  27
ATOM     27  C   UNL A   1      41.247  25.967  27.661  1.00  0.00     0.031 A 
ATOM     28  C   UNL A   1      40.551  27.031  28.455  1.00  0.00     0.074 A 
ATOM     29  C   UNL A   1      42.530  26.107  27.284  1.00  0.00     0.049 A 
ATOM     30  N   UNL A   1      40.986  28.212  28.804  1.00  0.00    -0.248 NA
ATOM     31  C   UNL A   1      39.183  26.731  28.910  1.00  0.00     0.031 C 
ATOM     32  C   UNL A   1      43.296  25.120  26.519  1.00  0.00     0.029 A 
ATOM     33  N   UNL A   1      43.408  27.141  27.472  1.00  0.00    -0.354 N 
ATOM     34  C   UNL A   1      39.934  28.816  29.480  1.00  0.00     0.074 A 
ATOM     35  C   UNL A   1      38.837  27.871  29.492  1.00  0.00     0.031 C 
ATOM     36  C   UNL A   1      44.524  25.606  26.286  1.00  0.00     0.029 A 
ATOM     37  C   UNL A   1      44.616  26.950  26.843  1.00  0.00     0.049 A 
ATOM     38  H   UNL A   1      43.195  27.942  28.003  1.00  0.00     0.167 HD
ATOM     39  C   UNL A   1      39.895  30.044  30.048  1.00  0.00     0.034 A 
ATOM     40  C   UNL A   1      45.665  27.782  26.706  1.00  0.00     0.034 A 
ATOM     41  C   UNL A   1      41.007  30.956  30.057  1.00  0.00     0.049 A 
ATOM     42  C   UNL A   1      45.594  29.140  27.346  1.00  0.00     0.074 A 
ATOM     43  C   UNL A   1      41.087  32.212  30.630  1.00  0.00     0.029 A 
ATOM     44  N   UNL A   1      42.237  30.707  29.464  1.00  0.00    -0.354 N 
ATOM     45  N   UNL A   1      44.622  29.669  28.052  1.00  0.00    -0.248 NA
ATOM     46  C   UNL A   1      46.770  30.008  27.195  1.00  0.00     0.031 C 
ATOM     47  C   UNL A   1      42.362  32.727  30.372  1.00  0.00     0.029 A 
ATOM     48  C   UNL A   1      43.082  31.785  29.653  1.00  0.00     0.049 A 
ATOM     49  H   UNL A   1      42.472  29.883  28.979  1.00  0.00     0.167 HD
ATOM     50  C   UNL A   1      45.077  30.919  28.450  1.00  0.00     0.074 A 
ATOM     51  C   UNL A   1      46.422  31.057  27.927  1.00  0.00     0.031 C 
ATOM     52  C   UNL A   1      44.435  31.875  29.166  1.00  0.00     0.034 A 
BRANCH  39  53
ATOM     53  C   UNL A   1      38.617  30.458  30.726  1.00  0.00     0.023 A 
ATOM     54  C   UNL A   1      38.403  30.119  32.078  1.00  0.00     0.012 A 
ATOM     55  C   UNL A   1      37.645  31.214  30.043  1.00  0.00     0.148 A 
ATOM     56  C   UNL A   1      37.230  30.499  32.729  1.00  0.00     0.002 A 
ATOM     57  C   UNL A   1      36.495  31.623  30.709  1.00  0.00     0.091 A 
ATOM     58  F   UNL A   1      37.852  31.505  28.750  1.00  0.00    -0.205 F 
ATOM     59  C   UNL A   1      36.282  31.258  32.049  1.00  0.00     0.022 A 
BRANCH  57  60
ATOM     60  S   UNL A   1      35.247  32.659  29.936  1.00  0.00     0.127 S 
ATOM     61  O   UNL A   1      34.737  31.776  28.889  1.00  0.00    -0.237 OA
ATOM     62  O   UNL A   1      34.314  32.895  31.039  1.00  0.00    -0.237 OA
ATOM     63  O   UNL A   1      35.947  33.848  29.471  1.00  0.00    -0.744 OA
ENDBRANCH  57  60
ENDBRANCH  39  53
BRANCH  40  64
ATOM     64  C   UNL A   1      46.871  27.333  25.956  1.00  0.00     0.023 A 
ATOM     65  C   UNL A   1      46.969  27.600  24.579  1.00  0.00     0.012 A 
ATOM     66  C   UNL A   1      47.942  26.693  26.611  1.00  0.00     0.148 A 
ATOM     67  C   UNL A   1      48.104  27.220  23.860  1.00  0.00     0.002 A 
ATOM     68  C   UNL A   1      49.093  26.368  25.902  1.00  0.00     0.091 A 
ATOM     69  F   UNL A   1      47.822  26.432  27.920  1.00  0.00    -0.205 F 
ATOM     70  C   UNL A   1      49.170  26.616  24.524  1.00  0.00     0.022 A 
BRANCH  68  71
ATOM     71  S   UNL A   1      50.561  25.716  26.707  1.00  0.00     0.127 S 
ATOM     72  O   UNL A   1      50.068  24.457  27.257  1.00  0.00    -0.237 OA
ATOM     73  O   UNL A   1      51.489  25.576  25.584  1.00  0.00    -0.237 OA
ATOM     74  O   UNL A   1      50.952  26.727  27.681  1.00  0.00    -0.744 OA
ENDBRANCH  68  71
ENDBRANCH  40  64
BRANCH  52  75
ATOM     75  C   UNL A   1      45.188  33.148  29.446  1.00  0.00     0.023 A 
ATOM     76  C   UNL A   1      45.972  33.249  30.611  1.00  0.00     0.012 A 
ATOM     77  C   UNL A   1      45.176  34.209  28.521  1.00  0.00     0.148 A 
ATOM     78  C   UNL A   1      46.714  34.401  30.865  1.00  0.00     0.002 A 
ATOM     79  C   UNL A   1      45.953  35.336  28.760  1.00  0.00     0.091 A 
ATOM     80  F   UNL A   1      44.404  34.101  27.430  1.00  0.00    -0.205 F 
ATOM     81  C   UNL A   1      46.715  35.438  29.935  1.00  0.00     0.022 A 
BRANCH  79  82
ATOM     82  S   UNL A   1      46.084  36.677  27.572  1.00  0.00     0.127 S 
ATOM     83  O   UNL A   1      46.572  35.978  26.384  1.00  0.00    -0.237 OA
ATOM     84  O   UNL A   1      44.701  37.147  27.477  1.00  0.00    -0.237 OA
ATOM     85  O   UNL A   1      47.006  37.640  28.158  1.00  0.00    -0.744 OA
ENDBRANCH  79  82
ENDBRANCH  52  75
ENDBRANCH  26  27
ENDBRANCH  19  21
ENDBRANCH  18  19
ENDBRANCH  17  18
ENDBRANCH   1  17
TORSDOF 19
ENDMDL
MODEL 2
REMARK VINA RESULT:      -9.7      5.571     10.290
REMARK SMILES CC(C)(C)SSC[C@H]([NH3+])C(=O)OCCOC(=O)c1ccc(-c2c3nc(c(-c4cccc(S(=O)(=O)[O-])c4F)c4ccc([nH]4)c(-c4cccc(S(=O)(=O)[O-])c4F)c4nc(c(-c5cccc(S(=O)(=O)[O-])c5F)c5ccc2[nH]5)C=C4)C=C3)cc1
REMARK SMILES IDX 13 1 12 2 10 3 11 4 8 5 7 6 6 7 5 8 2 9 1 10 3 11 4 12 9 13
REMARK SMILES IDX 14 17 15 18 16 19 17 20 18 21 19 22 80 23 20 24 79 25 21 26
REMARK SMILES IDX 22 27 23 28 73 29 24 30 78 31 72 32 74 33 25 34 77 35 71 36
REMARK SMILES IDX 70 37 26 39 58 40 38 41 57 42 39 43 42 44 56 45 75 46 40 47
REMARK SMILES IDX 41 48 55 50 76 51 43 52 27 53 28 54 36 55 29 56 31 57 37 58
REMARK SMILES IDX 30 59 32 60 33 61 34 62 35 63 59 64 60 65 68 66 61 67 63 68
REMARK SMILES IDX 69 69 62 70 64 71 65 72 66 73 67 74 44 75 45 76 53 77 46 78
REMARK SMILES IDX 48 79 54 80 47 81 49 82 50 83 51 84 52 85
REMARK H PARENT 9 14 9 15 9 16 74 38 42 49
REMARK Flexibility Score: inf
ROOT
ATOM      1  C   UNL A   1      31.546  29.911  25.154  1.00  0.00     0.274 C 
ENDROOT
BRANCH   1   2
ATOM      2  O   UNL A   1      32.807  29.632  24.518  1.00  0.00    -0.458 OA
BRANCH   2   3
ATOM      3  C   UNL A   1      32.777  28.976  23.331  1.00  0.00     0.365 C 
ATOM      4  O   UNL A   1      33.761  28.529  22.755  1.00  0.00    -0.245 OA
BRANCH   3   5
ATOM      5  C   UNL A   1      31.359  28.869  22.760  1.00  0.00     0.302 C 
BRANCH   5   6
ATOM      6  C   UNL A   1      31.027  27.409  22.436  1.00  0.00     0.159 C 
BRANCH   6   7
ATOM      7  S   UNL A   1      31.113  26.168  23.802  1.00  0.00    -0.087 SA
BRANCH   7   8
ATOM      8  S   UNL A   1      32.295  24.647  23.069  1.00  0.00    -0.088 SA
BRANCH   8   9
ATOM      9  C   UNL A   1      32.430  23.382  24.426  1.00  0.00     0.018 C 
ATOM     10  C   UNL A   1      33.500  23.893  25.401  1.00  0.00     0.023 C 
ATOM     11  C   UNL A   1      32.888  22.058  23.801  1.00  0.00     0.023 C 
ATOM     12  C   UNL A   1      31.127  23.167  25.197  1.00  0.00     0.023 C 
ENDBRANCH   8   9
ENDBRANCH   7   8
ENDBRANCH   6   7
ENDBRANCH   5   6
BRANCH   5  13
ATOM     13  N   UNL A   1      31.085  29.802  21.645  1.00  0.00    -0.345 N 
ATOM     14  H   UNL A   1      31.177  29.308  20.757  1.00  0.00     0.345 HD
ATOM     15  H   UNL A   1      31.751  30.574  21.676  1.00  0.00     0.345 HD
ATOM     16  H   UNL A   1      30.137  30.168  21.734  1.00  0.00     0.345 HD
ENDBRANCH   5  13
ENDBRANCH   3   5
ENDBRANCH   2   3
ENDBRANCH   1   2
BRANCH   1  17
ATOM     17  C   UNL A   1      31.764  30.837  26.352  1.00  0.00     0.275 C 
BRANCH  17  18
ATOM     18  O   UNL A   1      33.043  30.589  26.963  1.00  0.00    -0.458 OA
BRANCH  18  19
ATOM     19  C   UNL A   1      33.678  31.693  27.417  1.00  0.00     0.338 C 
ATOM     20  O   UNL A   1      33.229  32.823  27.518  1.00  0.00    -0.246 OA
BRANCH  19  21
ATOM     21  C   UNL A   1      34.987  31.319  27.959  1.00  0.00     0.060 A 
ATOM     22  C   UNL A   1      35.144  30.022  28.457  1.00  0.00     0.016 A 
ATOM     23  C   UNL A   1      36.014  32.255  28.056  1.00  0.00     0.016 A 
ATOM     24  C   UNL A   1      36.323  29.661  29.089  1.00  0.00     0.010 A 
ATOM     25  C   UNL A   1      37.211  31.881  28.668  1.00  0.00     0.010 A 
ATOM     26  C   UNL A   1      37.364  30.590  29.200  1.00  0.00    -0.014 A 
BRANCH  26  27
ATOM     27  C   UNL A   1      38.611  30.202  29.890  1.00  0.00     0.031 A 
ATOM     28  C   UNL A   1      39.536  29.210  29.254  1.00  0.00     0.074 A 
ATOM     29  C   UNL A   1      38.889  30.742  31.091  1.00  0.00     0.049 A 
ATOM     30  N   UNL A   1      40.618  28.665  29.742  1.00  0.00    -0.248 NA
ATOM     31  C   UNL A   1      39.195  28.763  27.893  1.00  0.00     0.031 C 
ATOM     32  C   UNL A   1      38.055  31.726  31.785  1.00  0.00     0.029 A 
ATOM     33  N   UNL A   1      39.935  30.524  31.948  1.00  0.00    -0.354 N 
ATOM     34  C   UNL A   1      41.066  27.780  28.770  1.00  0.00     0.074 A 
ATOM     35  C   UNL A   1      40.136  27.858  27.663  1.00  0.00     0.031 C 
ATOM     36  C   UNL A   1      38.612  32.011  32.971  1.00  0.00     0.029 A 
ATOM     37  C   UNL A   1      39.813  31.200  33.139  1.00  0.00     0.049 A 
ATOM     38  H   UNL A   1      40.697  29.940  31.733  1.00  0.00     0.167 HD
ATOM     39  C   UNL A   1      42.160  26.983  28.798  1.00  0.00     0.034 A 
ATOM     40  C   UNL A   1      40.568  31.144  34.251  1.00  0.00     0.034 A 
ATOM     41  C   UNL A   1      43.092  26.945  29.893  1.00  0.00     0.049 A 
ATOM     42  C   UNL A   1      41.777  30.251  34.254  1.00  0.00     0.074 A 
ATOM     43  C   UNL A   1      44.250  26.199  30.013  1.00  0.00     0.029 A 
ATOM     44  N   UNL A   1      42.972  27.688  31.058  1.00  0.00    -0.354 N 
ATOM     45  N   UNL A   1      42.234  29.478  33.298  1.00  0.00    -0.248 NA
ATOM     46  C   UNL A   1      42.589  30.238  35.478  1.00  0.00     0.031 C 
ATOM     47  C   UNL A   1      44.823  26.482  31.257  1.00  0.00     0.029 A 
ATOM     48  C   UNL A   1      44.031  27.418  31.906  1.00  0.00     0.049 A 
ATOM     49  H   UNL A   1      42.239  28.316  31.254  1.00  0.00     0.167 HD
ATOM     50  C   UNL A   1      43.399  28.907  33.792  1.00  0.00     0.074 A 
ATOM     51  C   UNL A   1      43.590  29.443  35.125  1.00  0.00     0.031 C 
ATOM     52  C   UNL A   1      44.225  28.005  33.207  1.00  0.00     0.034 A 
BRANCH  39  53
ATOM     53  C   UNL A   1      42.418  26.110  27.600  1.00  0.00     0.023 A 
ATOM     54  C   UNL A   1      43.138  26.627  26.503  1.00  0.00     0.012 A 
ATOM     55  C   UNL A   1      41.984  24.771  27.572  1.00  0.00     0.148 A 
ATOM     56  C   UNL A   1      43.396  25.833  25.385  1.00  0.00     0.002 A 
ATOM     57  C   UNL A   1      42.278  23.974  26.471  1.00  0.00     0.091 A 
ATOM     58  F   UNL A   1      41.278  24.304  28.611  1.00  0.00    -0.205 F 
ATOM     59  C   UNL A   1      42.975  24.507  25.373  1.00  0.00     0.022 A 
BRANCH  57  60
ATOM     60  S   UNL A   1      41.835  22.234  26.390  1.00  0.00     0.127 S 
ATOM     61  O   UNL A   1      42.534  21.807  25.180  1.00  0.00    -0.237 OA
ATOM     62  O   UNL A   1      42.402  21.713  27.635  1.00  0.00    -0.237 OA
ATOM     63  O   UNL A   1      40.381  22.196  26.325  1.00  0.00    -0.744 OA
ENDBRANCH  57  60
ENDBRANCH  39  53
BRANCH  40  64
ATOM     64  C   UNL A   1      40.210  31.981  35.429  1.00  0.00     0.023 A 
ATOM     65  C   UNL A   1      40.867  33.209  35.632  1.00  0.00     0.012 A 
ATOM     66  C   UNL A   1      39.185  31.595  36.316  1.00  0.00     0.148 A 
ATOM     67  C   UNL A   1      40.527  34.028  36.710  1.00  0.00     0.002 A 
ATOM     68  C   UNL A   1      38.812  32.441  37.354  1.00  0.00     0.091 A 
ATOM     69  F   UNL A   1      38.583  30.414  36.117  1.00  0.00    -0.205 F 
ATOM     70  C   UNL A   1      39.491  33.650  37.563  1.00  0.00     0.022 A 
BRANCH  68  71
ATOM     71  S   UNL A   1      37.400  32.095  38.411  1.00  0.00     0.127 S 
ATOM     72  O   UNL A   1      36.369  32.944  37.822  1.00  0.00    -0.237 OA
ATOM     73  O   UNL A   1      37.208  30.659  38.203  1.00  0.00    -0.237 OA
ATOM     74  O   UNL A   1      37.826  32.450  39.758  1.00  0.00    -0.744 OA
ENDBRANCH  68  71
ENDBRANCH  40  64
BRANCH  52  75
ATOM     75  C   UNL A   1      45.426  27.558  33.996  1.00  0.00     0.023 A 
ATOM     76  C   UNL A   1      46.614  28.312  33.939  1.00  0.00     0.012 A 
ATOM     77  C   UNL A   1      45.353  26.439  34.846  1.00  0.00     0.148 A 
ATOM     78  C   UNL A   1      47.723  27.942  34.698  1.00  0.00     0.002 A 
ATOM     79  C   UNL A   1      46.447  26.102  35.634  1.00  0.00     0.091 A 
ATOM     80  F   UNL A   1      44.219  25.723  34.867  1.00  0.00    -0.205 F 
ATOM     81  C   UNL A   1      47.635  26.846  35.554  1.00  0.00     0.022 A 
BRANCH  79  82
ATOM     82  S   UNL A   1      46.389  24.763  36.830  1.00  0.00     0.127 S 
ATOM     83  O   UNL A   1      47.604  25.003  37.606  1.00  0.00    -0.237 OA
ATOM     84  O   UNL A   1      45.142  25.037  37.546  1.00  0.00    -0.237 OA
ATOM     85  O   UNL A   1      46.374  23.533  36.049  1.00  0.00    -0.744 OA
ENDBRANCH  79  82
ENDBRANCH  52  75
ENDBRANCH  26  27
ENDBRANCH  19  21
ENDBRANCH  18  19
ENDBRANCH  17  18
ENDBRANCH   1  17
TORSDOF 19
ENDMDL
MODEL 3
REMARK VINA RESULT:      -9.4      4.891      9.778
REMARK SMILES CC(C)(C)SSC[C@H]([NH3+])C(=O)OCCOC(=O)c1ccc(-c2c3nc(c(-c4cccc(S(=O)(=O)[O-])c4F)c4ccc([nH]4)c(-c4cccc(S(=O)(=O)[O-])c4F)c4nc(c(-c5cccc(S(=O)(=O)[O-])c5F)c5ccc2[nH]5)C=C4)C=C3)cc1
REMARK SMILES IDX 13 1 12 2 10 3 11 4 8 5 7 6 6 7 5 8 2 9 1 10 3 11 4 12 9 13
REMARK SMILES IDX 14 17 15 18 16 19 17 20 18 21 19 22 80 23 20 24 79 25 21 26
REMARK SMILES IDX 22 27 23 28 73 29 24 30 78 31 72 32 74 33 25 34 77 35 71 36
REMARK SMILES IDX 70 37 26 39 58 40 38 41 57 42 39 43 42 44 56 45 75 46 40 47
REMARK SMILES IDX 41 48 55 50 76 51 43 52 27 53 28 54 36 55 29 56 31 57 37 58
REMARK SMILES IDX 30 59 32 60 33 61 34 62 35 63 59 64 60 65 68 66 61 67 63 68
REMARK SMILES IDX 69 69 62 70 64 71 65 72 66 73 67 74 44 75 45 76 53 77 46 78
REMARK SMILES IDX 48 79 54 80 47 81 49 82 50 83 51 84 52 85
REMARK H PARENT 9 14 9 15 9 16 74 38 42 49
REMARK Flexibility Score: inf
ROOT
ATOM      1  C   UNL A   1      31.087  29.298  24.558  1.00  0.00     0.274 C 
ENDROOT
BRANCH   1   2
ATOM      2  O   UNL A   1      31.919  28.546  23.655  1.00  0.00    -0.458 OA
BRANCH   2   3
ATOM      3  C   UNL A   1      31.305  27.886  22.642  1.00  0.00     0.365 C 
ATOM      4  O   UNL A   1      30.335  28.304  22.022  1.00  0.00    -0.245 OA
BRANCH   3   5
ATOM      5  C   UNL A   1      31.947  26.523  22.361  1.00  0.00     0.302 C 
BRANCH   5   6
ATOM      6  C   UNL A   1      33.403  26.515  22.840  1.00  0.00     0.159 C 
BRANCH   6   7
ATOM      7  S   UNL A   1      33.951  25.148  23.955  1.00  0.00    -0.087 SA
BRANCH   7   8
ATOM      8  S   UNL A   1      32.265  24.006  24.267  1.00  0.00    -0.088 SA
BRANCH   8   9
ATOM      9  C   UNL A   1      31.930  24.045  26.096  1.00  0.00     0.018 C 
ATOM     10  C   UNL A   1      31.814  25.524  26.493  1.00  0.00     0.023 C 
ATOM     11  C   UNL A   1      33.126  23.408  26.816  1.00  0.00     0.023 C 
ATOM     12  C   UNL A   1      30.641  23.328  26.500  1.00  0.00     0.023 C 
ENDBRANCH   8   9
ENDBRANCH   7   8
ENDBRANCH   6   7
ENDBRANCH   5   6
BRANCH   5  13
ATOM     13  N   UNL A   1      31.778  26.050  20.970  1.00  0.00    -0.345 N 
ATOM     14  H   UNL A   1      31.211  25.202  20.964  1.00  0.00     0.345 HD
ATOM     15  H   UNL A   1      32.693  25.849  20.565  1.00  0.00     0.345 HD
ATOM     16  H   UNL A   1      31.315  26.773  20.419  1.00  0.00     0.345 HD
ENDBRANCH   5  13
ENDBRANCH   3   5
ENDBRANCH   2   3
ENDBRANCH   1   2
BRANCH   1  17
ATOM     17  C   UNL A   1      31.749  29.370  25.935  1.00  0.00     0.275 C 
BRANCH  17  18
ATOM     18  O   UNL A   1      33.018  30.043  25.856  1.00  0.00    -0.458 OA
BRANCH  18  19
ATOM     19  C   UNL A   1      33.230  30.969  26.819  1.00  0.00     0.338 C 
ATOM     20  O   UNL A   1      32.436  31.786  27.254  1.00  0.00    -0.246 OA
BRANCH  19  21
ATOM     21  C   UNL A   1      34.545  30.753  27.428  1.00  0.00     0.060 A 
ATOM     22  C   UNL A   1      34.864  29.461  27.856  1.00  0.00     0.016 A 
ATOM     23  C   UNL A   1      35.411  31.820  27.655  1.00  0.00     0.016 A 
ATOM     24  C   UNL A   1      36.043  29.232  28.547  1.00  0.00     0.010 A 
ATOM     25  C   UNL A   1      36.611  31.583  28.326  1.00  0.00     0.010 A 
ATOM     26  C   UNL A   1      36.924  30.293  28.788  1.00  0.00    -0.014 A 
BRANCH  26  27
ATOM     27  C   UNL A   1      38.171  30.044  29.540  1.00  0.00     0.031 A 
ATOM     28  C   UNL A   1      39.200  29.107  28.986  1.00  0.00     0.074 A 
ATOM     29  C   UNL A   1      38.354  30.658  30.723  1.00  0.00     0.049 A 
ATOM     30  N   UNL A   1      40.304  28.679  29.536  1.00  0.00    -0.248 NA
ATOM     31  C   UNL A   1      38.952  28.574  27.635  1.00  0.00     0.031 C 
ATOM     32  C   UNL A   1      37.414  31.596  31.340  1.00  0.00     0.029 A 
ATOM     33  N   UNL A   1      39.380  30.567  31.626  1.00  0.00    -0.354 N 
ATOM     34  C   UNL A   1      40.862  27.793  28.624  1.00  0.00     0.074 A 
ATOM     35  C   UNL A   1      39.974  27.743  27.482  1.00  0.00     0.031 C 
ATOM     36  C   UNL A   1      37.898  31.980  32.531  1.00  0.00     0.029 A 
ATOM     37  C   UNL A   1      39.154  31.283  32.779  1.00  0.00     0.049 A 
ATOM     38  H   UNL A   1      40.196  30.043  31.467  1.00  0.00     0.167 HD
ATOM     39  C   UNL A   1      42.017  27.095  28.729  1.00  0.00     0.034 A 
ATOM     40  C   UNL A   1      39.867  31.340  33.919  1.00  0.00     0.034 A 
ATOM     41  C   UNL A   1      42.905  27.185  29.857  1.00  0.00     0.049 A 
ATOM     42  C   UNL A   1      41.145  30.555  34.008  1.00  0.00     0.074 A 
ATOM     43  C   UNL A   1      44.116  26.547  30.054  1.00  0.00     0.029 A 
ATOM     44  N   UNL A   1      42.676  27.966  30.981  1.00  0.00    -0.354 N 
ATOM     45  N   UNL A   1      41.703  29.783  33.106  1.00  0.00    -0.248 NA
ATOM     46  C   UNL A   1      41.907  30.666  35.259  1.00  0.00     0.031 C 
ATOM     47  C   UNL A   1      44.613  26.932  31.303  1.00  0.00     0.029 A 
ATOM     48  C   UNL A   1      43.721  27.824  31.878  1.00  0.00     0.049 A 
ATOM     49  H   UNL A   1      41.886  28.537  31.120  1.00  0.00     0.167 HD
ATOM     50  C   UNL A   1      42.891  29.335  33.668  1.00  0.00     0.074 A 
ATOM     51  C   UNL A   1      42.984  29.944  34.981  1.00  0.00     0.031 C 
ATOM     52  C   UNL A   1      43.813  28.483  33.156  1.00  0.00     0.034 A 
BRANCH  39  53
ATOM     53  C   UNL A   1      42.394  26.196  27.583  1.00  0.00     0.023 A 
ATOM     54  C   UNL A   1      43.196  26.698  26.538  1.00  0.00     0.012 A 
ATOM     55  C   UNL A   1      41.992  24.847  27.557  1.00  0.00     0.148 A 
ATOM     56  C   UNL A   1      43.565  25.880  25.470  1.00  0.00     0.002 A 
ATOM     57  C   UNL A   1      42.395  24.026  26.509  1.00  0.00     0.091 A 
ATOM     58  F   UNL A   1      41.207  24.393  28.546  1.00  0.00    -0.205 F 
ATOM     59  C   UNL A   1      43.174  24.544  25.461  1.00  0.00     0.022 A 
BRANCH  57  60
ATOM     60  S   UNL A   1      41.995  22.276  26.442  1.00  0.00     0.127 S 
ATOM     61  O   UNL A   1      42.528  21.802  27.718  1.00  0.00    -0.237 OA
ATOM     62  O   UNL A   1      40.534  22.295  26.363  1.00  0.00    -0.237 OA
ATOM     63  O   UNL A   1      42.659  21.761  25.253  1.00  0.00    -0.744 OA
ENDBRANCH  57  60
ENDBRANCH  39  53
BRANCH  40  64
ATOM     64  C   UNL A   1      39.394  32.195  35.043  1.00  0.00     0.023 A 
ATOM     65  C   UNL A   1      39.529  33.593  34.955  1.00  0.00     0.012 A 
ATOM     66  C   UNL A   1      38.761  31.635  36.171  1.00  0.00     0.148 A 
ATOM     67  C   UNL A   1      39.063  34.418  35.980  1.00  0.00     0.002 A 
ATOM     68  C   UNL A   1      38.248  32.465  37.161  1.00  0.00     0.091 A 
ATOM     69  F   UNL A   1      38.658  30.301  36.245  1.00  0.00    -0.205 F 
ATOM     70  C   UNL A   1      38.412  33.855  37.076  1.00  0.00     0.022 A 
BRANCH  68  71
ATOM     71  S   UNL A   1      37.277  31.830  38.534  1.00  0.00     0.127 S 
ATOM     72  O   UNL A   1      36.106  32.702  38.502  1.00  0.00    -0.237 OA
ATOM     73  O   UNL A   1      37.028  30.449  38.120  1.00  0.00    -0.237 OA
ATOM     74  O   UNL A   1      38.133  31.956  39.706  1.00  0.00    -0.744 OA
ENDBRANCH  68  71
ENDBRANCH  40  64
BRANCH  52  75
ATOM     75  C   UNL A   1      45.015  28.175  34.007  1.00  0.00     0.023 A 
ATOM     76  C   UNL A   1      44.981  27.071  34.882  1.00  0.00     0.012 A 
ATOM     77  C   UNL A   1      46.197  28.929  33.885  1.00  0.00     0.148 A 
ATOM     78  C   UNL A   1      46.101  26.740  35.644  1.00  0.00     0.002 A 
ATOM     79  C   UNL A   1      47.322  28.566  34.614  1.00  0.00     0.091 A 
ATOM     80  F   UNL A   1      46.198  29.989  33.063  1.00  0.00    -0.205 F 
ATOM     81  C   UNL A   1      47.273  27.478  35.501  1.00  0.00     0.022 A 
BRANCH  79  82
ATOM     82  S   UNL A   1      48.899  29.405  34.422  1.00  0.00     0.127 S 
ATOM     83  O   UNL A   1      48.586  30.745  34.915  1.00  0.00    -0.237 OA
ATOM     84  O   UNL A   1      49.777  28.624  35.294  1.00  0.00    -0.237 OA
ATOM     85  O   UNL A   1      49.226  29.317  33.006  1.00  0.00    -0.744 OA
ENDBRANCH  79  82
ENDBRANCH  52  75
ENDBRANCH  26  27
ENDBRANCH  19  21
ENDBRANCH  18  19
ENDBRANCH  17  18
ENDBRANCH   1  17
TORSDOF 19
ENDMDL
