MODEL 1
REMARK VINA RESULT:     -11.0      0.000      0.000
REMARK SMILES CCCCOc1ccc(-c2nc(C)c(C(=O)OCCOC(=O)c3ccc(-c4c5nc(c(-c6cccc(S(=O)(=O)[O-])c6F)c6ccc([nH]6)c(-c6cccc(S(=O)(=O)[O-])c6F)c6nc(c(-c7cccc(S(=O)(=O)[O-])c7F)c7ccc4[nH]7)C=C6)C=C5)cc3)s2)cc1
REMARK SMILES IDX 18 1 17 2 15 3 16 4 14 5 10 6 11 7 86 8 12 9 13 10 9 11 6 12
REMARK SMILES IDX 7 13 88 14 8 15 87 16 5 17 4 18 3 19 2 20 1 21 19 22 20 23
REMARK SMILES IDX 21 24 22 25 23 26 24 27 85 28 25 29 84 30 26 31 27 32 28 33
REMARK SMILES IDX 78 34 29 35 83 36 77 37 79 38 30 39 82 40 76 41 75 42 31 44
REMARK SMILES IDX 63 45 43 46 62 47 44 48 47 49 61 50 80 51 45 52 46 53 60 55
REMARK SMILES IDX 81 56 48 57 32 58 33 59 41 60 34 61 36 62 42 63 35 64 37 65
REMARK SMILES IDX 38 66 39 67 40 68 64 69 65 70 73 71 66 72 68 73 74 74 67 75
REMARK SMILES IDX 69 76 70 77 71 78 72 79 49 80 50 81 58 82 51 83 53 84 59 85
REMARK SMILES IDX 52 86 54 87 55 88 56 89 57 90
REMARK H PARENT 79 43 47 54
REMARK Flexibility Score: inf
ROOT
ATOM      1  C   UNL A   1      35.980  19.724  24.976  1.00  0.00     0.275 C 
ENDROOT
BRANCH   1   2
ATOM      2  O   UNL A   1      35.275  20.950  25.266  1.00  0.00    -0.458 OA
BRANCH   2   3
ATOM      3  C   UNL A   1      34.093  21.145  24.608  1.00  0.00     0.350 C 
ATOM      4  O   UNL A   1      33.187  20.324  24.593  1.00  0.00    -0.245 OA
BRANCH   3   5
ATOM      5  C   UNL A   1      34.037  22.468  24.013  1.00  0.00     0.135 A 
ATOM      6  C   UNL A   1      33.278  24.723  23.506  1.00  0.00     0.124 A 
ATOM      7  N   UNL A   1      34.534  24.585  23.138  1.00  0.00    -0.240 NA
ATOM      8  S   UNL A   1      32.503  23.261  23.940  1.00  0.00    -0.106 S 
ATOM      9  C   UNL A   1      34.986  23.299  23.435  1.00  0.00     0.064 A 
ATOM     10  C   UNL A   1      36.399  22.997  23.083  1.00  0.00     0.068 C 
BRANCH   6  11
ATOM     11  C   UNL A   1      32.538  25.985  23.563  1.00  0.00     0.011 A 
ATOM     12  C   UNL A   1      30.997  28.313  23.760  1.00  0.00     0.119 A 
ATOM     13  C   UNL A   1      32.068  28.120  24.631  1.00  0.00     0.047 A 
ATOM     14  C   UNL A   1      30.749  27.408  22.736  1.00  0.00     0.047 A 
ATOM     15  C   UNL A   1      32.834  26.952  24.535  1.00  0.00     0.015 A 
ATOM     16  C   UNL A   1      31.490  26.229  22.661  1.00  0.00     0.015 A 
BRANCH  12  17
ATOM     17  O   UNL A   1      30.197  29.414  23.849  1.00  0.00    -0.494 OA
BRANCH  17  18
ATOM     18  C   UNL A   1      29.523  29.704  22.615  1.00  0.00     0.229 C 
BRANCH  18  19
ATOM     19  C   UNL A   1      28.042  30.074  22.792  1.00  0.00     0.041 C 
BRANCH  19  20
ATOM     20  C   UNL A   1      27.711  31.462  23.359  1.00  0.00     0.000 C 
ATOM     21  C   UNL A   1      28.449  32.624  22.715  1.00  0.00     0.004 C 
ENDBRANCH  19  20
ENDBRANCH  18  19
ENDBRANCH  17  18
ENDBRANCH  12  17
ENDBRANCH   6  11
ENDBRANCH   3   5
ENDBRANCH   2   3
ENDBRANCH   1   2
BRANCH   1  22
ATOM     22  C   UNL A   1      37.473  19.963  24.727  1.00  0.00     0.275 C 
BRANCH  22  23
ATOM     23  O   UNL A   1      37.980  21.042  25.533  1.00  0.00    -0.458 OA
BRANCH  23  24
ATOM     24  C   UNL A   1      39.166  20.789  26.133  1.00  0.00     0.338 C 
ATOM     25  O   UNL A   1      39.787  19.738  26.116  1.00  0.00    -0.246 OA
BRANCH  24  26
ATOM     26  C   UNL A   1      39.727  22.027  26.688  1.00  0.00     0.060 A 
ATOM     27  C   UNL A   1      39.245  23.220  26.159  1.00  0.00     0.016 A 
ATOM     28  C   UNL A   1      40.781  22.038  27.599  1.00  0.00     0.016 A 
ATOM     29  C   UNL A   1      39.833  24.433  26.488  1.00  0.00     0.010 A 
ATOM     30  C   UNL A   1      41.351  23.266  27.966  1.00  0.00     0.010 A 
ATOM     31  C   UNL A   1      40.900  24.472  27.394  1.00  0.00    -0.014 A 
BRANCH  31  32
ATOM     32  C   UNL A   1      41.548  25.777  27.691  1.00  0.00     0.031 A 
ATOM     33  C   UNL A   1      40.819  26.822  28.491  1.00  0.00     0.074 A 
ATOM     34  C   UNL A   1      42.807  26.011  27.270  1.00  0.00     0.049 A 
ATOM     35  N   UNL A   1      41.195  28.036  28.802  1.00  0.00    -0.248 NA
ATOM     36  C   UNL A   1      39.490  26.457  29.009  1.00  0.00     0.031 C 
ATOM     37  C   UNL A   1      43.630  25.072  26.504  1.00  0.00     0.029 A 
ATOM     38  N   UNL A   1      43.613  27.112  27.419  1.00  0.00    -0.354 N 
ATOM     39  C   UNL A   1      40.131  28.600  29.497  1.00  0.00     0.074 A 
ATOM     40  C   UNL A   1      39.094  27.594  29.565  1.00  0.00     0.031 C 
ATOM     41  C   UNL A   1      44.822  25.633  26.255  1.00  0.00     0.029 A 
ATOM     42  C   UNL A   1      44.828  26.992  26.785  1.00  0.00     0.049 A 
ATOM     43  H   UNL A   1      43.348  27.911  27.930  1.00  0.00     0.167 HD
ATOM     44  C   UNL A   1      40.031  29.839  30.036  1.00  0.00     0.034 A 
ATOM     45  C   UNL A   1      45.821  27.887  26.613  1.00  0.00     0.034 A 
ATOM     46  C   UNL A   1      41.082  30.823  30.000  1.00  0.00     0.049 A 
ATOM     47  C   UNL A   1      45.677  29.259  27.208  1.00  0.00     0.074 A 
ATOM     48  C   UNL A   1      41.093  32.091  30.555  1.00  0.00     0.029 A 
ATOM     49  N   UNL A   1      42.305  30.654  29.370  1.00  0.00    -0.354 N 
ATOM     50  N   UNL A   1      44.694  29.750  27.924  1.00  0.00    -0.248 NA
ATOM     51  C   UNL A   1      46.788  30.197  26.992  1.00  0.00     0.031 C 
ATOM     52  C   UNL A   1      42.307  32.702  30.228  1.00  0.00     0.029 A 
ATOM     53  C   UNL A   1      43.073  31.799  29.508  1.00  0.00     0.049 A 
ATOM     54  H   UNL A   1      42.588  29.840  28.893  1.00  0.00     0.167 HD
ATOM     55  C   UNL A   1      45.081  31.039  28.270  1.00  0.00     0.074 A 
ATOM     56  C   UNL A   1      46.400  31.243  27.707  1.00  0.00     0.031 C 
ATOM     57  C   UNL A   1      44.401  31.975  28.978  1.00  0.00     0.034 A 
BRANCH  44  58
ATOM     58  C   UNL A   1      38.737  30.207  30.717  1.00  0.00     0.023 A 
ATOM     59  C   UNL A   1      38.511  29.835  32.058  1.00  0.00     0.012 A 
ATOM     60  C   UNL A   1      37.762  30.969  30.040  1.00  0.00     0.148 A 
ATOM     61  C   UNL A   1      37.323  30.181  32.701  1.00  0.00     0.002 A 
ATOM     62  C   UNL A   1      36.603  31.351  30.703  1.00  0.00     0.091 A 
ATOM     63  F   UNL A   1      37.985  31.297  28.759  1.00  0.00    -0.205 F 
ATOM     64  C   UNL A   1      36.374  30.947  32.028  1.00  0.00     0.022 A 
BRANCH  62  65
ATOM     65  S   UNL A   1      35.357  32.405  29.949  1.00  0.00     0.127 S 
ATOM     66  O   UNL A   1      36.157  33.559  29.539  1.00  0.00    -0.237 OA
ATOM     67  O   UNL A   1      34.879  31.572  28.845  1.00  0.00    -0.237 OA
ATOM     68  O   UNL A   1      34.369  32.667  30.986  1.00  0.00    -0.744 OA
ENDBRANCH  62  65
ENDBRANCH  44  58
BRANCH  45  69
ATOM     69  C   UNL A   1      47.042  27.508  25.846  1.00  0.00     0.023 A 
ATOM     70  C   UNL A   1      47.090  27.722  24.456  1.00  0.00     0.012 A 
ATOM     71  C   UNL A   1      48.163  26.949  26.494  1.00  0.00     0.148 A 
ATOM     72  C   UNL A   1      48.219  27.359  23.719  1.00  0.00     0.002 A 
ATOM     73  C   UNL A   1      49.305  26.647  25.764  1.00  0.00     0.091 A 
ATOM     74  F   UNL A   1      48.092  26.738  27.815  1.00  0.00    -0.205 F 
ATOM     75  C   UNL A   1      49.329  26.833  24.374  1.00  0.00     0.022 A 
BRANCH  73  76
ATOM     76  S   UNL A   1      50.826  26.089  26.542  1.00  0.00     0.127 S 
ATOM     77  O   UNL A   1      50.402  24.837  27.162  1.00  0.00    -0.237 OA
ATOM     78  O   UNL A   1      51.714  25.937  25.390  1.00  0.00    -0.237 OA
ATOM     79  O   UNL A   1      51.212  27.150  27.462  1.00  0.00    -0.744 OA
ENDBRANCH  73  76
ENDBRANCH  45  69
BRANCH  57  80
ATOM     80  C   UNL A   1      45.089  33.294  29.224  1.00  0.00     0.023 A 
ATOM     81  C   UNL A   1      45.771  33.520  30.436  1.00  0.00     0.012 A 
ATOM     82  C   UNL A   1      45.102  34.290  28.227  1.00  0.00     0.148 A 
ATOM     83  C   UNL A   1      46.417  34.734  30.669  1.00  0.00     0.002 A 
ATOM     84  C   UNL A   1      45.794  35.475  28.445  1.00  0.00     0.091 A 
ATOM     85  F   UNL A   1      44.432  34.064  27.088  1.00  0.00    -0.205 F 
ATOM     86  C   UNL A   1      46.438  35.706  29.671  1.00  0.00     0.022 A 
BRANCH  84  87
ATOM     87  S   UNL A   1      45.960  36.740  27.181  1.00  0.00     0.127 S 
ATOM     88  O   UNL A   1      44.680  37.437  27.285  1.00  0.00    -0.237 OA
ATOM     89  O   UNL A   1      47.113  37.505  27.659  1.00  0.00    -0.237 OA
ATOM     90  O   UNL A   1      46.185  36.029  25.928  1.00  0.00    -0.744 OA
ENDBRANCH  84  87
ENDBRANCH  57  80
ENDBRANCH  31  32
ENDBRANCH  24  26
ENDBRANCH  23  24
ENDBRANCH  22  23
ENDBRANCH   1  22
TORSDOF 19
ENDMDL
MODEL 2
REMARK VINA RESULT:     -10.7      1.649      8.018
REMARK SMILES CCCCOc1ccc(-c2nc(C)c(C(=O)OCCOC(=O)c3ccc(-c4c5nc(c(-c6cccc(S(=O)(=O)[O-])c6F)c6ccc([nH]6)c(-c6cccc(S(=O)(=O)[O-])c6F)c6nc(c(-c7cccc(S(=O)(=O)[O-])c7F)c7ccc4[nH]7)C=C6)C=C5)cc3)s2)cc1
REMARK SMILES IDX 18 1 17 2 15 3 16 4 14 5 10 6 11 7 86 8 12 9 13 10 9 11 6 12
REMARK SMILES IDX 7 13 88 14 8 15 87 16 5 17 4 18 3 19 2 20 1 21 19 22 20 23
REMARK SMILES IDX 21 24 22 25 23 26 24 27 85 28 25 29 84 30 26 31 27 32 28 33
REMARK SMILES IDX 78 34 29 35 83 36 77 37 79 38 30 39 82 40 76 41 75 42 31 44
REMARK SMILES IDX 63 45 43 46 62 47 44 48 47 49 61 50 80 51 45 52 46 53 60 55
REMARK SMILES IDX 81 56 48 57 32 58 33 59 41 60 34 61 36 62 42 63 35 64 37 65
REMARK SMILES IDX 38 66 39 67 40 68 64 69 65 70 73 71 66 72 68 73 74 74 67 75
REMARK SMILES IDX 69 76 70 77 71 78 72 79 49 80 50 81 58 82 51 83 53 84 59 85
REMARK SMILES IDX 52 86 54 87 55 88 56 89 57 90
REMARK H PARENT 79 43 47 54
REMARK Flexibility Score: inf
ROOT
ATOM      1  C   UNL A   1      36.048  19.757  24.977  1.00  0.00     0.275 C 
ENDROOT
BRANCH   1   2
ATOM      2  O   UNL A   1      35.244  20.815  25.541  1.00  0.00    -0.458 OA
BRANCH   2   3
ATOM      3  C   UNL A   1      34.047  21.063  24.931  1.00  0.00     0.350 C 
ATOM      4  O   UNL A   1      33.451  20.237  24.253  1.00  0.00    -0.245 OA
BRANCH   3   5
ATOM      5  C   UNL A   1      33.556  22.389  25.261  1.00  0.00     0.135 A 
ATOM      6  C   UNL A   1      32.585  24.604  25.001  1.00  0.00     0.124 A 
ATOM      7  N   UNL A   1      32.542  24.247  26.267  1.00  0.00    -0.240 NA
ATOM      8  S   UNL A   1      33.531  23.581  24.009  1.00  0.00    -0.106 S 
ATOM      9  C   UNL A   1      33.086  22.972  26.429  1.00  0.00     0.064 A 
ATOM     10  C   UNL A   1      33.096  22.429  27.813  1.00  0.00     0.068 C 
BRANCH   6  11
ATOM     11  C   UNL A   1      31.911  25.766  24.417  1.00  0.00     0.011 A 
ATOM     12  C   UNL A   1      30.574  28.032  23.464  1.00  0.00     0.119 A 
ATOM     13  C   UNL A   1      31.959  28.060  23.610  1.00  0.00     0.047 A 
ATOM     14  C   UNL A   1      29.864  26.860  23.695  1.00  0.00     0.047 A 
ATOM     15  C   UNL A   1      32.626  26.927  24.092  1.00  0.00     0.015 A 
ATOM     16  C   UNL A   1      30.522  25.743  24.207  1.00  0.00     0.015 A 
BRANCH  12  17
ATOM     17  O   UNL A   1      29.880  29.127  23.041  1.00  0.00    -0.494 OA
BRANCH  17  18
ATOM     18  C   UNL A   1      28.472  28.875  22.924  1.00  0.00     0.229 C 
BRANCH  18  19
ATOM     19  C   UNL A   1      27.622  30.150  22.814  1.00  0.00     0.041 C 
BRANCH  19  20
ATOM     20  C   UNL A   1      28.067  31.381  23.617  1.00  0.00     0.000 C 
ATOM     21  C   UNL A   1      28.384  32.619  22.793  1.00  0.00     0.004 C 
ENDBRANCH  19  20
ENDBRANCH  18  19
ENDBRANCH  17  18
ENDBRANCH  12  17
ENDBRANCH   6  11
ENDBRANCH   3   5
ENDBRANCH   2   3
ENDBRANCH   1   2
BRANCH   1  22
ATOM     22  C   UNL A   1      37.464  20.231  24.633  1.00  0.00     0.275 C 
BRANCH  22  23
ATOM     23  O   UNL A   1      37.906  21.276  25.519  1.00  0.00    -0.458 OA
BRANCH  23  24
ATOM     24  C   UNL A   1      39.108  21.054  26.098  1.00  0.00     0.338 C 
ATOM     25  O   UNL A   1      39.767  20.027  26.050  1.00  0.00    -0.246 OA
BRANCH  24  26
ATOM     26  C   UNL A   1      39.630  22.300  26.674  1.00  0.00     0.060 A 
ATOM     27  C   UNL A   1      39.103  23.485  26.172  1.00  0.00     0.016 A 
ATOM     28  C   UNL A   1      40.690  22.329  27.578  1.00  0.00     0.016 A 
ATOM     29  C   UNL A   1      39.652  24.711  26.521  1.00  0.00     0.010 A 
ATOM     30  C   UNL A   1      41.220  23.568  27.965  1.00  0.00     0.010 A 
ATOM     31  C   UNL A   1      40.724  24.769  27.420  1.00  0.00    -0.014 A 
BRANCH  31  32
ATOM     32  C   UNL A   1      41.330  26.089  27.738  1.00  0.00     0.031 A 
ATOM     33  C   UNL A   1      42.724  26.417  27.273  1.00  0.00     0.074 A 
ATOM     34  C   UNL A   1      40.616  27.009  28.416  1.00  0.00     0.049 A 
ATOM     35  N   UNL A   1      43.440  27.487  27.500  1.00  0.00    -0.248 NA
ATOM     36  C   UNL A   1      43.404  25.406  26.446  1.00  0.00     0.031 C 
ATOM     37  C   UNL A   1      39.247  26.823  28.904  1.00  0.00     0.029 A 
ATOM     38  N   UNL A   1      40.941  28.280  28.821  1.00  0.00    -0.354 N 
ATOM     39  C   UNL A   1      44.673  27.258  26.898  1.00  0.00     0.074 A 
ATOM     40  C   UNL A   1      44.606  25.945  26.294  1.00  0.00     0.031 C 
ATOM     41  C   UNL A   1      38.850  27.938  29.536  1.00  0.00     0.029 A 
ATOM     42  C   UNL A   1      39.953  28.891  29.556  1.00  0.00     0.049 A 
ATOM     43  H   UNL A   1      41.800  28.712  28.605  1.00  0.00     0.167 HD
ATOM     44  C   UNL A   1      45.757  28.069  26.848  1.00  0.00     0.034 A 
ATOM     45  C   UNL A   1      39.946  30.071  30.208  1.00  0.00     0.034 A 
ATOM     46  C   UNL A   1      45.803  29.390  27.418  1.00  0.00     0.049 A 
ATOM     47  C   UNL A   1      41.168  30.944  30.147  1.00  0.00     0.074 A 
ATOM     48  C   UNL A   1      46.841  30.306  27.382  1.00  0.00     0.029 A 
ATOM     49  N   UNL A   1      44.774  29.983  28.133  1.00  0.00    -0.354 N 
ATOM     50  N   UNL A   1      42.298  30.742  29.513  1.00  0.00    -0.248 NA
ATOM     51  C   UNL A   1      41.109  32.220  30.875  1.00  0.00     0.031 C 
ATOM     52  C   UNL A   1      46.452  31.438  28.107  1.00  0.00     0.029 A 
ATOM     53  C   UNL A   1      45.156  31.246  28.557  1.00  0.00     0.049 A 
ATOM     54  H   UNL A   1      43.900  29.568  28.314  1.00  0.00     0.167 HD
ATOM     55  C   UNL A   1      43.069  31.876  29.737  1.00  0.00     0.074 A 
ATOM     56  C   UNL A   1      42.267  32.772  30.544  1.00  0.00     0.031 C 
ATOM     57  C   UNL A   1      44.333  32.145  29.324  1.00  0.00     0.034 A 
BRANCH  44  58
ATOM     58  C   UNL A   1      46.989  27.552  26.149  1.00  0.00     0.023 A 
ATOM     59  C   UNL A   1      47.206  27.845  24.787  1.00  0.00     0.012 A 
ATOM     60  C   UNL A   1      47.961  26.818  26.859  1.00  0.00     0.148 A 
ATOM     61  C   UNL A   1      48.348  27.383  24.134  1.00  0.00     0.002 A 
ATOM     62  C   UNL A   1      49.119  26.403  26.214  1.00  0.00     0.091 A 
ATOM     63  F   UNL A   1      47.729  26.533  28.148  1.00  0.00    -0.205 F 
ATOM     64  C   UNL A   1      49.309  26.672  24.849  1.00  0.00     0.022 A 
BRANCH  62  65
ATOM     65  S   UNL A   1      50.452  25.551  27.066  1.00  0.00     0.127 S 
ATOM     66  O   UNL A   1      50.816  26.527  28.093  1.00  0.00    -0.237 OA
ATOM     67  O   UNL A   1      49.777  24.357  27.574  1.00  0.00    -0.237 OA
ATOM     68  O   UNL A   1      51.474  25.293  26.062  1.00  0.00    -0.744 OA
ENDBRANCH  62  65
ENDBRANCH  44  58
BRANCH  45  69
ATOM     69  C   UNL A   1      38.737  30.496  30.969  1.00  0.00     0.023 A 
ATOM     70  C   UNL A   1      38.634  30.199  32.341  1.00  0.00     0.012 A 
ATOM     71  C   UNL A   1      37.695  31.207  30.340  1.00  0.00     0.148 A 
ATOM     72  C   UNL A   1      37.502  30.574  33.067  1.00  0.00     0.002 A 
ATOM     73  C   UNL A   1      36.600  31.631  31.083  1.00  0.00     0.091 A 
ATOM     74  F   UNL A   1      37.803  31.467  29.030  1.00  0.00    -0.205 F 
ATOM     75  C   UNL A   1      36.491  31.299  32.441  1.00  0.00     0.022 A 
BRANCH  73  76
ATOM     76  S   UNL A   1      35.316  32.681  30.391  1.00  0.00     0.127 S 
ATOM     77  O   UNL A   1      36.062  33.896  30.075  1.00  0.00    -0.237 OA
ATOM     78  O   UNL A   1      34.886  31.902  29.229  1.00  0.00    -0.237 OA
ATOM     79  O   UNL A   1      34.307  32.812  31.433  1.00  0.00    -0.744 OA
ENDBRANCH  73  76
ENDBRANCH  45  69
BRANCH  57  80
ATOM     80  C   UNL A   1      44.915  33.484  29.702  1.00  0.00     0.023 A 
ATOM     81  C   UNL A   1      44.741  34.595  28.852  1.00  0.00     0.012 A 
ATOM     82  C   UNL A   1      45.590  33.651  30.927  1.00  0.00     0.148 A 
ATOM     83  C   UNL A   1      45.269  35.839  29.195  1.00  0.00     0.002 A 
ATOM     84  C   UNL A   1      46.065  34.906  31.288  1.00  0.00     0.091 A 
ATOM     85  F   UNL A   1      45.761  32.579  31.714  1.00  0.00    -0.205 F 
ATOM     86  C   UNL A   1      45.920  35.998  30.417  1.00  0.00     0.022 A 
BRANCH  84  87
ATOM     87  S   UNL A   1      46.826  35.226  32.883  1.00  0.00     0.127 S 
ATOM     88  O   UNL A   1      47.289  36.603  32.722  1.00  0.00    -0.237 OA
ATOM     89  O   UNL A   1      45.698  35.064  33.801  1.00  0.00    -0.237 OA
ATOM     90  O   UNL A   1      47.877  34.227  33.035  1.00  0.00    -0.744 OA
ENDBRANCH  84  87
ENDBRANCH  57  80
ENDBRANCH  31  32
ENDBRANCH  24  26
ENDBRANCH  23  24
ENDBRANCH  22  23
ENDBRANCH   1  22
TORSDOF 19
ENDMDL
MODEL 3
REMARK VINA RESULT:     -10.6      1.811      8.063
REMARK SMILES CCCCOc1ccc(-c2nc(C)c(C(=O)OCCOC(=O)c3ccc(-c4c5nc(c(-c6cccc(S(=O)(=O)[O-])c6F)c6ccc([nH]6)c(-c6cccc(S(=O)(=O)[O-])c6F)c6nc(c(-c7cccc(S(=O)(=O)[O-])c7F)c7ccc4[nH]7)C=C6)C=C5)cc3)s2)cc1
REMARK SMILES IDX 18 1 17 2 15 3 16 4 14 5 10 6 11 7 86 8 12 9 13 10 9 11 6 12
REMARK SMILES IDX 7 13 88 14 8 15 87 16 5 17 4 18 3 19 2 20 1 21 19 22 20 23
REMARK SMILES IDX 21 24 22 25 23 26 24 27 85 28 25 29 84 30 26 31 27 32 28 33
REMARK SMILES IDX 78 34 29 35 83 36 77 37 79 38 30 39 82 40 76 41 75 42 31 44
REMARK SMILES IDX 63 45 43 46 62 47 44 48 47 49 61 50 80 51 45 52 46 53 60 55
REMARK SMILES IDX 81 56 48 57 32 58 33 59 41 60 34 61 36 62 42 63 35 64 37 65
REMARK SMILES IDX 38 66 39 67 40 68 64 69 65 70 73 71 66 72 68 73 74 74 67 75
REMARK SMILES IDX 69 76 70 77 71 78 72 79 49 80 50 81 58 82 51 83 53 84 59 85
REMARK SMILES IDX 52 86 54 87 55 88 56 89 57 90
REMARK H PARENT 79 43 47 54
REMARK Flexibility Score: inf
ROOT
ATOM      1  C   UNL A   1      35.641  20.262  25.015  1.00  0.00     0.275 C 
ENDROOT
BRANCH   1   2
ATOM      2  O   UNL A   1      34.762  21.311  25.476  1.00  0.00    -0.458 OA
BRANCH   2   3
ATOM      3  C   UNL A   1      33.571  21.442  24.819  1.00  0.00     0.350 C 
ATOM      4  O   UNL A   1      32.883  20.491  24.473  1.00  0.00    -0.245 OA
BRANCH   3   5
ATOM      5  C   UNL A   1      33.209  22.839  24.666  1.00  0.00     0.135 A 
ATOM      6  C   UNL A   1      32.849  25.185  25.200  1.00  0.00     0.124 A 
ATOM      7  N   UNL A   1      32.890  25.029  23.894  1.00  0.00    -0.240 NA
ATOM      8  S   UNL A   1      32.770  23.724  26.086  1.00  0.00    -0.106 S 
ATOM      9  C   UNL A   1      33.108  23.688  23.574  1.00  0.00     0.064 A 
ATOM     10  C   UNL A   1      33.189  23.359  22.126  1.00  0.00     0.068 C 
BRANCH   6  11
ATOM     11  C   UNL A   1      32.863  26.467  25.908  1.00  0.00     0.011 A 
ATOM     12  C   UNL A   1      32.877  28.996  27.105  1.00  0.00     0.119 A 
ATOM     13  C   UNL A   1      31.704  28.242  27.100  1.00  0.00     0.047 A 
ATOM     14  C   UNL A   1      34.059  28.463  26.609  1.00  0.00     0.047 A 
ATOM     15  C   UNL A   1      31.698  26.979  26.495  1.00  0.00     0.015 A 
ATOM     16  C   UNL A   1      34.046  27.221  25.977  1.00  0.00     0.015 A 
BRANCH  12  17
ATOM     17  O   UNL A   1      32.914  30.249  27.643  1.00  0.00    -0.494 OA
BRANCH  17  18
ATOM     18  C   UNL A   1      34.253  30.747  27.780  1.00  0.00     0.229 C 
BRANCH  18  19
ATOM     19  C   UNL A   1      34.362  32.274  27.640  1.00  0.00     0.041 C 
BRANCH  19  20
ATOM     20  C   UNL A   1      33.074  33.100  27.765  1.00  0.00     0.000 C 
ATOM     21  C   UNL A   1      33.219  34.430  28.487  1.00  0.00     0.004 C 
ENDBRANCH  19  20
ENDBRANCH  18  19
ENDBRANCH  17  18
ENDBRANCH  12  17
ENDBRANCH   6  11
ENDBRANCH   3   5
ENDBRANCH   2   3
ENDBRANCH   1   2
BRANCH   1  22
ATOM     22  C   UNL A   1      37.057  20.779  24.738  1.00  0.00     0.275 C 
BRANCH  22  23
ATOM     23  O   UNL A   1      37.540  21.607  25.812  1.00  0.00    -0.458 OA
BRANCH  23  24
ATOM     24  C   UNL A   1      38.844  21.425  26.122  1.00  0.00     0.338 C 
ATOM     25  O   UNL A   1      39.530  20.448  25.865  1.00  0.00    -0.246 OA
BRANCH  24  26
ATOM     26  C   UNL A   1      39.409  22.661  26.679  1.00  0.00     0.060 A 
ATOM     27  C   UNL A   1      38.878  23.856  26.205  1.00  0.00     0.016 A 
ATOM     28  C   UNL A   1      40.509  22.671  27.534  1.00  0.00     0.016 A 
ATOM     29  C   UNL A   1      39.460  25.072  26.534  1.00  0.00     0.010 A 
ATOM     30  C   UNL A   1      41.074  23.901  27.902  1.00  0.00     0.010 A 
ATOM     31  C   UNL A   1      40.571  25.111  27.384  1.00  0.00    -0.014 A 
BRANCH  31  32
ATOM     32  C   UNL A   1      41.210  26.420  27.679  1.00  0.00     0.031 A 
ATOM     33  C   UNL A   1      42.553  26.761  27.090  1.00  0.00     0.074 A 
ATOM     34  C   UNL A   1      40.569  27.321  28.450  1.00  0.00     0.049 A 
ATOM     35  N   UNL A   1      43.292  27.823  27.277  1.00  0.00    -0.248 NA
ATOM     36  C   UNL A   1      43.145  25.774  26.172  1.00  0.00     0.031 C 
ATOM     37  C   UNL A   1      39.253  27.122  29.064  1.00  0.00     0.029 A 
ATOM     38  N   UNL A   1      40.936  28.579  28.858  1.00  0.00    -0.354 N 
ATOM     39  C   UNL A   1      44.459  27.611  26.551  1.00  0.00     0.074 A 
ATOM     40  C   UNL A   1      44.329  26.317  25.918  1.00  0.00     0.031 C 
ATOM     41  C   UNL A   1      38.924  28.218  29.763  1.00  0.00     0.029 A 
ATOM     42  C   UNL A   1      40.027  29.170  29.703  1.00  0.00     0.049 A 
ATOM     43  H   UNL A   1      41.772  29.017  28.572  1.00  0.00     0.167 HD
ATOM     44  C   UNL A   1      45.536  28.423  26.419  1.00  0.00     0.034 A 
ATOM     45  C   UNL A   1      40.088  30.330  30.386  1.00  0.00     0.034 A 
ATOM     46  C   UNL A   1      45.642  29.727  27.019  1.00  0.00     0.049 A 
ATOM     47  C   UNL A   1      41.301  31.204  30.232  1.00  0.00     0.074 A 
ATOM     48  C   UNL A   1      46.675  30.643  26.909  1.00  0.00     0.029 A 
ATOM     49  N   UNL A   1      44.690  30.300  27.848  1.00  0.00    -0.354 N 
ATOM     50  N   UNL A   1      42.363  31.019  29.485  1.00  0.00    -0.248 NA
ATOM     51  C   UNL A   1      41.317  32.458  30.999  1.00  0.00     0.031 C 
ATOM     52  C   UNL A   1      46.362  31.753  27.701  1.00  0.00     0.029 A 
ATOM     53  C   UNL A   1      45.115  31.549  28.270  1.00  0.00     0.049 A 
ATOM     54  H   UNL A   1      43.836  29.880  28.101  1.00  0.00     0.167 HD
ATOM     55  C   UNL A   1      43.156  32.145  29.666  1.00  0.00     0.074 A 
ATOM     56  C   UNL A   1      42.440  33.019  30.573  1.00  0.00     0.031 C 
ATOM     57  C   UNL A   1      44.375  32.426  29.139  1.00  0.00     0.034 A 
BRANCH  44  58
ATOM     58  C   UNL A   1      46.692  27.926  25.588  1.00  0.00     0.023 A 
ATOM     59  C   UNL A   1      46.669  28.067  24.186  1.00  0.00     0.012 A 
ATOM     60  C   UNL A   1      47.828  27.364  26.205  1.00  0.00     0.148 A 
ATOM     61  C   UNL A   1      47.738  27.623  23.409  1.00  0.00     0.002 A 
ATOM     62  C   UNL A   1      48.910  26.968  25.429  1.00  0.00     0.091 A 
ATOM     63  F   UNL A   1      47.825  27.220  27.538  1.00  0.00    -0.205 F 
ATOM     64  C   UNL A   1      48.862  27.084  24.030  1.00  0.00     0.022 A 
BRANCH  62  65
ATOM     65  S   UNL A   1      50.435  26.336  26.139  1.00  0.00     0.127 S 
ATOM     66  O   UNL A   1      49.970  25.116  26.797  1.00  0.00    -0.237 OA
ATOM     67  O   UNL A   1      51.256  26.111  24.950  1.00  0.00    -0.237 OA
ATOM     68  O   UNL A   1      50.927  27.377  27.031  1.00  0.00    -0.744 OA
ENDBRANCH  62  65
ENDBRANCH  44  58
BRANCH  45  69
ATOM     69  C   UNL A   1      38.960  30.733  31.274  1.00  0.00     0.023 A 
ATOM     70  C   UNL A   1      38.886  30.226  32.585  1.00  0.00     0.012 A 
ATOM     71  C   UNL A   1      37.969  31.631  30.828  1.00  0.00     0.148 A 
ATOM     72  C   UNL A   1      37.828  30.579  33.425  1.00  0.00     0.002 A 
ATOM     73  C   UNL A   1      36.954  32.026  31.690  1.00  0.00     0.091 A 
ATOM     74  F   UNL A   1      38.047  32.090  29.572  1.00  0.00    -0.205 F 
ATOM     75  C   UNL A   1      36.870  31.487  32.982  1.00  0.00     0.022 A 
BRANCH  73  76
ATOM     76  S   UNL A   1      35.753  33.288  31.250  1.00  0.00     0.127 S 
ATOM     77  O   UNL A   1      34.526  32.506  31.135  1.00  0.00    -0.237 OA
ATOM     78  O   UNL A   1      35.812  34.176  32.411  1.00  0.00    -0.237 OA
ATOM     79  O   UNL A   1      36.241  33.883  30.013  1.00  0.00    -0.744 OA
ENDBRANCH  73  76
ENDBRANCH  45  69
BRANCH  57  80
ATOM     80  C   UNL A   1      44.995  33.753  29.496  1.00  0.00     0.023 A 
ATOM     81  C   UNL A   1      45.849  33.856  30.613  1.00  0.00     0.012 A 
ATOM     82  C   UNL A   1      44.771  34.888  28.691  1.00  0.00     0.148 A 
ATOM     83  C   UNL A   1      46.434  35.077  30.947  1.00  0.00     0.002 A 
ATOM     84  C   UNL A   1      45.401  36.087  28.998  1.00  0.00     0.091 A 
ATOM     85  F   UNL A   1      43.942  34.774  27.643  1.00  0.00    -0.205 F 
ATOM     86  C   UNL A   1      46.220  36.189  30.134  1.00  0.00     0.022 A 
BRANCH  84  87
ATOM     87  S   UNL A   1      45.264  37.542  27.954  1.00  0.00     0.127 S 
ATOM     88  O   UNL A   1      43.825  37.795  27.983  1.00  0.00    -0.237 OA
ATOM     89  O   UNL A   1      46.071  38.522  28.682  1.00  0.00    -0.237 OA
ATOM     90  O   UNL A   1      45.805  37.158  26.656  1.00  0.00    -0.744 OA
ENDBRANCH  84  87
ENDBRANCH  57  80
ENDBRANCH  31  32
ENDBRANCH  24  26
ENDBRANCH  23  24
ENDBRANCH  22  23
ENDBRANCH   1  22
TORSDOF 19
ENDMDL
