MODEL 1
REMARK VINA RESULT:     -11.0      0.000      0.000
REMARK SMILES C[NH2+][C@]1(C(=O)OCCOC(=O)c2ccc(-c3c4nc(c(-c5cccc(S(=O)(=O)[O-])c5F)c5ccc([nH]5)c(-c5cccc(S(=O)(=O)[O-])c5F)c5nc(c(-c6cccc(S(=O)(=O)[O-])c6F)c6ccc3[nH]6)C=C5)C=C4)cc2)CCC[C@@H]([N@@H+](C)CC(C)C)C1
REMARK SMILES IDX 7 1 6 2 4 3 5 4 3 5 75 6 85 7 76 8 78 9 77 10 2 11 1 12
REMARK SMILES IDX 79 15 80 16 81 18 82 19 83 20 84 21 8 22 9 23 10 24 11 25
REMARK SMILES IDX 12 26 13 27 74 28 14 29 73 30 15 31 16 32 17 33 67 34 18 35
REMARK SMILES IDX 72 36 66 37 68 38 19 39 71 40 65 41 64 42 20 44 52 45 32 46
REMARK SMILES IDX 51 47 33 48 36 49 50 50 69 51 34 52 35 53 49 55 70 56 37 57
REMARK SMILES IDX 21 58 22 59 30 60 23 61 25 62 31 63 24 64 26 65 27 66 28 67
REMARK SMILES IDX 29 68 53 69 54 70 62 71 55 72 57 73 63 74 56 75 58 76 59 77
REMARK SMILES IDX 60 78 61 79 38 80 39 81 47 82 40 83 42 84 48 85 41 86 43 87
REMARK SMILES IDX 44 88 45 89 46 90
REMARK H PARENT 2 13 2 14 79 17 68 43 36 54
REMARK Flexibility Score: inf
ROOT
ATOM      1  C   UNL A   1      38.031  20.243  24.732  1.00  0.00     0.274 C 
ENDROOT
BRANCH   1   2
ATOM      2  O   UNL A   1      36.725  20.402  25.318  1.00  0.00    -0.457 OA
BRANCH   2   3
ATOM      3  C   UNL A   1      36.241  21.678  25.360  1.00  0.00     0.368 C 
ATOM      4  O   UNL A   1      36.936  22.644  25.660  1.00  0.00    -0.245 OA
BRANCH   3   5
ATOM      5  C   UNL A   1      34.691  21.735  25.142  1.00  0.00     0.199 C 
ATOM      6  C   UNL A   1      34.321  22.246  23.729  1.00  0.00     0.081 C 
ATOM      7  C   UNL A   1      34.202  20.276  25.174  1.00  0.00     0.146 C 
ATOM      8  C   UNL A   1      32.815  22.359  23.527  1.00  0.00     0.013 C 
ATOM      9  C   UNL A   1      32.717  20.067  24.801  1.00  0.00     0.190 C 
ATOM     10  C   UNL A   1      32.072  21.056  23.800  1.00  0.00     0.065 C 
BRANCH   5  11
ATOM     11  N   UNL A   1      33.982  22.608  26.126  1.00  0.00    -0.334 N 
ATOM     12  C   UNL A   1      33.894  22.173  27.511  1.00  0.00     0.331 C 
ATOM     13  H   UNL A   1      34.459  23.510  26.125  1.00  0.00     0.347 HD
ATOM     14  H   UNL A   1      33.014  22.609  25.804  1.00  0.00     0.347 HD
ENDBRANCH   5  11
BRANCH   9  15
ATOM     15  N   UNL A   1      32.399  18.650  24.524  1.00  0.00    -0.335 N 
ATOM     16  C   UNL A   1      32.461  18.304  23.108  1.00  0.00     0.332 C 
ATOM     17  H   UNL A   1      31.425  18.656  24.826  1.00  0.00     0.348 HD
BRANCH  15  18
ATOM     18  C   UNL A   1      32.913  17.585  25.399  1.00  0.00     0.265 C 
BRANCH  18  19
ATOM     19  C   UNL A   1      33.465  16.251  24.825  1.00  0.00     0.038 C 
ATOM     20  C   UNL A   1      34.917  15.941  25.192  1.00  0.00     0.013 C 
ATOM     21  C   UNL A   1      32.620  15.086  25.363  1.00  0.00     0.013 C 
ENDBRANCH  18  19
ENDBRANCH  15  18
ENDBRANCH   9  15
ENDBRANCH   3   5
ENDBRANCH   2   3
ENDBRANCH   1   2
BRANCH   1  22
ATOM     22  C   UNL A   1      38.830  19.165  25.465  1.00  0.00     0.275 C 
BRANCH  22  23
ATOM     23  O   UNL A   1      39.507  19.703  26.615  1.00  0.00    -0.458 OA
BRANCH  23  24
ATOM     24  C   UNL A   1      40.808  20.010  26.409  1.00  0.00     0.338 C 
ATOM     25  O   UNL A   1      41.649  19.312  25.850  1.00  0.00    -0.246 OA
BRANCH  24  26
ATOM     26  C   UNL A   1      41.084  21.382  26.851  1.00  0.00     0.060 A 
ATOM     27  C   UNL A   1      40.620  22.431  26.056  1.00  0.00     0.016 A 
ATOM     28  C   UNL A   1      41.867  21.649  27.972  1.00  0.00     0.016 A 
ATOM     29  C   UNL A   1      40.939  23.745  26.346  1.00  0.00     0.010 A 
ATOM     30  C   UNL A   1      42.200  22.976  28.268  1.00  0.00     0.010 A 
ATOM     31  C   UNL A   1      41.749  24.021  27.444  1.00  0.00    -0.014 A 
BRANCH  31  32
ATOM     32  C   UNL A   1      42.169  25.416  27.655  1.00  0.00     0.031 A 
ATOM     33  C   UNL A   1      43.486  25.873  27.110  1.00  0.00     0.074 A 
ATOM     34  C   UNL A   1      41.327  26.272  28.259  1.00  0.00     0.049 A 
ATOM     35  N   UNL A   1      44.052  27.044  27.205  1.00  0.00    -0.248 NA
ATOM     36  C   UNL A   1      44.261  24.884  26.342  1.00  0.00     0.031 C 
ATOM     37  C   UNL A   1      39.988  25.935  28.743  1.00  0.00     0.029 A 
ATOM     38  N   UNL A   1      41.480  27.595  28.577  1.00  0.00    -0.354 N 
ATOM     39  C   UNL A   1      45.263  26.931  26.535  1.00  0.00     0.074 A 
ATOM     40  C   UNL A   1      45.347  25.577  26.030  1.00  0.00     0.031 C 
ATOM     41  C   UNL A   1      39.455  27.017  29.335  1.00  0.00     0.029 A 
ATOM     42  C   UNL A   1      40.429  28.104  29.300  1.00  0.00     0.049 A 
ATOM     43  H   UNL A   1      42.265  28.128  28.314  1.00  0.00     0.167 HD
ATOM     44  C   UNL A   1      46.214  27.876  26.357  1.00  0.00     0.034 A 
ATOM     45  C   UNL A   1      40.294  29.302  29.898  1.00  0.00     0.034 A 
ATOM     46  C   UNL A   1      46.112  29.217  26.865  1.00  0.00     0.049 A 
ATOM     47  C   UNL A   1      41.401  30.309  29.750  1.00  0.00     0.074 A 
ATOM     48  C   UNL A   1      47.021  30.252  26.752  1.00  0.00     0.029 A 
ATOM     49  N   UNL A   1      45.035  29.704  27.592  1.00  0.00    -0.354 N 
ATOM     50  N   UNL A   1      42.516  30.215  29.064  1.00  0.00    -0.248 NA
ATOM     51  C   UNL A   1      41.226  31.596  30.438  1.00  0.00     0.031 C 
ATOM     52  C   UNL A   1      46.503  31.360  27.433  1.00  0.00     0.029 A 
ATOM     53  C   UNL A   1      45.262  31.021  27.949  1.00  0.00     0.049 A 
ATOM     54  H   UNL A   1      44.229  29.188  27.820  1.00  0.00     0.167 HD
ATOM     55  C   UNL A   1      43.161  31.437  29.212  1.00  0.00     0.074 A 
ATOM     56  C   UNL A   1      42.301  32.262  30.036  1.00  0.00     0.031 C 
ATOM     57  C   UNL A   1      44.363  31.836  28.726  1.00  0.00     0.034 A 
BRANCH  44  58
ATOM     58  C   UNL A   1      47.443  27.484  25.584  1.00  0.00     0.023 A 
ATOM     59  C   UNL A   1      48.504  26.834  26.244  1.00  0.00     0.012 A 
ATOM     60  C   UNL A   1      47.535  27.738  24.203  1.00  0.00     0.148 A 
ATOM     61  C   UNL A   1      49.653  26.464  25.543  1.00  0.00     0.002 A 
ATOM     62  C   UNL A   1      48.667  27.334  23.504  1.00  0.00     0.091 A 
ATOM     63  F   UNL A   1      46.527  28.386  23.602  1.00  0.00    -0.205 F 
ATOM     64  C   UNL A   1      49.730  26.705  24.174  1.00  0.00     0.022 A 
BRANCH  62  65
ATOM     65  S   UNL A   1      48.833  27.550  21.729  1.00  0.00     0.127 S 
ATOM     66  O   UNL A   1      49.676  28.741  21.654  1.00  0.00    -0.237 OA
ATOM     67  O   UNL A   1      49.494  26.309  21.327  1.00  0.00    -0.237 OA
ATOM     68  O   UNL A   1      47.479  27.709  21.217  1.00  0.00    -0.744 OA
ENDBRANCH  62  65
ENDBRANCH  44  58
BRANCH  45  69
ATOM     69  C   UNL A   1      39.065  29.607  30.682  1.00  0.00     0.023 A 
ATOM     70  C   UNL A   1      38.886  29.030  31.952  1.00  0.00     0.012 A 
ATOM     71  C   UNL A   1      38.085  30.490  30.184  1.00  0.00     0.148 A 
ATOM     72  C   UNL A   1      37.741  29.305  32.702  1.00  0.00     0.002 A 
ATOM     73  C   UNL A   1      36.974  30.802  30.959  1.00  0.00     0.091 A 
ATOM     74  F   UNL A   1      38.262  31.015  28.964  1.00  0.00    -0.205 F 
ATOM     75  C   UNL A   1      36.793  30.197  32.212  1.00  0.00     0.022 A 
BRANCH  73  76
ATOM     76  S   UNL A   1      35.770  32.036  30.455  1.00  0.00     0.127 S 
ATOM     77  O   UNL A   1      34.893  32.093  31.622  1.00  0.00    -0.237 OA
ATOM     78  O   UNL A   1      36.611  33.218  30.260  1.00  0.00    -0.237 OA
ATOM     79  O   UNL A   1      35.169  31.521  29.233  1.00  0.00    -0.744 OA
ENDBRANCH  73  76
ENDBRANCH  45  69
BRANCH  57  80
ATOM     80  C   UNL A   1      44.810  33.237  29.051  1.00  0.00     0.023 A 
ATOM     81  C   UNL A   1      45.465  33.494  30.271  1.00  0.00     0.012 A 
ATOM     82  C   UNL A   1      44.656  34.276  28.113  1.00  0.00     0.148 A 
ATOM     83  C   UNL A   1      45.938  34.771  30.565  1.00  0.00     0.002 A 
ATOM     84  C   UNL A   1      45.172  35.535  28.392  1.00  0.00     0.091 A 
ATOM     85  F   UNL A   1      44.012  34.014  26.967  1.00  0.00    -0.205 F 
ATOM     86  C   UNL A   1      45.803  35.787  29.621  1.00  0.00     0.022 A 
BRANCH  84  87
ATOM     87  S   UNL A   1      45.131  36.874  27.196  1.00  0.00     0.127 S 
ATOM     88  O   UNL A   1      45.970  36.342  26.124  1.00  0.00    -0.237 OA
ATOM     89  O   UNL A   1      43.708  36.961  26.871  1.00  0.00    -0.237 OA
ATOM     90  O   UNL A   1      45.662  38.042  27.887  1.00  0.00    -0.744 OA
ENDBRANCH  84  87
ENDBRANCH  57  80
ENDBRANCH  31  32
ENDBRANCH  24  26
ENDBRANCH  23  24
ENDBRANCH  22  23
ENDBRANCH   1  22
TORSDOF 18
ENDMDL
MODEL 2
REMARK VINA RESULT:     -10.6      2.045      8.449
REMARK SMILES C[NH2+][C@]1(C(=O)OCCOC(=O)c2ccc(-c3c4nc(c(-c5cccc(S(=O)(=O)[O-])c5F)c5ccc([nH]5)c(-c5cccc(S(=O)(=O)[O-])c5F)c5nc(c(-c6cccc(S(=O)(=O)[O-])c6F)c6ccc3[nH]6)C=C5)C=C4)cc2)CCC[C@@H]([N@@H+](C)CC(C)C)C1
REMARK SMILES IDX 7 1 6 2 4 3 5 4 3 5 75 6 85 7 76 8 78 9 77 10 2 11 1 12
REMARK SMILES IDX 79 15 80 16 81 18 82 19 83 20 84 21 8 22 9 23 10 24 11 25
REMARK SMILES IDX 12 26 13 27 74 28 14 29 73 30 15 31 16 32 17 33 67 34 18 35
REMARK SMILES IDX 72 36 66 37 68 38 19 39 71 40 65 41 64 42 20 44 52 45 32 46
REMARK SMILES IDX 51 47 33 48 36 49 50 50 69 51 34 52 35 53 49 55 70 56 37 57
REMARK SMILES IDX 21 58 22 59 30 60 23 61 25 62 31 63 24 64 26 65 27 66 28 67
REMARK SMILES IDX 29 68 53 69 54 70 62 71 55 72 57 73 63 74 56 75 58 76 59 77
REMARK SMILES IDX 60 78 61 79 38 80 39 81 47 82 40 83 42 84 48 85 41 86 43 87
REMARK SMILES IDX 44 88 45 89 46 90
REMARK H PARENT 2 13 2 14 79 17 68 43 36 54
REMARK Flexibility Score: inf
ROOT
ATOM      1  C   UNL A   1      36.641  22.186  23.913  1.00  0.00     0.274 C 
ENDROOT
BRANCH   1   2
ATOM      2  O   UNL A   1      35.396  22.570  24.527  1.00  0.00    -0.457 OA
BRANCH   2   3
ATOM      3  C   UNL A   1      34.505  23.215  23.718  1.00  0.00     0.368 C 
ATOM      4  O   UNL A   1      34.799  23.627  22.600  1.00  0.00    -0.245 OA
BRANCH   3   5
ATOM      5  C   UNL A   1      33.144  23.500  24.439  1.00  0.00     0.199 C 
ATOM      6  C   UNL A   1      33.310  23.609  25.973  1.00  0.00     0.081 C 
ATOM      7  C   UNL A   1      32.709  24.905  23.987  1.00  0.00     0.146 C 
ATOM      8  C   UNL A   1      31.983  23.830  26.687  1.00  0.00     0.013 C 
ATOM      9  C   UNL A   1      31.471  25.479  24.712  1.00  0.00     0.190 C 
ATOM     10  C   UNL A   1      31.219  25.047  26.177  1.00  0.00     0.065 C 
BRANCH   5  11
ATOM     11  N   UNL A   1      32.104  22.458  24.182  1.00  0.00    -0.334 N 
ATOM     12  C   UNL A   1      32.277  21.562  23.049  1.00  0.00     0.331 C 
ATOM     13  H   UNL A   1      32.050  21.876  25.018  1.00  0.00     0.347 HD
ATOM     14  H   UNL A   1      31.268  22.994  23.950  1.00  0.00     0.347 HD
ENDBRANCH   5  11
BRANCH   9  15
ATOM     15  N   UNL A   1      31.307  26.930  24.486  1.00  0.00    -0.335 N 
ATOM     16  C   UNL A   1      30.350  27.253  23.432  1.00  0.00     0.332 C 
ATOM     17  H   UNL A   1      32.250  27.137  24.158  1.00  0.00     0.348 HD
BRANCH  15  18
ATOM     18  C   UNL A   1      31.243  27.861  25.624  1.00  0.00     0.265 C 
BRANCH  18  19
ATOM     19  C   UNL A   1      32.504  28.606  26.144  1.00  0.00     0.038 C 
ATOM     20  C   UNL A   1      33.805  28.250  25.424  1.00  0.00     0.013 C 
ATOM     21  C   UNL A   1      32.303  30.118  25.962  1.00  0.00     0.013 C 
ENDBRANCH  18  19
ENDBRANCH  15  18
ENDBRANCH   9  15
ENDBRANCH   3   5
ENDBRANCH   2   3
ENDBRANCH   1   2
BRANCH   1  22
ATOM     22  C   UNL A   1      37.254  20.983  24.629  1.00  0.00     0.275 C 
BRANCH  22  23
ATOM     23  O   UNL A   1      37.705  21.331  25.950  1.00  0.00    -0.458 OA
BRANCH  23  24
ATOM     24  C   UNL A   1      39.031  21.167  26.154  1.00  0.00     0.338 C 
ATOM     25  O   UNL A   1      39.707  20.188  25.852  1.00  0.00    -0.246 OA
BRANCH  24  26
ATOM     26  C   UNL A   1      39.618  22.397  26.701  1.00  0.00     0.060 A 
ATOM     27  C   UNL A   1      39.186  23.617  26.180  1.00  0.00     0.016 A 
ATOM     28  C   UNL A   1      40.648  22.364  27.640  1.00  0.00     0.016 A 
ATOM     29  C   UNL A   1      39.773  24.808  26.563  1.00  0.00     0.010 A 
ATOM     30  C   UNL A   1      41.252  23.565  28.028  1.00  0.00     0.010 A 
ATOM     31  C   UNL A   1      40.825  24.785  27.475  1.00  0.00    -0.014 A 
BRANCH  31  32
ATOM     32  C   UNL A   1      41.508  26.055  27.769  1.00  0.00     0.031 A 
ATOM     33  C   UNL A   1      40.785  27.110  28.545  1.00  0.00     0.074 A 
ATOM     34  C   UNL A   1      42.792  26.212  27.405  1.00  0.00     0.049 A 
ATOM     35  N   UNL A   1      41.191  28.301  28.889  1.00  0.00    -0.248 NA
ATOM     36  C   UNL A   1      39.430  26.773  29.014  1.00  0.00     0.031 C 
ATOM     37  C   UNL A   1      43.603  25.202  26.722  1.00  0.00     0.029 A 
ATOM     38  N   UNL A   1      43.635  27.281  27.551  1.00  0.00    -0.354 N 
ATOM     39  C   UNL A   1      40.136  28.871  29.589  1.00  0.00     0.074 A 
ATOM     40  C   UNL A   1      39.072  27.891  29.630  1.00  0.00     0.031 C 
ATOM     41  C   UNL A   1      44.817  25.718  26.471  1.00  0.00     0.029 A 
ATOM     42  C   UNL A   1      44.853  27.098  26.944  1.00  0.00     0.049 A 
ATOM     43  H   UNL A   1      43.391  28.099  28.042  1.00  0.00     0.167 HD
ATOM     44  C   UNL A   1      40.068  30.100  30.148  1.00  0.00     0.034 A 
ATOM     45  C   UNL A   1      45.864  27.968  26.760  1.00  0.00     0.034 A 
ATOM     46  C   UNL A   1      41.137  31.060  30.099  1.00  0.00     0.049 A 
ATOM     47  C   UNL A   1      45.731  29.355  27.326  1.00  0.00     0.074 A 
ATOM     48  C   UNL A   1      41.170  32.339  30.623  1.00  0.00     0.029 A 
ATOM     49  N   UNL A   1      42.359  30.846  29.479  1.00  0.00    -0.354 N 
ATOM     50  N   UNL A   1      44.755  29.866  28.039  1.00  0.00    -0.248 NA
ATOM     51  C   UNL A   1      46.846  30.281  27.083  1.00  0.00     0.031 C 
ATOM     52  C   UNL A   1      42.408  32.907  30.298  1.00  0.00     0.029 A 
ATOM     53  C   UNL A   1      43.152  31.974  29.593  1.00  0.00     0.049 A 
ATOM     54  H   UNL A   1      42.624  30.014  29.025  1.00  0.00     0.167 HD
ATOM     55  C   UNL A   1      45.148  31.161  28.355  1.00  0.00     0.074 A 
ATOM     56  C   UNL A   1      46.462  31.348  27.773  1.00  0.00     0.031 C 
ATOM     57  C   UNL A   1      44.479  32.115  29.048  1.00  0.00     0.034 A 
BRANCH  44  58
ATOM     58  C   UNL A   1      38.793  30.469  30.856  1.00  0.00     0.023 A 
ATOM     59  C   UNL A   1      38.630  30.143  32.216  1.00  0.00     0.012 A 
ATOM     60  C   UNL A   1      37.770  31.160  30.179  1.00  0.00     0.148 A 
ATOM     61  C   UNL A   1      37.454  30.478  32.888  1.00  0.00     0.002 A 
ATOM     62  C   UNL A   1      36.616  31.521  30.864  1.00  0.00     0.091 A 
ATOM     63  F   UNL A   1      37.934  31.431  28.877  1.00  0.00    -0.205 F 
ATOM     64  C   UNL A   1      36.452  31.174  32.216  1.00  0.00     0.022 A 
BRANCH  62  65
ATOM     65  S   UNL A   1      35.296  32.469  30.099  1.00  0.00     0.127 S 
ATOM     66  O   UNL A   1      34.350  32.604  31.205  1.00  0.00    -0.237 OA
ATOM     67  O   UNL A   1      35.981  33.708  29.727  1.00  0.00    -0.237 OA
ATOM     68  O   UNL A   1      34.832  31.672  28.972  1.00  0.00    -0.744 OA
ENDBRANCH  62  65
ENDBRANCH  44  58
BRANCH  45  69
ATOM     69  C   UNL A   1      47.081  27.546  26.014  1.00  0.00     0.023 A 
ATOM     70  C   UNL A   1      48.095  26.831  26.679  1.00  0.00     0.012 A 
ATOM     71  C   UNL A   1      47.227  27.826  24.640  1.00  0.00     0.148 A 
ATOM     72  C   UNL A   1      49.243  26.425  25.997  1.00  0.00     0.002 A 
ATOM     73  C   UNL A   1      48.348  27.372  23.955  1.00  0.00     0.091 A 
ATOM     74  F   UNL A   1      46.262  28.526  24.028  1.00  0.00    -0.205 F 
ATOM     75  C   UNL A   1      49.364  26.686  24.635  1.00  0.00     0.022 A 
BRANCH  73  76
ATOM     76  S   UNL A   1      48.523  27.557  22.176  1.00  0.00     0.127 S 
ATOM     77  O   UNL A   1      48.712  26.173  21.749  1.00  0.00    -0.237 OA
ATOM     78  O   UNL A   1      47.235  28.144  21.804  1.00  0.00    -0.237 OA
ATOM     79  O   UNL A   1      49.662  28.443  21.984  1.00  0.00    -0.744 OA
ENDBRANCH  73  76
ENDBRANCH  45  69
BRANCH  57  80
ATOM     80  C   UNL A   1      45.164  33.441  29.239  1.00  0.00     0.023 A 
ATOM     81  C   UNL A   1      45.981  33.646  30.369  1.00  0.00     0.012 A 
ATOM     82  C   UNL A   1      45.067  34.449  28.261  1.00  0.00     0.148 A 
ATOM     83  C   UNL A   1      46.670  34.846  30.535  1.00  0.00     0.002 A 
ATOM     84  C   UNL A   1      45.794  35.623  28.409  1.00  0.00     0.091 A 
ATOM     85  F   UNL A   1      44.269  34.240  27.204  1.00  0.00    -0.205 F 
ATOM     86  C   UNL A   1      46.587  35.828  29.550  1.00  0.00     0.022 A 
BRANCH  84  87
ATOM     87  S   UNL A   1      45.824  36.898  27.144  1.00  0.00     0.127 S 
ATOM     88  O   UNL A   1      46.700  37.899  27.751  1.00  0.00    -0.237 OA
ATOM     89  O   UNL A   1      46.403  36.192  26.001  1.00  0.00    -0.237 OA
ATOM     90  O   UNL A   1      44.438  37.307  26.959  1.00  0.00    -0.744 OA
ENDBRANCH  84  87
ENDBRANCH  57  80
ENDBRANCH  31  32
ENDBRANCH  24  26
ENDBRANCH  23  24
ENDBRANCH  22  23
ENDBRANCH   1  22
TORSDOF 18
ENDMDL
MODEL 3
REMARK VINA RESULT:     -10.5      5.524      8.221
REMARK SMILES C[NH2+][C@]1(C(=O)OCCOC(=O)c2ccc(-c3c4nc(c(-c5cccc(S(=O)(=O)[O-])c5F)c5ccc([nH]5)c(-c5cccc(S(=O)(=O)[O-])c5F)c5nc(c(-c6cccc(S(=O)(=O)[O-])c6F)c6ccc3[nH]6)C=C5)C=C4)cc2)CCC[C@@H]([N@@H+](C)CC(C)C)C1
REMARK SMILES IDX 7 1 6 2 4 3 5 4 3 5 75 6 85 7 76 8 78 9 77 10 2 11 1 12
REMARK SMILES IDX 79 15 80 16 81 18 82 19 83 20 84 21 8 22 9 23 10 24 11 25
REMARK SMILES IDX 12 26 13 27 74 28 14 29 73 30 15 31 16 32 17 33 67 34 18 35
REMARK SMILES IDX 72 36 66 37 68 38 19 39 71 40 65 41 64 42 20 44 52 45 32 46
REMARK SMILES IDX 51 47 33 48 36 49 50 50 69 51 34 52 35 53 49 55 70 56 37 57
REMARK SMILES IDX 21 58 22 59 30 60 23 61 25 62 31 63 24 64 26 65 27 66 28 67
REMARK SMILES IDX 29 68 53 69 54 70 62 71 55 72 57 73 63 74 56 75 58 76 59 77
REMARK SMILES IDX 60 78 61 79 38 80 39 81 47 82 40 83 42 84 48 85 41 86 43 87
REMARK SMILES IDX 44 88 45 89 46 90
REMARK H PARENT 2 13 2 14 79 17 68 43 36 54
REMARK Flexibility Score: inf
ROOT
ATOM      1  C   UNL A   1      31.405  28.426  25.633  1.00  0.00     0.274 C 
ENDROOT
BRANCH   1   2
ATOM      2  O   UNL A   1      32.212  27.243  25.788  1.00  0.00    -0.457 OA
BRANCH   2   3
ATOM      3  C   UNL A   1      32.801  26.770  24.652  1.00  0.00     0.368 C 
ATOM      4  O   UNL A   1      33.340  27.502  23.827  1.00  0.00    -0.245 OA
BRANCH   3   5
ATOM      5  C   UNL A   1      32.569  25.233  24.456  1.00  0.00     0.199 C 
ATOM      6  C   UNL A   1      33.206  24.711  23.145  1.00  0.00     0.081 C 
ATOM      7  C   UNL A   1      33.354  24.536  25.581  1.00  0.00     0.146 C 
ATOM      8  C   UNL A   1      32.936  23.229  22.918  1.00  0.00     0.013 C 
ATOM      9  C   UNL A   1      33.419  22.995  25.486  1.00  0.00     0.190 C 
ATOM     10  C   UNL A   1      33.386  22.350  24.080  1.00  0.00     0.065 C 
BRANCH   5  11
ATOM     11  N   UNL A   1      31.125  24.847  24.427  1.00  0.00    -0.334 N 
ATOM     12  C   UNL A   1      30.218  25.598  23.573  1.00  0.00     0.331 C 
ATOM     13  H   UNL A   1      31.081  23.872  24.128  1.00  0.00     0.347 HD
ATOM     14  H   UNL A   1      30.798  25.045  25.372  1.00  0.00     0.347 HD
ENDBRANCH   5  11
BRANCH   9  15
ATOM     15  N   UNL A   1      34.445  22.418  26.379  1.00  0.00    -0.335 N 
ATOM     16  C   UNL A   1      33.903  21.892  27.629  1.00  0.00     0.332 C 
ATOM     17  H   UNL A   1      34.970  23.270  26.573  1.00  0.00     0.348 HD
BRANCH  15  18
ATOM     18  C   UNL A   1      35.531  21.589  25.831  1.00  0.00     0.265 C 
BRANCH  18  19
ATOM     19  C   UNL A   1      36.866  22.213  25.338  1.00  0.00     0.038 C 
ATOM     20  C   UNL A   1      37.020  22.288  23.818  1.00  0.00     0.013 C 
ATOM     21  C   UNL A   1      36.968  23.654  25.859  1.00  0.00     0.013 C 
ENDBRANCH  18  19
ENDBRANCH  15  18
ENDBRANCH   9  15
ENDBRANCH   3   5
ENDBRANCH   2   3
ENDBRANCH   1   2
BRANCH   1  22
ATOM     22  C   UNL A   1      31.800  29.493  26.654  1.00  0.00     0.275 C 
BRANCH  22  23
ATOM     23  O   UNL A   1      32.967  30.219  26.231  1.00  0.00    -0.458 OA
BRANCH  23  24
ATOM     24  C   UNL A   1      33.332  31.228  27.055  1.00  0.00     0.338 C 
ATOM     25  O   UNL A   1      32.646  32.189  27.390  1.00  0.00    -0.246 OA
BRANCH  24  26
ATOM     26  C   UNL A   1      34.663  30.970  27.617  1.00  0.00     0.060 A 
ATOM     27  C   UNL A   1      35.009  29.648  27.901  1.00  0.00     0.016 A 
ATOM     28  C   UNL A   1      35.531  32.006  27.956  1.00  0.00     0.016 A 
ATOM     29  C   UNL A   1      36.197  29.339  28.536  1.00  0.00     0.010 A 
ATOM     30  C   UNL A   1      36.733  31.702  28.605  1.00  0.00     0.010 A 
ATOM     31  C   UNL A   1      37.056  30.368  28.910  1.00  0.00    -0.014 A 
BRANCH  31  32
ATOM     32  C   UNL A   1      38.253  30.016  29.690  1.00  0.00     0.031 A 
ATOM     33  C   UNL A   1      39.239  29.047  29.118  1.00  0.00     0.074 A 
ATOM     34  C   UNL A   1      38.478  30.631  30.865  1.00  0.00     0.049 A 
ATOM     35  N   UNL A   1      40.339  28.585  29.646  1.00  0.00    -0.248 NA
ATOM     36  C   UNL A   1      38.960  28.545  27.762  1.00  0.00     0.031 C 
ATOM     37  C   UNL A   1      37.614  31.653  31.458  1.00  0.00     0.029 A 
ATOM     38  N   UNL A   1      39.494  30.477  31.770  1.00  0.00    -0.354 N 
ATOM     39  C   UNL A   1      40.872  27.716  28.704  1.00  0.00     0.074 A 
ATOM     40  C   UNL A   1      39.979  27.720  27.565  1.00  0.00     0.031 C 
ATOM     41  C   UNL A   1      38.118  32.006  32.652  1.00  0.00     0.029 A 
ATOM     42  C   UNL A   1      39.314  31.211  32.916  1.00  0.00     0.049 A 
ATOM     43  H   UNL A   1      40.274  29.898  31.613  1.00  0.00     0.167 HD
ATOM     44  C   UNL A   1      42.007  26.985  28.785  1.00  0.00     0.034 A 
ATOM     45  C   UNL A   1      40.019  31.206  34.063  1.00  0.00     0.034 A 
ATOM     46  C   UNL A   1      42.883  26.995  29.924  1.00  0.00     0.049 A 
ATOM     47  C   UNL A   1      41.234  30.325  34.155  1.00  0.00     0.074 A 
ATOM     48  C   UNL A   1      44.053  26.285  30.118  1.00  0.00     0.029 A 
ATOM     49  N   UNL A   1      42.676  27.750  31.070  1.00  0.00    -0.354 N 
ATOM     50  N   UNL A   1      41.765  29.552  33.238  1.00  0.00    -0.248 NA
ATOM     51  C   UNL A   1      41.962  30.329  35.432  1.00  0.00     0.031 C 
ATOM     52  C   UNL A   1      44.542  26.594  31.393  1.00  0.00     0.029 A 
ATOM     53  C   UNL A   1      43.689  27.513  31.983  1.00  0.00     0.049 A 
ATOM     54  H   UNL A   1      41.920  28.364  31.213  1.00  0.00     0.167 HD
ATOM     55  C   UNL A   1      42.904  29.001  33.813  1.00  0.00     0.074 A 
ATOM     56  C   UNL A   1      42.997  29.547  35.152  1.00  0.00     0.031 C 
ATOM     57  C   UNL A   1      43.784  28.111  33.290  1.00  0.00     0.034 A 
BRANCH  44  58
ATOM     58  C   UNL A   1      42.356  26.115  27.609  1.00  0.00     0.023 A 
ATOM     59  C   UNL A   1      43.134  26.640  26.559  1.00  0.00     0.012 A 
ATOM     60  C   UNL A   1      41.934  24.773  27.558  1.00  0.00     0.148 A 
ATOM     61  C   UNL A   1      43.467  25.846  25.460  1.00  0.00     0.002 A 
ATOM     62  C   UNL A   1      42.299  23.978  26.478  1.00  0.00     0.091 A 
ATOM     63  F   UNL A   1      41.168  24.304  28.553  1.00  0.00    -0.205 F 
ATOM     64  C   UNL A   1      43.059  24.515  25.425  1.00  0.00     0.022 A 
BRANCH  62  65
ATOM     65  S   UNL A   1      41.869  22.238  26.370  1.00  0.00     0.127 S 
ATOM     66  O   UNL A   1      40.416  22.303  26.222  1.00  0.00    -0.237 OA
ATOM     67  O   UNL A   1      42.586  21.815  25.168  1.00  0.00    -0.237 OA
ATOM     68  O   UNL A   1      42.345  21.631  27.605  1.00  0.00    -0.744 OA
ENDBRANCH  62  65
ENDBRANCH  44  58
BRANCH  45  69
ATOM     69  C   UNL A   1      39.592  32.064  35.202  1.00  0.00     0.023 A 
ATOM     70  C   UNL A   1      39.931  33.430  35.213  1.00  0.00     0.012 A 
ATOM     71  C   UNL A   1      38.827  31.538  36.263  1.00  0.00     0.148 A 
ATOM     72  C   UNL A   1      39.538  34.251  36.271  1.00  0.00     0.002 A 
ATOM     73  C   UNL A   1      38.394  32.373  37.287  1.00  0.00     0.091 A 
ATOM     74  F   UNL A   1      38.531  30.231  36.248  1.00  0.00    -0.205 F 
ATOM     75  C   UNL A   1      38.762  33.726  37.300  1.00  0.00     0.022 A 
BRANCH  73  76
ATOM     76  S   UNL A   1      37.287  31.804  38.583  1.00  0.00     0.127 S 
ATOM     77  O   UNL A   1      37.027  30.428  38.171  1.00  0.00    -0.237 OA
ATOM     78  O   UNL A   1      38.123  31.941  39.777  1.00  0.00    -0.237 OA
ATOM     79  O   UNL A   1      36.145  32.706  38.546  1.00  0.00    -0.744 OA
ENDBRANCH  73  76
ENDBRANCH  45  69
BRANCH  57  80
ATOM     80  C   UNL A   1      44.941  27.691  34.157  1.00  0.00     0.023 A 
ATOM     81  C   UNL A   1      46.130  28.446  34.146  1.00  0.00     0.012 A 
ATOM     82  C   UNL A   1      44.818  26.602  35.041  1.00  0.00     0.148 A 
ATOM     83  C   UNL A   1      47.191  28.107  34.983  1.00  0.00     0.002 A 
ATOM     84  C   UNL A   1      45.862  26.299  35.906  1.00  0.00     0.091 A 
ATOM     85  F   UNL A   1      43.686  25.885  35.020  1.00  0.00    -0.205 F 
ATOM     86  C   UNL A   1      47.052  27.042  35.871  1.00  0.00     0.022 A 
BRANCH  84  87
ATOM     87  S   UNL A   1      45.731  25.009  37.150  1.00  0.00     0.127 S 
ATOM     88  O   UNL A   1      46.719  25.444  38.136  1.00  0.00    -0.237 OA
ATOM     89  O   UNL A   1      44.340  25.132  37.585  1.00  0.00    -0.237 OA
ATOM     90  O   UNL A   1      46.038  23.761  36.463  1.00  0.00    -0.744 OA
ENDBRANCH  84  87
ENDBRANCH  57  80
ENDBRANCH  31  32
ENDBRANCH  24  26
ENDBRANCH  23  24
ENDBRANCH  22  23
ENDBRANCH   1  22
TORSDOF 18
ENDMDL
