MODEL 1
REMARK VINA RESULT:     -12.1      0.000      0.000
REMARK SMILES Cc1ccc(C(=O)N[C@@H]2C=C[C@H](C(=O)OCCOC(=O)c3ccc(-c4c5nc(c(-c6cccc(S(=O)(=O)[O-])c6F)c6ccc([nH]6)c(-c6cccc(S(=O)(=O)[O-])c6F)c6nc(c(-c7cccc(S(=O)(=O)[O-])c7F)c7ccc4[nH]7)C=C6)C=C5)cc3)C2)c(F)c1
REMARK SMILES IDX 17 1 16 2 15 3 13 4 14 5 12 6 9 7 10 8 84 9 11 10 8 11 6 12
REMARK SMILES IDX 7 13 5 15 1 16 2 17 3 18 87 19 4 20 85 21 86 22 18 23 19 24
REMARK SMILES IDX 20 25 21 26 22 27 83 28 23 29 82 30 24 31 25 32 26 33 76 34
REMARK SMILES IDX 27 35 81 36 75 37 77 38 28 39 80 40 74 41 73 42 29 44 61 45
REMARK SMILES IDX 41 46 60 47 42 48 45 49 59 50 78 51 43 52 44 53 58 55 79 56
REMARK SMILES IDX 46 57 30 58 31 59 39 60 32 61 34 62 40 63 33 64 35 65 36 66
REMARK SMILES IDX 37 67 38 68 62 69 63 70 71 71 64 72 66 73 72 74 65 75 67 76
REMARK SMILES IDX 68 77 69 78 70 79 47 80 48 81 56 82 49 83 51 84 57 85 50 86
REMARK SMILES IDX 52 87 53 88 54 89 55 90
REMARK H PARENT 8 14 77 43 45 54
REMARK Flexibility Score: inf
ROOT
ATOM      1  C   UNL A   1      37.509  20.036  24.966  1.00  0.00     0.275 C 
ENDROOT
BRANCH   1   2
ATOM      2  C   UNL A   1      36.010  20.311  24.982  1.00  0.00     0.274 C 
BRANCH   2   3
ATOM      3  O   UNL A   1      35.656  21.131  26.114  1.00  0.00    -0.462 OA
BRANCH   3   4
ATOM      4  C   UNL A   1      34.322  21.391  26.254  1.00  0.00     0.312 C 
ATOM      5  O   UNL A   1      33.435  20.552  26.171  1.00  0.00    -0.252 OA
BRANCH   4   6
ATOM      6  C   UNL A   1      34.087  22.890  26.421  1.00  0.00     0.124 C 
ATOM      7  C   UNL A   1      33.666  24.805  24.909  1.00  0.00     0.106 C 
ATOM      8  C   UNL A   1      35.093  24.730  25.346  1.00  0.00    -0.006 C 
ATOM      9  C   UNL A   1      33.089  23.467  25.406  1.00  0.00     0.048 C 
ATOM     10  C   UNL A   1      35.325  23.693  26.157  1.00  0.00    -0.014 C 
BRANCH   7  11
ATOM     11  N   UNL A   1      33.655  25.046  23.477  1.00  0.00    -0.346 N 
ATOM     12  C   UNL A   1      33.486  26.192  22.740  1.00  0.00     0.254 C 
ATOM     13  O   UNL A   1      33.700  26.178  21.533  1.00  0.00    -0.269 OA
ATOM     14  H   UNL A   1      33.795  24.238  22.935  1.00  0.00     0.164 HD
BRANCH  12  15
ATOM     15  C   UNL A   1      33.000  27.422  23.377  1.00  0.00     0.075 A 
ATOM     16  C   UNL A   1      31.291  30.588  25.713  1.00  0.00     0.044 C 
ATOM     17  C   UNL A   1      31.912  29.534  24.849  1.00  0.00    -0.048 A 
ATOM     18  C   UNL A   1      33.288  29.273  24.899  1.00  0.00     0.004 A 
ATOM     19  C   UNL A   1      31.108  28.798  23.969  1.00  0.00     0.043 A 
ATOM     20  C   UNL A   1      33.836  28.225  24.155  1.00  0.00     0.017 A 
ATOM     21  C   UNL A   1      31.655  27.749  23.237  1.00  0.00     0.136 A 
ATOM     22  F   UNL A   1      30.844  27.035  22.445  1.00  0.00    -0.206 F 
ENDBRANCH  12  15
ENDBRANCH   7  11
ENDBRANCH   4   6
ENDBRANCH   3   4
ENDBRANCH   2   3
ENDBRANCH   1   2
BRANCH   1  23
ATOM     23  O   UNL A   1      38.224  21.233  25.314  1.00  0.00    -0.458 OA
BRANCH  23  24
ATOM     24  C   UNL A   1      39.331  21.045  26.067  1.00  0.00     0.338 C 
ATOM     25  O   UNL A   1      39.905  19.984  26.268  1.00  0.00    -0.246 OA
BRANCH  24  26
ATOM     26  C   UNL A   1      39.781  22.325  26.642  1.00  0.00     0.060 A 
ATOM     27  C   UNL A   1      39.234  23.530  26.205  1.00  0.00     0.016 A 
ATOM     28  C   UNL A   1      40.856  22.326  27.532  1.00  0.00     0.016 A 
ATOM     29  C   UNL A   1      39.824  24.737  26.585  1.00  0.00     0.010 A 
ATOM     30  C   UNL A   1      41.387  23.540  27.980  1.00  0.00     0.010 A 
ATOM     31  C   UNL A   1      40.904  24.762  27.482  1.00  0.00    -0.014 A 
BRANCH  31  32
ATOM     32  C   UNL A   1      41.510  26.057  27.905  1.00  0.00     0.031 A 
ATOM     33  C   UNL A   1      40.702  27.090  28.649  1.00  0.00     0.074 A 
ATOM     34  C   UNL A   1      42.797  26.324  27.602  1.00  0.00     0.049 A 
ATOM     35  N   UNL A   1      41.026  28.322  28.958  1.00  0.00    -0.248 NA
ATOM     36  C   UNL A   1      39.353  26.701  29.091  1.00  0.00     0.031 C 
ATOM     37  C   UNL A   1      43.698  25.424  26.880  1.00  0.00     0.029 A 
ATOM     38  N   UNL A   1      43.569  27.435  27.850  1.00  0.00    -0.354 N 
ATOM     39  C   UNL A   1      39.908  28.869  29.579  1.00  0.00     0.074 A 
ATOM     40  C   UNL A   1      38.894  27.837  29.602  1.00  0.00     0.031 C 
ATOM     41  C   UNL A   1      44.900  26.004  26.762  1.00  0.00     0.029 A 
ATOM     42  C   UNL A   1      44.839  27.348  27.328  1.00  0.00     0.049 A 
ATOM     43  H   UNL A   1      43.244  28.216  28.352  1.00  0.00     0.167 HD
ATOM     44  C   UNL A   1      39.750  30.108  30.105  1.00  0.00     0.034 A 
ATOM     45  C   UNL A   1      45.837  28.253  27.269  1.00  0.00     0.034 A 
ATOM     46  C   UNL A   1      40.784  31.108  30.172  1.00  0.00     0.049 A 
ATOM     47  C   UNL A   1      45.633  29.618  27.860  1.00  0.00     0.074 A 
ATOM     48  C   UNL A   1      40.726  32.363  30.754  1.00  0.00     0.029 A 
ATOM     49  N   UNL A   1      42.063  30.966  29.659  1.00  0.00    -0.354 N 
ATOM     50  N   UNL A   1      44.594  30.090  28.503  1.00  0.00    -0.248 NA
ATOM     51  C   UNL A   1      46.740  30.575  27.723  1.00  0.00     0.031 C 
ATOM     52  C   UNL A   1      41.969  32.985  30.586  1.00  0.00     0.029 A 
ATOM     53  C   UNL A   1      42.799  32.115  29.900  1.00  0.00     0.049 A 
ATOM     54  H   UNL A   1      42.398  30.166  29.193  1.00  0.00     0.167 HD
ATOM     55  C   UNL A   1      44.920  31.395  28.848  1.00  0.00     0.074 A 
ATOM     56  C   UNL A   1      46.269  31.629  28.378  1.00  0.00     0.031 C 
ATOM     57  C   UNL A   1      44.156  32.327  29.468  1.00  0.00     0.034 A 
BRANCH  44  58
ATOM     58  C   UNL A   1      38.417  30.456  30.714  1.00  0.00     0.023 A 
ATOM     59  C   UNL A   1      38.177  30.152  32.067  1.00  0.00     0.012 A 
ATOM     60  C   UNL A   1      37.457  31.185  29.985  1.00  0.00     0.148 A 
ATOM     61  C   UNL A   1      36.999  30.563  32.687  1.00  0.00     0.002 A 
ATOM     62  C   UNL A   1      36.296  31.619  30.618  1.00  0.00     0.091 A 
ATOM     63  F   UNL A   1      37.697  31.448  28.693  1.00  0.00    -0.205 F 
ATOM     64  C   UNL A   1      36.065  31.306  31.968  1.00  0.00     0.022 A 
BRANCH  62  65
ATOM     65  S   UNL A   1      35.069  32.641  29.795  1.00  0.00     0.127 S 
ATOM     66  O   UNL A   1      34.168  32.971  30.899  1.00  0.00    -0.237 OA
ATOM     67  O   UNL A   1      35.872  33.764  29.310  1.00  0.00    -0.237 OA
ATOM     68  O   UNL A   1      34.495  31.811  28.744  1.00  0.00    -0.744 OA
ENDBRANCH  62  65
ENDBRANCH  44  58
BRANCH  45  69
ATOM     69  C   UNL A   1      47.127  27.873  26.628  1.00  0.00     0.023 A 
ATOM     70  C   UNL A   1      48.169  27.356  27.418  1.00  0.00     0.012 A 
ATOM     71  C   UNL A   1      47.297  27.948  25.231  1.00  0.00     0.148 A 
ATOM     72  C   UNL A   1      49.358  26.923  26.829  1.00  0.00     0.002 A 
ATOM     73  C   UNL A   1      48.454  27.450  24.647  1.00  0.00     0.091 A 
ATOM     74  F   UNL A   1      46.312  28.478  24.492  1.00  0.00    -0.205 F 
ATOM     75  C   UNL A   1      49.494  26.951  25.443  1.00  0.00     0.022 A 
BRANCH  73  76
ATOM     76  S   UNL A   1      48.587  27.296  22.862  1.00  0.00     0.127 S 
ATOM     77  O   UNL A   1      49.973  27.686  22.622  1.00  0.00    -0.237 OA
ATOM     78  O   UNL A   1      48.300  25.877  22.640  1.00  0.00    -0.237 OA
ATOM     79  O   UNL A   1      47.560  28.192  22.341  1.00  0.00    -0.744 OA
ENDBRANCH  73  76
ENDBRANCH  45  69
BRANCH  57  80
ATOM     80  C   UNL A   1      44.752  33.694  29.662  1.00  0.00     0.023 A 
ATOM     81  C   UNL A   1      45.492  33.956  30.832  1.00  0.00     0.012 A 
ATOM     82  C   UNL A   1      44.636  34.694  28.677  1.00  0.00     0.148 A 
ATOM     83  C   UNL A   1      46.087  35.201  31.031  1.00  0.00     0.002 A 
ATOM     84  C   UNL A   1      45.262  35.922  28.867  1.00  0.00     0.091 A 
ATOM     85  F   UNL A   1      43.909  34.435  27.580  1.00  0.00    -0.205 F 
ATOM     86  C   UNL A   1      45.982  36.179  30.046  1.00  0.00     0.022 A 
BRANCH  84  87
ATOM     87  S   UNL A   1      45.231  37.210  27.615  1.00  0.00     0.127 S 
ATOM     88  O   UNL A   1      45.853  38.329  28.320  1.00  0.00    -0.237 OA
ATOM     89  O   UNL A   1      46.049  36.635  26.546  1.00  0.00    -0.237 OA
ATOM     90  O   UNL A   1      43.827  37.384  27.266  1.00  0.00    -0.744 OA
ENDBRANCH  84  87
ENDBRANCH  57  80
ENDBRANCH  31  32
ENDBRANCH  24  26
ENDBRANCH  23  24
ENDBRANCH   1  23
TORSDOF 16
ENDMDL
MODEL 2
REMARK VINA RESULT:     -12.0      5.192      9.906
REMARK SMILES Cc1ccc(C(=O)N[C@@H]2C=C[C@H](C(=O)OCCOC(=O)c3ccc(-c4c5nc(c(-c6cccc(S(=O)(=O)[O-])c6F)c6ccc([nH]6)c(-c6cccc(S(=O)(=O)[O-])c6F)c6nc(c(-c7cccc(S(=O)(=O)[O-])c7F)c7ccc4[nH]7)C=C6)C=C5)cc3)C2)c(F)c1
REMARK SMILES IDX 17 1 16 2 15 3 13 4 14 5 12 6 9 7 10 8 84 9 11 10 8 11 6 12
REMARK SMILES IDX 7 13 5 15 1 16 2 17 3 18 87 19 4 20 85 21 86 22 18 23 19 24
REMARK SMILES IDX 20 25 21 26 22 27 83 28 23 29 82 30 24 31 25 32 26 33 76 34
REMARK SMILES IDX 27 35 81 36 75 37 77 38 28 39 80 40 74 41 73 42 29 44 61 45
REMARK SMILES IDX 41 46 60 47 42 48 45 49 59 50 78 51 43 52 44 53 58 55 79 56
REMARK SMILES IDX 46 57 30 58 31 59 39 60 32 61 34 62 40 63 33 64 35 65 36 66
REMARK SMILES IDX 37 67 38 68 62 69 63 70 71 71 64 72 66 73 72 74 65 75 67 76
REMARK SMILES IDX 68 77 69 78 70 79 47 80 48 81 56 82 49 83 51 84 57 85 50 86
REMARK SMILES IDX 52 87 53 88 54 89 55 90
REMARK H PARENT 8 14 77 43 45 54
REMARK Flexibility Score: inf
ROOT
ATOM      1  C   UNL A   1      31.890  30.327  26.562  1.00  0.00     0.275 C 
ENDROOT
BRANCH   1   2
ATOM      2  C   UNL A   1      31.799  28.992  27.291  1.00  0.00     0.274 C 
BRANCH   2   3
ATOM      3  O   UNL A   1      32.532  27.975  26.582  1.00  0.00    -0.462 OA
BRANCH   3   4
ATOM      4  C   UNL A   1      31.864  26.797  26.389  1.00  0.00     0.312 C 
ATOM      5  O   UNL A   1      30.653  26.658  26.493  1.00  0.00    -0.252 OA
BRANCH   4   6
ATOM      6  C   UNL A   1      32.850  25.661  26.133  1.00  0.00     0.124 C 
ATOM      7  C   UNL A   1      33.877  24.609  24.140  1.00  0.00     0.106 C 
ATOM      8  C   UNL A   1      32.722  23.819  24.668  1.00  0.00    -0.006 C 
ATOM      9  C   UNL A   1      33.784  25.920  24.942  1.00  0.00     0.048 C 
ATOM     10  C   UNL A   1      32.162  24.389  25.740  1.00  0.00    -0.014 C 
BRANCH   7  11
ATOM     11  N   UNL A   1      33.730  24.695  22.699  1.00  0.00    -0.346 N 
ATOM     12  C   UNL A   1      33.114  25.620  21.892  1.00  0.00     0.254 C 
ATOM     13  O   UNL A   1      33.278  25.576  20.678  1.00  0.00    -0.269 OA
ATOM     14  H   UNL A   1      34.150  23.953  22.209  1.00  0.00     0.164 HD
BRANCH  12  15
ATOM     15  C   UNL A   1      32.217  26.629  22.467  1.00  0.00     0.075 A 
ATOM     16  C   UNL A   1      29.560  29.836  23.497  1.00  0.00     0.044 C 
ATOM     17  C   UNL A   1      30.490  28.697  23.210  1.00  0.00    -0.048 A 
ATOM     18  C   UNL A   1      30.017  27.381  23.114  1.00  0.00     0.004 A 
ATOM     19  C   UNL A   1      31.858  28.946  23.039  1.00  0.00     0.043 A 
ATOM     20  C   UNL A   1      30.880  26.344  22.755  1.00  0.00     0.017 A 
ATOM     21  C   UNL A   1      32.713  27.913  22.671  1.00  0.00     0.136 A 
ATOM     22  F   UNL A   1      34.006  28.199  22.466  1.00  0.00    -0.206 F 
ENDBRANCH  12  15
ENDBRANCH   7  11
ENDBRANCH   4   6
ENDBRANCH   3   4
ENDBRANCH   2   3
ENDBRANCH   1   2
BRANCH   1  23
ATOM     23  O   UNL A   1      33.270  30.674  26.359  1.00  0.00    -0.458 OA
BRANCH  23  24
ATOM     24  C   UNL A   1      33.784  31.544  27.255  1.00  0.00     0.338 C 
ATOM     25  O   UNL A   1      33.265  32.581  27.646  1.00  0.00    -0.246 OA
BRANCH  24  26
ATOM     26  C   UNL A   1      35.100  31.077  27.725  1.00  0.00     0.060 A 
ATOM     27  C   UNL A   1      35.321  29.726  27.987  1.00  0.00     0.016 A 
ATOM     28  C   UNL A   1      36.082  32.019  28.033  1.00  0.00     0.016 A 
ATOM     29  C   UNL A   1      36.486  29.329  28.645  1.00  0.00     0.010 A 
ATOM     30  C   UNL A   1      37.287  31.604  28.610  1.00  0.00     0.010 A 
ATOM     31  C   UNL A   1      37.489  30.259  28.960  1.00  0.00    -0.014 A 
BRANCH  31  32
ATOM     32  C   UNL A   1      38.744  29.822  29.637  1.00  0.00     0.031 A 
ATOM     33  C   UNL A   1      39.640  28.777  29.020  1.00  0.00     0.074 A 
ATOM     34  C   UNL A   1      39.079  30.351  30.832  1.00  0.00     0.049 A 
ATOM     35  N   UNL A   1      40.683  28.177  29.540  1.00  0.00    -0.248 NA
ATOM     36  C   UNL A   1      39.320  28.337  27.653  1.00  0.00     0.031 C 
ATOM     37  C   UNL A   1      38.307  31.363  31.552  1.00  0.00     0.029 A 
ATOM     38  N   UNL A   1      40.149  30.102  31.659  1.00  0.00    -0.354 N 
ATOM     39  C   UNL A   1      41.107  27.255  28.590  1.00  0.00     0.074 A 
ATOM     40  C   UNL A   1      40.210  27.371  27.461  1.00  0.00     0.031 C 
ATOM     41  C   UNL A   1      38.933  31.665  32.698  1.00  0.00     0.029 A 
ATOM     42  C   UNL A   1      40.111  30.815  32.835  1.00  0.00     0.049 A 
ATOM     43  H   UNL A   1      40.873  29.475  31.431  1.00  0.00     0.167 HD
ATOM     44  C   UNL A   1      42.164  26.407  28.642  1.00  0.00     0.034 A 
ATOM     45  C   UNL A   1      40.904  30.769  33.925  1.00  0.00     0.034 A 
ATOM     46  C   UNL A   1      43.118  26.351  29.719  1.00  0.00     0.049 A 
ATOM     47  C   UNL A   1      42.067  29.821  33.954  1.00  0.00     0.074 A 
ATOM     48  C   UNL A   1      44.258  25.572  29.816  1.00  0.00     0.029 A 
ATOM     49  N   UNL A   1      43.058  27.113  30.875  1.00  0.00    -0.354 N 
ATOM     50  N   UNL A   1      42.490  29.008  33.019  1.00  0.00    -0.248 NA
ATOM     51  C   UNL A   1      42.865  29.784  35.189  1.00  0.00     0.031 C 
ATOM     52  C   UNL A   1      44.884  25.854  31.035  1.00  0.00     0.029 A 
ATOM     53  C   UNL A   1      44.133  26.811  31.696  1.00  0.00     0.049 A 
ATOM     54  H   UNL A   1      42.355  27.770  31.082  1.00  0.00     0.167 HD
ATOM     55  C   UNL A   1      43.603  28.366  33.547  1.00  0.00     0.074 A 
ATOM     56  C   UNL A   1      43.813  28.911  34.872  1.00  0.00     0.031 C 
ATOM     57  C   UNL A   1      44.361  27.387  32.996  1.00  0.00     0.034 A 
BRANCH  44  58
ATOM     58  C   UNL A   1      42.398  25.491  27.470  1.00  0.00     0.023 A 
ATOM     59  C   UNL A   1      43.198  25.932  26.399  1.00  0.00     0.012 A 
ATOM     60  C   UNL A   1      41.928  24.162  27.485  1.00  0.00     0.148 A 
ATOM     61  C   UNL A   1      43.525  25.067  25.356  1.00  0.00     0.002 A 
ATOM     62  C   UNL A   1      42.283  23.295  26.456  1.00  0.00     0.091 A 
ATOM     63  F   UNL A   1      41.153  23.769  28.505  1.00  0.00    -0.205 F 
ATOM     64  C   UNL A   1      43.079  23.747  25.390  1.00  0.00     0.022 A 
BRANCH  62  65
ATOM     65  S   UNL A   1      41.816  21.560  26.448  1.00  0.00     0.127 S 
ATOM     66  O   UNL A   1      40.391  21.637  26.130  1.00  0.00    -0.237 OA
ATOM     67  O   UNL A   1      42.649  21.017  25.374  1.00  0.00    -0.237 OA
ATOM     68  O   UNL A   1      42.136  21.052  27.775  1.00  0.00    -0.744 OA
ENDBRANCH  62  65
ENDBRANCH  44  58
BRANCH  45  69
ATOM     69  C   UNL A   1      40.614  31.673  35.074  1.00  0.00     0.023 A 
ATOM     70  C   UNL A   1      41.420  32.805  35.287  1.00  0.00     0.012 A 
ATOM     71  C   UNL A   1      39.497  31.459  35.906  1.00  0.00     0.148 A 
ATOM     72  C   UNL A   1      41.122  33.706  36.311  1.00  0.00     0.002 A 
ATOM     73  C   UNL A   1      39.166  32.397  36.876  1.00  0.00     0.091 A 
ATOM     74  F   UNL A   1      38.757  30.357  35.718  1.00  0.00    -0.205 F 
ATOM     75  C   UNL A   1      39.985  33.514  37.092  1.00  0.00     0.022 A 
BRANCH  73  76
ATOM     76  S   UNL A   1      37.613  32.282  37.771  1.00  0.00     0.127 S 
ATOM     77  O   UNL A   1      37.892  33.061  38.973  1.00  0.00    -0.237 OA
ATOM     78  O   UNL A   1      36.663  32.900  36.845  1.00  0.00    -0.237 OA
ATOM     79  O   UNL A   1      37.405  30.850  37.958  1.00  0.00    -0.744 OA
ENDBRANCH  73  76
ENDBRANCH  45  69
BRANCH  57  80
ATOM     80  C   UNL A   1      45.481  26.827  33.829  1.00  0.00     0.023 A 
ATOM     81  C   UNL A   1      46.746  27.443  33.774  1.00  0.00     0.012 A 
ATOM     82  C   UNL A   1      45.277  25.740  34.701  1.00  0.00     0.148 A 
ATOM     83  C   UNL A   1      47.799  26.973  34.556  1.00  0.00     0.002 A 
ATOM     84  C   UNL A   1      46.324  25.298  35.504  1.00  0.00     0.091 A 
ATOM     85  F   UNL A   1      44.073  25.151  34.723  1.00  0.00    -0.205 F 
ATOM     86  C   UNL A   1      47.586  25.909  35.428  1.00  0.00     0.022 A 
BRANCH  84  87
ATOM     87  S   UNL A   1      46.110  23.977  36.703  1.00  0.00     0.127 S 
ATOM     88  O   UNL A   1      45.455  24.675  37.806  1.00  0.00    -0.237 OA
ATOM     89  O   UNL A   1      45.253  23.031  35.986  1.00  0.00    -0.237 OA
ATOM     90  O   UNL A   1      47.452  23.477  36.978  1.00  0.00    -0.744 OA
ENDBRANCH  84  87
ENDBRANCH  57  80
ENDBRANCH  31  32
ENDBRANCH  24  26
ENDBRANCH  23  24
ENDBRANCH   1  23
TORSDOF 16
ENDMDL
MODEL 3
REMARK VINA RESULT:     -12.0      1.940      3.138
REMARK SMILES Cc1ccc(C(=O)N[C@@H]2C=C[C@H](C(=O)OCCOC(=O)c3ccc(-c4c5nc(c(-c6cccc(S(=O)(=O)[O-])c6F)c6ccc([nH]6)c(-c6cccc(S(=O)(=O)[O-])c6F)c6nc(c(-c7cccc(S(=O)(=O)[O-])c7F)c7ccc4[nH]7)C=C6)C=C5)cc3)C2)c(F)c1
REMARK SMILES IDX 17 1 16 2 15 3 13 4 14 5 12 6 9 7 10 8 84 9 11 10 8 11 6 12
REMARK SMILES IDX 7 13 5 15 1 16 2 17 3 18 87 19 4 20 85 21 86 22 18 23 19 24
REMARK SMILES IDX 20 25 21 26 22 27 83 28 23 29 82 30 24 31 25 32 26 33 76 34
REMARK SMILES IDX 27 35 81 36 75 37 77 38 28 39 80 40 74 41 73 42 29 44 61 45
REMARK SMILES IDX 41 46 60 47 42 48 45 49 59 50 78 51 43 52 44 53 58 55 79 56
REMARK SMILES IDX 46 57 30 58 31 59 39 60 32 61 34 62 40 63 33 64 35 65 36 66
REMARK SMILES IDX 37 67 38 68 62 69 63 70 71 71 64 72 66 73 72 74 65 75 67 76
REMARK SMILES IDX 68 77 69 78 70 79 47 80 48 81 56 82 49 83 51 84 57 85 50 86
REMARK SMILES IDX 52 87 53 88 54 89 55 90
REMARK H PARENT 8 14 77 43 45 54
REMARK Flexibility Score: inf
ROOT
ATOM      1  C   UNL A   1      35.909  21.005  24.992  1.00  0.00     0.275 C 
ENDROOT
BRANCH   1   2
ATOM      2  C   UNL A   1      35.750  22.178  24.032  1.00  0.00     0.274 C 
BRANCH   2   3
ATOM      3  O   UNL A   1      35.086  23.279  24.683  1.00  0.00    -0.462 OA
BRANCH   3   4
ATOM      4  C   UNL A   1      34.677  24.288  23.856  1.00  0.00     0.312 C 
ATOM      5  O   UNL A   1      34.643  24.218  22.635  1.00  0.00    -0.252 OA
BRANCH   4   6
ATOM      6  C   UNL A   1      34.374  25.548  24.662  1.00  0.00     0.124 C 
ATOM      7  C   UNL A   1      32.527  26.331  26.115  1.00  0.00     0.106 C 
ATOM      8  C   UNL A   1      32.442  26.896  24.733  1.00  0.00    -0.006 C 
ATOM      9  C   UNL A   1      33.631  25.267  25.977  1.00  0.00     0.048 C 
ATOM     10  C   UNL A   1      33.434  26.470  23.945  1.00  0.00    -0.014 C 
BRANCH   7  11
ATOM     11  N   UNL A   1      31.201  25.874  26.487  1.00  0.00    -0.346 N 
ATOM     12  C   UNL A   1      30.585  24.652  26.370  1.00  0.00     0.254 C 
ATOM     13  O   UNL A   1      29.510  24.455  26.927  1.00  0.00    -0.269 OA
ATOM     14  H   UNL A   1      30.640  26.568  26.899  1.00  0.00     0.164 HD
BRANCH  12  15
ATOM     15  C   UNL A   1      31.176  23.597  25.540  1.00  0.00     0.075 A 
ATOM     16  C   UNL A   1      32.357  20.122  23.317  1.00  0.00     0.044 C 
ATOM     17  C   UNL A   1      32.008  21.369  24.070  1.00  0.00    -0.048 A 
ATOM     18  C   UNL A   1      31.455  22.480  23.418  1.00  0.00     0.004 A 
ATOM     19  C   UNL A   1      32.242  21.433  25.450  1.00  0.00     0.043 A 
ATOM     20  C   UNL A   1      31.049  23.599  24.149  1.00  0.00     0.017 A 
ATOM     21  C   UNL A   1      31.827  22.544  26.176  1.00  0.00     0.136 A 
ATOM     22  F   UNL A   1      32.022  22.547  27.502  1.00  0.00    -0.206 F 
ENDBRANCH  12  15
ENDBRANCH   7  11
ENDBRANCH   4   6
ENDBRANCH   3   4
ENDBRANCH   2   3
ENDBRANCH   1   2
BRANCH   1  23
ATOM     23  O   UNL A   1      36.769  21.383  26.080  1.00  0.00    -0.458 OA
BRANCH  23  24
ATOM     24  C   UNL A   1      38.090  21.390  25.794  1.00  0.00     0.338 C 
ATOM     25  O   UNL A   1      38.700  20.555  25.142  1.00  0.00    -0.246 OA
BRANCH  24  26
ATOM     26  C   UNL A   1      38.735  22.574  26.390  1.00  0.00     0.060 A 
ATOM     27  C   UNL A   1      38.244  23.853  26.135  1.00  0.00     0.016 A 
ATOM     28  C   UNL A   1      39.922  22.410  27.105  1.00  0.00     0.016 A 
ATOM     29  C   UNL A   1      38.991  24.970  26.512  1.00  0.00     0.010 A 
ATOM     30  C   UNL A   1      40.622  23.533  27.559  1.00  0.00     0.010 A 
ATOM     31  C   UNL A   1      40.187  24.828  27.235  1.00  0.00    -0.014 A 
BRANCH  31  32
ATOM     32  C   UNL A   1      40.965  26.028  27.659  1.00  0.00     0.031 A 
ATOM     33  C   UNL A   1      40.332  27.112  28.495  1.00  0.00     0.074 A 
ATOM     34  C   UNL A   1      42.250  26.162  27.273  1.00  0.00     0.049 A 
ATOM     35  N   UNL A   1      40.816  28.285  28.823  1.00  0.00    -0.248 NA
ATOM     36  C   UNL A   1      38.981  26.857  29.018  1.00  0.00     0.031 C 
ATOM     37  C   UNL A   1      42.991  25.200  26.457  1.00  0.00     0.029 A 
ATOM     38  N   UNL A   1      43.159  27.168  27.504  1.00  0.00    -0.354 N 
ATOM     39  C   UNL A   1      39.812  28.926  29.542  1.00  0.00     0.074 A 
ATOM     40  C   UNL A   1      38.691  28.014  29.601  1.00  0.00     0.031 C 
ATOM     41  C   UNL A   1      44.241  25.646  26.273  1.00  0.00     0.029 A 
ATOM     42  C   UNL A   1      44.373  26.962  26.890  1.00  0.00     0.049 A 
ATOM     43  H   UNL A   1      42.961  27.958  28.056  1.00  0.00     0.167 HD
ATOM     44  C   UNL A   1      39.832  30.151  30.122  1.00  0.00     0.034 A 
ATOM     45  C   UNL A   1      45.462  27.752  26.791  1.00  0.00     0.034 A 
ATOM     46  C   UNL A   1      40.976  31.025  30.150  1.00  0.00     0.049 A 
ATOM     47  C   UNL A   1      45.456  29.104  27.444  1.00  0.00     0.074 A 
ATOM     48  C   UNL A   1      41.103  32.253  30.778  1.00  0.00     0.029 A 
ATOM     49  N   UNL A   1      42.193  30.763  29.541  1.00  0.00    -0.354 N 
ATOM     50  N   UNL A   1      44.523  29.661  28.175  1.00  0.00    -0.248 NA
ATOM     51  C   UNL A   1      46.654  29.936  27.261  1.00  0.00     0.031 C 
ATOM     52  C   UNL A   1      42.394  32.738  30.544  1.00  0.00     0.029 A 
ATOM     53  C   UNL A   1      43.071  31.811  29.770  1.00  0.00     0.049 A 
ATOM     54  H   UNL A   1      42.402  29.952  29.025  1.00  0.00     0.167 HD
ATOM     55  C   UNL A   1      45.020  30.905  28.542  1.00  0.00     0.074 A 
ATOM     56  C   UNL A   1      46.352  31.007  27.985  1.00  0.00     0.031 C 
ATOM     57  C   UNL A   1      44.411  31.889  29.248  1.00  0.00     0.034 A 
BRANCH  44  58
ATOM     58  C   UNL A   1      38.593  30.619  30.837  1.00  0.00     0.023 A 
ATOM     59  C   UNL A   1      38.512  30.483  32.236  1.00  0.00     0.012 A 
ATOM     60  C   UNL A   1      37.570  31.296  30.144  1.00  0.00     0.148 A 
ATOM     61  C   UNL A   1      37.427  31.009  32.937  1.00  0.00     0.002 A 
ATOM     62  C   UNL A   1      36.506  31.845  30.853  1.00  0.00     0.091 A 
ATOM     63  F   UNL A   1      37.658  31.398  28.811  1.00  0.00    -0.205 F 
ATOM     64  C   UNL A   1      36.432  31.700  32.248  1.00  0.00     0.022 A 
BRANCH  62  65
ATOM     65  S   UNL A   1      35.213  32.813  30.063  1.00  0.00     0.127 S 
ATOM     66  O   UNL A   1      34.693  31.866  29.078  1.00  0.00    -0.237 OA
ATOM     67  O   UNL A   1      34.306  33.090  31.178  1.00  0.00    -0.237 OA
ATOM     68  O   UNL A   1      35.872  33.990  29.514  1.00  0.00    -0.744 OA
ENDBRANCH  62  65
ENDBRANCH  44  58
BRANCH  45  69
ATOM     69  C   UNL A   1      46.654  27.258  26.046  1.00  0.00     0.023 A 
ATOM     70  C   UNL A   1      46.789  27.555  24.678  1.00  0.00     0.012 A 
ATOM     71  C   UNL A   1      47.690  26.567  26.704  1.00  0.00     0.148 A 
ATOM     72  C   UNL A   1      47.933  27.168  23.977  1.00  0.00     0.002 A 
ATOM     73  C   UNL A   1      48.855  26.249  26.018  1.00  0.00     0.091 A 
ATOM     74  F   UNL A   1      47.535  26.257  27.999  1.00  0.00    -0.205 F 
ATOM     75  C   UNL A   1      48.974  26.534  24.651  1.00  0.00     0.022 A 
BRANCH  73  76
ATOM     76  S   UNL A   1      50.287  25.604  26.891  1.00  0.00     0.127 S 
ATOM     77  O   UNL A   1      51.262  25.456  25.815  1.00  0.00    -0.237 OA
ATOM     78  O   UNL A   1      50.586  26.671  27.848  1.00  0.00    -0.237 OA
ATOM     79  O   UNL A   1      49.812  24.373  27.512  1.00  0.00    -0.744 OA
ENDBRANCH  73  76
ENDBRANCH  45  69
BRANCH  57  80
ATOM     80  C   UNL A   1      45.172  33.171  29.447  1.00  0.00     0.023 A 
ATOM     81  C   UNL A   1      46.006  33.302  30.575  1.00  0.00     0.012 A 
ATOM     82  C   UNL A   1      45.113  34.215  28.504  1.00  0.00     0.148 A 
ATOM     83  C   UNL A   1      46.752  34.462  30.775  1.00  0.00     0.002 A 
ATOM     84  C   UNL A   1      45.886  35.357  28.694  1.00  0.00     0.091 A 
ATOM     85  F   UNL A   1      44.295  34.084  27.449  1.00  0.00    -0.205 F 
ATOM     86  C   UNL A   1      46.701  35.484  29.831  1.00  0.00     0.022 A 
BRANCH  84  87
ATOM     87  S   UNL A   1      45.928  36.688  27.488  1.00  0.00     0.127 S 
ATOM     88  O   UNL A   1      46.397  35.994  26.291  1.00  0.00    -0.237 OA
ATOM     89  O   UNL A   1      44.529  37.116  27.436  1.00  0.00    -0.237 OA
ATOM     90  O   UNL A   1      46.837  37.686  28.038  1.00  0.00    -0.744 OA
ENDBRANCH  84  87
ENDBRANCH  57  80
ENDBRANCH  31  32
ENDBRANCH  24  26
ENDBRANCH  23  24
ENDBRANCH   1  23
TORSDOF 16
ENDMDL
