MODEL 1
REMARK VINA RESULT:     -12.5      0.000      0.000
REMARK SMILES O=C(N/N=C/c1ccccc1O)C(=O)Nc1cccc(C(=O)OCCOC(=O)c2ccc(-c3c4nc(c(-c5cccc(S(=O)(=O)[O-])c5F)c5ccc([nH]5)c(-c5cccc(S(=O)(=O)[O-])c5F)c5nc(c(-c6cccc(S(=O)(=O)[O-])c6F)c6ccc3[nH]6)C=C5)C=C4)cc2)c1
REMARK SMILES IDX 24 1 23 2 21 3 22 4 20 5 16 6 17 7 92 8 18 9 19 10 15 11
REMARK SMILES IDX 13 12 14 13 2 15 1 16 3 17 4 19 5 20 6 21 7 22 11 23 8 24
REMARK SMILES IDX 10 25 9 26 12 27 25 29 26 30 27 31 28 32 29 33 30 34 91 35
REMARK SMILES IDX 31 36 90 37 32 38 33 39 34 40 84 41 35 42 89 43 83 44 85 45
REMARK SMILES IDX 36 46 88 47 82 48 81 49 37 51 69 52 49 53 68 54 50 55 53 56
REMARK SMILES IDX 67 57 86 58 51 59 52 60 66 62 87 63 54 64 38 65 39 66 47 67
REMARK SMILES IDX 40 68 42 69 48 70 41 71 43 72 44 73 45 74 46 75 70 76 71 77
REMARK SMILES IDX 79 78 72 79 74 80 80 81 73 82 75 83 76 84 77 85 78 86 55 87
REMARK SMILES IDX 56 88 64 89 57 90 59 91 65 92 58 93 60 94 61 95 62 96 63 97
REMARK H PARENT 15 14 3 18 12 28 85 50 53 61
REMARK Flexibility Score: inf
ROOT
ATOM      1  C   UNL A   1      33.643  31.129  27.043  1.00  0.00     0.275 C 
ENDROOT
BRANCH   1   2
ATOM      2  O   UNL A   1      33.451  29.859  27.687  1.00  0.00    -0.458 OA
BRANCH   2   3
ATOM      3  C   UNL A   1      32.556  29.038  27.088  1.00  0.00     0.338 C 
ATOM      4  O   UNL A   1      31.404  28.832  27.432  1.00  0.00    -0.246 OA
BRANCH   3   5
ATOM      5  C   UNL A   1      33.146  28.391  25.895  1.00  0.00     0.062 A 
ATOM      6  C   UNL A   1      33.831  25.679  24.423  1.00  0.00     0.042 A 
ATOM      7  C   UNL A   1      33.578  26.480  22.810  1.00  0.00     0.026 A 
ATOM      8  C   UNL A   1      33.670  26.620  25.962  1.00  0.00     0.041 A 
ATOM      9  C   UNL A   1      33.182  28.277  22.743  1.00  0.00     0.003 A 
ATOM     10  C   UNL A   1      32.948  29.207  24.281  1.00  0.00     0.016 A 
BRANCH   6  11
ATOM     11  N   UNL A   1      33.428  24.340  24.422  1.00  0.00    -0.318 N 
ATOM     12  C   UNL A   1      32.128  23.877  24.617  1.00  0.00     0.315 C 
ATOM     13  O   UNL A   1      31.884  22.730  24.228  1.00  0.00    -0.263 OA
ATOM     14  H   UNL A   1      34.126  23.662  24.271  1.00  0.00     0.170 HD
BRANCH  12  15
ATOM     15  C   UNL A   1      30.949  24.663  25.240  1.00  0.00     0.329 C 
ATOM     16  O   UNL A   1      30.912  24.785  26.466  1.00  0.00    -0.262 OA
ATOM     17  N   UNL A   1      29.853  25.071  24.472  1.00  0.00    -0.239 N 
ATOM     18  H   UNL A   1      28.964  24.663  24.576  1.00  0.00     0.194 HD
BRANCH  17  19
ATOM     19  N   UNL A   1      30.090  26.067  23.567  1.00  0.00    -0.180 NA
ATOM     20  C   UNL A   1      29.837  27.347  24.015  1.00  0.00     0.145 C 
BRANCH  20  21
ATOM     21  C   UNL A   1      29.108  29.174  23.194  1.00  0.00     0.036 A 
ATOM     22  C   UNL A   1      27.787  29.894  23.502  1.00  0.00     0.013 A 
ATOM     23  C   UNL A   1      29.693  30.220  22.213  1.00  0.00     0.124 A 
ATOM     24  C   UNL A   1      27.337  31.217  23.222  1.00  0.00     0.001 A 
ATOM     25  C   UNL A   1      29.293  31.589  22.015  1.00  0.00     0.047 A 
ATOM     26  C   UNL A   1      28.138  32.097  22.554  1.00  0.00     0.004 A 
BRANCH  23  27
ATOM     27  O   UNL A   1      30.671  29.925  21.253  1.00  0.00    -0.507 OA
ATOM     28  H   UNL A   1      30.503  29.275  20.599  1.00  0.00     0.293 HD
ENDBRANCH  23  27
ENDBRANCH  20  21
ENDBRANCH  17  19
ENDBRANCH  12  15
ENDBRANCH   6  11
ENDBRANCH   3   5
ENDBRANCH   2   3
ENDBRANCH   1   2
BRANCH   1  29
ATOM     29  C   UNL A   1      32.739  32.209  27.640  1.00  0.00     0.275 C 
BRANCH  29  30
ATOM     30  O   UNL A   1      33.323  33.517  27.508  1.00  0.00    -0.458 OA
BRANCH  30  31
ATOM     31  C   UNL A   1      33.383  34.259  28.636  1.00  0.00     0.338 C 
ATOM     32  O   UNL A   1      32.565  35.062  29.060  1.00  0.00    -0.246 OA
BRANCH  31  33
ATOM     33  C   UNL A   1      34.564  33.882  29.421  1.00  0.00     0.060 A 
ATOM     34  C   UNL A   1      35.818  34.236  28.927  1.00  0.00     0.016 A 
ATOM     35  C   UNL A   1      34.451  33.044  30.527  1.00  0.00     0.016 A 
ATOM     36  C   UNL A   1      36.973  33.732  29.507  1.00  0.00     0.010 A 
ATOM     37  C   UNL A   1      35.616  32.583  31.149  1.00  0.00     0.010 A 
ATOM     38  C   UNL A   1      36.885  32.908  30.632  1.00  0.00    -0.014 A 
BRANCH  38  39
ATOM     39  C   UNL A   1      38.118  32.363  31.247  1.00  0.00     0.031 A 
ATOM     40  C   UNL A   1      38.839  31.220  30.592  1.00  0.00     0.074 A 
ATOM     41  C   UNL A   1      38.577  32.884  32.401  1.00  0.00     0.049 A 
ATOM     42  N   UNL A   1      39.817  30.489  31.054  1.00  0.00    -0.248 NA
ATOM     43  C   UNL A   1      38.392  30.843  29.241  1.00  0.00     0.031 C 
ATOM     44  C   UNL A   1      37.981  34.015  33.114  1.00  0.00     0.029 A 
ATOM     45  N   UNL A   1      39.638  32.514  33.189  1.00  0.00    -0.354 N 
ATOM     46  C   UNL A   1      40.054  29.519  30.089  1.00  0.00     0.074 A 
ATOM     47  C   UNL A   1      39.131  29.767  29.003  1.00  0.00     0.031 C 
ATOM     48  C   UNL A   1      38.677  34.243  34.237  1.00  0.00     0.029 A 
ATOM     49  C   UNL A   1      39.723  33.233  34.359  1.00  0.00     0.049 A 
ATOM     50  H   UNL A   1      40.276  31.806  32.941  1.00  0.00     0.167 HD
ATOM     51  C   UNL A   1      40.964  28.517  30.109  1.00  0.00     0.034 A 
ATOM     52  C   UNL A   1      40.520  33.066  35.432  1.00  0.00     0.034 A 
ATOM     53  C   UNL A   1      41.918  28.318  31.166  1.00  0.00     0.049 A 
ATOM     54  C   UNL A   1      41.518  31.944  35.429  1.00  0.00     0.074 A 
ATOM     55  C   UNL A   1      42.913  27.360  31.258  1.00  0.00     0.029 A 
ATOM     56  N   UNL A   1      42.004  29.093  32.312  1.00  0.00    -0.354 N 
ATOM     57  N   UNL A   1      41.770  31.068  34.486  1.00  0.00    -0.248 NA
ATOM     58  C   UNL A   1      42.351  31.792  36.629  1.00  0.00     0.031 C 
ATOM     59  C   UNL A   1      43.592  27.550  32.466  1.00  0.00     0.029 A 
ATOM     60  C   UNL A   1      43.030  28.635  33.120  1.00  0.00     0.049 A 
ATOM     61  H   UNL A   1      41.419  29.858  32.520  1.00  0.00     0.167 HD
ATOM     62  C   UNL A   1      42.800  30.272  34.971  1.00  0.00     0.074 A 
ATOM     63  C   UNL A   1      43.145  30.788  36.280  1.00  0.00     0.031 C 
ATOM     64  C   UNL A   1      43.391  29.196  34.397  1.00  0.00     0.034 A 
BRANCH  51  65
ATOM     65  C   UNL A   1      40.983  27.566  28.943  1.00  0.00     0.023 A 
ATOM     66  C   UNL A   1      40.042  26.520  28.877  1.00  0.00     0.012 A 
ATOM     67  C   UNL A   1      41.900  27.741  27.888  1.00  0.00     0.148 A 
ATOM     68  C   UNL A   1      40.028  25.647  27.789  1.00  0.00     0.002 A 
ATOM     69  C   UNL A   1      41.855  26.890  26.789  1.00  0.00     0.091 A 
ATOM     70  F   UNL A   1      42.807  28.724  27.983  1.00  0.00    -0.205 F 
ATOM     71  C   UNL A   1      40.926  25.837  26.742  1.00  0.00     0.022 A 
BRANCH  69  72
ATOM     72  S   UNL A   1      42.925  27.104  25.362  1.00  0.00     0.127 S 
ATOM     73  O   UNL A   1      42.728  25.839  24.655  1.00  0.00    -0.237 OA
ATOM     74  O   UNL A   1      42.335  28.270  24.702  1.00  0.00    -0.237 OA
ATOM     75  O   UNL A   1      44.261  27.323  25.897  1.00  0.00    -0.744 OA
ENDBRANCH  69  72
ENDBRANCH  51  65
BRANCH  52  76
ATOM     76  C   UNL A   1      40.401  33.995  36.590  1.00  0.00     0.023 A 
ATOM     77  C   UNL A   1      40.873  35.316  36.468  1.00  0.00     0.012 A 
ATOM     78  C   UNL A   1      39.776  33.597  37.789  1.00  0.00     0.148 A 
ATOM     79  C   UNL A   1      40.736  36.220  37.522  1.00  0.00     0.002 A 
ATOM     80  C   UNL A   1      39.588  34.519  38.812  1.00  0.00     0.091 A 
ATOM     81  F   UNL A   1      39.355  32.329  37.896  1.00  0.00    -0.205 F 
ATOM     82  C   UNL A   1      40.081  35.826  38.687  1.00  0.00     0.022 A 
BRANCH  80  83
ATOM     83  S   UNL A   1      38.629  34.133  40.281  1.00  0.00     0.127 S 
ATOM     84  O   UNL A   1      38.414  35.458  40.855  1.00  0.00    -0.237 OA
ATOM     85  O   UNL A   1      37.436  33.506  39.712  1.00  0.00    -0.237 OA
ATOM     86  O   UNL A   1      39.463  33.228  41.062  1.00  0.00    -0.744 OA
ENDBRANCH  80  83
ENDBRANCH  52  76
BRANCH  64  87
ATOM     87  C   UNL A   1      44.489  28.515  35.169  1.00  0.00     0.023 A 
ATOM     88  C   UNL A   1      45.831  28.858  34.916  1.00  0.00     0.012 A 
ATOM     89  C   UNL A   1      44.188  27.594  36.190  1.00  0.00     0.148 A 
ATOM     90  C   UNL A   1      46.860  28.274  35.652  1.00  0.00     0.002 A 
ATOM     91  C   UNL A   1      45.216  27.048  36.948  1.00  0.00     0.091 A 
ATOM     92  F   UNL A   1      42.904  27.265  36.399  1.00  0.00    -0.205 F 
ATOM     93  C   UNL A   1      46.554  27.379  36.675  1.00  0.00     0.022 A 
BRANCH  91  94
ATOM     94  S   UNL A   1      44.905  25.957  38.341  1.00  0.00     0.127 S 
ATOM     95  O   UNL A   1      44.322  24.790  37.681  1.00  0.00    -0.237 OA
ATOM     96  O   UNL A   1      46.249  25.746  38.880  1.00  0.00    -0.237 OA
ATOM     97  O   UNL A   1      44.011  26.689  39.227  1.00  0.00    -0.744 OA
ENDBRANCH  91  94
ENDBRANCH  64  87
ENDBRANCH  38  39
ENDBRANCH  31  33
ENDBRANCH  30  31
ENDBRANCH  29  30
ENDBRANCH   1  29
TORSDOF 19
ENDMDL
MODEL 2
REMARK VINA RESULT:     -12.4      5.733      8.909
REMARK SMILES O=C(N/N=C/c1ccccc1O)C(=O)Nc1cccc(C(=O)OCCOC(=O)c2ccc(-c3c4nc(c(-c5cccc(S(=O)(=O)[O-])c5F)c5ccc([nH]5)c(-c5cccc(S(=O)(=O)[O-])c5F)c5nc(c(-c6cccc(S(=O)(=O)[O-])c6F)c6ccc3[nH]6)C=C5)C=C4)cc2)c1
REMARK SMILES IDX 24 1 23 2 21 3 22 4 20 5 16 6 17 7 92 8 18 9 19 10 15 11
REMARK SMILES IDX 13 12 14 13 2 15 1 16 3 17 4 19 5 20 6 21 7 22 11 23 8 24
REMARK SMILES IDX 10 25 9 26 12 27 25 29 26 30 27 31 28 32 29 33 30 34 91 35
REMARK SMILES IDX 31 36 90 37 32 38 33 39 34 40 84 41 35 42 89 43 83 44 85 45
REMARK SMILES IDX 36 46 88 47 82 48 81 49 37 51 69 52 49 53 68 54 50 55 53 56
REMARK SMILES IDX 67 57 86 58 51 59 52 60 66 62 87 63 54 64 38 65 39 66 47 67
REMARK SMILES IDX 40 68 42 69 48 70 41 71 43 72 44 73 45 74 46 75 70 76 71 77
REMARK SMILES IDX 79 78 72 79 74 80 80 81 73 82 75 83 76 84 77 85 78 86 55 87
REMARK SMILES IDX 56 88 64 89 57 90 59 91 65 92 58 93 60 94 61 95 62 96 63 97
REMARK H PARENT 15 14 3 18 12 28 85 50 53 61
REMARK Flexibility Score: inf
ROOT
ATOM      1  C   UNL A   1      37.786  20.165  25.080  1.00  0.00     0.275 C 
ENDROOT
BRANCH   1   2
ATOM      2  O   UNL A   1      38.216  21.534  25.003  1.00  0.00    -0.458 OA
BRANCH   2   3
ATOM      3  C   UNL A   1      37.312  22.447  25.431  1.00  0.00     0.338 C 
ATOM      4  O   UNL A   1      37.519  23.395  26.171  1.00  0.00    -0.246 OA
BRANCH   3   5
ATOM      5  C   UNL A   1      35.973  22.174  24.863  1.00  0.00     0.062 A 
ATOM      6  C   UNL A   1      32.907  21.670  25.440  1.00  0.00     0.042 A 
ATOM      7  C   UNL A   1      32.469  22.477  23.870  1.00  0.00     0.026 A 
ATOM      8  C   UNL A   1      34.639  21.465  25.927  1.00  0.00     0.041 A 
ATOM      9  C   UNL A   1      33.806  23.067  22.751  1.00  0.00     0.003 A 
ATOM     10  C   UNL A   1      35.539  22.931  23.266  1.00  0.00     0.016 A 
BRANCH   6  11
ATOM     11  N   UNL A   1      31.962  21.908  26.444  1.00  0.00    -0.318 N 
ATOM     12  C   UNL A   1      31.464  23.153  26.820  1.00  0.00     0.315 C 
ATOM     13  O   UNL A   1      30.397  23.159  27.443  1.00  0.00    -0.263 OA
ATOM     14  H   UNL A   1      31.619  21.123  26.930  1.00  0.00     0.170 HD
BRANCH  12  15
ATOM     15  C   UNL A   1      32.091  24.534  26.507  1.00  0.00     0.329 C 
ATOM     16  O   UNL A   1      33.289  24.579  26.222  1.00  0.00    -0.262 OA
ATOM     17  N   UNL A   1      31.385  25.723  26.716  1.00  0.00    -0.239 N 
ATOM     18  H   UNL A   1      31.626  26.351  27.435  1.00  0.00     0.194 HD
BRANCH  17  19
ATOM     19  N   UNL A   1      30.342  25.961  25.867  1.00  0.00    -0.180 NA
ATOM     20  C   UNL A   1      30.663  26.639  24.709  1.00  0.00     0.145 C 
BRANCH  20  21
ATOM     21  C   UNL A   1      29.741  28.074  23.431  1.00  0.00     0.036 A 
ATOM     22  C   UNL A   1      28.246  28.253  23.127  1.00  0.00     0.013 A 
ATOM     23  C   UNL A   1      30.269  29.269  22.599  1.00  0.00     0.124 A 
ATOM     24  C   UNL A   1      27.521  29.319  22.519  1.00  0.00     0.001 A 
ATOM     25  C   UNL A   1      29.537  30.395  22.079  1.00  0.00     0.047 A 
ATOM     26  C   UNL A   1      28.166  30.436  22.078  1.00  0.00     0.004 A 
BRANCH  23  27
ATOM     27  O   UNL A   1      31.582  29.362  22.119  1.00  0.00    -0.507 OA
ATOM     28  H   UNL A   1      32.128  30.076  22.383  1.00  0.00     0.293 HD
ENDBRANCH  23  27
ENDBRANCH  20  21
ENDBRANCH  17  19
ENDBRANCH  12  15
ENDBRANCH   6  11
ENDBRANCH   3   5
ENDBRANCH   2   3
ENDBRANCH   1   2
BRANCH   1  29
ATOM     29  C   UNL A   1      38.856  19.270  25.709  1.00  0.00     0.275 C 
BRANCH  29  30
ATOM     30  O   UNL A   1      40.144  19.910  25.712  1.00  0.00    -0.458 OA
BRANCH  30  31
ATOM     31  C   UNL A   1      40.695  20.135  26.925  1.00  0.00     0.338 C 
ATOM     32  O   UNL A   1      40.841  19.347  27.849  1.00  0.00    -0.246 OA
BRANCH  31  33
ATOM     33  C   UNL A   1      41.253  21.490  26.979  1.00  0.00     0.060 A 
ATOM     34  C   UNL A   1      41.688  21.970  28.213  1.00  0.00     0.016 A 
ATOM     35  C   UNL A   1      41.184  22.337  25.876  1.00  0.00     0.016 A 
ATOM     36  C   UNL A   1      42.027  23.306  28.371  1.00  0.00     0.010 A 
ATOM     37  C   UNL A   1      41.582  23.670  26.019  1.00  0.00     0.010 A 
ATOM     38  C   UNL A   1      41.987  24.169  27.272  1.00  0.00    -0.014 A 
BRANCH  38  39
ATOM     39  C   UNL A   1      42.342  25.598  27.443  1.00  0.00     0.031 A 
ATOM     40  C   UNL A   1      43.683  26.095  26.987  1.00  0.00     0.074 A 
ATOM     41  C   UNL A   1      41.465  26.441  28.022  1.00  0.00     0.049 A 
ATOM     42  N   UNL A   1      44.251  27.250  27.206  1.00  0.00    -0.248 NA
ATOM     43  C   UNL A   1      44.498  25.165  26.189  1.00  0.00     0.031 C 
ATOM     44  C   UNL A   1      40.120  26.081  28.476  1.00  0.00     0.029 A 
ATOM     45  N   UNL A   1      41.584  27.768  28.349  1.00  0.00    -0.354 N 
ATOM     46  C   UNL A   1      45.517  27.163  26.641  1.00  0.00     0.074 A 
ATOM     47  C   UNL A   1      45.627  25.847  26.048  1.00  0.00     0.031 C 
ATOM     48  C   UNL A   1      39.542  27.157  29.030  1.00  0.00     0.029 A 
ATOM     49  C   UNL A   1      40.497  28.260  29.034  1.00  0.00     0.049 A 
ATOM     50  H   UNL A   1      42.369  28.315  28.116  1.00  0.00     0.167 HD
ATOM     51  C   UNL A   1      46.495  28.099  26.616  1.00  0.00     0.034 A 
ATOM     52  C   UNL A   1      40.309  29.447  29.641  1.00  0.00     0.034 A 
ATOM     53  C   UNL A   1      46.352  29.425  27.153  1.00  0.00     0.049 A 
ATOM     54  C   UNL A   1      41.412  30.466  29.600  1.00  0.00     0.074 A 
ATOM     55  C   UNL A   1      47.267  30.463  27.136  1.00  0.00     0.029 A 
ATOM     56  N   UNL A   1      45.220  29.900  27.797  1.00  0.00    -0.354 N 
ATOM     57  N   UNL A   1      42.583  30.391  29.015  1.00  0.00    -0.248 NA
ATOM     58  C   UNL A   1      41.166  31.739  30.293  1.00  0.00     0.031 C 
ATOM     59  C   UNL A   1      46.691  31.563  27.781  1.00  0.00     0.029 A 
ATOM     60  C   UNL A   1      45.413  31.214  28.187  1.00  0.00     0.049 A 
ATOM     61  H   UNL A   1      44.400  29.379  27.955  1.00  0.00     0.167 HD
ATOM     62  C   UNL A   1      43.206  31.610  29.253  1.00  0.00     0.074 A 
ATOM     63  C   UNL A   1      42.272  32.416  30.011  1.00  0.00     0.031 C 
ATOM     64  C   UNL A   1      44.449  32.017  28.897  1.00  0.00     0.034 A 
BRANCH  51  65
ATOM     65  C   UNL A   1      47.803  27.728  25.971  1.00  0.00     0.023 A 
ATOM     66  C   UNL A   1      48.875  27.284  26.768  1.00  0.00     0.012 A 
ATOM     67  C   UNL A   1      47.951  27.770  24.571  1.00  0.00     0.148 A 
ATOM     68  C   UNL A   1      50.086  26.910  26.184  1.00  0.00     0.002 A 
ATOM     69  C   UNL A   1      49.147  27.360  23.992  1.00  0.00     0.091 A 
ATOM     70  F   UNL A   1      46.929  28.224  23.831  1.00  0.00    -0.205 F 
ATOM     71  C   UNL A   1      50.218  26.938  24.798  1.00  0.00     0.022 A 
BRANCH  69  72
ATOM     72  S   UNL A   1      49.384  27.294  22.213  1.00  0.00     0.127 S 
ATOM     73  O   UNL A   1      48.459  26.227  21.833  1.00  0.00    -0.237 OA
ATOM     74  O   UNL A   1      48.972  28.635  21.794  1.00  0.00    -0.237 OA
ATOM     75  O   UNL A   1      50.796  27.005  22.011  1.00  0.00    -0.744 OA
ENDBRANCH  69  72
ENDBRANCH  51  65
BRANCH  52  76
ATOM     76  C   UNL A   1      39.019  29.727  30.330  1.00  0.00     0.023 A 
ATOM     77  C   UNL A   1      38.810  29.235  31.632  1.00  0.00     0.012 A 
ATOM     78  C   UNL A   1      38.023  30.522  29.728  1.00  0.00     0.148 A 
ATOM     79  C   UNL A   1      37.627  29.518  32.317  1.00  0.00     0.002 A 
ATOM     80  C   UNL A   1      36.874  30.850  30.437  1.00  0.00     0.091 A 
ATOM     81  F   UNL A   1      38.229  30.961  28.477  1.00  0.00    -0.205 F 
ATOM     82  C   UNL A   1      36.667  30.338  31.727  1.00  0.00     0.022 A 
BRANCH  80  83
ATOM     83  S   UNL A   1      35.661  32.015  29.806  1.00  0.00     0.127 S 
ATOM     84  O   UNL A   1      36.498  33.159  29.455  1.00  0.00    -0.237 OA
ATOM     85  O   UNL A   1      35.101  31.286  28.667  1.00  0.00    -0.237 OA
ATOM     86  O   UNL A   1      34.721  32.225  30.900  1.00  0.00    -0.744 OA
ENDBRANCH  80  83
ENDBRANCH  52  76
BRANCH  64  87
ATOM     87  C   UNL A   1      44.866  33.404  29.304  1.00  0.00     0.023 A 
ATOM     88  C   UNL A   1      45.536  33.596  30.527  1.00  0.00     0.012 A 
ATOM     89  C   UNL A   1      44.662  34.500  28.444  1.00  0.00     0.148 A 
ATOM     90  C   UNL A   1      45.973  34.865  30.902  1.00  0.00     0.002 A 
ATOM     91  C   UNL A   1      45.138  35.755  28.805  1.00  0.00     0.091 A 
ATOM     92  F   UNL A   1      44.002  34.299  27.294  1.00  0.00    -0.205 F 
ATOM     93  C   UNL A   1      45.786  35.941  30.038  1.00  0.00     0.022 A 
BRANCH  91  94
ATOM     94  S   UNL A   1      45.017  37.176  27.713  1.00  0.00     0.127 S 
ATOM     95  O   UNL A   1      43.596  37.169  27.371  1.00  0.00    -0.237 OA
ATOM     96  O   UNL A   1      45.431  38.277  28.585  1.00  0.00    -0.237 OA
ATOM     97  O   UNL A   1      45.930  36.908  26.610  1.00  0.00    -0.744 OA
ENDBRANCH  91  94
ENDBRANCH  64  87
ENDBRANCH  38  39
ENDBRANCH  31  33
ENDBRANCH  30  31
ENDBRANCH  29  30
ENDBRANCH   1  29
TORSDOF 19
ENDMDL
MODEL 3
REMARK VINA RESULT:     -12.2      6.220     10.133
REMARK SMILES O=C(N/N=C/c1ccccc1O)C(=O)Nc1cccc(C(=O)OCCOC(=O)c2ccc(-c3c4nc(c(-c5cccc(S(=O)(=O)[O-])c5F)c5ccc([nH]5)c(-c5cccc(S(=O)(=O)[O-])c5F)c5nc(c(-c6cccc(S(=O)(=O)[O-])c6F)c6ccc3[nH]6)C=C5)C=C4)cc2)c1
REMARK SMILES IDX 24 1 23 2 21 3 22 4 20 5 16 6 17 7 92 8 18 9 19 10 15 11
REMARK SMILES IDX 13 12 14 13 2 15 1 16 3 17 4 19 5 20 6 21 7 22 11 23 8 24
REMARK SMILES IDX 10 25 9 26 12 27 25 29 26 30 27 31 28 32 29 33 30 34 91 35
REMARK SMILES IDX 31 36 90 37 32 38 33 39 34 40 84 41 35 42 89 43 83 44 85 45
REMARK SMILES IDX 36 46 88 47 82 48 81 49 37 51 69 52 49 53 68 54 50 55 53 56
REMARK SMILES IDX 67 57 86 58 51 59 52 60 66 62 87 63 54 64 38 65 39 66 47 67
REMARK SMILES IDX 40 68 42 69 48 70 41 71 43 72 44 73 45 74 46 75 70 76 71 77
REMARK SMILES IDX 79 78 72 79 74 80 80 81 73 82 75 83 76 84 77 85 78 86 55 87
REMARK SMILES IDX 56 88 64 89 57 90 59 91 65 92 58 93 60 94 61 95 62 96 63 97
REMARK H PARENT 15 14 3 18 12 28 85 50 53 61
REMARK Flexibility Score: inf
ROOT
ATOM      1  C   UNL A   1      38.676  21.202  25.694  1.00  0.00     0.275 C 
ENDROOT
BRANCH   1   2
ATOM      2  O   UNL A   1      37.247  21.167  25.553  1.00  0.00    -0.458 OA
BRANCH   2   3
ATOM      3  C   UNL A   1      36.707  22.219  24.893  1.00  0.00     0.338 C 
ATOM      4  O   UNL A   1      37.049  22.661  23.809  1.00  0.00    -0.246 OA
BRANCH   3   5
ATOM      5  C   UNL A   1      35.581  22.802  25.657  1.00  0.00     0.062 A 
ATOM      6  C   UNL A   1      33.165  24.839  25.666  1.00  0.00     0.042 A 
ATOM      7  C   UNL A   1      32.232  23.742  26.777  1.00  0.00     0.026 A 
ATOM      8  C   UNL A   1      34.845  24.416  25.139  1.00  0.00     0.041 A 
ATOM      9  C   UNL A   1      33.019  22.196  27.394  1.00  0.00     0.003 A 
ATOM     10  C   UNL A   1      34.671  21.730  26.812  1.00  0.00     0.016 A 
BRANCH   6  11
ATOM     11  N   UNL A   1      32.337  25.509  24.759  1.00  0.00    -0.318 N 
ATOM     12  C   UNL A   1      31.978  25.057  23.491  1.00  0.00     0.315 C 
ATOM     13  O   UNL A   1      30.976  25.571  22.982  1.00  0.00    -0.263 OA
ATOM     14  H   UNL A   1      31.976  26.381  25.042  1.00  0.00     0.170 HD
BRANCH  12  15
ATOM     15  C   UNL A   1      32.685  23.953  22.668  1.00  0.00     0.329 C 
ATOM     16  O   UNL A   1      33.692  24.258  22.026  1.00  0.00    -0.262 OA
ATOM     17  N   UNL A   1      32.112  22.689  22.493  1.00  0.00    -0.239 N 
ATOM     18  H   UNL A   1      31.759  22.393  21.624  1.00  0.00     0.194 HD
BRANCH  17  19
ATOM     19  N   UNL A   1      32.070  21.890  23.601  1.00  0.00    -0.180 NA
ATOM     20  C   UNL A   1      33.136  21.028  23.751  1.00  0.00     0.145 C 
BRANCH  20  21
ATOM     21  C   UNL A   1      33.460  19.059  24.501  1.00  0.00     0.036 A 
ATOM     22  C   UNL A   1      32.418  18.055  25.018  1.00  0.00     0.013 A 
ATOM     23  C   UNL A   1      34.710  18.155  24.642  1.00  0.00     0.124 A 
ATOM     24  C   UNL A   1      32.494  16.656  25.280  1.00  0.00     0.001 A 
ATOM     25  C   UNL A   1      34.771  16.725  24.804  1.00  0.00     0.047 A 
ATOM     26  C   UNL A   1      33.658  15.974  25.081  1.00  0.00     0.004 A 
BRANCH  23  27
ATOM     27  O   UNL A   1      36.017  18.648  24.751  1.00  0.00    -0.507 OA
ATOM     28  H   UNL A   1      36.482  18.915  23.983  1.00  0.00     0.293 HD
ENDBRANCH  23  27
ENDBRANCH  20  21
ENDBRANCH  17  19
ENDBRANCH  12  15
ENDBRANCH   6  11
ENDBRANCH   3   5
ENDBRANCH   2   3
ENDBRANCH   1   2
BRANCH   1  29
ATOM     29  C   UNL A   1      39.288  19.802  25.616  1.00  0.00     0.275 C 
BRANCH  29  30
ATOM     30  O   UNL A   1      40.249  19.589  26.664  1.00  0.00    -0.458 OA
BRANCH  30  31
ATOM     31  C   UNL A   1      41.549  19.632  26.298  1.00  0.00     0.338 C 
ATOM     32  O   UNL A   1      42.229  18.743  25.806  1.00  0.00    -0.246 OA
BRANCH  31  33
ATOM     33  C   UNL A   1      42.067  20.996  26.451  1.00  0.00     0.060 A 
ATOM     34  C   UNL A   1      42.118  21.536  27.735  1.00  0.00     0.016 A 
ATOM     35  C   UNL A   1      42.329  21.791  25.340  1.00  0.00     0.016 A 
ATOM     36  C   UNL A   1      42.397  22.882  27.924  1.00  0.00     0.010 A 
ATOM     37  C   UNL A   1      42.669  23.135  25.532  1.00  0.00     0.010 A 
ATOM     38  C   UNL A   1      42.685  23.694  26.824  1.00  0.00    -0.014 A 
BRANCH  38  39
ATOM     39  C   UNL A   1      42.975  25.134  27.025  1.00  0.00     0.031 A 
ATOM     40  C   UNL A   1      44.298  25.698  26.592  1.00  0.00     0.074 A 
ATOM     41  C   UNL A   1      42.057  25.926  27.611  1.00  0.00     0.049 A 
ATOM     42  N   UNL A   1      44.812  26.872  26.838  1.00  0.00    -0.248 NA
ATOM     43  C   UNL A   1      45.160  24.819  25.784  1.00  0.00     0.031 C 
ATOM     44  C   UNL A   1      40.725  25.499  28.045  1.00  0.00     0.029 A 
ATOM     45  N   UNL A   1      42.115  27.251  27.964  1.00  0.00    -0.354 N 
ATOM     46  C   UNL A   1      46.086  26.851  26.284  1.00  0.00     0.074 A 
ATOM     47  C   UNL A   1      46.259  25.553  25.668  1.00  0.00     0.031 C 
ATOM     48  C   UNL A   1      40.095  26.538  28.613  1.00  0.00     0.029 A 
ATOM     49  C   UNL A   1      41.001  27.681  28.647  1.00  0.00     0.049 A 
ATOM     50  H   UNL A   1      42.877  27.836  27.750  1.00  0.00     0.167 HD
ATOM     51  C   UNL A   1      47.022  27.829  26.286  1.00  0.00     0.034 A 
ATOM     52  C   UNL A   1      40.756  28.847  29.275  1.00  0.00     0.034 A 
ATOM     53  C   UNL A   1      46.816  29.138  26.847  1.00  0.00     0.049 A 
ATOM     54  C   UNL A   1      41.813  29.915  29.265  1.00  0.00     0.074 A 
ATOM     55  C   UNL A   1      47.684  30.215  26.859  1.00  0.00     0.029 A 
ATOM     56  N   UNL A   1      45.658  29.550  27.489  1.00  0.00    -0.354 N 
ATOM     57  N   UNL A   1      42.991  29.902  28.690  1.00  0.00    -0.248 NA
ATOM     58  C   UNL A   1      41.505  31.161  29.978  1.00  0.00     0.031 C 
ATOM     59  C   UNL A   1      47.055  31.276  27.519  1.00  0.00     0.029 A 
ATOM     60  C   UNL A   1      45.790  30.864  27.905  1.00  0.00     0.049 A 
ATOM     61  H   UNL A   1      44.860  28.990  27.629  1.00  0.00     0.167 HD
ATOM     62  C   UNL A   1      43.559  31.141  28.956  1.00  0.00     0.074 A 
ATOM     63  C   UNL A   1      42.582  31.891  29.721  1.00  0.00     0.031 C 
ATOM     64  C   UNL A   1      44.785  31.610  28.620  1.00  0.00     0.034 A 
BRANCH  51  65
ATOM     65  C   UNL A   1      48.351  27.529  25.648  1.00  0.00     0.023 A 
ATOM     66  C   UNL A   1      49.428  27.097  26.445  1.00  0.00     0.012 A 
ATOM     67  C   UNL A   1      48.515  27.624  24.252  1.00  0.00     0.148 A 
ATOM     68  C   UNL A   1      50.659  26.787  25.865  1.00  0.00     0.002 A 
ATOM     69  C   UNL A   1      49.733  27.278  23.677  1.00  0.00     0.091 A 
ATOM     70  F   UNL A   1      47.487  28.066  23.514  1.00  0.00    -0.205 F 
ATOM     71  C   UNL A   1      50.808  26.868  24.483  1.00  0.00     0.022 A 
BRANCH  69  72
ATOM     72  S   UNL A   1      49.994  27.282  21.900  1.00  0.00     0.127 S 
ATOM     73  O   UNL A   1      48.955  26.358  21.448  1.00  0.00    -0.237 OA
ATOM     74  O   UNL A   1      49.756  28.684  21.553  1.00  0.00    -0.237 OA
ATOM     75  O   UNL A   1      51.365  26.834  21.699  1.00  0.00    -0.744 OA
ENDBRANCH  69  72
ENDBRANCH  51  65
BRANCH  52  76
ATOM     76  C   UNL A   1      39.448  29.057  29.956  1.00  0.00     0.023 A 
ATOM     77  C   UNL A   1      39.242  28.517  31.239  1.00  0.00     0.012 A 
ATOM     78  C   UNL A   1      38.430  29.834  29.367  1.00  0.00     0.148 A 
ATOM     79  C   UNL A   1      38.042  28.734  31.918  1.00  0.00     0.002 A 
ATOM     80  C   UNL A   1      37.262  30.097  30.072  1.00  0.00     0.091 A 
ATOM     81  F   UNL A   1      38.634  30.319  28.134  1.00  0.00    -0.205 F 
ATOM     82  C   UNL A   1      37.060  29.536  31.342  1.00  0.00     0.022 A 
BRANCH  80  83
ATOM     83  S   UNL A   1      36.013  31.235  29.463  1.00  0.00     0.127 S 
ATOM     84  O   UNL A   1      35.205  30.366  28.612  1.00  0.00    -0.237 OA
ATOM     85  O   UNL A   1      35.362  31.667  30.700  1.00  0.00    -0.237 OA
ATOM     86  O   UNL A   1      36.752  32.289  28.779  1.00  0.00    -0.744 OA
ENDBRANCH  80  83
ENDBRANCH  52  76
BRANCH  64  87
ATOM     87  C   UNL A   1      45.137  33.006  29.058  1.00  0.00     0.023 A 
ATOM     88  C   UNL A   1      45.724  33.210  30.321  1.00  0.00     0.012 A 
ATOM     89  C   UNL A   1      44.956  34.100  28.192  1.00  0.00     0.148 A 
ATOM     90  C   UNL A   1      46.102  34.488  30.728  1.00  0.00     0.002 A 
ATOM     91  C   UNL A   1      45.374  35.366  28.586  1.00  0.00     0.091 A 
ATOM     92  F   UNL A   1      44.375  33.887  27.002  1.00  0.00    -0.205 F 
ATOM     93  C   UNL A   1      45.938  35.563  29.857  1.00  0.00     0.022 A 
BRANCH  91  94
ATOM     94  S   UNL A   1      45.281  36.789  27.493  1.00  0.00     0.127 S 
ATOM     95  O   UNL A   1      46.091  36.347  26.360  1.00  0.00    -0.237 OA
ATOM     96  O   UNL A   1      43.846  36.881  27.220  1.00  0.00    -0.237 OA
ATOM     97  O   UNL A   1      45.821  37.908  28.253  1.00  0.00    -0.744 OA
ENDBRANCH  91  94
ENDBRANCH  64  87
ENDBRANCH  38  39
ENDBRANCH  31  33
ENDBRANCH  30  31
ENDBRANCH  29  30
ENDBRANCH   1  29
TORSDOF 19
ENDMDL
