MODEL 1
REMARK VINA RESULT:     -12.2      0.000      0.000
REMARK SMILES COc1ccc(S(=O)(=O)N(Cc2ccccc2)c2ccccc2C(=O)OCCOC(=O)c2ccc(-c3c4nc(c(-c5cccc(S(=O)(=O)[O-])c5F)c5ccc([nH]5)c(-c5cccc(S(=O)(=O)[O-])c5F)c5nc(c(-c6cccc(S(=O)(=O)[O-])c6F)c6ccc3[nH]6)C=C5)C=C4)cc2)cc1
REMARK SMILES IDX 27 1 26 2 24 3 25 4 23 5 18 6 19 7 20 8 22 9 21 10 10 11
REMARK SMILES IDX 7 12 8 13 9 14 6 15 3 16 4 17 96 18 5 19 95 20 2 21 1 22
REMARK SMILES IDX 11 23 12 24 13 25 17 26 14 27 16 28 15 29 28 30 29 31 30 32
REMARK SMILES IDX 31 33 32 34 33 35 94 36 34 37 93 38 35 39 36 40 37 41 87 42
REMARK SMILES IDX 38 43 92 44 86 45 88 46 39 47 91 48 85 49 84 50 40 52 72 53
REMARK SMILES IDX 52 54 71 55 53 56 56 57 70 58 89 59 54 60 55 61 69 63 90 64
REMARK SMILES IDX 57 65 41 66 42 67 50 68 43 69 45 70 51 71 44 72 46 73 47 74
REMARK SMILES IDX 48 75 49 76 73 77 74 78 82 79 75 80 77 81 83 82 76 83 78 84
REMARK SMILES IDX 79 85 80 86 81 87 58 88 59 89 67 90 60 91 62 92 68 93 61 94
REMARK SMILES IDX 63 95 64 96 65 97 66 98
REMARK H PARENT 88 51 56 62
REMARK Flexibility Score: inf
ROOT
ATOM      1  C   UNL A   1      35.616  21.610  26.227  1.00  0.00     0.275 C 
ENDROOT
BRANCH   1   2
ATOM      2  O   UNL A   1      34.515  22.353  25.663  1.00  0.00    -0.458 OA
BRANCH   2   3
ATOM      3  C   UNL A   1      33.281  21.852  25.924  1.00  0.00     0.340 C 
ATOM      4  O   UNL A   1      32.593  22.107  26.902  1.00  0.00    -0.246 OA
BRANCH   3   5
ATOM      5  C   UNL A   1      32.802  20.944  24.858  1.00  0.00     0.084 A 
ATOM      6  C   UNL A   1      32.627  21.377  23.543  1.00  0.00     0.067 A 
ATOM      7  C   UNL A   1      32.466  20.413  22.534  1.00  0.00     0.028 A 
ATOM      8  C   UNL A   1      32.279  19.064  22.839  1.00  0.00     0.002 A 
ATOM      9  C   UNL A   1      32.647  19.575  25.149  1.00  0.00     0.018 A 
ATOM     10  C   UNL A   1      32.331  18.649  24.158  1.00  0.00     0.001 A 
BRANCH   6  11
ATOM     11  N   UNL A   1      32.426  22.779  23.231  1.00  0.00    -0.261 N 
BRANCH  11  12
ATOM     12  S   UNL A   1      33.651  23.558  22.359  1.00  0.00     0.264 S 
ATOM     13  O   UNL A   1      33.297  23.605  20.955  1.00  0.00    -0.201 OA
ATOM     14  O   UNL A   1      34.918  22.978  22.750  1.00  0.00    -0.201 OA
BRANCH  12  15
ATOM     15  C   UNL A   1      33.686  25.265  22.922  1.00  0.00     0.088 A 
ATOM     16  C   UNL A   1      33.582  27.917  23.863  1.00  0.00     0.118 A 
ATOM     17  C   UNL A   1      33.166  27.605  22.565  1.00  0.00     0.048 A 
ATOM     18  C   UNL A   1      34.014  26.894  24.699  1.00  0.00     0.048 A 
ATOM     19  C   UNL A   1      33.232  26.288  22.084  1.00  0.00     0.026 A 
ATOM     20  C   UNL A   1      34.029  25.576  24.239  1.00  0.00     0.026 A 
BRANCH  16  21
ATOM     21  O   UNL A   1      33.441  29.220  24.249  1.00  0.00    -0.497 OA
ATOM     22  C   UNL A   1      32.307  29.508  25.065  1.00  0.00     0.278 C 
ENDBRANCH  16  21
ENDBRANCH  12  15
ENDBRANCH  11  12
BRANCH  11  23
ATOM     23  C   UNL A   1      31.000  23.194  23.226  1.00  0.00     0.171 C 
BRANCH  23  24
ATOM     24  C   UNL A   1      30.628  24.405  24.065  1.00  0.00    -0.027 A 
ATOM     25  C   UNL A   1      30.954  24.504  25.424  1.00  0.00     0.005 A 
ATOM     26  C   UNL A   1      30.017  25.514  23.456  1.00  0.00     0.005 A 
ATOM     27  C   UNL A   1      30.745  25.682  26.138  1.00  0.00     0.000 A 
ATOM     28  C   UNL A   1      29.803  26.695  24.172  1.00  0.00     0.000 A 
ATOM     29  C   UNL A   1      30.179  26.782  25.509  1.00  0.00     0.000 A 
ENDBRANCH  23  24
ENDBRANCH  11  23
ENDBRANCH   6  11
ENDBRANCH   3   5
ENDBRANCH   2   3
ENDBRANCH   1   2
BRANCH   1  30
ATOM     30  C   UNL A   1      36.470  20.950  25.146  1.00  0.00     0.275 C 
BRANCH  30  31
ATOM     31  O   UNL A   1      37.696  21.667  24.948  1.00  0.00    -0.458 OA
BRANCH  31  32
ATOM     32  C   UNL A   1      38.734  21.211  25.681  1.00  0.00     0.338 C 
ATOM     33  O   UNL A   1      39.209  20.088  25.685  1.00  0.00    -0.246 OA
BRANCH  32  34
ATOM     34  C   UNL A   1      39.326  22.319  26.433  1.00  0.00     0.060 A 
ATOM     35  C   UNL A   1      38.903  23.605  26.122  1.00  0.00     0.016 A 
ATOM     36  C   UNL A   1      40.390  22.119  27.300  1.00  0.00     0.016 A 
ATOM     37  C   UNL A   1      39.625  24.709  26.538  1.00  0.00     0.010 A 
ATOM     38  C   UNL A   1      41.030  23.237  27.841  1.00  0.00     0.010 A 
ATOM     39  C   UNL A   1      40.681  24.540  27.430  1.00  0.00    -0.014 A 
BRANCH  39  40
ATOM     40  C   UNL A   1      41.428  25.716  27.939  1.00  0.00     0.031 A 
ATOM     41  C   UNL A   1      40.696  26.766  28.722  1.00  0.00     0.074 A 
ATOM     42  C   UNL A   1      42.735  25.864  27.641  1.00  0.00     0.049 A 
ATOM     43  N   UNL A   1      41.054  27.989  28.997  1.00  0.00    -0.248 NA
ATOM     44  C   UNL A   1      39.366  26.397  29.238  1.00  0.00     0.031 C 
ATOM     45  C   UNL A   1      43.562  24.890  26.923  1.00  0.00     0.029 A 
ATOM     46  N   UNL A   1      43.587  26.916  27.868  1.00  0.00    -0.354 N 
ATOM     47  C   UNL A   1      39.958  28.569  29.624  1.00  0.00     0.074 A 
ATOM     48  C   UNL A   1      38.930  27.555  29.711  1.00  0.00     0.031 C 
ATOM     49  C   UNL A   1      44.793  25.391  26.756  1.00  0.00     0.029 A 
ATOM     50  C   UNL A   1      44.810  26.757  27.256  1.00  0.00     0.049 A 
ATOM     51  H   UNL A   1      43.349  27.701  28.412  1.00  0.00     0.167 HD
ATOM     52  C   UNL A   1      39.827  29.841  30.071  1.00  0.00     0.034 A 
ATOM     53  C   UNL A   1      45.804  27.638  27.042  1.00  0.00     0.034 A 
ATOM     54  C   UNL A   1      40.888  30.810  30.018  1.00  0.00     0.049 A 
ATOM     55  C   UNL A   1      45.637  29.039  27.545  1.00  0.00     0.074 A 
ATOM     56  C   UNL A   1      40.893  32.108  30.494  1.00  0.00     0.029 A 
ATOM     57  N   UNL A   1      42.135  30.584  29.450  1.00  0.00    -0.354 N 
ATOM     58  N   UNL A   1      44.612  29.572  28.168  1.00  0.00    -0.248 NA
ATOM     59  C   UNL A   1      46.761  29.959  27.334  1.00  0.00     0.031 C 
ATOM     60  C   UNL A   1      42.130  32.679  30.180  1.00  0.00     0.029 A 
ATOM     61  C   UNL A   1      42.915  31.722  29.553  1.00  0.00     0.049 A 
ATOM     62  H   UNL A   1      42.422  29.739  29.035  1.00  0.00     0.167 HD
ATOM     63  C   UNL A   1      44.982  30.878  28.459  1.00  0.00     0.074 A 
ATOM     64  C   UNL A   1      46.330  31.051  27.951  1.00  0.00     0.031 C 
ATOM     65  C   UNL A   1      44.271  31.849  29.083  1.00  0.00     0.034 A 
BRANCH  52  66
ATOM     66  C   UNL A   1      38.492  30.257  30.632  1.00  0.00     0.023 A 
ATOM     67  C   UNL A   1      38.169  29.994  31.979  1.00  0.00     0.012 A 
ATOM     68  C   UNL A   1      37.563  30.942  29.823  1.00  0.00     0.148 A 
ATOM     69  C   UNL A   1      36.929  30.370  32.499  1.00  0.00     0.002 A 
ATOM     70  C   UNL A   1      36.351  31.358  30.361  1.00  0.00     0.091 A 
ATOM     71  F   UNL A   1      37.875  31.161  28.537  1.00  0.00    -0.205 F 
ATOM     72  C   UNL A   1      36.026  31.059  31.693  1.00  0.00     0.022 A 
BRANCH  70  73
ATOM     73  S   UNL A   1      35.158  32.324  29.429  1.00  0.00     0.127 S 
ATOM     74  O   UNL A   1      34.558  31.303  28.570  1.00  0.00    -0.237 OA
ATOM     75  O   UNL A   1      34.278  32.826  30.485  1.00  0.00    -0.237 OA
ATOM     76  O   UNL A   1      35.923  33.351  28.737  1.00  0.00    -0.744 OA
ENDBRANCH  70  73
ENDBRANCH  52  66
BRANCH  53  77
ATOM     77  C   UNL A   1      47.027  27.206  26.308  1.00  0.00     0.023 A 
ATOM     78  C   UNL A   1      47.183  27.559  24.955  1.00  0.00     0.012 A 
ATOM     79  C   UNL A   1      48.065  26.510  26.963  1.00  0.00     0.148 A 
ATOM     80  C   UNL A   1      48.342  27.209  24.261  1.00  0.00     0.002 A 
ATOM     81  C   UNL A   1      49.240  26.219  26.282  1.00  0.00     0.091 A 
ATOM     82  F   UNL A   1      47.893  26.179  28.251  1.00  0.00    -0.205 F 
ATOM     83  C   UNL A   1      49.374  26.552  24.925  1.00  0.00     0.022 A 
BRANCH  81  84
ATOM     84  S   UNL A   1      50.674  25.499  27.090  1.00  0.00     0.127 S 
ATOM     85  O   UNL A   1      50.108  24.286  27.676  1.00  0.00    -0.237 OA
ATOM     86  O   UNL A   1      51.575  25.275  25.960  1.00  0.00    -0.237 OA
ATOM     87  O   UNL A   1      51.137  26.500  28.041  1.00  0.00    -0.744 OA
ENDBRANCH  81  84
ENDBRANCH  53  77
BRANCH  65  88
ATOM     88  C   UNL A   1      44.958  33.166  29.317  1.00  0.00     0.023 A 
ATOM     89  C   UNL A   1      45.724  33.371  30.481  1.00  0.00     0.012 A 
ATOM     90  C   UNL A   1      44.907  34.169  28.330  1.00  0.00     0.148 A 
ATOM     91  C   UNL A   1      46.406  34.571  30.672  1.00  0.00     0.002 A 
ATOM     92  C   UNL A   1      45.635  35.338  28.501  1.00  0.00     0.091 A 
ATOM     93  F   UNL A   1      44.155  33.956  27.241  1.00  0.00    -0.205 F 
ATOM     94  C   UNL A   1      46.374  35.547  29.678  1.00  0.00     0.022 A 
BRANCH  92  95
ATOM     95  S   UNL A   1      45.738  36.600  27.228  1.00  0.00     0.127 S 
ATOM     96  O   UNL A   1      44.346  37.041  27.133  1.00  0.00    -0.237 OA
ATOM     97  O   UNL A   1      46.646  37.575  27.834  1.00  0.00    -0.237 OA
ATOM     98  O   UNL A   1      46.262  35.937  26.043  1.00  0.00    -0.744 OA
ENDBRANCH  92  95
ENDBRANCH  65  88
ENDBRANCH  39  40
ENDBRANCH  32  34
ENDBRANCH  31  32
ENDBRANCH  30  31
ENDBRANCH   1  30
TORSDOF 20
ENDMDL
MODEL 2
REMARK VINA RESULT:     -12.0      1.673      3.764
REMARK SMILES COc1ccc(S(=O)(=O)N(Cc2ccccc2)c2ccccc2C(=O)OCCOC(=O)c2ccc(-c3c4nc(c(-c5cccc(S(=O)(=O)[O-])c5F)c5ccc([nH]5)c(-c5cccc(S(=O)(=O)[O-])c5F)c5nc(c(-c6cccc(S(=O)(=O)[O-])c6F)c6ccc3[nH]6)C=C5)C=C4)cc2)cc1
REMARK SMILES IDX 27 1 26 2 24 3 25 4 23 5 18 6 19 7 20 8 22 9 21 10 10 11
REMARK SMILES IDX 7 12 8 13 9 14 6 15 3 16 4 17 96 18 5 19 95 20 2 21 1 22
REMARK SMILES IDX 11 23 12 24 13 25 17 26 14 27 16 28 15 29 28 30 29 31 30 32
REMARK SMILES IDX 31 33 32 34 33 35 94 36 34 37 93 38 35 39 36 40 37 41 87 42
REMARK SMILES IDX 38 43 92 44 86 45 88 46 39 47 91 48 85 49 84 50 40 52 72 53
REMARK SMILES IDX 52 54 71 55 53 56 56 57 70 58 89 59 54 60 55 61 69 63 90 64
REMARK SMILES IDX 57 65 41 66 42 67 50 68 43 69 45 70 51 71 44 72 46 73 47 74
REMARK SMILES IDX 48 75 49 76 73 77 74 78 82 79 75 80 77 81 83 82 76 83 78 84
REMARK SMILES IDX 79 85 80 86 81 87 58 88 59 89 67 90 60 91 62 92 68 93 61 94
REMARK SMILES IDX 63 95 64 96 65 97 66 98
REMARK H PARENT 88 51 56 62
REMARK Flexibility Score: inf
ROOT
ATOM      1  C   UNL A   1      36.470  22.928  23.677  1.00  0.00     0.275 C 
ENDROOT
BRANCH   1   2
ATOM      2  O   UNL A   1      35.485  23.624  24.469  1.00  0.00    -0.458 OA
BRANCH   2   3
ATOM      3  C   UNL A   1      34.483  24.210  23.768  1.00  0.00     0.340 C 
ATOM      4  O   UNL A   1      34.217  24.013  22.591  1.00  0.00    -0.246 OA
BRANCH   3   5
ATOM      5  C   UNL A   1      33.681  25.139  24.596  1.00  0.00     0.084 A 
ATOM      6  C   UNL A   1      32.504  24.734  25.228  1.00  0.00     0.067 A 
ATOM      7  C   UNL A   1      31.961  25.559  26.228  1.00  0.00     0.028 A 
ATOM      8  C   UNL A   1      32.453  26.845  26.457  1.00  0.00     0.002 A 
ATOM      9  C   UNL A   1      34.188  26.425  24.861  1.00  0.00     0.018 A 
ATOM     10  C   UNL A   1      33.548  27.295  25.741  1.00  0.00     0.001 A 
BRANCH   6  11
ATOM     11  N   UNL A   1      31.746  23.594  24.753  1.00  0.00    -0.261 N 
BRANCH  11  12
ATOM     12  S   UNL A   1      31.665  22.243  25.771  1.00  0.00     0.264 S 
ATOM     13  O   UNL A   1      30.287  21.989  26.138  1.00  0.00    -0.201 OA
ATOM     14  O   UNL A   1      32.656  22.408  26.813  1.00  0.00    -0.201 OA
BRANCH  12  15
ATOM     15  C   UNL A   1      32.193  20.825  24.799  1.00  0.00     0.088 A 
ATOM     16  C   UNL A   1      32.857  18.548  23.282  1.00  0.00     0.118 A 
ATOM     17  C   UNL A   1      32.938  18.522  24.677  1.00  0.00     0.048 A 
ATOM     18  C   UNL A   1      32.409  19.703  22.652  1.00  0.00     0.048 A 
ATOM     19  C   UNL A   1      32.625  19.660  25.439  1.00  0.00     0.026 A 
ATOM     20  C   UNL A   1      32.047  20.817  23.410  1.00  0.00     0.026 A 
BRANCH  16  21
ATOM     21  O   UNL A   1      33.145  17.379  22.635  1.00  0.00    -0.497 OA
ATOM     22  C   UNL A   1      33.961  16.457  23.354  1.00  0.00     0.278 C 
ENDBRANCH  16  21
ENDBRANCH  12  15
ENDBRANCH  11  12
BRANCH  11  23
ATOM     23  C   UNL A   1      30.721  23.936  23.733  1.00  0.00     0.171 C 
BRANCH  23  24
ATOM     24  C   UNL A   1      30.507  25.410  23.434  1.00  0.00    -0.027 A 
ATOM     25  C   UNL A   1      31.321  26.119  22.542  1.00  0.00     0.005 A 
ATOM     26  C   UNL A   1      29.406  26.081  23.991  1.00  0.00     0.005 A 
ATOM     27  C   UNL A   1      31.017  27.425  22.160  1.00  0.00     0.000 A 
ATOM     28  C   UNL A   1      29.102  27.392  23.613  1.00  0.00     0.000 A 
ATOM     29  C   UNL A   1      29.900  28.058  22.688  1.00  0.00     0.000 A 
ENDBRANCH  23  24
ENDBRANCH  11  23
ENDBRANCH   6  11
ENDBRANCH   3   5
ENDBRANCH   2   3
ENDBRANCH   1   2
BRANCH   1  30
ATOM     30  C   UNL A   1      36.970  21.663  24.372  1.00  0.00     0.275 C 
BRANCH  30  31
ATOM     31  O   UNL A   1      37.392  21.945  25.713  1.00  0.00    -0.458 OA
BRANCH  31  32
ATOM     32  C   UNL A   1      38.685  21.649  25.966  1.00  0.00     0.338 C 
ATOM     33  O   UNL A   1      39.316  20.677  25.588  1.00  0.00    -0.246 OA
BRANCH  32  34
ATOM     34  C   UNL A   1      39.306  22.755  26.697  1.00  0.00     0.060 A 
ATOM     35  C   UNL A   1      38.868  24.042  26.411  1.00  0.00     0.016 A 
ATOM     36  C   UNL A   1      40.405  22.553  27.518  1.00  0.00     0.016 A 
ATOM     37  C   UNL A   1      39.605  25.145  26.801  1.00  0.00     0.010 A 
ATOM     38  C   UNL A   1      41.065  23.669  28.038  1.00  0.00     0.010 A 
ATOM     39  C   UNL A   1      40.697  24.973  27.648  1.00  0.00    -0.014 A 
BRANCH  39  40
ATOM     40  C   UNL A   1      41.462  26.149  28.131  1.00  0.00     0.031 A 
ATOM     41  C   UNL A   1      40.751  27.217  28.909  1.00  0.00     0.074 A 
ATOM     42  C   UNL A   1      42.766  26.279  27.816  1.00  0.00     0.049 A 
ATOM     43  N   UNL A   1      41.125  28.440  29.162  1.00  0.00    -0.248 NA
ATOM     44  C   UNL A   1      39.423  26.869  29.446  1.00  0.00     0.031 C 
ATOM     45  C   UNL A   1      43.575  25.287  27.101  1.00  0.00     0.029 A 
ATOM     46  N   UNL A   1      43.632  27.325  28.017  1.00  0.00    -0.354 N 
ATOM     47  C   UNL A   1      40.043  29.040  29.794  1.00  0.00     0.074 A 
ATOM     48  C   UNL A   1      39.005  28.039  29.908  1.00  0.00     0.031 C 
ATOM     49  C   UNL A   1      44.809  25.772  26.912  1.00  0.00     0.029 A 
ATOM     50  C   UNL A   1      44.846  27.145  27.393  1.00  0.00     0.049 A 
ATOM     51  H   UNL A   1      43.409  28.119  28.553  1.00  0.00     0.167 HD
ATOM     52  C   UNL A   1      39.930  30.319  30.225  1.00  0.00     0.034 A 
ATOM     53  C   UNL A   1      45.846  28.012  27.155  1.00  0.00     0.034 A 
ATOM     54  C   UNL A   1      41.000  31.276  30.146  1.00  0.00     0.049 A 
ATOM     55  C   UNL A   1      45.700  29.422  27.641  1.00  0.00     0.074 A 
ATOM     56  C   UNL A   1      41.025  32.581  30.603  1.00  0.00     0.029 A 
ATOM     57  N   UNL A   1      42.238  31.029  29.566  1.00  0.00    -0.354 N 
ATOM     58  N   UNL A   1      44.689  29.974  28.269  1.00  0.00    -0.248 NA
ATOM     59  C   UNL A   1      46.831  30.326  27.403  1.00  0.00     0.031 C 
ATOM     60  C   UNL A   1      42.264  33.135  30.266  1.00  0.00     0.029 A 
ATOM     61  C   UNL A   1      43.031  32.161  29.643  1.00  0.00     0.049 A 
ATOM     62  H   UNL A   1      42.510  30.176  29.159  1.00  0.00     0.167 HD
ATOM     63  C   UNL A   1      45.075  31.280  28.537  1.00  0.00     0.074 A 
ATOM     64  C   UNL A   1      46.418  31.431  28.010  1.00  0.00     0.031 C 
ATOM     65  C   UNL A   1      44.382  32.267  29.156  1.00  0.00     0.034 A 
BRANCH  52  66
ATOM     66  C   UNL A   1      38.606  30.757  30.797  1.00  0.00     0.023 A 
ATOM     67  C   UNL A   1      38.307  30.539  32.156  1.00  0.00     0.012 A 
ATOM     68  C   UNL A   1      37.665  31.419  29.983  1.00  0.00     0.148 A 
ATOM     69  C   UNL A   1      37.078  30.934  32.686  1.00  0.00     0.002 A 
ATOM     70  C   UNL A   1      36.464  31.856  30.529  1.00  0.00     0.091 A 
ATOM     71  F   UNL A   1      37.954  31.596  28.685  1.00  0.00    -0.205 F 
ATOM     72  C   UNL A   1      36.162  31.600  31.875  1.00  0.00     0.022 A 
BRANCH  70  73
ATOM     73  S   UNL A   1      35.256  32.795  29.587  1.00  0.00     0.127 S 
ATOM     74  O   UNL A   1      35.991  34.030  29.314  1.00  0.00    -0.237 OA
ATOM     75  O   UNL A   1      35.047  31.939  28.419  1.00  0.00    -0.237 OA
ATOM     76  O   UNL A   1      34.094  32.937  30.452  1.00  0.00    -0.744 OA
ENDBRANCH  70  73
ENDBRANCH  52  66
BRANCH  53  77
ATOM     77  C   UNL A   1      47.055  27.557  26.412  1.00  0.00     0.023 A 
ATOM     78  C   UNL A   1      48.014  26.764  27.069  1.00  0.00     0.012 A 
ATOM     79  C   UNL A   1      47.223  27.847  25.041  1.00  0.00     0.148 A 
ATOM     80  C   UNL A   1      49.128  26.284  26.381  1.00  0.00     0.002 A 
ATOM     81  C   UNL A   1      48.304  27.316  24.348  1.00  0.00     0.091 A 
ATOM     82  F   UNL A   1      46.301  28.609  24.436  1.00  0.00    -0.205 F 
ATOM     83  C   UNL A   1      49.268  26.548  25.021  1.00  0.00     0.022 A 
BRANCH  81  84
ATOM     84  S   UNL A   1      48.492  27.487  22.571  1.00  0.00     0.127 S 
ATOM     85  O   UNL A   1      49.816  28.098  22.468  1.00  0.00    -0.237 OA
ATOM     86  O   UNL A   1      48.421  26.096  22.125  1.00  0.00    -0.237 OA
ATOM     87  O   UNL A   1      47.380  28.318  22.132  1.00  0.00    -0.744 OA
ENDBRANCH  81  84
ENDBRANCH  53  77
BRANCH  65  88
ATOM     88  C   UNL A   1      45.085  33.579  29.363  1.00  0.00     0.023 A 
ATOM     89  C   UNL A   1      45.891  33.782  30.499  1.00  0.00     0.012 A 
ATOM     90  C   UNL A   1      45.009  34.581  28.375  1.00  0.00     0.148 A 
ATOM     91  C   UNL A   1      46.587  34.978  30.665  1.00  0.00     0.002 A 
ATOM     92  C   UNL A   1      45.750  35.745  28.518  1.00  0.00     0.091 A 
ATOM     93  F   UNL A   1      44.220  34.370  27.312  1.00  0.00    -0.205 F 
ATOM     94  C   UNL A   1      46.529  35.952  29.669  1.00  0.00     0.022 A 
BRANCH  92  95
ATOM     95  S   UNL A   1      45.819  37.002  27.239  1.00  0.00     0.127 S 
ATOM     96  O   UNL A   1      46.710  37.993  27.843  1.00  0.00    -0.237 OA
ATOM     97  O   UNL A   1      46.399  36.266  26.115  1.00  0.00    -0.237 OA
ATOM     98  O   UNL A   1      44.447  37.445  27.032  1.00  0.00    -0.744 OA
ENDBRANCH  92  95
ENDBRANCH  65  88
ENDBRANCH  39  40
ENDBRANCH  32  34
ENDBRANCH  31  32
ENDBRANCH  30  31
ENDBRANCH   1  30
TORSDOF 20
ENDMDL
MODEL 3
REMARK VINA RESULT:     -11.6      1.805      2.711
REMARK SMILES COc1ccc(S(=O)(=O)N(Cc2ccccc2)c2ccccc2C(=O)OCCOC(=O)c2ccc(-c3c4nc(c(-c5cccc(S(=O)(=O)[O-])c5F)c5ccc([nH]5)c(-c5cccc(S(=O)(=O)[O-])c5F)c5nc(c(-c6cccc(S(=O)(=O)[O-])c6F)c6ccc3[nH]6)C=C5)C=C4)cc2)cc1
REMARK SMILES IDX 27 1 26 2 24 3 25 4 23 5 18 6 19 7 20 8 22 9 21 10 10 11
REMARK SMILES IDX 7 12 8 13 9 14 6 15 3 16 4 17 96 18 5 19 95 20 2 21 1 22
REMARK SMILES IDX 11 23 12 24 13 25 17 26 14 27 16 28 15 29 28 30 29 31 30 32
REMARK SMILES IDX 31 33 32 34 33 35 94 36 34 37 93 38 35 39 36 40 37 41 87 42
REMARK SMILES IDX 38 43 92 44 86 45 88 46 39 47 91 48 85 49 84 50 40 52 72 53
REMARK SMILES IDX 52 54 71 55 53 56 56 57 70 58 89 59 54 60 55 61 69 63 90 64
REMARK SMILES IDX 57 65 41 66 42 67 50 68 43 69 45 70 51 71 44 72 46 73 47 74
REMARK SMILES IDX 48 75 49 76 73 77 74 78 82 79 75 80 77 81 83 82 76 83 78 84
REMARK SMILES IDX 79 85 80 86 81 87 58 88 59 89 67 90 60 91 62 92 68 93 61 94
REMARK SMILES IDX 63 95 64 96 65 97 66 98
REMARK H PARENT 88 51 56 62
REMARK Flexibility Score: inf
ROOT
ATOM      1  C   UNL A   1      35.888  21.892  23.998  1.00  0.00     0.275 C 
ENDROOT
BRANCH   1   2
ATOM      2  O   UNL A   1      34.672  22.080  24.751  1.00  0.00    -0.458 OA
BRANCH   2   3
ATOM      3  C   UNL A   1      33.612  22.538  24.040  1.00  0.00     0.340 C 
ATOM      4  O   UNL A   1      33.499  22.516  22.822  1.00  0.00    -0.246 OA
BRANCH   3   5
ATOM      5  C   UNL A   1      32.536  23.070  24.906  1.00  0.00     0.084 A 
ATOM      6  C   UNL A   1      32.110  24.396  24.821  1.00  0.00     0.067 A 
ATOM      7  C   UNL A   1      30.901  24.754  25.443  1.00  0.00     0.028 A 
ATOM      8  C   UNL A   1      30.233  23.874  26.296  1.00  0.00     0.002 A 
ATOM      9  C   UNL A   1      31.834  22.181  25.742  1.00  0.00     0.018 A 
ATOM     10  C   UNL A   1      30.725  22.593  26.477  1.00  0.00     0.001 A 
BRANCH   6  11
ATOM     11  N   UNL A   1      32.966  25.430  24.274  1.00  0.00    -0.261 N 
BRANCH  11  12
ATOM     12  S   UNL A   1      32.567  26.030  22.742  1.00  0.00     0.264 S 
ATOM     13  O   UNL A   1      31.989  24.973  21.938  1.00  0.00    -0.201 OA
ATOM     14  O   UNL A   1      33.711  26.760  22.235  1.00  0.00    -0.201 OA
BRANCH  12  15
ATOM     15  C   UNL A   1      31.264  27.246  22.981  1.00  0.00     0.088 A 
ATOM     16  C   UNL A   1      29.177  29.124  23.192  1.00  0.00     0.118 A 
ATOM     17  C   UNL A   1      30.456  29.523  22.791  1.00  0.00     0.048 A 
ATOM     18  C   UNL A   1      28.938  27.780  23.451  1.00  0.00     0.048 A 
ATOM     19  C   UNL A   1      31.505  28.594  22.701  1.00  0.00     0.026 A 
ATOM     20  C   UNL A   1      29.967  26.848  23.309  1.00  0.00     0.026 A 
BRANCH  16  21
ATOM     21  O   UNL A   1      28.216  30.096  23.210  1.00  0.00    -0.497 OA
ATOM     22  C   UNL A   1      28.654  31.395  23.600  1.00  0.00     0.278 C 
ENDBRANCH  16  21
ENDBRANCH  12  15
ENDBRANCH  11  12
BRANCH  11  23
ATOM     23  C   UNL A   1      33.718  26.194  25.303  1.00  0.00     0.171 C 
BRANCH  23  24
ATOM     24  C   UNL A   1      33.076  27.468  25.827  1.00  0.00    -0.027 A 
ATOM     25  C   UNL A   1      32.029  27.451  26.758  1.00  0.00     0.005 A 
ATOM     26  C   UNL A   1      33.595  28.717  25.448  1.00  0.00     0.005 A 
ATOM     27  C   UNL A   1      31.559  28.624  27.345  1.00  0.00     0.000 A 
ATOM     28  C   UNL A   1      33.121  29.895  26.032  1.00  0.00     0.000 A 
ATOM     29  C   UNL A   1      32.112  29.847  26.989  1.00  0.00     0.000 A 
ENDBRANCH  23  24
ENDBRANCH  11  23
ENDBRANCH   6  11
ENDBRANCH   3   5
ENDBRANCH   2   3
ENDBRANCH   1   2
BRANCH   1  30
ATOM     30  C   UNL A   1      36.937  21.116  24.794  1.00  0.00     0.275 C 
BRANCH  30  31
ATOM     31  O   UNL A   1      37.539  21.945  25.798  1.00  0.00    -0.458 OA
BRANCH  31  32
ATOM     32  C   UNL A   1      38.825  21.641  26.074  1.00  0.00     0.338 C 
ATOM     33  O   UNL A   1      39.450  20.654  25.729  1.00  0.00    -0.246 OA
BRANCH  32  34
ATOM     34  C   UNL A   1      39.448  22.758  26.787  1.00  0.00     0.060 A 
ATOM     35  C   UNL A   1      39.002  24.040  26.490  1.00  0.00     0.016 A 
ATOM     36  C   UNL A   1      40.556  22.571  27.600  1.00  0.00     0.016 A 
ATOM     37  C   UNL A   1      39.737  25.151  26.860  1.00  0.00     0.010 A 
ATOM     38  C   UNL A   1      41.215  23.695  28.100  1.00  0.00     0.010 A 
ATOM     39  C   UNL A   1      40.839  24.993  27.699  1.00  0.00    -0.014 A 
BRANCH  39  40
ATOM     40  C   UNL A   1      41.603  26.177  28.161  1.00  0.00     0.031 A 
ATOM     41  C   UNL A   1      40.896  27.249  28.938  1.00  0.00     0.074 A 
ATOM     42  C   UNL A   1      42.903  26.312  27.827  1.00  0.00     0.049 A 
ATOM     43  N   UNL A   1      41.267  28.476  29.174  1.00  0.00    -0.248 NA
ATOM     44  C   UNL A   1      39.577  26.899  29.495  1.00  0.00     0.031 C 
ATOM     45  C   UNL A   1      43.707  25.317  27.112  1.00  0.00     0.029 A 
ATOM     46  N   UNL A   1      43.765  27.364  28.008  1.00  0.00    -0.354 N 
ATOM     47  C   UNL A   1      40.189  29.077  29.814  1.00  0.00     0.074 A 
ATOM     48  C   UNL A   1      39.159  28.071  29.951  1.00  0.00     0.031 C 
ATOM     49  C   UNL A   1      44.936  25.807  26.902  1.00  0.00     0.029 A 
ATOM     50  C   UNL A   1      44.971  27.185  27.369  1.00  0.00     0.049 A 
ATOM     51  H   UNL A   1      43.545  28.163  28.539  1.00  0.00     0.167 HD
ATOM     52  C   UNL A   1      40.075  30.359  30.234  1.00  0.00     0.034 A 
ATOM     53  C   UNL A   1      45.964  28.055  27.110  1.00  0.00     0.034 A 
ATOM     54  C   UNL A   1      41.139  31.321  30.132  1.00  0.00     0.049 A 
ATOM     55  C   UNL A   1      45.816  29.469  27.584  1.00  0.00     0.074 A 
ATOM     56  C   UNL A   1      41.162  32.630  30.577  1.00  0.00     0.029 A 
ATOM     57  N   UNL A   1      42.370  31.076  29.539  1.00  0.00    -0.354 N 
ATOM     58  N   UNL A   1      44.810  30.021  28.220  1.00  0.00    -0.248 NA
ATOM     59  C   UNL A   1      46.939  30.377  27.324  1.00  0.00     0.031 C 
ATOM     60  C   UNL A   1      42.393  33.188  30.219  1.00  0.00     0.029 A 
ATOM     61  C   UNL A   1      43.158  32.212  29.596  1.00  0.00     0.049 A 
ATOM     62  H   UNL A   1      42.642  30.220  29.137  1.00  0.00     0.167 HD
ATOM     63  C   UNL A   1      45.193  31.332  28.471  1.00  0.00     0.074 A 
ATOM     64  C   UNL A   1      46.528  31.485  27.925  1.00  0.00     0.031 C 
ATOM     65  C   UNL A   1      44.502  32.321  29.089  1.00  0.00     0.034 A 
BRANCH  52  66
ATOM     66  C   UNL A   1      38.756  30.795  30.819  1.00  0.00     0.023 A 
ATOM     67  C   UNL A   1      38.515  30.682  32.203  1.00  0.00     0.012 A 
ATOM     68  C   UNL A   1      37.761  31.351  29.990  1.00  0.00     0.148 A 
ATOM     69  C   UNL A   1      37.291  31.076  32.746  1.00  0.00     0.002 A 
ATOM     70  C   UNL A   1      36.564  31.788  30.545  1.00  0.00     0.091 A 
ATOM     71  F   UNL A   1      37.996  31.428  28.672  1.00  0.00    -0.205 F 
ATOM     72  C   UNL A   1      36.321  31.637  31.919  1.00  0.00     0.022 A 
BRANCH  70  73
ATOM     73  S   UNL A   1      35.287  32.600  29.576  1.00  0.00     0.127 S 
ATOM     74  O   UNL A   1      34.260  32.846  30.589  1.00  0.00    -0.237 OA
ATOM     75  O   UNL A   1      35.977  33.801  29.105  1.00  0.00    -0.237 OA
ATOM     76  O   UNL A   1      34.918  31.660  28.528  1.00  0.00    -0.744 OA
ENDBRANCH  70  73
ENDBRANCH  52  66
BRANCH  53  77
ATOM     77  C   UNL A   1      47.166  27.600  26.356  1.00  0.00     0.023 A 
ATOM     78  C   UNL A   1      48.123  26.794  27.000  1.00  0.00     0.012 A 
ATOM     79  C   UNL A   1      47.328  27.901  24.987  1.00  0.00     0.148 A 
ATOM     80  C   UNL A   1      49.231  26.314  26.301  1.00  0.00     0.002 A 
ATOM     81  C   UNL A   1      48.401  27.370  24.283  1.00  0.00     0.091 A 
ATOM     82  F   UNL A   1      46.406  28.674  24.394  1.00  0.00    -0.205 F 
ATOM     83  C   UNL A   1      49.364  26.590  24.942  1.00  0.00     0.022 A 
BRANCH  81  84
ATOM     84  S   UNL A   1      48.580  27.556  22.506  1.00  0.00     0.127 S 
ATOM     85  O   UNL A   1      47.354  28.271  22.156  1.00  0.00    -0.237 OA
ATOM     86  O   UNL A   1      49.805  28.351  22.409  1.00  0.00    -0.237 OA
ATOM     87  O   UNL A   1      48.695  26.205  21.974  1.00  0.00    -0.744 OA
ENDBRANCH  81  84
ENDBRANCH  53  77
BRANCH  65  88
ATOM     88  C   UNL A   1      45.201  33.639  29.275  1.00  0.00     0.023 A 
ATOM     89  C   UNL A   1      45.980  33.875  30.423  1.00  0.00     0.012 A 
ATOM     90  C   UNL A   1      45.147  34.612  28.258  1.00  0.00     0.148 A 
ATOM     91  C   UNL A   1      46.673  35.075  30.570  1.00  0.00     0.002 A 
ATOM     92  C   UNL A   1      45.884  35.780  28.384  1.00  0.00     0.091 A 
ATOM     93  F   UNL A   1      44.382  34.371  27.183  1.00  0.00    -0.205 F 
ATOM     94  C   UNL A   1      46.638  36.020  29.546  1.00  0.00     0.022 A 
BRANCH  92  95
ATOM     95  S   UNL A   1      45.982  37.001  27.072  1.00  0.00     0.127 S 
ATOM     96  O   UNL A   1      46.985  37.926  27.600  1.00  0.00    -0.237 OA
ATOM     97  O   UNL A   1      46.434  36.196  25.936  1.00  0.00    -0.237 OA
ATOM     98  O   UNL A   1      44.641  37.552  26.931  1.00  0.00    -0.744 OA
ENDBRANCH  92  95
ENDBRANCH  65  88
ENDBRANCH  39  40
ENDBRANCH  32  34
ENDBRANCH  31  32
ENDBRANCH  30  31
ENDBRANCH   1  30
TORSDOF 20
ENDMDL
