MODEL 1
REMARK VINA RESULT:     -12.5      0.000      0.000
REMARK SMILES NS(=O)(=O)c1ccc(-n2nc(NC(=O)NCCCC(=O)OCCOC(=O)c3ccc(-c4c5nc(c(-c6cccc(S(=O)(=O)[O-])c6F)c6ccc([nH]6)c(-c6cccc(S(=O)(=O)[O-])c6F)c6nc(c(-c7cccc(S(=O)(=O)[O-])c7F)c7ccc4[nH]7)C=C6)C=C5)cc3)cc2-c2ccccc2)cc1
REMARK SMILES IDX 19 1 20 2 18 3 17 4 16 5 15 6 12 7 13 8 14 10 11 12 9 13
REMARK SMILES IDX 10 14 91 15 90 16 8 17 5 18 6 19 99 20 7 21 98 22 2 23 3 24
REMARK SMILES IDX 4 25 1 26 92 29 93 30 97 31 94 32 96 33 95 34 21 35 22 36
REMARK SMILES IDX 23 37 24 38 25 39 26 40 27 41 28 42 89 43 29 44 88 45 30 46
REMARK SMILES IDX 31 47 32 48 82 49 33 50 87 51 81 52 83 53 34 54 86 55 80 56
REMARK SMILES IDX 79 57 35 59 67 60 47 61 66 62 48 63 51 64 65 65 84 66 49 67
REMARK SMILES IDX 50 68 64 70 85 71 52 72 36 73 37 74 45 75 38 76 40 77 46 78
REMARK SMILES IDX 39 79 41 80 42 81 43 82 44 83 68 84 69 85 77 86 70 87 72 88
REMARK SMILES IDX 78 89 71 90 73 91 74 92 75 93 76 94 53 95 54 96 62 97 55 98
REMARK SMILES IDX 57 99 63 100 56 101 58 102 59 103 60 104 61 105
REMARK H PARENT 12 9 15 11 1 27 1 28 83 58 51 69
REMARK Flexibility Score: inf
ROOT
ATOM      1  C   UNL A   1      36.844  22.767  24.876  1.00  0.00     0.305 C 
ATOM      2  O   UNL A   1      37.502  23.765  25.151  1.00  0.00    -0.252 OA
ENDROOT
BRANCH   1   3
ATOM      3  C   UNL A   1      35.958  22.693  23.652  1.00  0.00     0.124 C 
BRANCH   3   4
ATOM      4  C   UNL A   1      34.913  23.776  23.403  1.00  0.00     0.033 C 
BRANCH   4   5
ATOM      5  C   UNL A   1      33.574  23.385  22.789  1.00  0.00     0.118 C 
BRANCH   5   6
ATOM      6  N   UNL A   1      33.133  22.025  23.061  1.00  0.00    -0.338 N 
ATOM      7  N   UNL A   1      32.399  22.084  25.342  1.00  0.00    -0.291 N 
ATOM      8  C   UNL A   1      32.649  21.438  24.179  1.00  0.00     0.320 C 
ATOM      9  H   UNL A   1      32.412  21.509  26.141  1.00  0.00     0.173 HD
ATOM     10  O   UNL A   1      32.519  20.207  24.161  1.00  0.00    -0.248 OA
ATOM     11  H   UNL A   1      33.201  21.420  22.287  1.00  0.00     0.165 HD
BRANCH   7  12
ATOM     12  C   UNL A   1      32.127  23.406  25.594  1.00  0.00     0.157 A 
ATOM     13  N   UNL A   1      31.338  25.286  25.209  1.00  0.00    -0.231 N 
ATOM     14  N   UNL A   1      30.980  23.998  25.276  1.00  0.00    -0.149 NA
ATOM     15  C   UNL A   1      32.363  25.573  26.098  1.00  0.00     0.076 A 
ATOM     16  C   UNL A   1      32.969  24.338  26.274  1.00  0.00     0.078 A 
BRANCH  13  17
ATOM     17  C   UNL A   1      30.717  26.166  24.309  1.00  0.00     0.065 A 
ATOM     18  C   UNL A   1      29.549  28.274  23.056  1.00  0.00     0.082 A 
ATOM     19  C   UNL A   1      30.918  28.118  22.907  1.00  0.00     0.024 A 
ATOM     20  C   UNL A   1      28.746  27.306  23.688  1.00  0.00     0.024 A 
ATOM     21  C   UNL A   1      31.508  27.040  23.541  1.00  0.00     0.030 A 
ATOM     22  C   UNL A   1      29.331  26.224  24.309  1.00  0.00     0.030 A 
BRANCH  18  23
ATOM     23  S   UNL A   1      28.731  29.732  22.528  1.00  0.00     0.238 S 
ATOM     24  O   UNL A   1      29.012  29.883  21.124  1.00  0.00    -0.207 OA
ATOM     25  O   UNL A   1      29.138  30.699  23.518  1.00  0.00    -0.207 OA
BRANCH  23  26
ATOM     26  N   UNL A   1      27.100  29.425  22.680  1.00  0.00    -0.225 NA
ATOM     27  H   UNL A   1      26.730  29.941  23.479  1.00  0.00     0.137 HD
ATOM     28  H   UNL A   1      26.955  28.426  22.826  1.00  0.00     0.137 HD
ENDBRANCH  23  26
ENDBRANCH  18  23
ENDBRANCH  13  17
BRANCH  15  29
ATOM     29  C   UNL A   1      32.619  26.947  26.551  1.00  0.00     0.000 A 
ATOM     30  C   UNL A   1      31.571  27.674  27.155  1.00  0.00     0.010 A 
ATOM     31  C   UNL A   1      33.803  27.618  26.240  1.00  0.00     0.010 A 
ATOM     32  C   UNL A   1      31.682  29.044  27.394  1.00  0.00     0.001 A 
ATOM     33  C   UNL A   1      33.920  28.991  26.494  1.00  0.00     0.001 A 
ATOM     34  C   UNL A   1      32.859  29.704  27.060  1.00  0.00     0.000 A 
ENDBRANCH  15  29
ENDBRANCH   7  12
ENDBRANCH   5   6
ENDBRANCH   4   5
ENDBRANCH   3   4
ENDBRANCH   1   3
BRANCH   1  35
ATOM     35  O   UNL A   1      36.733  21.674  25.672  1.00  0.00    -0.462 OA
BRANCH  35  36
ATOM     36  C   UNL A   1      36.766  20.394  25.011  1.00  0.00     0.274 C 
BRANCH  36  37
ATOM     37  C   UNL A   1      38.185  19.864  24.866  1.00  0.00     0.275 C 
BRANCH  37  38
ATOM     38  O   UNL A   1      39.089  20.535  25.743  1.00  0.00    -0.458 OA
BRANCH  38  39
ATOM     39  C   UNL A   1      40.308  19.965  25.859  1.00  0.00     0.338 C 
ATOM     40  O   UNL A   1      40.590  18.797  25.653  1.00  0.00    -0.246 OA
BRANCH  39  41
ATOM     41  C   UNL A   1      41.224  20.899  26.520  1.00  0.00     0.060 A 
ATOM     42  C   UNL A   1      41.198  20.915  27.913  1.00  0.00     0.016 A 
ATOM     43  C   UNL A   1      41.840  21.922  25.781  1.00  0.00     0.016 A 
ATOM     44  C   UNL A   1      41.591  22.073  28.544  1.00  0.00     0.010 A 
ATOM     45  C   UNL A   1      42.211  23.087  26.417  1.00  0.00     0.010 A 
ATOM     46  C   UNL A   1      41.968  23.195  27.777  1.00  0.00    -0.014 A 
BRANCH  46  47
ATOM     47  C   UNL A   1      42.194  24.446  28.494  1.00  0.00     0.031 A 
ATOM     48  C   UNL A   1      41.102  25.390  28.182  1.00  0.00     0.074 A 
ATOM     49  C   UNL A   1      43.250  24.701  29.300  1.00  0.00     0.049 A 
ATOM     50  N   UNL A   1      41.142  26.456  27.454  1.00  0.00    -0.248 NA
ATOM     51  C   UNL A   1      39.740  24.918  28.495  1.00  0.00     0.031 C 
ATOM     52  C   UNL A   1      44.188  23.731  29.871  1.00  0.00     0.029 A 
ATOM     53  N   UNL A   1      43.681  25.879  29.849  1.00  0.00    -0.354 N 
ATOM     54  C   UNL A   1      39.835  26.931  27.477  1.00  0.00     0.074 A 
ATOM     55  C   UNL A   1      38.999  25.833  27.875  1.00  0.00     0.031 C 
ATOM     56  C   UNL A   1      44.997  24.330  30.764  1.00  0.00     0.029 A 
ATOM     57  C   UNL A   1      44.596  25.710  30.891  1.00  0.00     0.049 A 
ATOM     58  H   UNL A   1      43.376  26.762  29.537  1.00  0.00     0.167 HD
ATOM     59  C   UNL A   1      39.599  28.267  27.556  1.00  0.00     0.034 A 
ATOM     60  C   UNL A   1      44.884  26.568  31.906  1.00  0.00     0.034 A 
ATOM     61  C   UNL A   1      40.717  29.021  27.050  1.00  0.00     0.049 A 
ATOM     62  C   UNL A   1      44.415  27.910  31.503  1.00  0.00     0.074 A 
ATOM     63  C   UNL A   1      41.384  29.077  25.843  1.00  0.00     0.029 A 
ATOM     64  N   UNL A   1      41.554  29.583  27.981  1.00  0.00    -0.354 N 
ATOM     65  N   UNL A   1      44.961  28.599  30.540  1.00  0.00    -0.248 NA
ATOM     66  C   UNL A   1      43.037  28.249  31.819  1.00  0.00     0.031 C 
ATOM     67  C   UNL A   1      42.752  29.266  26.184  1.00  0.00     0.029 A 
ATOM     68  C   UNL A   1      42.845  29.393  27.571  1.00  0.00     0.049 A 
ATOM     69  H   UNL A   1      41.273  30.043  28.804  1.00  0.00     0.167 HD
ATOM     70  C   UNL A   1      43.877  29.089  29.823  1.00  0.00     0.074 A 
ATOM     71  C   UNL A   1      42.722  28.911  30.702  1.00  0.00     0.031 C 
ATOM     72  C   UNL A   1      43.967  29.309  28.480  1.00  0.00     0.034 A 
BRANCH  59  73
ATOM     73  C   UNL A   1      38.587  28.858  28.513  1.00  0.00     0.023 A 
ATOM     74  C   UNL A   1      37.640  29.748  27.971  1.00  0.00     0.012 A 
ATOM     75  C   UNL A   1      38.688  28.817  29.927  1.00  0.00     0.148 A 
ATOM     76  C   UNL A   1      36.877  30.589  28.789  1.00  0.00     0.002 A 
ATOM     77  C   UNL A   1      37.873  29.593  30.738  1.00  0.00     0.091 A 
ATOM     78  F   UNL A   1      39.669  28.135  30.520  1.00  0.00    -0.205 F 
ATOM     79  C   UNL A   1      36.988  30.507  30.172  1.00  0.00     0.022 A 
BRANCH  77  80
ATOM     80  S   UNL A   1      37.961  29.489  32.532  1.00  0.00     0.127 S 
ATOM     81  O   UNL A   1      39.366  29.802  32.773  1.00  0.00    -0.237 OA
ATOM     82  O   UNL A   1      37.014  30.529  32.932  1.00  0.00    -0.237 OA
ATOM     83  O   UNL A   1      37.539  28.137  32.875  1.00  0.00    -0.744 OA
ENDBRANCH  77  80
ENDBRANCH  59  73
BRANCH  60  84
ATOM     84  C   UNL A   1      45.189  26.203  33.318  1.00  0.00     0.023 A 
ATOM     85  C   UNL A   1      46.504  26.283  33.818  1.00  0.00     0.012 A 
ATOM     86  C   UNL A   1      44.151  25.982  34.257  1.00  0.00     0.148 A 
ATOM     87  C   UNL A   1      46.767  26.137  35.192  1.00  0.00     0.002 A 
ATOM     88  C   UNL A   1      44.419  25.792  35.606  1.00  0.00     0.091 A 
ATOM     89  F   UNL A   1      42.878  26.065  33.856  1.00  0.00    -0.205 F 
ATOM     90  C   UNL A   1      45.726  25.881  36.083  1.00  0.00     0.022 A 
BRANCH  88  91
ATOM     91  S   UNL A   1      43.099  25.440  36.776  1.00  0.00     0.127 S 
ATOM     92  O   UNL A   1      42.419  24.310  36.142  1.00  0.00    -0.237 OA
ATOM     93  O   UNL A   1      43.848  25.105  37.984  1.00  0.00    -0.237 OA
ATOM     94  O   UNL A   1      42.293  26.653  36.840  1.00  0.00    -0.744 OA
ENDBRANCH  88  91
ENDBRANCH  60  84
BRANCH  72  95
ATOM     95  C   UNL A   1      45.333  29.269  27.844  1.00  0.00     0.023 A 
ATOM     96  C   UNL A   1      46.212  30.374  27.830  1.00  0.00     0.012 A 
ATOM     97  C   UNL A   1      45.802  28.018  27.414  1.00  0.00     0.148 A 
ATOM     98  C   UNL A   1      47.533  30.225  27.396  1.00  0.00     0.002 A 
ATOM     99  C   UNL A   1      47.124  27.864  27.025  1.00  0.00     0.091 A 
ATOM    100  F   UNL A   1      44.947  26.983  27.431  1.00  0.00    -0.205 F 
ATOM    101  C   UNL A   1      47.993  28.966  27.010  1.00  0.00     0.022 A 
BRANCH  99 102
ATOM    102  S   UNL A   1      47.796  26.248  26.634  1.00  0.00     0.127 S 
ATOM    103  O   UNL A   1      47.507  25.493  27.850  1.00  0.00    -0.237 OA
ATOM    104  O   UNL A   1      47.005  25.859  25.466  1.00  0.00    -0.237 OA
ATOM    105  O   UNL A   1      49.211  26.460  26.348  1.00  0.00    -0.744 OA
ENDBRANCH  99 102
ENDBRANCH  72  95
ENDBRANCH  46  47
ENDBRANCH  39  41
ENDBRANCH  38  39
ENDBRANCH  37  38
ENDBRANCH  36  37
ENDBRANCH  35  36
ENDBRANCH   1  35
TORSDOF 22
ENDMDL
MODEL 2
REMARK VINA RESULT:     -12.1      2.710      7.790
REMARK SMILES NS(=O)(=O)c1ccc(-n2nc(NC(=O)NCCCC(=O)OCCOC(=O)c3ccc(-c4c5nc(c(-c6cccc(S(=O)(=O)[O-])c6F)c6ccc([nH]6)c(-c6cccc(S(=O)(=O)[O-])c6F)c6nc(c(-c7cccc(S(=O)(=O)[O-])c7F)c7ccc4[nH]7)C=C6)C=C5)cc3)cc2-c2ccccc2)cc1
REMARK SMILES IDX 19 1 20 2 18 3 17 4 16 5 15 6 12 7 13 8 14 10 11 12 9 13
REMARK SMILES IDX 10 14 91 15 90 16 8 17 5 18 6 19 99 20 7 21 98 22 2 23 3 24
REMARK SMILES IDX 4 25 1 26 92 29 93 30 97 31 94 32 96 33 95 34 21 35 22 36
REMARK SMILES IDX 23 37 24 38 25 39 26 40 27 41 28 42 89 43 29 44 88 45 30 46
REMARK SMILES IDX 31 47 32 48 82 49 33 50 87 51 81 52 83 53 34 54 86 55 80 56
REMARK SMILES IDX 79 57 35 59 67 60 47 61 66 62 48 63 51 64 65 65 84 66 49 67
REMARK SMILES IDX 50 68 64 70 85 71 52 72 36 73 37 74 45 75 38 76 40 77 46 78
REMARK SMILES IDX 39 79 41 80 42 81 43 82 44 83 68 84 69 85 77 86 70 87 72 88
REMARK SMILES IDX 78 89 71 90 73 91 74 92 75 93 76 94 53 95 54 96 62 97 55 98
REMARK SMILES IDX 57 99 63 100 56 101 58 102 59 103 60 104 61 105
REMARK H PARENT 12 9 15 11 1 27 1 28 83 58 51 69
REMARK Flexibility Score: inf
ROOT
ATOM      1  C   UNL A   1      32.840  29.609  26.080  1.00  0.00     0.305 C 
ATOM      2  O   UNL A   1      32.741  29.569  24.858  1.00  0.00    -0.252 OA
ENDROOT
BRANCH   1   3
ATOM      3  C   UNL A   1      31.807  28.992  26.996  1.00  0.00     0.124 C 
BRANCH   3   4
ATOM      4  C   UNL A   1      31.766  27.480  27.188  1.00  0.00     0.033 C 
BRANCH   4   5
ATOM      5  C   UNL A   1      31.237  26.604  26.058  1.00  0.00     0.118 C 
BRANCH   5   6
ATOM      6  N   UNL A   1      30.312  27.254  25.143  1.00  0.00    -0.338 N 
ATOM      7  N   UNL A   1      31.396  27.121  23.009  1.00  0.00    -0.291 N 
ATOM      8  C   UNL A   1      30.384  27.515  23.817  1.00  0.00     0.320 C 
ATOM      9  H   UNL A   1      31.510  27.669  22.199  1.00  0.00     0.173 HD
ATOM     10  O   UNL A   1      29.508  28.245  23.335  1.00  0.00    -0.248 OA
ATOM     11  H   UNL A   1      29.478  27.562  25.567  1.00  0.00     0.165 HD
BRANCH   7  12
ATOM     12  C   UNL A   1      32.291  26.087  23.129  1.00  0.00     0.157 A 
ATOM     13  N   UNL A   1      32.888  24.121  23.420  1.00  0.00    -0.231 N 
ATOM     14  N   UNL A   1      32.068  24.861  22.664  1.00  0.00    -0.149 NA
ATOM     15  C   UNL A   1      34.024  24.831  23.779  1.00  0.00     0.076 A 
ATOM     16  C   UNL A   1      33.600  26.148  23.696  1.00  0.00     0.078 A 
BRANCH  13  17
ATOM     17  C   UNL A   1      32.553  22.806  23.779  1.00  0.00     0.065 A 
ATOM     18  C   UNL A   1      32.533  20.205  24.562  1.00  0.00     0.082 A 
ATOM     19  C   UNL A   1      32.337  21.170  25.538  1.00  0.00     0.024 A 
ATOM     20  C   UNL A   1      32.581  20.520  23.191  1.00  0.00     0.024 A 
ATOM     21  C   UNL A   1      32.341  22.492  25.134  1.00  0.00     0.030 A 
ATOM     22  C   UNL A   1      32.571  21.836  22.786  1.00  0.00     0.030 A 
BRANCH  18  23
ATOM     23  S   UNL A   1      32.812  18.525  24.979  1.00  0.00     0.238 S 
ATOM     24  O   UNL A   1      34.177  18.229  24.630  1.00  0.00    -0.207 OA
ATOM     25  O   UNL A   1      31.685  17.857  24.373  1.00  0.00    -0.207 OA
BRANCH  23  26
ATOM     26  N   UNL A   1      32.691  18.437  26.638  1.00  0.00    -0.225 NA
ATOM     27  H   UNL A   1      33.616  18.276  27.039  1.00  0.00     0.137 HD
ATOM     28  H   UNL A   1      32.073  17.668  26.894  1.00  0.00     0.137 HD
ENDBRANCH  23  26
ENDBRANCH  18  23
ENDBRANCH  13  17
BRANCH  15  29
ATOM     29  C   UNL A   1      35.254  24.143  24.195  1.00  0.00     0.000 A 
ATOM     30  C   UNL A   1      35.907  23.294  23.275  1.00  0.00     0.010 A 
ATOM     31  C   UNL A   1      35.695  24.156  25.519  1.00  0.00     0.010 A 
ATOM     32  C   UNL A   1      36.937  22.444  23.679  1.00  0.00     0.001 A 
ATOM     33  C   UNL A   1      36.739  23.312  25.920  1.00  0.00     0.001 A 
ATOM     34  C   UNL A   1      37.352  22.452  25.005  1.00  0.00     0.000 A 
ENDBRANCH  15  29
ENDBRANCH   7  12
ENDBRANCH   5   6
ENDBRANCH   4   5
ENDBRANCH   3   4
ENDBRANCH   1   3
BRANCH   1  35
ATOM     35  O   UNL A   1      33.797  30.296  26.753  1.00  0.00    -0.462 OA
BRANCH  35  36
ATOM     36  C   UNL A   1      33.342  31.386  27.579  1.00  0.00     0.274 C 
BRANCH  36  37
ATOM     37  C   UNL A   1      34.470  31.982  28.408  1.00  0.00     0.275 C 
BRANCH  37  38
ATOM     38  O   UNL A   1      35.726  31.381  28.096  1.00  0.00    -0.458 OA
BRANCH  38  39
ATOM     39  C   UNL A   1      36.421  30.913  29.155  1.00  0.00     0.338 C 
ATOM     40  O   UNL A   1      36.222  31.172  30.330  1.00  0.00    -0.246 OA
BRANCH  39  41
ATOM     41  C   UNL A   1      37.630  30.231  28.686  1.00  0.00     0.060 A 
ATOM     42  C   UNL A   1      37.496  28.883  28.356  1.00  0.00     0.016 A 
ATOM     43  C   UNL A   1      38.889  30.824  28.871  1.00  0.00     0.016 A 
ATOM     44  C   UNL A   1      38.618  28.092  28.441  1.00  0.00     0.010 A 
ATOM     45  C   UNL A   1      40.006  30.022  28.976  1.00  0.00     0.010 A 
ATOM     46  C   UNL A   1      39.836  28.650  28.880  1.00  0.00    -0.014 A 
BRANCH  46  47
ATOM     47  C   UNL A   1      40.940  27.727  29.126  1.00  0.00     0.031 A 
ATOM     48  C   UNL A   1      41.577  28.063  30.416  1.00  0.00     0.074 A 
ATOM     49  C   UNL A   1      41.326  26.736  28.292  1.00  0.00     0.049 A 
ATOM     50  N   UNL A   1      42.729  28.608  30.627  1.00  0.00    -0.248 NA
ATOM     51  C   UNL A   1      40.688  28.044  31.592  1.00  0.00     0.031 C 
ATOM     52  C   UNL A   1      40.571  26.175  27.167  1.00  0.00     0.029 A 
ATOM     53  N   UNL A   1      42.451  25.956  28.303  1.00  0.00    -0.354 N 
ATOM     54  C   UNL A   1      42.800  28.721  32.012  1.00  0.00     0.074 A 
ATOM     55  C   UNL A   1      41.455  28.630  32.508  1.00  0.00     0.031 C 
ATOM     56  C   UNL A   1      41.194  25.086  26.681  1.00  0.00     0.029 A 
ATOM     57  C   UNL A   1      42.354  24.819  27.497  1.00  0.00     0.049 A 
ATOM     58  H   UNL A   1      43.254  26.176  28.829  1.00  0.00     0.167 HD
ATOM     59  C   UNL A   1      43.974  28.482  32.653  1.00  0.00     0.034 A 
ATOM     60  C   UNL A   1      43.049  23.655  27.595  1.00  0.00     0.034 A 
ATOM     61  C   UNL A   1      45.096  28.686  31.773  1.00  0.00     0.049 A 
ATOM     62  C   UNL A   1      44.254  23.921  28.407  1.00  0.00     0.074 A 
ATOM     63  C   UNL A   1      45.567  29.751  31.031  1.00  0.00     0.029 A 
ATOM     64  N   UNL A   1      45.685  27.561  31.252  1.00  0.00    -0.354 N 
ATOM     65  N   UNL A   1      45.239  24.672  28.000  1.00  0.00    -0.248 NA
ATOM     66  C   UNL A   1      44.122  23.780  29.848  1.00  0.00     0.031 C 
ATOM     67  C   UNL A   1      46.068  29.173  29.831  1.00  0.00     0.029 A 
ATOM     68  C   UNL A   1      45.950  27.785  29.930  1.00  0.00     0.049 A 
ATOM     69  H   UNL A   1      45.881  26.733  31.747  1.00  0.00     0.167 HD
ATOM     70  C   UNL A   1      45.529  25.470  29.100  1.00  0.00     0.074 A 
ATOM     71  C   UNL A   1      44.867  24.821  30.231  1.00  0.00     0.031 C 
ATOM     72  C   UNL A   1      46.016  26.734  28.939  1.00  0.00     0.034 A 
BRANCH  59  73
ATOM     73  C   UNL A   1      44.061  27.619  33.893  1.00  0.00     0.023 A 
ATOM     74  C   UNL A   1      44.599  28.217  35.050  1.00  0.00     0.012 A 
ATOM     75  C   UNL A   1      43.919  26.208  33.911  1.00  0.00     0.148 A 
ATOM     76  C   UNL A   1      45.022  27.447  36.139  1.00  0.00     0.002 A 
ATOM     77  C   UNL A   1      44.263  25.456  35.024  1.00  0.00     0.091 A 
ATOM     78  F   UNL A   1      43.581  25.544  32.805  1.00  0.00    -0.205 F 
ATOM     79  C   UNL A   1      44.847  26.068  36.130  1.00  0.00     0.022 A 
BRANCH  77  80
ATOM     80  S   UNL A   1      44.019  23.674  35.065  1.00  0.00     0.127 S 
ATOM     81  O   UNL A   1      44.601  23.331  36.359  1.00  0.00    -0.237 OA
ATOM     82  O   UNL A   1      42.562  23.576  34.992  1.00  0.00    -0.237 OA
ATOM     83  O   UNL A   1      44.710  23.150  33.894  1.00  0.00    -0.744 OA
ENDBRANCH  77  80
ENDBRANCH  59  73
BRANCH  60  84
ATOM     84  C   UNL A   1      42.525  22.282  27.345  1.00  0.00     0.023 A 
ATOM     85  C   UNL A   1      41.197  21.944  27.671  1.00  0.00     0.012 A 
ATOM     86  C   UNL A   1      43.262  21.347  26.578  1.00  0.00     0.148 A 
ATOM     87  C   UNL A   1      40.637  20.723  27.256  1.00  0.00     0.002 A 
ATOM     88  C   UNL A   1      42.723  20.122  26.209  1.00  0.00     0.091 A 
ATOM     89  F   UNL A   1      44.464  21.692  26.103  1.00  0.00    -0.205 F 
ATOM     90  C   UNL A   1      41.403  19.807  26.535  1.00  0.00     0.022 A 
BRANCH  88  91
ATOM     91  S   UNL A   1      43.693  18.913  25.297  1.00  0.00     0.127 S 
ATOM     92  O   UNL A   1      42.841  17.725  25.358  1.00  0.00    -0.237 OA
ATOM     93  O   UNL A   1      43.787  19.534  23.979  1.00  0.00    -0.237 OA
ATOM     94  O   UNL A   1      44.947  18.778  26.030  1.00  0.00    -0.744 OA
ENDBRANCH  88  91
ENDBRANCH  60  84
BRANCH  72  95
ATOM     95  C   UNL A   1      46.486  27.144  27.567  1.00  0.00     0.023 A 
ATOM     96  C   UNL A   1      45.648  27.770  26.619  1.00  0.00     0.012 A 
ATOM     97  C   UNL A   1      47.863  27.057  27.309  1.00  0.00     0.148 A 
ATOM     98  C   UNL A   1      46.182  28.299  25.439  1.00  0.00     0.002 A 
ATOM     99  C   UNL A   1      48.395  27.619  26.159  1.00  0.00     0.091 A 
ATOM    100  F   UNL A   1      48.639  26.454  28.223  1.00  0.00    -0.205 F 
ATOM    101  C   UNL A   1      47.557  28.238  25.217  1.00  0.00     0.022 A 
BRANCH  99 102
ATOM    102  S   UNL A   1      50.166  27.674  25.883  1.00  0.00     0.127 S 
ATOM    103  O   UNL A   1      50.513  26.256  25.841  1.00  0.00    -0.237 OA
ATOM    104  O   UNL A   1      50.257  28.368  24.597  1.00  0.00    -0.237 OA
ATOM    105  O   UNL A   1      50.724  28.424  27.002  1.00  0.00    -0.744 OA
ENDBRANCH  99 102
ENDBRANCH  72  95
ENDBRANCH  46  47
ENDBRANCH  39  41
ENDBRANCH  38  39
ENDBRANCH  37  38
ENDBRANCH  36  37
ENDBRANCH  35  36
ENDBRANCH   1  35
TORSDOF 22
ENDMDL
MODEL 3
REMARK VINA RESULT:     -11.9      2.860      7.792
REMARK SMILES NS(=O)(=O)c1ccc(-n2nc(NC(=O)NCCCC(=O)OCCOC(=O)c3ccc(-c4c5nc(c(-c6cccc(S(=O)(=O)[O-])c6F)c6ccc([nH]6)c(-c6cccc(S(=O)(=O)[O-])c6F)c6nc(c(-c7cccc(S(=O)(=O)[O-])c7F)c7ccc4[nH]7)C=C6)C=C5)cc3)cc2-c2ccccc2)cc1
REMARK SMILES IDX 19 1 20 2 18 3 17 4 16 5 15 6 12 7 13 8 14 10 11 12 9 13
REMARK SMILES IDX 10 14 91 15 90 16 8 17 5 18 6 19 99 20 7 21 98 22 2 23 3 24
REMARK SMILES IDX 4 25 1 26 92 29 93 30 97 31 94 32 96 33 95 34 21 35 22 36
REMARK SMILES IDX 23 37 24 38 25 39 26 40 27 41 28 42 89 43 29 44 88 45 30 46
REMARK SMILES IDX 31 47 32 48 82 49 33 50 87 51 81 52 83 53 34 54 86 55 80 56
REMARK SMILES IDX 79 57 35 59 67 60 47 61 66 62 48 63 51 64 65 65 84 66 49 67
REMARK SMILES IDX 50 68 64 70 85 71 52 72 36 73 37 74 45 75 38 76 40 77 46 78
REMARK SMILES IDX 39 79 41 80 42 81 43 82 44 83 68 84 69 85 77 86 70 87 72 88
REMARK SMILES IDX 78 89 71 90 73 91 74 92 75 93 76 94 53 95 54 96 62 97 55 98
REMARK SMILES IDX 57 99 63 100 56 101 58 102 59 103 60 104 61 105
REMARK H PARENT 12 9 15 11 1 27 1 28 83 58 51 69
REMARK Flexibility Score: inf
ROOT
ATOM      1  C   UNL A   1      33.121  29.250  25.641  1.00  0.00     0.305 C 
ATOM      2  O   UNL A   1      33.152  29.342  24.419  1.00  0.00    -0.252 OA
ENDROOT
BRANCH   1   3
ATOM      3  C   UNL A   1      31.988  28.565  26.373  1.00  0.00     0.124 C 
BRANCH   3   4
ATOM      4  C   UNL A   1      31.982  27.047  26.514  1.00  0.00     0.033 C 
BRANCH   4   5
ATOM      5  C   UNL A   1      30.894  26.242  25.812  1.00  0.00     0.118 C 
BRANCH   5   6
ATOM      6  N   UNL A   1      30.088  26.982  24.853  1.00  0.00    -0.338 N 
ATOM      7  N   UNL A   1      31.454  27.086  22.886  1.00  0.00    -0.291 N 
ATOM      8  C   UNL A   1      30.333  27.384  23.585  1.00  0.00     0.320 C 
ATOM      9  H   UNL A   1      31.664  27.719  22.162  1.00  0.00     0.173 HD
ATOM     10  O   UNL A   1      29.517  28.157  23.068  1.00  0.00    -0.248 OA
ATOM     11  H   UNL A   1      29.199  27.238  25.190  1.00  0.00     0.165 HD
BRANCH   7  12
ATOM     12  C   UNL A   1      32.345  26.050  23.016  1.00  0.00     0.157 A 
ATOM     13  N   UNL A   1      32.933  24.078  23.286  1.00  0.00    -0.231 N 
ATOM     14  N   UNL A   1      32.142  24.835  22.515  1.00  0.00    -0.149 NA
ATOM     15  C   UNL A   1      34.053  24.780  23.704  1.00  0.00     0.076 A 
ATOM     16  C   UNL A   1      33.630  26.099  23.634  1.00  0.00     0.078 A 
BRANCH  13  17
ATOM     17  C   UNL A   1      32.586  22.755  23.601  1.00  0.00     0.065 A 
ATOM     18  C   UNL A   1      32.546  20.104  24.194  1.00  0.00     0.082 A 
ATOM     19  C   UNL A   1      32.560  20.998  25.253  1.00  0.00     0.024 A 
ATOM     20  C   UNL A   1      32.395  20.522  22.858  1.00  0.00     0.024 A 
ATOM     21  C   UNL A   1      32.573  22.347  24.947  1.00  0.00     0.030 A 
ATOM     22  C   UNL A   1      32.395  21.866  22.553  1.00  0.00     0.030 A 
BRANCH  18  23
ATOM     23  S   UNL A   1      32.794  18.387  24.442  1.00  0.00     0.238 S 
ATOM     24  O   UNL A   1      32.054  18.025  25.623  1.00  0.00    -0.207 OA
ATOM     25  O   UNL A   1      34.228  18.256  24.346  1.00  0.00    -0.207 OA
BRANCH  23  26
ATOM     26  N   UNL A   1      32.072  17.626  23.148  1.00  0.00    -0.225 NA
ATOM     27  H   UNL A   1      31.708  16.720  23.446  1.00  0.00     0.137 HD
ATOM     28  H   UNL A   1      32.760  17.488  22.408  1.00  0.00     0.137 HD
ENDBRANCH  23  26
ENDBRANCH  18  23
ENDBRANCH  13  17
BRANCH  15  29
ATOM     29  C   UNL A   1      35.267  24.083  24.151  1.00  0.00     0.000 A 
ATOM     30  C   UNL A   1      35.893  23.170  23.276  1.00  0.00     0.010 A 
ATOM     31  C   UNL A   1      35.716  24.157  25.471  1.00  0.00     0.010 A 
ATOM     32  C   UNL A   1      36.902  22.316  23.720  1.00  0.00     0.001 A 
ATOM     33  C   UNL A   1      36.740  23.309  25.912  1.00  0.00     0.001 A 
ATOM     34  C   UNL A   1      37.325  22.385  25.042  1.00  0.00     0.000 A 
ENDBRANCH  15  29
ENDBRANCH   7  12
ENDBRANCH   5   6
ENDBRANCH   4   5
ENDBRANCH   3   4
ENDBRANCH   1   3
BRANCH   1  35
ATOM     35  O   UNL A   1      34.011  29.837  26.481  1.00  0.00    -0.462 OA
BRANCH  35  36
ATOM     36  C   UNL A   1      33.464  30.724  27.476  1.00  0.00     0.274 C 
BRANCH  36  37
ATOM     37  C   UNL A   1      34.492  31.731  27.969  1.00  0.00     0.275 C 
BRANCH  37  38
ATOM     38  O   UNL A   1      35.823  31.237  27.825  1.00  0.00    -0.458 OA
BRANCH  38  39
ATOM     39  C   UNL A   1      36.478  30.998  28.982  1.00  0.00     0.338 C 
ATOM     40  O   UNL A   1      36.182  31.418  30.088  1.00  0.00    -0.246 OA
BRANCH  39  41
ATOM     41  C   UNL A   1      37.763  30.355  28.694  1.00  0.00     0.060 A 
ATOM     42  C   UNL A   1      37.712  29.036  28.246  1.00  0.00     0.016 A 
ATOM     43  C   UNL A   1      38.958  30.934  29.151  1.00  0.00     0.016 A 
ATOM     44  C   UNL A   1      38.812  28.242  28.477  1.00  0.00     0.010 A 
ATOM     45  C   UNL A   1      40.048  30.128  29.400  1.00  0.00     0.010 A 
ATOM     46  C   UNL A   1      39.920  28.767  29.173  1.00  0.00    -0.014 A 
BRANCH  46  47
ATOM     47  C   UNL A   1      40.974  27.830  29.549  1.00  0.00     0.031 A 
ATOM     48  C   UNL A   1      41.282  27.994  30.984  1.00  0.00     0.074 A 
ATOM     49  C   UNL A   1      41.582  26.964  28.707  1.00  0.00     0.049 A 
ATOM     50  N   UNL A   1      42.331  28.516  31.527  1.00  0.00    -0.248 NA
ATOM     51  C   UNL A   1      40.148  27.808  31.907  1.00  0.00     0.031 C 
ATOM     52  C   UNL A   1      41.131  26.553  27.374  1.00  0.00     0.029 A 
ATOM     53  N   UNL A   1      42.705  26.200  28.880  1.00  0.00    -0.354 N 
ATOM     54  C   UNL A   1      42.077  28.442  32.894  1.00  0.00     0.074 A 
ATOM     55  C   UNL A   1      40.659  28.272  33.045  1.00  0.00     0.031 C 
ATOM     56  C   UNL A   1      41.893  25.546  26.911  1.00  0.00     0.029 A 
ATOM     57  C   UNL A   1      42.843  25.183  27.934  1.00  0.00     0.049 A 
ATOM     58  H   UNL A   1      43.355  26.355  29.603  1.00  0.00     0.167 HD
ATOM     59  C   UNL A   1      43.080  28.130  33.755  1.00  0.00     0.034 A 
ATOM     60  C   UNL A   1      43.543  24.022  28.041  1.00  0.00     0.034 A 
ATOM     61  C   UNL A   1      44.365  28.461  33.196  1.00  0.00     0.049 A 
ATOM     62  C   UNL A   1      44.517  24.188  29.140  1.00  0.00     0.074 A 
ATOM     63  C   UNL A   1      44.950  29.621  32.729  1.00  0.00     0.029 A 
ATOM     64  N   UNL A   1      45.103  27.423  32.687  1.00  0.00    -0.354 N 
ATOM     65  N   UNL A   1      45.538  24.996  29.075  1.00  0.00    -0.248 NA
ATOM     66  C   UNL A   1      44.062  23.852  30.479  1.00  0.00     0.031 C 
ATOM     67  C   UNL A   1      45.738  29.215  31.615  1.00  0.00     0.029 A 
ATOM     68  C   UNL A   1      45.657  27.826  31.503  1.00  0.00     0.049 A 
ATOM     69  H   UNL A   1      45.214  26.538  33.102  1.00  0.00     0.167 HD
ATOM     70  C   UNL A   1      45.534  25.640  30.306  1.00  0.00     0.074 A 
ATOM     71  C   UNL A   1      44.656  24.838  31.157  1.00  0.00     0.031 C 
ATOM     72  C   UNL A   1      45.993  26.919  30.428  1.00  0.00     0.034 A 
BRANCH  59  73
ATOM     73  C   UNL A   1      42.914  27.108  34.859  1.00  0.00     0.023 A 
ATOM     74  C   UNL A   1      41.673  26.446  34.935  1.00  0.00     0.012 A 
ATOM     75  C   UNL A   1      43.780  26.973  35.974  1.00  0.00     0.148 A 
ATOM     76  C   UNL A   1      41.295  25.736  36.080  1.00  0.00     0.002 A 
ATOM     77  C   UNL A   1      43.435  26.201  37.074  1.00  0.00     0.091 A 
ATOM     78  F   UNL A   1      44.895  27.699  36.063  1.00  0.00    -0.205 F 
ATOM     79  C   UNL A   1      42.177  25.607  37.146  1.00  0.00     0.022 A 
BRANCH  77  80
ATOM     80  S   UNL A   1      44.563  25.980  38.457  1.00  0.00     0.127 S 
ATOM     81  O   UNL A   1      43.837  26.646  39.534  1.00  0.00    -0.237 OA
ATOM     82  O   UNL A   1      44.623  24.522  38.556  1.00  0.00    -0.237 OA
ATOM     83  O   UNL A   1      45.818  26.600  38.052  1.00  0.00    -0.744 OA
ENDBRANCH  77  80
ENDBRANCH  59  73
BRANCH  60  84
ATOM     84  C   UNL A   1      43.147  22.691  27.499  1.00  0.00     0.023 A 
ATOM     85  C   UNL A   1      41.854  22.176  27.718  1.00  0.00     0.012 A 
ATOM     86  C   UNL A   1      43.970  22.005  26.572  1.00  0.00     0.148 A 
ATOM     87  C   UNL A   1      41.411  21.024  27.046  1.00  0.00     0.002 A 
ATOM     88  C   UNL A   1      43.546  20.841  25.945  1.00  0.00     0.091 A 
ATOM     89  F   UNL A   1      45.137  22.547  26.206  1.00  0.00    -0.205 F 
ATOM     90  C   UNL A   1      42.259  20.350  26.169  1.00  0.00     0.022 A 
BRANCH  88  91
ATOM     91  S   UNL A   1      44.625  19.940  24.825  1.00  0.00     0.127 S 
ATOM     92  O   UNL A   1      44.004  18.615  24.798  1.00  0.00    -0.237 OA
ATOM     93  O   UNL A   1      44.488  20.707  23.590  1.00  0.00    -0.237 OA
ATOM     94  O   UNL A   1      45.945  19.960  25.445  1.00  0.00    -0.744 OA
ENDBRANCH  88  91
ENDBRANCH  60  84
BRANCH  72  95
ATOM     95  C   UNL A   1      46.750  27.516  29.269  1.00  0.00     0.023 A 
ATOM     96  C   UNL A   1      48.138  27.340  29.080  1.00  0.00     0.012 A 
ATOM     97  C   UNL A   1      45.992  28.115  28.251  1.00  0.00     0.148 A 
ATOM     98  C   UNL A   1      48.751  27.755  27.893  1.00  0.00     0.002 A 
ATOM     99  C   UNL A   1      46.594  28.486  27.058  1.00  0.00     0.091 A 
ATOM    100  F   UNL A   1      44.675  28.276  28.455  1.00  0.00    -0.205 F 
ATOM    101  C   UNL A   1      47.976  28.312  26.876  1.00  0.00     0.022 A 
BRANCH  99 102
ATOM    102  S   UNL A   1      45.627  29.095  25.677  1.00  0.00     0.127 S 
ATOM    103  O   UNL A   1      44.676  28.006  25.465  1.00  0.00    -0.237 OA
ATOM    104  O   UNL A   1      45.045  30.322  26.225  1.00  0.00    -0.237 OA
ATOM    105  O   UNL A   1      46.574  29.321  24.591  1.00  0.00    -0.744 OA
ENDBRANCH  99 102
ENDBRANCH  72  95
ENDBRANCH  46  47
ENDBRANCH  39  41
ENDBRANCH  38  39
ENDBRANCH  37  38
ENDBRANCH  36  37
ENDBRANCH  35  36
ENDBRANCH   1  35
TORSDOF 22
ENDMDL
