MODEL 1
REMARK VINA RESULT:     -11.5      0.000      0.000
REMARK SMILES C[C@@H]1SCCC[C@H]1[N@H+]1CCC[C@H](CCC(=O)OCCOC(=O)c2ccc(-c3c4nc(c(-c5cccc(S(=O)(=O)[O-])c5F)c5ccc([nH]5)c(-c5cccc(S(=O)(=O)[O-])c5F)c5nc(c(-c6cccc(S(=O)(=O)[O-])c6F)c6ccc3[nH]6)C=C5)C=C4)cc2)C1
REMARK SMILES IDX 18 1 17 2 15 3 16 4 14 5 13 6 12 7 8 8 9 9 86 10 10 12 11 13
REMARK SMILES IDX 7 14 1 15 2 16 3 17 4 18 6 19 5 20 19 21 20 22 21 23 22 24
REMARK SMILES IDX 23 25 24 26 85 27 25 28 84 29 26 30 27 31 28 32 78 33 29 34
REMARK SMILES IDX 83 35 77 36 79 37 30 38 82 39 76 40 75 41 31 43 63 44 43 45
REMARK SMILES IDX 62 46 44 47 47 48 61 49 80 50 45 51 46 52 60 54 81 55 48 56
REMARK SMILES IDX 32 57 33 58 41 59 34 60 36 61 42 62 35 63 37 64 38 65 39 66
REMARK SMILES IDX 40 67 64 68 65 69 73 70 66 71 68 72 74 73 67 74 69 75 70 76
REMARK SMILES IDX 71 77 72 78 49 79 50 80 58 81 51 82 53 83 59 84 52 85 54 86
REMARK SMILES IDX 55 87 56 88 57 89
REMARK H PARENT 8 11 79 42 47 53
REMARK Flexibility Score: inf
ROOT
ATOM      1  C   UNL A   1      35.198  20.831  24.627  1.00  0.00     0.274 C 
ENDROOT
BRANCH   1   2
ATOM      2  O   UNL A   1      34.178  19.952  25.140  1.00  0.00    -0.462 OA
BRANCH   2   3
ATOM      3  C   UNL A   1      33.097  20.507  25.733  1.00  0.00     0.305 C 
ATOM      4  O   UNL A   1      31.943  20.376  25.347  1.00  0.00    -0.252 OA
BRANCH   3   5
ATOM      5  C   UNL A   1      33.449  21.379  26.927  1.00  0.00     0.123 C 
BRANCH   5   6
ATOM      6  C   UNL A   1      32.593  22.617  27.211  1.00  0.00     0.021 C 
BRANCH   6   7
ATOM      7  C   UNL A   1      32.961  23.891  26.429  1.00  0.00     0.045 C 
ATOM      8  N   UNL A   1      32.268  25.340  24.509  1.00  0.00    -0.331 N 
ATOM      9  C   UNL A   1      33.649  25.400  24.049  1.00  0.00     0.262 C 
ATOM     10  C   UNL A   1      32.002  24.099  25.240  1.00  0.00     0.265 C 
ATOM     11  H   UNL A   1      31.784  25.335  23.611  1.00  0.00     0.348 HD
ATOM     12  C   UNL A   1      34.685  25.225  25.155  1.00  0.00     0.062 C 
ATOM     13  C   UNL A   1      34.424  23.968  25.979  1.00  0.00     0.015 C 
BRANCH   8  14
ATOM     14  C   UNL A   1      31.522  26.543  24.962  1.00  0.00     0.196 C 
ATOM     15  C   UNL A   1      31.464  29.115  25.204  1.00  0.00     0.026 C 
ATOM     16  C   UNL A   1      31.807  27.930  24.292  1.00  0.00     0.101 C 
ATOM     17  S   UNL A   1      30.942  28.166  22.691  1.00  0.00    -0.153 SA
ATOM     18  C   UNL A   1      29.249  27.757  23.171  1.00  0.00     0.070 C 
ATOM     19  C   UNL A   1      30.005  26.332  25.173  1.00  0.00     0.067 C 
ATOM     20  C   UNL A   1      29.126  26.444  23.927  1.00  0.00     0.017 C 
ENDBRANCH   8  14
ENDBRANCH   6   7
ENDBRANCH   5   6
ENDBRANCH   3   5
ENDBRANCH   2   3
ENDBRANCH   1   2
BRANCH   1  21
ATOM     21  C   UNL A   1      36.586  20.327  25.024  1.00  0.00     0.275 C 
BRANCH  21  22
ATOM     22  O   UNL A   1      37.416  21.433  25.410  1.00  0.00    -0.458 OA
BRANCH  22  23
ATOM     23  C   UNL A   1      38.629  21.086  25.903  1.00  0.00     0.338 C 
ATOM     24  O   UNL A   1      39.190  20.002  25.832  1.00  0.00    -0.246 OA
BRANCH  23  25
ATOM     25  C   UNL A   1      39.293  22.314  26.349  1.00  0.00     0.060 A 
ATOM     26  C   UNL A   1      40.502  22.176  27.035  1.00  0.00     0.016 A 
ATOM     27  C   UNL A   1      38.756  23.574  26.090  1.00  0.00     0.016 A 
ATOM     28  C   UNL A   1      41.202  23.300  27.450  1.00  0.00     0.010 A 
ATOM     29  C   UNL A   1      39.456  24.705  26.514  1.00  0.00     0.010 A 
ATOM     30  C   UNL A   1      40.682  24.572  27.192  1.00  0.00    -0.014 A 
BRANCH  30  31
ATOM     31  C   UNL A   1      41.411  25.770  27.659  1.00  0.00     0.031 A 
ATOM     32  C   UNL A   1      40.685  26.804  28.464  1.00  0.00     0.074 A 
ATOM     33  C   UNL A   1      42.706  25.930  27.332  1.00  0.00     0.049 A 
ATOM     34  N   UNL A   1      41.095  27.980  28.857  1.00  0.00    -0.248 NA
ATOM     35  C   UNL A   1      39.310  26.475  28.877  1.00  0.00     0.031 C 
ATOM     36  C   UNL A   1      43.508  24.971  26.569  1.00  0.00     0.029 A 
ATOM     37  N   UNL A   1      43.567  26.973  27.568  1.00  0.00    -0.354 N 
ATOM     38  C   UNL A   1      40.015  28.555  29.514  1.00  0.00     0.074 A 
ATOM     39  C   UNL A   1      38.934  27.595  29.479  1.00  0.00     0.031 C 
ATOM     40  C   UNL A   1      44.733  25.484  26.372  1.00  0.00     0.029 A 
ATOM     41  C   UNL A   1      44.783  26.826  26.944  1.00  0.00     0.049 A 
ATOM     42  H   UNL A   1      43.335  27.748  28.128  1.00  0.00     0.167 HD
ATOM     43  C   UNL A   1      39.939  29.778  30.089  1.00  0.00     0.034 A 
ATOM     44  C   UNL A   1      45.799  27.697  26.802  1.00  0.00     0.034 A 
ATOM     45  C   UNL A   1      41.033  30.709  30.133  1.00  0.00     0.049 A 
ATOM     46  C   UNL A   1      45.676  29.059  27.430  1.00  0.00     0.074 A 
ATOM     47  C   UNL A   1      41.080  31.951  30.740  1.00  0.00     0.029 A 
ATOM     48  N   UNL A   1      42.265  30.510  29.531  1.00  0.00    -0.354 N 
ATOM     49  N   UNL A   1      44.687  29.555  28.135  1.00  0.00    -0.248 NA
ATOM     50  C   UNL A   1      46.811  29.975  27.263  1.00  0.00     0.031 C 
ATOM     51  C   UNL A   1      42.326  32.522  30.465  1.00  0.00     0.029 A 
ATOM     52  C   UNL A   1      43.073  31.618  29.728  1.00  0.00     0.049 A 
ATOM     53  H   UNL A   1      42.528  29.701  29.035  1.00  0.00     0.167 HD
ATOM     54  C   UNL A   1      45.091  30.827  28.518  1.00  0.00     0.074 A 
ATOM     55  C   UNL A   1      46.427  31.016  27.989  1.00  0.00     0.031 C 
ATOM     56  C   UNL A   1      44.416  31.764  29.228  1.00  0.00     0.034 A 
BRANCH  43  57
ATOM     57  C   UNL A   1      38.629  30.186  30.707  1.00  0.00     0.023 A 
ATOM     58  C   UNL A   1      38.366  29.907  32.063  1.00  0.00     0.012 A 
ATOM     59  C   UNL A   1      37.679  30.905  29.953  1.00  0.00     0.148 A 
ATOM     60  C   UNL A   1      37.169  30.314  32.651  1.00  0.00     0.002 A 
ATOM     61  C   UNL A   1      36.510  31.347  30.557  1.00  0.00     0.091 A 
ATOM     62  F   UNL A   1      37.939  31.139  28.658  1.00  0.00    -0.205 F 
ATOM     63  C   UNL A   1      36.248  31.042  31.903  1.00  0.00     0.022 A 
BRANCH  61  64
ATOM     64  S   UNL A   1      35.298  32.359  29.701  1.00  0.00     0.127 S 
ATOM     65  O   UNL A   1      34.390  32.715  30.792  1.00  0.00    -0.237 OA
ATOM     66  O   UNL A   1      36.119  33.464  29.207  1.00  0.00    -0.237 OA
ATOM     67  O   UNL A   1      34.723  31.514  28.666  1.00  0.00    -0.744 OA
ENDBRANCH  61  64
ENDBRANCH  43  57
BRANCH  44  68
ATOM     68  C   UNL A   1      47.012  27.315  26.024  1.00  0.00     0.023 A 
ATOM     69  C   UNL A   1      48.043  26.587  26.647  1.00  0.00     0.012 A 
ATOM     70  C   UNL A   1      47.141  27.659  24.663  1.00  0.00     0.148 A 
ATOM     71  C   UNL A   1      49.195  26.239  25.940  1.00  0.00     0.002 A 
ATOM     72  C   UNL A   1      48.264  27.259  23.950  1.00  0.00     0.091 A 
ATOM     73  F   UNL A   1      46.157  28.367  24.091  1.00  0.00    -0.205 F 
ATOM     74  C   UNL A   1      49.301  26.565  24.591  1.00  0.00     0.022 A 
BRANCH  72  75
ATOM     75  S   UNL A   1      48.428  27.524  22.180  1.00  0.00     0.127 S 
ATOM     76  O   UNL A   1      49.634  28.344  22.112  1.00  0.00    -0.237 OA
ATOM     77  O   UNL A   1      48.582  26.157  21.683  1.00  0.00    -0.237 OA
ATOM     78  O   UNL A   1      47.194  28.180  21.765  1.00  0.00    -0.744 OA
ENDBRANCH  72  75
ENDBRANCH  44  68
BRANCH  56  79
ATOM     79  C   UNL A   1      45.119  33.066  29.508  1.00  0.00     0.023 A 
ATOM     80  C   UNL A   1      45.930  33.196  30.653  1.00  0.00     0.012 A 
ATOM     81  C   UNL A   1      45.037  34.133  28.591  1.00  0.00     0.148 A 
ATOM     82  C   UNL A   1      46.622  34.382  30.898  1.00  0.00     0.002 A 
ATOM     83  C   UNL A   1      45.773  35.290  28.813  1.00  0.00     0.091 A 
ATOM     84  F   UNL A   1      44.248  33.993  27.516  1.00  0.00    -0.205 F 
ATOM     85  C   UNL A   1      46.554  35.421  29.973  1.00  0.00     0.022 A 
BRANCH  83  86
ATOM     86  S   UNL A   1      45.829  36.640  27.631  1.00  0.00     0.127 S 
ATOM     87  O   UNL A   1      44.440  37.098  27.636  1.00  0.00    -0.237 OA
ATOM     88  O   UNL A   1      46.778  37.560  28.258  1.00  0.00    -0.237 OA
ATOM     89  O   UNL A   1      46.286  36.059  26.376  1.00  0.00    -0.744 OA
ENDBRANCH  83  86
ENDBRANCH  56  79
ENDBRANCH  30  31
ENDBRANCH  23  25
ENDBRANCH  22  23
ENDBRANCH  21  22
ENDBRANCH   1  21
TORSDOF 17
ENDMDL
MODEL 2
REMARK VINA RESULT:     -11.4      5.416     10.233
REMARK SMILES C[C@@H]1SCCC[C@H]1[N@H+]1CCC[C@H](CCC(=O)OCCOC(=O)c2ccc(-c3c4nc(c(-c5cccc(S(=O)(=O)[O-])c5F)c5ccc([nH]5)c(-c5cccc(S(=O)(=O)[O-])c5F)c5nc(c(-c6cccc(S(=O)(=O)[O-])c6F)c6ccc3[nH]6)C=C5)C=C4)cc2)C1
REMARK SMILES IDX 18 1 17 2 15 3 16 4 14 5 13 6 12 7 8 8 9 9 86 10 10 12 11 13
REMARK SMILES IDX 7 14 1 15 2 16 3 17 4 18 6 19 5 20 19 21 20 22 21 23 22 24
REMARK SMILES IDX 23 25 24 26 85 27 25 28 84 29 26 30 27 31 28 32 78 33 29 34
REMARK SMILES IDX 83 35 77 36 79 37 30 38 82 39 76 40 75 41 31 43 63 44 43 45
REMARK SMILES IDX 62 46 44 47 47 48 61 49 80 50 45 51 46 52 60 54 81 55 48 56
REMARK SMILES IDX 32 57 33 58 41 59 34 60 36 61 42 62 35 63 37 64 38 65 39 66
REMARK SMILES IDX 40 67 64 68 65 69 73 70 66 71 68 72 74 73 67 74 69 75 70 76
REMARK SMILES IDX 71 77 72 78 49 79 50 80 58 81 51 82 53 83 59 84 52 85 54 86
REMARK SMILES IDX 55 87 56 88 57 89
REMARK H PARENT 8 11 79 42 47 53
REMARK Flexibility Score: inf
ROOT
ATOM      1  C   UNL A   1      31.542  29.402  24.536  1.00  0.00     0.274 C 
ENDROOT
BRANCH   1   2
ATOM      2  O   UNL A   1      30.338  29.670  23.793  1.00  0.00    -0.462 OA
BRANCH   2   3
ATOM      3  C   UNL A   1      30.163  29.034  22.612  1.00  0.00     0.305 C 
ATOM      4  O   UNL A   1      29.514  29.472  21.671  1.00  0.00    -0.252 OA
BRANCH   3   5
ATOM      5  C   UNL A   1      30.814  27.662  22.567  1.00  0.00     0.123 C 
BRANCH   5   6
ATOM      6  C   UNL A   1      30.107  26.489  23.252  1.00  0.00     0.021 C 
BRANCH   6   7
ATOM      7  C   UNL A   1      30.977  25.615  24.173  1.00  0.00     0.045 C 
ATOM      8  N   UNL A   1      31.491  23.245  24.796  1.00  0.00    -0.331 N 
ATOM      9  C   UNL A   1      31.437  23.600  26.208  1.00  0.00     0.262 C 
ATOM     10  C   UNL A   1      30.637  24.122  23.992  1.00  0.00     0.265 C 
ATOM     11  H   UNL A   1      31.100  22.304  24.836  1.00  0.00     0.348 HD
ATOM     12  C   UNL A   1      31.778  25.057  26.502  1.00  0.00     0.062 C 
ATOM     13  C   UNL A   1      30.947  26.013  25.653  1.00  0.00     0.015 C 
BRANCH   8  14
ATOM     14  C   UNL A   1      32.733  22.756  24.141  1.00  0.00     0.196 C 
ATOM     15  C   UNL A   1      35.316  22.701  24.120  1.00  0.00     0.026 C 
ATOM     16  C   UNL A   1      34.048  22.615  24.980  1.00  0.00     0.101 C 
ATOM     17  S   UNL A   1      34.129  21.074  25.973  1.00  0.00    -0.153 SA
ATOM     18  C   UNL A   1      33.768  19.846  24.697  1.00  0.00     0.070 C 
ATOM     19  C   UNL A   1      32.543  21.542  23.203  1.00  0.00     0.067 C 
ATOM     20  C   UNL A   1      32.534  20.166  23.869  1.00  0.00     0.017 C 
ENDBRANCH   8  14
ENDBRANCH   6   7
ENDBRANCH   5   6
ENDBRANCH   3   5
ENDBRANCH   2   3
ENDBRANCH   1   2
BRANCH   1  21
ATOM     21  C   UNL A   1      31.621  30.305  25.768  1.00  0.00     0.275 C 
BRANCH  21  22
ATOM     22  O   UNL A   1      32.986  30.431  26.195  1.00  0.00    -0.458 OA
BRANCH  22  23
ATOM     23  C   UNL A   1      33.246  31.529  26.943  1.00  0.00     0.338 C 
ATOM     24  O   UNL A   1      32.519  32.489  27.154  1.00  0.00    -0.246 OA
BRANCH  23  25
ATOM     25  C   UNL A   1      34.490  31.280  27.678  1.00  0.00     0.060 A 
ATOM     26  C   UNL A   1      34.720  29.977  28.125  1.00  0.00     0.016 A 
ATOM     27  C   UNL A   1      35.420  32.291  27.910  1.00  0.00     0.016 A 
ATOM     28  C   UNL A   1      35.896  29.665  28.793  1.00  0.00     0.010 A 
ATOM     29  C   UNL A   1      36.600  31.980  28.587  1.00  0.00     0.010 A 
ATOM     30  C   UNL A   1      36.844  30.666  29.027  1.00  0.00    -0.014 A 
BRANCH  30  31
ATOM     31  C   UNL A   1      38.084  30.343  29.763  1.00  0.00     0.031 A 
ATOM     32  C   UNL A   1      39.063  29.378  29.166  1.00  0.00     0.074 A 
ATOM     33  C   UNL A   1      38.303  30.895  30.971  1.00  0.00     0.049 A 
ATOM     34  N   UNL A   1      40.138  28.861  29.697  1.00  0.00    -0.248 NA
ATOM     35  C   UNL A   1      38.794  28.931  27.789  1.00  0.00     0.031 C 
ATOM     36  C   UNL A   1      37.421  31.860  31.629  1.00  0.00     0.029 A 
ATOM     37  N   UNL A   1      39.318  30.698  31.874  1.00  0.00    -0.354 N 
ATOM     38  C   UNL A   1      40.644  27.985  28.745  1.00  0.00     0.074 A 
ATOM     39  C   UNL A   1      39.766  28.051  27.597  1.00  0.00     0.031 C 
ATOM     40  C   UNL A   1      37.915  32.146  32.844  1.00  0.00     0.029 A 
ATOM     41  C   UNL A   1      39.113  31.344  33.070  1.00  0.00     0.049 A 
ATOM     42  H   UNL A   1      40.111  30.148  31.684  1.00  0.00     0.167 HD
ATOM     43  C   UNL A   1      41.741  27.198  28.830  1.00  0.00     0.034 A 
ATOM     44  C   UNL A   1      39.785  31.255  34.233  1.00  0.00     0.034 A 
ATOM     45  C   UNL A   1      42.614  27.165  29.972  1.00  0.00     0.049 A 
ATOM     46  C   UNL A   1      40.986  30.351  34.306  1.00  0.00     0.074 A 
ATOM     47  C   UNL A   1      43.783  26.446  30.138  1.00  0.00     0.029 A 
ATOM     48  N   UNL A   1      42.403  27.867  31.149  1.00  0.00    -0.354 N 
ATOM     49  N   UNL A   1      41.513  29.603  33.366  1.00  0.00    -0.248 NA
ATOM     50  C   UNL A   1      41.698  30.292  35.589  1.00  0.00     0.031 C 
ATOM     51  C   UNL A   1      44.255  26.678  31.434  1.00  0.00     0.029 A 
ATOM     52  C   UNL A   1      43.406  27.578  32.059  1.00  0.00     0.049 A 
ATOM     53  H   UNL A   1      41.650  28.479  31.314  1.00  0.00     0.167 HD
ATOM     54  C   UNL A   1      42.631  29.007  33.934  1.00  0.00     0.074 A 
ATOM     55  C   UNL A   1      42.721  29.502  35.293  1.00  0.00     0.031 C 
ATOM     56  C   UNL A   1      43.498  28.117  33.391  1.00  0.00     0.034 A 
BRANCH  43  57
ATOM     57  C   UNL A   1      42.056  26.299  27.664  1.00  0.00     0.023 A 
ATOM     58  C   UNL A   1      42.833  26.776  26.590  1.00  0.00     0.012 A 
ATOM     59  C   UNL A   1      41.631  24.955  27.668  1.00  0.00     0.148 A 
ATOM     60  C   UNL A   1      43.158  25.938  25.524  1.00  0.00     0.002 A 
ATOM     61  C   UNL A   1      41.997  24.114  26.625  1.00  0.00     0.091 A 
ATOM     62  F   UNL A   1      40.873  24.529  28.688  1.00  0.00    -0.205 F 
ATOM     63  C   UNL A   1      42.751  24.606  25.547  1.00  0.00     0.022 A 
BRANCH  61  64
ATOM     64  S   UNL A   1      41.590  22.365  26.602  1.00  0.00     0.127 S 
ATOM     65  O   UNL A   1      42.216  21.901  27.841  1.00  0.00    -0.237 OA
ATOM     66  O   UNL A   1      40.128  22.391  26.632  1.00  0.00    -0.237 OA
ATOM     67  O   UNL A   1      42.167  21.831  25.378  1.00  0.00    -0.744 OA
ENDBRANCH  61  64
ENDBRANCH  43  57
BRANCH  44  68
ATOM     68  C   UNL A   1      39.330  32.028  35.424  1.00  0.00     0.023 A 
ATOM     69  C   UNL A   1      38.424  31.446  36.332  1.00  0.00     0.012 A 
ATOM     70  C   UNL A   1      39.802  33.333  35.667  1.00  0.00     0.148 A 
ATOM     71  C   UNL A   1      37.971  32.163  37.440  1.00  0.00     0.002 A 
ATOM     72  C   UNL A   1      39.392  34.019  36.804  1.00  0.00     0.091 A 
ATOM     73  F   UNL A   1      40.651  33.877  34.783  1.00  0.00    -0.205 F 
ATOM     74  C   UNL A   1      38.461  33.443  37.682  1.00  0.00     0.022 A 
BRANCH  72  75
ATOM     75  S   UNL A   1      40.067  35.620  37.261  1.00  0.00     0.127 S 
ATOM     76  O   UNL A   1      41.498  35.334  37.322  1.00  0.00    -0.237 OA
ATOM     77  O   UNL A   1      39.653  36.455  36.133  1.00  0.00    -0.237 OA
ATOM     78  O   UNL A   1      39.437  35.965  38.529  1.00  0.00    -0.744 OA
ENDBRANCH  72  75
ENDBRANCH  44  68
BRANCH  56  79
ATOM     79  C   UNL A   1      44.642  27.646  34.250  1.00  0.00     0.023 A 
ATOM     80  C   UNL A   1      45.849  28.372  34.275  1.00  0.00     0.012 A 
ATOM     81  C   UNL A   1      44.487  26.527  35.092  1.00  0.00     0.148 A 
ATOM     82  C   UNL A   1      46.898  27.970  35.102  1.00  0.00     0.002 A 
ATOM     83  C   UNL A   1      45.516  26.165  35.953  1.00  0.00     0.091 A 
ATOM     84  F   UNL A   1      43.335  25.842  35.041  1.00  0.00    -0.205 F 
ATOM     85  C   UNL A   1      46.727  26.877  35.948  1.00  0.00     0.022 A 
BRANCH  83  86
ATOM     86  S   UNL A   1      45.351  24.838  37.150  1.00  0.00     0.127 S 
ATOM     87  O   UNL A   1      46.574  24.993  37.937  1.00  0.00    -0.237 OA
ATOM     88  O   UNL A   1      44.121  25.206  37.852  1.00  0.00    -0.237 OA
ATOM     89  O   UNL A   1      45.263  23.606  36.377  1.00  0.00    -0.744 OA
ENDBRANCH  83  86
ENDBRANCH  56  79
ENDBRANCH  30  31
ENDBRANCH  23  25
ENDBRANCH  22  23
ENDBRANCH  21  22
ENDBRANCH   1  21
TORSDOF 17
ENDMDL
MODEL 3
REMARK VINA RESULT:     -11.3      5.434     10.431
REMARK SMILES C[C@@H]1SCCC[C@H]1[N@H+]1CCC[C@H](CCC(=O)OCCOC(=O)c2ccc(-c3c4nc(c(-c5cccc(S(=O)(=O)[O-])c5F)c5ccc([nH]5)c(-c5cccc(S(=O)(=O)[O-])c5F)c5nc(c(-c6cccc(S(=O)(=O)[O-])c6F)c6ccc3[nH]6)C=C5)C=C4)cc2)C1
REMARK SMILES IDX 18 1 17 2 15 3 16 4 14 5 13 6 12 7 8 8 9 9 86 10 10 12 11 13
REMARK SMILES IDX 7 14 1 15 2 16 3 17 4 18 6 19 5 20 19 21 20 22 21 23 22 24
REMARK SMILES IDX 23 25 24 26 85 27 25 28 84 29 26 30 27 31 28 32 78 33 29 34
REMARK SMILES IDX 83 35 77 36 79 37 30 38 82 39 76 40 75 41 31 43 63 44 43 45
REMARK SMILES IDX 62 46 44 47 47 48 61 49 80 50 45 51 46 52 60 54 81 55 48 56
REMARK SMILES IDX 32 57 33 58 41 59 34 60 36 61 42 62 35 63 37 64 38 65 39 66
REMARK SMILES IDX 40 67 64 68 65 69 73 70 66 71 68 72 74 73 67 74 69 75 70 76
REMARK SMILES IDX 71 77 72 78 49 79 50 80 58 81 51 82 53 83 59 84 52 85 54 86
REMARK SMILES IDX 55 87 56 88 57 89
REMARK H PARENT 8 11 79 42 47 53
REMARK Flexibility Score: inf
ROOT
ATOM      1  C   UNL A   1      31.672  29.208  24.540  1.00  0.00     0.274 C 
ENDROOT
BRANCH   1   2
ATOM      2  O   UNL A   1      30.322  29.235  24.039  1.00  0.00    -0.462 OA
BRANCH   2   3
ATOM      3  C   UNL A   1      30.051  28.554  22.902  1.00  0.00     0.305 C 
ATOM      4  O   UNL A   1      29.331  28.961  21.999  1.00  0.00    -0.252 OA
BRANCH   3   5
ATOM      5  C   UNL A   1      30.692  27.178  22.859  1.00  0.00     0.123 C 
BRANCH   5   6
ATOM      6  C   UNL A   1      30.416  26.202  24.007  1.00  0.00     0.021 C 
BRANCH   6   7
ATOM      7  C   UNL A   1      31.290  24.935  24.046  1.00  0.00     0.045 C 
ATOM      8  N   UNL A   1      33.651  24.119  23.884  1.00  0.00    -0.331 N 
ATOM      9  C   UNL A   1      33.226  23.052  22.988  1.00  0.00     0.262 C 
ATOM     10  C   UNL A   1      32.769  25.284  23.784  1.00  0.00     0.265 C 
ATOM     11  H   UNL A   1      34.567  24.329  23.485  1.00  0.00     0.348 HD
ATOM     12  C   UNL A   1      31.777  22.614  23.179  1.00  0.00     0.062 C 
ATOM     13  C   UNL A   1      30.819  23.800  23.130  1.00  0.00     0.015 C 
BRANCH   8  14
ATOM     14  C   UNL A   1      34.240  23.853  25.223  1.00  0.00     0.196 C 
ATOM     15  C   UNL A   1      34.032  22.654  27.502  1.00  0.00     0.026 C 
ATOM     16  C   UNL A   1      33.878  22.530  25.980  1.00  0.00     0.101 C 
ATOM     17  S   UNL A   1      34.840  21.072  25.420  1.00  0.00    -0.153 SA
ATOM     18  C   UNL A   1      36.522  21.722  25.548  1.00  0.00     0.070 C 
ATOM     19  C   UNL A   1      35.749  24.167  25.349  1.00  0.00     0.067 C 
ATOM     20  C   UNL A   1      36.709  23.074  24.878  1.00  0.00     0.017 C 
ENDBRANCH   8  14
ENDBRANCH   6   7
ENDBRANCH   5   6
ENDBRANCH   3   5
ENDBRANCH   2   3
ENDBRANCH   1   2
BRANCH   1  21
ATOM     21  C   UNL A   1      31.772  29.997  25.847  1.00  0.00     0.275 C 
BRANCH  21  22
ATOM     22  O   UNL A   1      33.117  30.461  26.038  1.00  0.00    -0.458 OA
BRANCH  22  23
ATOM     23  C   UNL A   1      33.248  31.469  26.932  1.00  0.00     0.338 C 
ATOM     24  O   UNL A   1      32.427  32.325  27.229  1.00  0.00    -0.246 OA
BRANCH  23  25
ATOM     25  C   UNL A   1      34.482  31.234  27.686  1.00  0.00     0.060 A 
ATOM     26  C   UNL A   1      34.758  29.920  28.072  1.00  0.00     0.016 A 
ATOM     27  C   UNL A   1      35.360  32.271  27.996  1.00  0.00     0.016 A 
ATOM     28  C   UNL A   1      35.929  29.624  28.755  1.00  0.00     0.010 A 
ATOM     29  C   UNL A   1      36.536  31.975  28.688  1.00  0.00     0.010 A 
ATOM     30  C   UNL A   1      36.826  30.650  29.066  1.00  0.00    -0.014 A 
BRANCH  30  31
ATOM     31  C   UNL A   1      38.060  30.342  29.819  1.00  0.00     0.031 A 
ATOM     32  C   UNL A   1      39.061  29.392  29.232  1.00  0.00     0.074 A 
ATOM     33  C   UNL A   1      38.255  30.893  31.030  1.00  0.00     0.049 A 
ATOM     34  N   UNL A   1      40.134  28.888  29.776  1.00  0.00    -0.248 NA
ATOM     35  C   UNL A   1      38.816  28.946  27.850  1.00  0.00     0.031 C 
ATOM     36  C   UNL A   1      37.351  31.845  31.679  1.00  0.00     0.029 A 
ATOM     37  N   UNL A   1      39.260  30.707  31.947  1.00  0.00    -0.354 N 
ATOM     38  C   UNL A   1      40.666  28.022  28.829  1.00  0.00     0.074 A 
ATOM     39  C   UNL A   1      39.803  28.079  27.669  1.00  0.00     0.031 C 
ATOM     40  C   UNL A   1      37.825  32.133  32.902  1.00  0.00     0.029 A 
ATOM     41  C   UNL A   1      39.030  31.346  33.142  1.00  0.00     0.049 A 
ATOM     42  H   UNL A   1      40.063  30.169  31.766  1.00  0.00     0.167 HD
ATOM     43  C   UNL A   1      41.772  27.249  28.927  1.00  0.00     0.034 A 
ATOM     44  C   UNL A   1      39.687  31.263  34.314  1.00  0.00     0.034 A 
ATOM     45  C   UNL A   1      42.629  27.225  30.080  1.00  0.00     0.049 A 
ATOM     46  C   UNL A   1      40.899  30.375  34.400  1.00  0.00     0.074 A 
ATOM     47  C   UNL A   1      43.806  26.522  30.261  1.00  0.00     0.029 A 
ATOM     48  N   UNL A   1      42.393  27.920  31.256  1.00  0.00    -0.354 N 
ATOM     49  N   UNL A   1      41.449  29.637  33.466  1.00  0.00    -0.248 NA
ATOM     50  C   UNL A   1      41.594  30.322  35.693  1.00  0.00     0.031 C 
ATOM     51  C   UNL A   1      44.257  26.756  31.564  1.00  0.00     0.029 A 
ATOM     52  C   UNL A   1      43.387  27.642  32.179  1.00  0.00     0.049 A 
ATOM     53  H   UNL A   1      41.630  28.522  31.413  1.00  0.00     0.167 HD
ATOM     54  C   UNL A   1      42.568  29.055  34.048  1.00  0.00     0.074 A 
ATOM     55  C   UNL A   1      42.632  29.546  35.409  1.00  0.00     0.031 C 
ATOM     56  C   UNL A   1      43.454  28.178  33.514  1.00  0.00     0.034 A 
BRANCH  43  57
ATOM     57  C   UNL A   1      42.115  26.359  27.763  1.00  0.00     0.023 A 
ATOM     58  C   UNL A   1      42.927  26.839  26.716  1.00  0.00     0.012 A 
ATOM     59  C   UNL A   1      41.680  25.018  27.741  1.00  0.00     0.148 A 
ATOM     60  C   UNL A   1      43.278  26.008  25.653  1.00  0.00     0.002 A 
ATOM     61  C   UNL A   1      42.071  24.183  26.703  1.00  0.00     0.091 A 
ATOM     62  F   UNL A   1      40.889  24.589  28.735  1.00  0.00    -0.205 F 
ATOM     63  C   UNL A   1      42.861  24.679  25.652  1.00  0.00     0.022 A 
BRANCH  61  64
ATOM     64  S   UNL A   1      41.652  22.438  26.652  1.00  0.00     0.127 S 
ATOM     65  O   UNL A   1      42.243  22.031  25.376  1.00  0.00    -0.237 OA
ATOM     66  O   UNL A   1      42.344  21.923  27.833  1.00  0.00    -0.237 OA
ATOM     67  O   UNL A   1      40.200  22.367  26.713  1.00  0.00    -0.744 OA
ENDBRANCH  61  64
ENDBRANCH  43  57
BRANCH  44  68
ATOM     68  C   UNL A   1      39.205  32.026  35.500  1.00  0.00     0.023 A 
ATOM     69  C   UNL A   1      39.455  33.409  35.591  1.00  0.00     0.012 A 
ATOM     70  C   UNL A   1      38.488  31.390  36.533  1.00  0.00     0.148 A 
ATOM     71  C   UNL A   1      39.030  34.137  36.704  1.00  0.00     0.002 A 
ATOM     72  C   UNL A   1      38.017  32.131  37.609  1.00  0.00     0.091 A 
ATOM     73  F   UNL A   1      38.274  30.070  36.438  1.00  0.00    -0.205 F 
ATOM     74  C   UNL A   1      38.303  33.501  37.707  1.00  0.00     0.022 A 
BRANCH  72  75
ATOM     75  S   UNL A   1      36.965  31.422  38.883  1.00  0.00     0.127 S 
ATOM     76  O   UNL A   1      35.845  32.358  38.900  1.00  0.00    -0.237 OA
ATOM     77  O   UNL A   1      36.660  30.105  38.322  1.00  0.00    -0.237 OA
ATOM     78  O   UNL A   1      37.779  31.387  40.091  1.00  0.00    -0.744 OA
ENDBRANCH  72  75
ENDBRANCH  44  68
BRANCH  56  79
ATOM     79  C   UNL A   1      44.592  27.720  34.387  1.00  0.00     0.023 A 
ATOM     80  C   UNL A   1      45.776  28.479  34.456  1.00  0.00     0.012 A 
ATOM     81  C   UNL A   1      44.451  26.578  35.200  1.00  0.00     0.148 A 
ATOM     82  C   UNL A   1      46.818  28.088  35.296  1.00  0.00     0.002 A 
ATOM     83  C   UNL A   1      45.471  26.226  36.075  1.00  0.00     0.091 A 
ATOM     84  F   UNL A   1      43.321  25.862  35.108  1.00  0.00    -0.205 F 
ATOM     85  C   UNL A   1      46.661  26.972  36.113  1.00  0.00     0.022 A 
BRANCH  83  86
ATOM     86  S   UNL A   1      45.319  24.867  37.238  1.00  0.00     0.127 S 
ATOM     87  O   UNL A   1      44.065  25.193  37.916  1.00  0.00    -0.237 OA
ATOM     88  O   UNL A   1      45.249  23.707  36.349  1.00  0.00    -0.237 OA
ATOM     89  O   UNL A   1      46.509  24.917  38.076  1.00  0.00    -0.744 OA
ENDBRANCH  83  86
ENDBRANCH  56  79
ENDBRANCH  30  31
ENDBRANCH  23  25
ENDBRANCH  22  23
ENDBRANCH  21  22
ENDBRANCH   1  21
TORSDOF 17
ENDMDL
