MODEL 1
REMARK VINA RESULT:     -13.0      0.000      0.000
REMARK SMILES O=C(OCCOC(=O)[C@H]1Cc2c([nH]c3ccccc23)[C@@H](c2ccc(OC(F)(F)F)cc2)[NH2+]1)c1ccc(-c2c3nc(c(-c4cccc(S(=O)(=O)[O-])c4F)c4ccc([nH]4)c(-c4cccc(S(=O)(=O)[O-])c4F)c4nc(c(-c5cccc(S(=O)(=O)[O-])c5F)c5ccc2[nH]5)C=C4)C=C3)cc1
REMARK SMILES IDX 4 1 3 2 2 3 1 4 33 5 34 6 95 7 35 8 94 9 36 10 37 11 38 12
REMARK SMILES IDX 88 13 39 14 93 15 87 16 89 17 40 18 92 19 86 20 85 21 41 23
REMARK SMILES IDX 73 24 53 25 72 26 54 27 57 28 71 29 90 30 55 31 56 32 70 34
REMARK SMILES IDX 91 35 58 36 42 37 43 38 51 39 44 40 46 41 52 42 45 43 47 44
REMARK SMILES IDX 48 45 49 46 50 47 74 48 75 49 83 50 76 51 78 52 84 53 77 54
REMARK SMILES IDX 79 55 80 56 81 57 82 58 59 59 60 60 68 61 61 62 63 63 69 64
REMARK SMILES IDX 62 65 64 66 65 67 66 68 67 69 5 70 6 71 7 72 8 73 9 74 10 75
REMARK SMILES IDX 32 76 11 77 20 78 12 81 19 82 13 83 14 84 18 85 15 87 17 88
REMARK SMILES IDX 16 89 21 90 22 91 31 92 23 93 30 94 24 95 25 96 26 97 27 98
REMARK SMILES IDX 28 99 29 100
REMARK H PARENT 89 22 57 33 32 79 32 80 13 86
REMARK Flexibility Score: inf
ROOT
ATOM      1  C   UNL A   1      32.310  32.593  27.458  1.00  0.00     0.275 C 
ENDROOT
BRANCH   1   2
ATOM      2  O   UNL A   1      32.599  33.992  27.521  1.00  0.00    -0.458 OA
BRANCH   2   3
ATOM      3  C   UNL A   1      33.037  34.732  28.563  1.00  0.00     0.338 C 
ATOM      4  O   UNL A   1      32.474  35.814  28.749  1.00  0.00    -0.246 OA
BRANCH   3   5
ATOM      5  C   UNL A   1      34.158  34.364  29.509  1.00  0.00     0.060 A 
ATOM      6  C   UNL A   1      34.065  33.828  30.801  1.00  0.00     0.016 A 
ATOM      7  C   UNL A   1      35.446  34.424  28.948  1.00  0.00     0.016 A 
ATOM      8  C   UNL A   1      35.193  33.307  31.472  1.00  0.00     0.010 A 
ATOM      9  C   UNL A   1      36.555  33.869  29.598  1.00  0.00     0.010 A 
ATOM     10  C   UNL A   1      36.449  33.276  30.861  1.00  0.00    -0.014 A 
BRANCH  10  11
ATOM     11  C   UNL A   1      37.644  32.641  31.510  1.00  0.00     0.031 A 
ATOM     12  C   UNL A   1      38.382  31.571  30.804  1.00  0.00     0.074 A 
ATOM     13  C   UNL A   1      38.005  32.884  32.789  1.00  0.00     0.049 A 
ATOM     14  N   UNL A   1      39.377  30.863  31.256  1.00  0.00    -0.248 NA
ATOM     15  C   UNL A   1      37.913  31.202  29.463  1.00  0.00     0.031 C 
ATOM     16  C   UNL A   1      37.235  33.753  33.627  1.00  0.00     0.029 A 
ATOM     17  N   UNL A   1      38.995  32.435  33.644  1.00  0.00    -0.354 N 
ATOM     18  C   UNL A   1      39.596  29.903  30.295  1.00  0.00     0.074 A 
ATOM     19  C   UNL A   1      38.616  30.102  29.249  1.00  0.00     0.031 C 
ATOM     20  C   UNL A   1      37.760  33.797  34.857  1.00  0.00     0.029 A 
ATOM     21  C   UNL A   1      38.907  32.952  34.928  1.00  0.00     0.049 A 
ATOM     22  H   UNL A   1      39.699  31.805  33.367  1.00  0.00     0.167 HD
ATOM     23  C   UNL A   1      40.549  28.950  30.292  1.00  0.00     0.034 A 
ATOM     24  C   UNL A   1      39.608  32.802  36.070  1.00  0.00     0.034 A 
ATOM     25  C   UNL A   1      41.522  28.782  31.331  1.00  0.00     0.049 A 
ATOM     26  C   UNL A   1      40.747  31.852  35.986  1.00  0.00     0.074 A 
ATOM     27  C   UNL A   1      42.617  27.941  31.344  1.00  0.00     0.029 A 
ATOM     28  N   UNL A   1      41.504  29.442  32.554  1.00  0.00    -0.354 N 
ATOM     29  N   UNL A   1      41.077  31.109  34.963  1.00  0.00    -0.248 NA
ATOM     30  C   UNL A   1      41.623  31.722  37.155  1.00  0.00     0.031 C 
ATOM     31  C   UNL A   1      43.247  28.072  32.585  1.00  0.00     0.029 A 
ATOM     32  C   UNL A   1      42.568  29.020  33.333  1.00  0.00     0.049 A 
ATOM     33  H   UNL A   1      40.835  30.110  32.826  1.00  0.00     0.167 HD
ATOM     34  C   UNL A   1      42.206  30.427  35.351  1.00  0.00     0.074 A 
ATOM     35  C   UNL A   1      42.536  30.881  36.690  1.00  0.00     0.031 C 
ATOM     36  C   UNL A   1      42.883  29.489  34.657  1.00  0.00     0.034 A 
BRANCH  23  37
ATOM     37  C   UNL A   1      40.544  28.041  29.107  1.00  0.00     0.023 A 
ATOM     38  C   UNL A   1      39.708  26.904  29.093  1.00  0.00     0.012 A 
ATOM     39  C   UNL A   1      41.434  28.273  28.047  1.00  0.00     0.148 A 
ATOM     40  C   UNL A   1      39.807  25.974  28.064  1.00  0.00     0.002 A 
ATOM     41  C   UNL A   1      41.481  27.372  26.995  1.00  0.00     0.091 A 
ATOM     42  F   UNL A   1      42.237  29.344  28.109  1.00  0.00    -0.205 F 
ATOM     43  C   UNL A   1      40.688  26.211  27.014  1.00  0.00     0.022 A 
BRANCH  41  44
ATOM     44  S   UNL A   1      42.529  27.622  25.563  1.00  0.00     0.127 S 
ATOM     45  O   UNL A   1      42.281  26.400  24.797  1.00  0.00    -0.237 OA
ATOM     46  O   UNL A   1      41.950  28.834  24.984  1.00  0.00    -0.237 OA
ATOM     47  O   UNL A   1      43.885  27.765  26.070  1.00  0.00    -0.744 OA
ENDBRANCH  41  44
ENDBRANCH  23  37
BRANCH  24  48
ATOM     48  C   UNL A   1      39.349  33.603  37.322  1.00  0.00     0.023 A 
ATOM     49  C   UNL A   1      39.831  34.928  37.395  1.00  0.00     0.012 A 
ATOM     50  C   UNL A   1      38.634  33.104  38.430  1.00  0.00     0.148 A 
ATOM     51  C   UNL A   1      39.659  35.709  38.543  1.00  0.00     0.002 A 
ATOM     52  C   UNL A   1      38.407  33.911  39.548  1.00  0.00     0.091 A 
ATOM     53  F   UNL A   1      38.168  31.847  38.378  1.00  0.00    -0.205 F 
ATOM     54  C   UNL A   1      38.940  35.204  39.620  1.00  0.00     0.022 A 
BRANCH  52  55
ATOM     55  S   UNL A   1      37.305  33.402  40.877  1.00  0.00     0.127 S 
ATOM     56  O   UNL A   1      37.186  34.627  41.661  1.00  0.00    -0.237 OA
ATOM     57  O   UNL A   1      36.098  33.012  40.148  1.00  0.00    -0.237 OA
ATOM     58  O   UNL A   1      37.994  32.284  41.512  1.00  0.00    -0.744 OA
ENDBRANCH  52  55
ENDBRANCH  24  48
BRANCH  36  59
ATOM     59  C   UNL A   1      44.062  28.893  35.350  1.00  0.00     0.023 A 
ATOM     60  C   UNL A   1      45.337  29.464  35.179  1.00  0.00     0.012 A 
ATOM     61  C   UNL A   1      43.881  27.805  36.218  1.00  0.00     0.148 A 
ATOM     62  C   UNL A   1      46.429  28.944  35.862  1.00  0.00     0.002 A 
ATOM     63  C   UNL A   1      44.961  27.333  36.941  1.00  0.00     0.091 A 
ATOM     64  F   UNL A   1      42.657  27.266  36.320  1.00  0.00    -0.205 F 
ATOM     65  C   UNL A   1      46.237  27.892  36.757  1.00  0.00     0.022 A 
BRANCH  63  66
ATOM     66  S   UNL A   1      44.786  26.061  38.190  1.00  0.00     0.127 S 
ATOM     67  O   UNL A   1      43.858  26.692  39.127  1.00  0.00    -0.237 OA
ATOM     68  O   UNL A   1      44.221  24.956  37.417  1.00  0.00    -0.237 OA
ATOM     69  O   UNL A   1      46.123  25.817  38.714  1.00  0.00    -0.744 OA
ENDBRANCH  63  66
ENDBRANCH  36  59
ENDBRANCH  10  11
ENDBRANCH   3   5
ENDBRANCH   2   3
ENDBRANCH   1   2
BRANCH   1  70
ATOM     70  C   UNL A   1      33.570  31.729  27.408  1.00  0.00     0.274 C 
BRANCH  70  71
ATOM     71  O   UNL A   1      33.293  30.334  27.216  1.00  0.00    -0.458 OA
BRANCH  71  72
ATOM     72  C   UNL A   1      34.347  29.524  26.883  1.00  0.00     0.365 C 
ATOM     73  O   UNL A   1      35.474  29.614  27.373  1.00  0.00    -0.245 OA
BRANCH  72  74
ATOM     74  C   UNL A   1      33.979  28.536  25.765  1.00  0.00     0.298 C 
ATOM     75  C   UNL A   1      33.634  27.188  26.414  1.00  0.00     0.115 C 
ATOM     76  N   UNL A   1      32.893  29.154  24.979  1.00  0.00    -0.323 N 
ATOM     77  C   UNL A   1      32.912  26.313  25.467  1.00  0.00    -0.006 A 
ATOM     78  C   UNL A   1      32.248  28.330  23.940  1.00  0.00     0.262 C 
ATOM     79  H   UNL A   1      33.281  29.977  24.519  1.00  0.00     0.347 HD
ATOM     80  H   UNL A   1      32.156  29.338  25.659  1.00  0.00     0.347 HD
ATOM     81  C   UNL A   1      32.283  26.847  24.347  1.00  0.00     0.083 A 
ATOM     82  C   UNL A   1      32.528  24.947  25.621  1.00  0.00     0.003 A 
ATOM     83  N   UNL A   1      31.779  25.748  23.662  1.00  0.00    -0.353 N 
ATOM     84  C   UNL A   1      31.722  24.649  24.525  1.00  0.00     0.046 A 
ATOM     85  C   UNL A   1      32.687  23.974  26.637  1.00  0.00     0.010 A 
ATOM     86  H   UNL A   1      31.503  25.743  22.717  1.00  0.00     0.166 HD
ATOM     87  C   UNL A   1      30.976  23.455  24.463  1.00  0.00     0.026 A 
ATOM     88  C   UNL A   1      31.911  22.807  26.611  1.00  0.00     0.001 A 
ATOM     89  C   UNL A   1      31.046  22.567  25.549  1.00  0.00     0.002 A 
BRANCH  78  90
ATOM     90  C   UNL A   1      30.880  29.034  23.709  1.00  0.00     0.016 A 
ATOM     91  C   UNL A   1      29.867  28.487  22.885  1.00  0.00     0.014 A 
ATOM     92  C   UNL A   1      30.568  30.250  24.336  1.00  0.00     0.014 A 
ATOM     93  C   UNL A   1      28.748  29.241  22.485  1.00  0.00     0.047 A 
ATOM     94  C   UNL A   1      29.389  30.962  24.019  1.00  0.00     0.047 A 
ATOM     95  C   UNL A   1      28.518  30.493  23.037  1.00  0.00     0.129 A 
BRANCH  95  96
ATOM     96  O   UNL A   1      27.566  31.260  22.428  1.00  0.00    -0.406 OA
BRANCH  96  97
ATOM     97  C   UNL A   1      27.983  31.974  21.280  1.00  0.00     0.573 C 
ATOM     98  F   UNL A   1      27.578  31.351  20.152  1.00  0.00    -0.132 F 
ATOM     99  F   UNL A   1      27.549  33.250  21.273  1.00  0.00    -0.132 F 
ATOM    100  F   UNL A   1      29.339  32.004  21.264  1.00  0.00    -0.132 F 
ENDBRANCH  96  97
ENDBRANCH  95  96
ENDBRANCH  78  90
ENDBRANCH  72  74
ENDBRANCH  71  72
ENDBRANCH  70  71
ENDBRANCH   1  70
TORSDOF 17
ENDMDL
MODEL 2
REMARK VINA RESULT:     -12.1      2.054      7.765
REMARK SMILES O=C(OCCOC(=O)[C@H]1Cc2c([nH]c3ccccc23)[C@@H](c2ccc(OC(F)(F)F)cc2)[NH2+]1)c1ccc(-c2c3nc(c(-c4cccc(S(=O)(=O)[O-])c4F)c4ccc([nH]4)c(-c4cccc(S(=O)(=O)[O-])c4F)c4nc(c(-c5cccc(S(=O)(=O)[O-])c5F)c5ccc2[nH]5)C=C4)C=C3)cc1
REMARK SMILES IDX 4 1 3 2 2 3 1 4 33 5 34 6 95 7 35 8 94 9 36 10 37 11 38 12
REMARK SMILES IDX 88 13 39 14 93 15 87 16 89 17 40 18 92 19 86 20 85 21 41 23
REMARK SMILES IDX 73 24 53 25 72 26 54 27 57 28 71 29 90 30 55 31 56 32 70 34
REMARK SMILES IDX 91 35 58 36 42 37 43 38 51 39 44 40 46 41 52 42 45 43 47 44
REMARK SMILES IDX 48 45 49 46 50 47 74 48 75 49 83 50 76 51 78 52 84 53 77 54
REMARK SMILES IDX 79 55 80 56 81 57 82 58 59 59 60 60 68 61 61 62 63 63 69 64
REMARK SMILES IDX 62 65 64 66 65 67 66 68 67 69 5 70 6 71 7 72 8 73 9 74 10 75
REMARK SMILES IDX 32 76 11 77 20 78 12 81 19 82 13 83 14 84 18 85 15 87 17 88
REMARK SMILES IDX 16 89 21 90 22 91 31 92 23 93 30 94 24 95 25 96 26 97 27 98
REMARK SMILES IDX 28 99 29 100
REMARK H PARENT 89 22 57 33 32 79 32 80 13 86
REMARK Flexibility Score: inf
ROOT
ATOM      1  C   UNL A   1      32.118  31.534  27.401  1.00  0.00     0.275 C 
ENDROOT
BRANCH   1   2
ATOM      2  O   UNL A   1      33.026  32.615  27.172  1.00  0.00    -0.458 OA
BRANCH   2   3
ATOM      3  C   UNL A   1      33.970  33.131  27.990  1.00  0.00     0.338 C 
ATOM      4  O   UNL A   1      33.745  34.251  28.455  1.00  0.00    -0.246 OA
BRANCH   3   5
ATOM      5  C   UNL A   1      35.276  32.472  28.372  1.00  0.00     0.060 A 
ATOM      6  C   UNL A   1      36.564  33.023  28.362  1.00  0.00     0.016 A 
ATOM      7  C   UNL A   1      35.144  31.200  28.958  1.00  0.00     0.016 A 
ATOM      8  C   UNL A   1      37.656  32.371  28.975  1.00  0.00     0.010 A 
ATOM      9  C   UNL A   1      36.219  30.575  29.601  1.00  0.00     0.010 A 
ATOM     10  C   UNL A   1      37.491  31.157  29.645  1.00  0.00    -0.014 A 
BRANCH  10  11
ATOM     11  C   UNL A   1      38.612  30.489  30.389  1.00  0.00     0.031 A 
ATOM     12  C   UNL A   1      38.947  30.927  31.761  1.00  0.00     0.074 A 
ATOM     13  C   UNL A   1      39.449  29.598  29.815  1.00  0.00     0.049 A 
ATOM     14  N   UNL A   1      39.934  30.518  32.506  1.00  0.00    -0.248 NA
ATOM     15  C   UNL A   1      38.127  31.995  32.347  1.00  0.00     0.031 C 
ATOM     16  C   UNL A   1      39.336  29.256  28.429  1.00  0.00     0.029 A 
ATOM     17  N   UNL A   1      40.557  28.874  30.218  1.00  0.00    -0.354 N 
ATOM     18  C   UNL A   1      39.912  31.337  33.610  1.00  0.00     0.074 A 
ATOM     19  C   UNL A   1      38.832  32.284  33.427  1.00  0.00     0.031 C 
ATOM     20  C   UNL A   1      40.301  28.397  28.083  1.00  0.00     0.029 A 
ATOM     21  C   UNL A   1      41.131  28.116  29.208  1.00  0.00     0.049 A 
ATOM     22  H   UNL A   1      40.907  28.895  31.138  1.00  0.00     0.167 HD
ATOM     23  C   UNL A   1      40.722  31.285  34.685  1.00  0.00     0.034 A 
ATOM     24  C   UNL A   1      42.194  27.291  29.118  1.00  0.00     0.034 A 
ATOM     25  C   UNL A   1      41.774  30.326  34.853  1.00  0.00     0.049 A 
ATOM     26  C   UNL A   1      42.978  27.141  30.370  1.00  0.00     0.074 A 
ATOM     27  C   UNL A   1      42.550  30.100  35.973  1.00  0.00     0.029 A 
ATOM     28  N   UNL A   1      42.223  29.454  33.869  1.00  0.00    -0.354 N 
ATOM     29  N   UNL A   1      42.790  27.775  31.497  1.00  0.00    -0.248 NA
ATOM     30  C   UNL A   1      44.081  26.175  30.380  1.00  0.00     0.031 C 
ATOM     31  C   UNL A   1      43.485  29.111  35.659  1.00  0.00     0.029 A 
ATOM     32  C   UNL A   1      43.272  28.693  34.356  1.00  0.00     0.049 A 
ATOM     33  H   UNL A   1      41.851  29.388  32.960  1.00  0.00     0.167 HD
ATOM     34  C   UNL A   1      43.739  27.283  32.362  1.00  0.00     0.074 A 
ATOM     35  C   UNL A   1      44.475  26.258  31.643  1.00  0.00     0.031 C 
ATOM     36  C   UNL A   1      43.984  27.674  33.629  1.00  0.00     0.034 A 
BRANCH  23  37
ATOM     37  C   UNL A   1      40.461  32.312  35.737  1.00  0.00     0.023 A 
ATOM     38  C   UNL A   1      41.320  33.424  35.866  1.00  0.00     0.012 A 
ATOM     39  C   UNL A   1      39.411  32.125  36.650  1.00  0.00     0.148 A 
ATOM     40  C   UNL A   1      41.174  34.303  36.934  1.00  0.00     0.002 A 
ATOM     41  C   UNL A   1      39.235  33.040  37.675  1.00  0.00     0.091 A 
ATOM     42  F   UNL A   1      38.635  31.040  36.518  1.00  0.00    -0.205 F 
ATOM     43  C   UNL A   1      40.129  34.114  37.833  1.00  0.00     0.022 A 
BRANCH  41  44
ATOM     44  S   UNL A   1      37.880  32.926  38.842  1.00  0.00     0.127 S 
ATOM     45  O   UNL A   1      38.175  31.661  39.516  1.00  0.00    -0.237 OA
ATOM     46  O   UNL A   1      38.097  34.119  39.660  1.00  0.00    -0.237 OA
ATOM     47  O   UNL A   1      36.660  32.931  38.051  1.00  0.00    -0.744 OA
ENDBRANCH  41  44
ENDBRANCH  23  37
BRANCH  24  48
ATOM     48  C   UNL A   1      42.525  26.485  27.887  1.00  0.00     0.023 A 
ATOM     49  C   UNL A   1      43.330  27.070  26.885  1.00  0.00     0.012 A 
ATOM     50  C   UNL A   1      42.083  25.161  27.684  1.00  0.00     0.148 A 
ATOM     51  C   UNL A   1      43.637  26.389  25.702  1.00  0.00     0.002 A 
ATOM     52  C   UNL A   1      42.450  24.462  26.530  1.00  0.00     0.091 A 
ATOM     53  F   UNL A   1      41.318  24.589  28.625  1.00  0.00    -0.205 F 
ATOM     54  C   UNL A   1      43.204  25.081  25.525  1.00  0.00     0.022 A 
BRANCH  52  55
ATOM     55  S   UNL A   1      42.110  22.706  26.338  1.00  0.00     0.127 S 
ATOM     56  O   UNL A   1      40.651  22.676  26.324  1.00  0.00    -0.237 OA
ATOM     57  O   UNL A   1      42.749  22.403  25.057  1.00  0.00    -0.237 OA
ATOM     58  O   UNL A   1      42.766  22.081  27.483  1.00  0.00    -0.744 OA
ENDBRANCH  52  55
ENDBRANCH  24  48
BRANCH  36  59
ATOM     59  C   UNL A   1      45.107  26.976  34.319  1.00  0.00     0.023 A 
ATOM     60  C   UNL A   1      46.430  27.413  34.121  1.00  0.00     0.012 A 
ATOM     61  C   UNL A   1      44.830  25.928  35.211  1.00  0.00     0.148 A 
ATOM     62  C   UNL A   1      47.474  26.799  34.802  1.00  0.00     0.002 A 
ATOM     63  C   UNL A   1      45.868  25.364  35.930  1.00  0.00     0.091 A 
ATOM     64  F   UNL A   1      43.560  25.516  35.338  1.00  0.00    -0.205 F 
ATOM     65  C   UNL A   1      47.191  25.789  35.720  1.00  0.00     0.022 A 
BRANCH  63  66
ATOM     66  S   UNL A   1      45.584  24.140  37.207  1.00  0.00     0.127 S 
ATOM     67  O   UNL A   1      45.363  22.932  36.415  1.00  0.00    -0.237 OA
ATOM     68  O   UNL A   1      46.848  24.172  37.941  1.00  0.00    -0.237 OA
ATOM     69  O   UNL A   1      44.428  24.602  37.964  1.00  0.00    -0.744 OA
ENDBRANCH  63  66
ENDBRANCH  36  59
ENDBRANCH  10  11
ENDBRANCH   3   5
ENDBRANCH   2   3
ENDBRANCH   1   2
BRANCH   1  70
ATOM     70  C   UNL A   1      32.291  30.393  26.398  1.00  0.00     0.274 C 
BRANCH  70  71
ATOM     71  O   UNL A   1      33.657  30.174  26.019  1.00  0.00    -0.458 OA
BRANCH  71  72
ATOM     72  C   UNL A   1      34.181  28.929  26.248  1.00  0.00     0.365 C 
ATOM     73  O   UNL A   1      34.746  28.594  27.291  1.00  0.00    -0.245 OA
BRANCH  72  74
ATOM     74  C   UNL A   1      34.053  28.018  25.017  1.00  0.00     0.298 C 
ATOM     75  C   UNL A   1      33.850  26.577  25.509  1.00  0.00     0.115 C 
ATOM     76  N   UNL A   1      32.959  28.559  24.188  1.00  0.00    -0.323 N 
ATOM     77  C   UNL A   1      33.343  25.713  24.425  1.00  0.00    -0.006 A 
ATOM     78  C   UNL A   1      32.526  27.765  23.023  1.00  0.00     0.262 C 
ATOM     79  H   UNL A   1      33.262  29.469  23.841  1.00  0.00     0.347 HD
ATOM     80  H   UNL A   1      32.149  28.574  24.807  1.00  0.00     0.347 HD
ATOM     81  C   UNL A   1      32.739  26.266  23.300  1.00  0.00     0.083 A 
ATOM     82  C   UNL A   1      33.146  24.299  24.421  1.00  0.00     0.003 A 
ATOM     83  N   UNL A   1      32.455  25.183  22.477  1.00  0.00    -0.353 N 
ATOM     84  C   UNL A   1      32.484  24.006  23.231  1.00  0.00     0.046 A 
ATOM     85  C   UNL A   1      33.356  23.260  25.359  1.00  0.00     0.010 A 
ATOM     86  H   UNL A   1      32.263  25.236  21.512  1.00  0.00     0.166 HD
ATOM     87  C   UNL A   1      31.924  22.735  22.993  1.00  0.00     0.026 A 
ATOM     88  C   UNL A   1      32.760  22.008  25.156  1.00  0.00     0.001 A 
ATOM     89  C   UNL A   1      32.029  21.761  23.999  1.00  0.00     0.002 A 
BRANCH  78  90
ATOM     90  C   UNL A   1      31.097  28.299  22.724  1.00  0.00     0.016 A 
ATOM     91  C   UNL A   1      30.854  29.393  21.858  1.00  0.00     0.014 A 
ATOM     92  C   UNL A   1      29.959  27.697  23.283  1.00  0.00     0.014 A 
ATOM     93  C   UNL A   1      29.596  30.021  21.791  1.00  0.00     0.047 A 
ATOM     94  C   UNL A   1      28.674  28.264  23.128  1.00  0.00     0.047 A 
ATOM     95  C   UNL A   1      28.505  29.468  22.447  1.00  0.00     0.129 A 
BRANCH  95  96
ATOM     96  O   UNL A   1      27.392  30.253  22.542  1.00  0.00    -0.406 OA
BRANCH  96  97
ATOM     97  C   UNL A   1      27.548  31.470  23.245  1.00  0.00     0.573 C 
ATOM     98  F   UNL A   1      27.651  32.511  22.389  1.00  0.00    -0.132 F 
ATOM     99  F   UNL A   1      26.547  31.701  24.117  1.00  0.00    -0.132 F 
ATOM    100  F   UNL A   1      28.702  31.410  23.955  1.00  0.00    -0.132 F 
ENDBRANCH  96  97
ENDBRANCH  95  96
ENDBRANCH  78  90
ENDBRANCH  72  74
ENDBRANCH  71  72
ENDBRANCH  70  71
ENDBRANCH   1  70
TORSDOF 17
ENDMDL
MODEL 3
REMARK VINA RESULT:     -11.9      6.851     12.302
REMARK SMILES O=C(OCCOC(=O)[C@H]1Cc2c([nH]c3ccccc23)[C@@H](c2ccc(OC(F)(F)F)cc2)[NH2+]1)c1ccc(-c2c3nc(c(-c4cccc(S(=O)(=O)[O-])c4F)c4ccc([nH]4)c(-c4cccc(S(=O)(=O)[O-])c4F)c4nc(c(-c5cccc(S(=O)(=O)[O-])c5F)c5ccc2[nH]5)C=C4)C=C3)cc1
REMARK SMILES IDX 4 1 3 2 2 3 1 4 33 5 34 6 95 7 35 8 94 9 36 10 37 11 38 12
REMARK SMILES IDX 88 13 39 14 93 15 87 16 89 17 40 18 92 19 86 20 85 21 41 23
REMARK SMILES IDX 73 24 53 25 72 26 54 27 57 28 71 29 90 30 55 31 56 32 70 34
REMARK SMILES IDX 91 35 58 36 42 37 43 38 51 39 44 40 46 41 52 42 45 43 47 44
REMARK SMILES IDX 48 45 49 46 50 47 74 48 75 49 83 50 76 51 78 52 84 53 77 54
REMARK SMILES IDX 79 55 80 56 81 57 82 58 59 59 60 60 68 61 61 62 63 63 69 64
REMARK SMILES IDX 62 65 64 66 65 67 66 68 67 69 5 70 6 71 7 72 8 73 9 74 10 75
REMARK SMILES IDX 32 76 11 77 20 78 12 81 19 82 13 83 14 84 18 85 15 87 17 88
REMARK SMILES IDX 16 89 21 90 22 91 31 92 23 93 30 94 24 95 25 96 26 97 27 98
REMARK SMILES IDX 28 99 29 100
REMARK H PARENT 89 22 57 33 32 79 32 80 13 86
REMARK Flexibility Score: inf
ROOT
ATOM      1  C   UNL A   1      39.590  20.580  26.365  1.00  0.00     0.275 C 
ENDROOT
BRANCH   1   2
ATOM      2  O   UNL A   1      40.597  19.609  26.069  1.00  0.00    -0.458 OA
BRANCH   2   3
ATOM      3  C   UNL A   1      41.930  19.774  25.917  1.00  0.00     0.338 C 
ATOM      4  O   UNL A   1      42.582  18.767  25.630  1.00  0.00    -0.246 OA
BRANCH   3   5
ATOM      5  C   UNL A   1      42.692  21.070  26.081  1.00  0.00     0.060 A 
ATOM      6  C   UNL A   1      42.994  22.030  25.107  1.00  0.00     0.016 A 
ATOM      7  C   UNL A   1      42.989  21.413  27.412  1.00  0.00     0.016 A 
ATOM      8  C   UNL A   1      43.498  23.304  25.450  1.00  0.00     0.010 A 
ATOM      9  C   UNL A   1      43.449  22.691  27.753  1.00  0.00     0.010 A 
ATOM     10  C   UNL A   1      43.690  23.671  26.783  1.00  0.00    -0.014 A 
BRANCH  10  11
ATOM     11  C   UNL A   1      44.132  25.049  27.183  1.00  0.00     0.031 A 
ATOM     12  C   UNL A   1      43.170  25.973  27.823  1.00  0.00     0.074 A 
ATOM     13  C   UNL A   1      45.336  25.563  26.851  1.00  0.00     0.049 A 
ATOM     14  N   UNL A   1      43.363  27.219  28.149  1.00  0.00    -0.248 NA
ATOM     15  C   UNL A   1      41.812  25.470  28.066  1.00  0.00     0.031 C 
ATOM     16  C   UNL A   1      46.267  24.822  26.055  1.00  0.00     0.029 A 
ATOM     17  N   UNL A   1      45.986  26.770  27.034  1.00  0.00    -0.354 N 
ATOM     18  C   UNL A   1      42.130  27.678  28.551  1.00  0.00     0.074 A 
ATOM     19  C   UNL A   1      41.191  26.586  28.403  1.00  0.00     0.031 C 
ATOM     20  C   UNL A   1      47.361  25.554  25.818  1.00  0.00     0.029 A 
ATOM     21  C   UNL A   1      47.231  26.836  26.428  1.00  0.00     0.049 A 
ATOM     22  H   UNL A   1      45.599  27.516  27.548  1.00  0.00     0.167 HD
ATOM     23  C   UNL A   1      41.825  28.905  29.015  1.00  0.00     0.034 A 
ATOM     24  C   UNL A   1      48.193  27.776  26.319  1.00  0.00     0.034 A 
ATOM     25  C   UNL A   1      42.777  29.966  29.171  1.00  0.00     0.049 A 
ATOM     26  C   UNL A   1      47.882  29.071  26.975  1.00  0.00     0.074 A 
ATOM     27  C   UNL A   1      42.590  31.195  29.772  1.00  0.00     0.029 A 
ATOM     28  N   UNL A   1      44.082  29.942  28.696  1.00  0.00    -0.354 N 
ATOM     29  N   UNL A   1      46.764  29.406  27.562  1.00  0.00    -0.248 NA
ATOM     30  C   UNL A   1      48.926  30.101  26.995  1.00  0.00     0.031 C 
ATOM     31  C   UNL A   1      43.775  31.924  29.639  1.00  0.00     0.029 A 
ATOM     32  C   UNL A   1      44.712  31.140  28.986  1.00  0.00     0.049 A 
ATOM     33  H   UNL A   1      44.497  29.185  28.223  1.00  0.00     0.167 HD
ATOM     34  C   UNL A   1      46.963  30.681  28.036  1.00  0.00     0.074 A 
ATOM     35  C   UNL A   1      48.331  31.045  27.710  1.00  0.00     0.031 C 
ATOM     36  C   UNL A   1      46.073  31.478  28.661  1.00  0.00     0.034 A 
BRANCH  23  37
ATOM     37  C   UNL A   1      40.392  29.116  29.378  1.00  0.00     0.023 A 
ATOM     38  C   UNL A   1      39.489  29.622  28.417  1.00  0.00     0.012 A 
ATOM     39  C   UNL A   1      39.965  28.893  30.695  1.00  0.00     0.148 A 
ATOM     40  C   UNL A   1      38.192  29.963  28.786  1.00  0.00     0.002 A 
ATOM     41  C   UNL A   1      38.653  29.177  31.038  1.00  0.00     0.091 A 
ATOM     42  F   UNL A   1      40.857  28.445  31.590  1.00  0.00    -0.205 F 
ATOM     43  C   UNL A   1      37.773  29.735  30.094  1.00  0.00     0.022 A 
BRANCH  41  44
ATOM     44  S   UNL A   1      37.996  28.855  32.675  1.00  0.00     0.127 S 
ATOM     45  O   UNL A   1      36.629  29.362  32.550  1.00  0.00    -0.237 OA
ATOM     46  O   UNL A   1      38.103  27.398  32.752  1.00  0.00    -0.237 OA
ATOM     47  O   UNL A   1      38.841  29.588  33.604  1.00  0.00    -0.744 OA
ENDBRANCH  41  44
ENDBRANCH  23  37
BRANCH  24  48
ATOM     48  C   UNL A   1      49.537  27.526  25.681  1.00  0.00     0.023 A 
ATOM     49  C   UNL A   1      49.647  27.592  24.275  1.00  0.00     0.012 A 
ATOM     50  C   UNL A   1      50.705  27.240  26.417  1.00  0.00     0.148 A 
ATOM     51  C   UNL A   1      50.856  27.329  23.620  1.00  0.00     0.002 A 
ATOM     52  C   UNL A   1      51.925  27.046  25.762  1.00  0.00     0.091 A 
ATOM     53  F   UNL A   1      50.620  27.174  27.754  1.00  0.00    -0.205 F 
ATOM     54  C   UNL A   1      51.999  27.062  24.363  1.00  0.00     0.022 A 
BRANCH  52  55
ATOM     55  S   UNL A   1      53.476  26.914  26.665  1.00  0.00     0.127 S 
ATOM     56  O   UNL A   1      54.455  26.858  25.584  1.00  0.00    -0.237 OA
ATOM     57  O   UNL A   1      53.486  28.150  27.448  1.00  0.00    -0.237 OA
ATOM     58  O   UNL A   1      53.325  25.709  27.473  1.00  0.00    -0.744 OA
ENDBRANCH  52  55
ENDBRANCH  24  48
BRANCH  36  59
ATOM     59  C   UNL A   1      46.566  32.835  29.036  1.00  0.00     0.023 A 
ATOM     60  C   UNL A   1      47.232  33.024  30.261  1.00  0.00     0.012 A 
ATOM     61  C   UNL A   1      46.418  33.901  28.136  1.00  0.00     0.148 A 
ATOM     62  C   UNL A   1      47.739  34.275  30.592  1.00  0.00     0.002 A 
ATOM     63  C   UNL A   1      46.979  35.127  28.445  1.00  0.00     0.091 A 
ATOM     64  F   UNL A   1      45.741  33.688  26.998  1.00  0.00    -0.205 F 
ATOM     65  C   UNL A   1      47.629  35.320  29.676  1.00  0.00     0.022 A 
BRANCH  63  66
ATOM     66  S   UNL A   1      46.981  36.491  27.284  1.00  0.00     0.127 S 
ATOM     67  O   UNL A   1      47.402  37.604  28.134  1.00  0.00    -0.237 OA
ATOM     68  O   UNL A   1      47.977  36.053  26.307  1.00  0.00    -0.237 OA
ATOM     69  O   UNL A   1      45.622  36.589  26.767  1.00  0.00    -0.744 OA
ENDBRANCH  63  66
ENDBRANCH  36  59
ENDBRANCH  10  11
ENDBRANCH   3   5
ENDBRANCH   2   3
ENDBRANCH   1   2
BRANCH   1  70
ATOM     70  C   UNL A   1      38.453  20.586  25.343  1.00  0.00     0.274 C 
BRANCH  70  71
ATOM     71  O   UNL A   1      38.127  21.900  24.867  1.00  0.00    -0.458 OA
BRANCH  71  72
ATOM     72  C   UNL A   1      37.788  22.841  25.804  1.00  0.00     0.365 C 
ATOM     73  O   UNL A   1      38.597  23.425  26.527  1.00  0.00    -0.245 OA
BRANCH  72  74
ATOM     74  C   UNL A   1      36.266  23.027  25.905  1.00  0.00     0.298 C 
ATOM     75  C   UNL A   1      35.839  24.054  24.846  1.00  0.00     0.115 C 
ATOM     76  N   UNL A   1      35.655  21.691  25.767  1.00  0.00    -0.323 N 
ATOM     77  C   UNL A   1      34.381  24.007  24.617  1.00  0.00    -0.006 A 
ATOM     78  C   UNL A   1      34.185  21.618  25.665  1.00  0.00     0.262 C 
ATOM     79  H   UNL A   1      35.932  21.144  26.582  1.00  0.00     0.347 HD
ATOM     80  H   UNL A   1      35.994  21.343  24.870  1.00  0.00     0.347 HD
ATOM     81  C   UNL A   1      33.641  22.890  24.992  1.00  0.00     0.083 A 
ATOM     82  C   UNL A   1      33.568  24.870  23.822  1.00  0.00     0.003 A 
ATOM     83  N   UNL A   1      32.323  23.218  24.695  1.00  0.00    -0.353 N 
ATOM     84  C   UNL A   1      32.302  24.290  23.797  1.00  0.00     0.046 A 
ATOM     85  C   UNL A   1      33.809  26.017  23.029  1.00  0.00     0.010 A 
ATOM     86  H   UNL A   1      31.528  22.767  25.061  1.00  0.00     0.166 HD
ATOM     87  C   UNL A   1      31.300  24.747  22.918  1.00  0.00     0.026 A 
ATOM     88  C   UNL A   1      32.838  26.448  22.115  1.00  0.00     0.001 A 
ATOM     89  C   UNL A   1      31.610  25.801  22.044  1.00  0.00     0.002 A 
BRANCH  78  90
ATOM     90  C   UNL A   1      33.929  20.230  25.013  1.00  0.00     0.016 A 
ATOM     91  C   UNL A   1      32.644  19.805  24.597  1.00  0.00     0.014 A 
ATOM     92  C   UNL A   1      34.978  19.328  24.776  1.00  0.00     0.014 A 
ATOM     93  C   UNL A   1      32.383  18.467  24.244  1.00  0.00     0.047 A 
ATOM     94  C   UNL A   1      34.732  18.015  24.316  1.00  0.00     0.047 A 
ATOM     95  C   UNL A   1      33.428  17.561  24.125  1.00  0.00     0.129 A 
BRANCH  95  96
ATOM     96  O   UNL A   1      33.082  16.244  24.026  1.00  0.00    -0.406 OA
BRANCH  96  97
ATOM     97  C   UNL A   1      33.145  15.493  25.222  1.00  0.00     0.573 C 
ATOM     98  F   UNL A   1      34.401  15.050  25.447  1.00  0.00    -0.132 F 
ATOM     99  F   UNL A   1      32.710  16.184  26.295  1.00  0.00    -0.132 F 
ATOM    100  F   UNL A   1      32.347  14.405  25.088  1.00  0.00    -0.132 F 
ENDBRANCH  96  97
ENDBRANCH  95  96
ENDBRANCH  78  90
ENDBRANCH  72  74
ENDBRANCH  71  72
ENDBRANCH  70  71
ENDBRANCH   1  70
TORSDOF 17
ENDMDL
