MODEL 1
REMARK VINA RESULT:     -11.3      0.000      0.000
REMARK SMILES Nc1cc(C(=O)OCCOC(=O)c2ccc(-c3c4nc(c(-c5cccc(S(=O)(=O)[O-])c5F)c5ccc([nH]5)c(-c5cccc(S(=O)(=O)[O-])c5F)c5nc(c(-c6cccc(S(=O)(=O)[O-])c6F)c6ccc3[nH]6)C=C5)C=C4)cc2)c(Cl)cc1Cl
REMARK SMILES IDX 9 1 8 2 7 3 5 4 6 5 4 6 2 7 3 8 79 9 78 10 80 11 76 12 77 13
REMARK SMILES IDX 1 14 10 17 11 18 12 19 13 20 14 21 75 22 15 23 74 24 16 25
REMARK SMILES IDX 17 26 18 27 68 28 19 29 73 30 67 31 69 32 20 33 72 34 66 35
REMARK SMILES IDX 65 36 21 38 53 39 33 40 52 41 34 42 37 43 51 44 70 45 35 46
REMARK SMILES IDX 36 47 50 49 71 50 38 51 22 52 23 53 31 54 24 55 26 56 32 57
REMARK SMILES IDX 25 58 27 59 28 60 29 61 30 62 54 63 55 64 63 65 56 66 58 67
REMARK SMILES IDX 64 68 57 69 59 70 60 71 61 72 62 73 39 74 40 75 48 76 41 77
REMARK SMILES IDX 43 78 49 79 42 80 44 81 45 82 46 83 47 84
REMARK H PARENT 1 15 1 16 69 37 37 48
REMARK Flexibility Score: inf
ROOT
ATOM      1  C   UNL A   1      37.244  20.969  24.719  1.00  0.00     0.275 C 
ENDROOT
BRANCH   1   2
ATOM      2  C   UNL A   1      35.861  20.374  25.002  1.00  0.00     0.275 C 
BRANCH   2   3
ATOM      3  O   UNL A   1      34.843  21.394  25.100  1.00  0.00    -0.458 OA
BRANCH   3   4
ATOM      4  C   UNL A   1      33.564  20.969  25.287  1.00  0.00     0.339 C 
ATOM      5  O   UNL A   1      33.223  19.803  25.388  1.00  0.00    -0.246 OA
BRANCH   4   6
ATOM      6  C   UNL A   1      32.643  22.139  25.388  1.00  0.00     0.080 A 
ATOM      7  C   UNL A   1      31.040  23.636  24.305  1.00  0.00     0.051 A 
ATOM      8  C   UNL A   1      31.895  22.527  24.261  1.00  0.00     0.044 A 
ATOM      9  C   UNL A   1      31.079  24.465  25.437  1.00  0.00     0.065 A 
ATOM     10  C   UNL A   1      31.778  24.074  26.575  1.00  0.00     0.044 A 
ATOM     11  Cl  UNL A   1      30.186  25.945  25.482  1.00  0.00    -0.082 Cl
ATOM     12  C   UNL A   1      32.485  22.868  26.578  1.00  0.00     0.057 A 
ATOM     13  Cl  UNL A   1      33.069  22.342  28.118  1.00  0.00    -0.083 Cl
BRANCH   7  14
ATOM     14  N   UNL A   1      30.257  23.947  23.194  1.00  0.00    -0.398 N 
ATOM     15  H   UNL A   1      30.584  24.594  22.527  1.00  0.00     0.156 HD
ATOM     16  H   UNL A   1      29.378  23.521  23.076  1.00  0.00     0.156 HD
ENDBRANCH   7  14
ENDBRANCH   4   6
ENDBRANCH   3   4
ENDBRANCH   2   3
ENDBRANCH   1   2
BRANCH   1  17
ATOM     17  O   UNL A   1      37.721  21.743  25.834  1.00  0.00    -0.458 OA
BRANCH  17  18
ATOM     18  C   UNL A   1      38.991  21.469  26.217  1.00  0.00     0.338 C 
ATOM     19  O   UNL A   1      39.612  20.439  26.021  1.00  0.00    -0.246 OA
BRANCH  18  20
ATOM     20  C   UNL A   1      39.604  22.702  26.732  1.00  0.00     0.060 A 
ATOM     21  C   UNL A   1      40.613  22.711  27.693  1.00  0.00     0.016 A 
ATOM     22  C   UNL A   1      39.153  23.897  26.178  1.00  0.00     0.016 A 
ATOM     23  C   UNL A   1      41.141  23.941  28.114  1.00  0.00     0.010 A 
ATOM     24  C   UNL A   1      39.669  25.117  26.600  1.00  0.00     0.010 A 
ATOM     25  C   UNL A   1      40.666  25.155  27.578  1.00  0.00    -0.014 A 
BRANCH  25  26
ATOM     26  C   UNL A   1      41.276  26.463  27.928  1.00  0.00     0.031 A 
ATOM     27  C   UNL A   1      42.709  26.783  27.595  1.00  0.00     0.074 A 
ATOM     28  C   UNL A   1      40.549  27.332  28.657  1.00  0.00     0.049 A 
ATOM     29  N   UNL A   1      43.368  27.894  27.807  1.00  0.00    -0.248 NA
ATOM     30  C   UNL A   1      43.511  25.723  26.965  1.00  0.00     0.031 C 
ATOM     31  C   UNL A   1      39.194  27.081  29.155  1.00  0.00     0.029 A 
ATOM     32  N   UNL A   1      40.849  28.586  29.124  1.00  0.00    -0.354 N 
ATOM     33  C   UNL A   1      44.660  27.669  27.345  1.00  0.00     0.074 A 
ATOM     34  C   UNL A   1      44.702  26.304  26.867  1.00  0.00     0.031 C 
ATOM     35  C   UNL A   1      38.770  28.157  29.833  1.00  0.00     0.029 A 
ATOM     36  C   UNL A   1      39.825  29.167  29.832  1.00  0.00     0.049 A 
ATOM     37  H   UNL A   1      41.715  29.027  28.968  1.00  0.00     0.167 HD
ATOM     38  C   UNL A   1      45.703  28.533  27.296  1.00  0.00     0.034 A 
ATOM     39  C   UNL A   1      39.731  30.383  30.404  1.00  0.00     0.034 A 
ATOM     40  C   UNL A   1      45.647  29.896  27.756  1.00  0.00     0.049 A 
ATOM     41  C   UNL A   1      40.877  31.344  30.284  1.00  0.00     0.074 A 
ATOM     42  C   UNL A   1      46.624  30.873  27.664  1.00  0.00     0.029 A 
ATOM     43  N   UNL A   1      44.565  30.473  28.401  1.00  0.00    -0.354 N 
ATOM     44  N   UNL A   1      42.036  31.167  29.699  1.00  0.00    -0.248 NA
ATOM     45  C   UNL A   1      40.694  32.681  30.866  1.00  0.00     0.031 C 
ATOM     46  C   UNL A   1      46.138  32.035  28.268  1.00  0.00     0.029 A 
ATOM     47  C   UNL A   1      44.850  31.791  28.712  1.00  0.00     0.049 A 
ATOM     48  H   UNL A   1      43.719  30.013  28.607  1.00  0.00     0.167 HD
ATOM     49  C   UNL A   1      42.709  32.375  29.815  1.00  0.00     0.074 A 
ATOM     50  C   UNL A   1      41.827  33.282  30.522  1.00  0.00     0.031 C 
ATOM     51  C   UNL A   1      43.950  32.698  29.378  1.00  0.00     0.034 A 
BRANCH  38  52
ATOM     52  C   UNL A   1      46.981  28.078  26.643  1.00  0.00     0.023 A 
ATOM     53  C   UNL A   1      47.967  27.463  27.440  1.00  0.00     0.012 A 
ATOM     54  C   UNL A   1      47.150  28.120  25.244  1.00  0.00     0.148 A 
ATOM     55  C   UNL A   1      49.105  26.904  26.860  1.00  0.00     0.002 A 
ATOM     56  C   UNL A   1      48.275  27.536  24.670  1.00  0.00     0.091 A 
ATOM     57  F   UNL A   1      46.201  28.710  24.504  1.00  0.00    -0.205 F 
ATOM     58  C   UNL A   1      49.252  26.930  25.476  1.00  0.00     0.022 A 
BRANCH  56  59
ATOM     59  S   UNL A   1      48.540  27.461  22.894  1.00  0.00     0.127 S 
ATOM     60  O   UNL A   1      49.863  28.072  22.767  1.00  0.00    -0.237 OA
ATOM     61  O   UNL A   1      48.508  26.021  22.640  1.00  0.00    -0.237 OA
ATOM     62  O   UNL A   1      47.451  28.216  22.289  1.00  0.00    -0.744 OA
ENDBRANCH  56  59
ENDBRANCH  38  52
BRANCH  39  63
ATOM     63  C   UNL A   1      38.447  30.780  31.040  1.00  0.00     0.023 A 
ATOM     64  C   UNL A   1      38.283  30.587  32.425  1.00  0.00     0.012 A 
ATOM     65  C   UNL A   1      37.442  31.438  30.307  1.00  0.00     0.148 A 
ATOM     66  C   UNL A   1      37.135  31.040  33.071  1.00  0.00     0.002 A 
ATOM     67  C   UNL A   1      36.317  31.921  30.965  1.00  0.00     0.091 A 
ATOM     68  F   UNL A   1      37.630  31.615  28.992  1.00  0.00    -0.205 F 
ATOM     69  C   UNL A   1      36.157  31.716  32.345  1.00  0.00     0.022 A 
BRANCH  67  70
ATOM     70  S   UNL A   1      35.049  32.888  30.139  1.00  0.00     0.127 S 
ATOM     71  O   UNL A   1      34.530  31.930  29.165  1.00  0.00    -0.237 OA
ATOM     72  O   UNL A   1      34.142  33.197  31.244  1.00  0.00    -0.237 OA
ATOM     73  O   UNL A   1      35.734  34.042  29.573  1.00  0.00    -0.744 OA
ENDBRANCH  67  70
ENDBRANCH  39  63
BRANCH  51  74
ATOM     74  C   UNL A   1      44.444  34.099  29.612  1.00  0.00     0.023 A 
ATOM     75  C   UNL A   1      45.247  34.375  30.735  1.00  0.00     0.012 A 
ATOM     76  C   UNL A   1      44.216  35.105  28.653  1.00  0.00     0.148 A 
ATOM     77  C   UNL A   1      45.812  35.639  30.904  1.00  0.00     0.002 A 
ATOM     78  C   UNL A   1      44.809  36.351  28.809  1.00  0.00     0.091 A 
ATOM     79  F   UNL A   1      43.441  34.815  27.598  1.00  0.00    -0.205 F 
ATOM     80  C   UNL A   1      45.604  36.621  29.936  1.00  0.00     0.022 A 
BRANCH  78  81
ATOM     81  S   UNL A   1      44.658  37.657  27.586  1.00  0.00     0.127 S 
ATOM     82  O   UNL A   1      44.645  38.853  28.429  1.00  0.00    -0.237 OA
ATOM     83  O   UNL A   1      45.875  37.482  26.795  1.00  0.00    -0.237 OA
ATOM     84  O   UNL A   1      43.418  37.397  26.865  1.00  0.00    -0.744 OA
ENDBRANCH  78  81
ENDBRANCH  51  74
ENDBRANCH  25  26
ENDBRANCH  18  20
ENDBRANCH  17  18
ENDBRANCH   1  17
TORSDOF 15
ENDMDL
MODEL 2
REMARK VINA RESULT:     -11.2      2.215      2.772
REMARK SMILES Nc1cc(C(=O)OCCOC(=O)c2ccc(-c3c4nc(c(-c5cccc(S(=O)(=O)[O-])c5F)c5ccc([nH]5)c(-c5cccc(S(=O)(=O)[O-])c5F)c5nc(c(-c6cccc(S(=O)(=O)[O-])c6F)c6ccc3[nH]6)C=C5)C=C4)cc2)c(Cl)cc1Cl
REMARK SMILES IDX 9 1 8 2 7 3 5 4 6 5 4 6 2 7 3 8 79 9 78 10 80 11 76 12 77 13
REMARK SMILES IDX 1 14 10 17 11 18 12 19 13 20 14 21 75 22 15 23 74 24 16 25
REMARK SMILES IDX 17 26 18 27 68 28 19 29 73 30 67 31 69 32 20 33 72 34 66 35
REMARK SMILES IDX 65 36 21 38 53 39 33 40 52 41 34 42 37 43 51 44 70 45 35 46
REMARK SMILES IDX 36 47 50 49 71 50 38 51 22 52 23 53 31 54 24 55 26 56 32 57
REMARK SMILES IDX 25 58 27 59 28 60 29 61 30 62 54 63 55 64 63 65 56 66 58 67
REMARK SMILES IDX 64 68 57 69 59 70 60 71 61 72 62 73 39 74 40 75 48 76 41 77
REMARK SMILES IDX 43 78 49 79 42 80 44 81 45 82 46 83 47 84
REMARK H PARENT 1 15 1 16 69 37 37 48
REMARK Flexibility Score: inf
ROOT
ATOM      1  C   UNL A   1      36.086  21.757  24.456  1.00  0.00     0.275 C 
ENDROOT
BRANCH   1   2
ATOM      2  C   UNL A   1      35.100  22.924  24.344  1.00  0.00     0.275 C 
BRANCH   2   3
ATOM      3  O   UNL A   1      34.021  22.634  23.429  1.00  0.00    -0.458 OA
BRANCH   3   4
ATOM      4  C   UNL A   1      32.819  22.311  23.980  1.00  0.00     0.339 C 
ATOM      5  O   UNL A   1      31.973  23.115  24.333  1.00  0.00    -0.246 OA
BRANCH   4   6
ATOM      6  C   UNL A   1      32.670  20.828  24.057  1.00  0.00     0.080 A 
ATOM      7  C   UNL A   1      32.725  18.789  25.407  1.00  0.00     0.051 A 
ATOM      8  C   UNL A   1      32.828  20.181  25.297  1.00  0.00     0.044 A 
ATOM      9  C   UNL A   1      32.641  18.030  24.230  1.00  0.00     0.065 A 
ATOM     10  C   UNL A   1      32.441  18.652  23.001  1.00  0.00     0.044 A 
ATOM     11  Cl  UNL A   1      32.692  16.303  24.284  1.00  0.00    -0.082 Cl
ATOM     12  C   UNL A   1      32.366  20.046  22.930  1.00  0.00     0.057 A 
ATOM     13  Cl  UNL A   1      31.829  20.695  21.420  1.00  0.00    -0.083 Cl
BRANCH   7  14
ATOM     14  N   UNL A   1      32.811  18.188  26.662  1.00  0.00    -0.398 N 
ATOM     15  H   UNL A   1      32.052  18.243  27.287  1.00  0.00     0.156 HD
ATOM     16  H   UNL A   1      33.630  17.709  26.923  1.00  0.00     0.156 HD
ENDBRANCH   7  14
ENDBRANCH   4   6
ENDBRANCH   3   4
ENDBRANCH   2   3
ENDBRANCH   1   2
BRANCH   1  17
ATOM     17  O   UNL A   1      36.705  21.716  25.754  1.00  0.00    -0.458 OA
BRANCH  17  18
ATOM     18  C   UNL A   1      38.015  21.371  25.751  1.00  0.00     0.338 C 
ATOM     19  O   UNL A   1      38.514  20.381  25.244  1.00  0.00    -0.246 OA
BRANCH  18  20
ATOM     20  C   UNL A   1      38.800  22.497  26.277  1.00  0.00     0.060 A 
ATOM     21  C   UNL A   1      40.005  22.338  26.959  1.00  0.00     0.016 A 
ATOM     22  C   UNL A   1      38.299  23.772  26.027  1.00  0.00     0.016 A 
ATOM     23  C   UNL A   1      40.686  23.477  27.415  1.00  0.00     0.010 A 
ATOM     24  C   UNL A   1      38.968  24.902  26.486  1.00  0.00     0.010 A 
ATOM     25  C   UNL A   1      40.167  24.768  27.191  1.00  0.00    -0.014 A 
BRANCH  25  26
ATOM     26  C   UNL A   1      40.914  25.994  27.570  1.00  0.00     0.031 A 
ATOM     27  C   UNL A   1      42.368  26.174  27.225  1.00  0.00     0.074 A 
ATOM     28  C   UNL A   1      40.291  26.910  28.337  1.00  0.00     0.049 A 
ATOM     29  N   UNL A   1      43.143  27.203  27.460  1.00  0.00    -0.248 NA
ATOM     30  C   UNL A   1      43.048  25.058  26.549  1.00  0.00     0.031 C 
ATOM     31  C   UNL A   1      38.924  26.785  28.849  1.00  0.00     0.029 A 
ATOM     32  N   UNL A   1      40.726  28.111  28.837  1.00  0.00    -0.354 N 
ATOM     33  C   UNL A   1      44.398  26.861  26.970  1.00  0.00     0.074 A 
ATOM     34  C   UNL A   1      44.291  25.515  26.450  1.00  0.00     0.031 C 
ATOM     35  C   UNL A   1      38.623  27.878  29.566  1.00  0.00     0.029 A 
ATOM     36  C   UNL A   1      39.777  28.772  29.578  1.00  0.00     0.049 A 
ATOM     37  H   UNL A   1      41.632  28.464  28.680  1.00  0.00     0.167 HD
ATOM     38  C   UNL A   1      45.524  27.613  26.930  1.00  0.00     0.034 A 
ATOM     39  C   UNL A   1      39.818  29.973  30.188  1.00  0.00     0.034 A 
ATOM     40  C   UNL A   1      45.617  28.959  27.432  1.00  0.00     0.049 A 
ATOM     41  C   UNL A   1      41.056  30.813  30.079  1.00  0.00     0.074 A 
ATOM     42  C   UNL A   1      46.689  29.831  27.355  1.00  0.00     0.029 A 
ATOM     43  N   UNL A   1      44.609  29.624  28.112  1.00  0.00    -0.354 N 
ATOM     44  N   UNL A   1      42.183  30.535  29.471  1.00  0.00    -0.248 NA
ATOM     45  C   UNL A   1      41.021  32.143  30.704  1.00  0.00     0.031 C 
ATOM     46  C   UNL A   1      46.335  31.018  28.001  1.00  0.00     0.029 A 
ATOM     47  C   UNL A   1      45.034  30.895  28.458  1.00  0.00     0.049 A 
ATOM     48  H   UNL A   1      43.723  29.248  28.318  1.00  0.00     0.167 HD
ATOM     49  C   UNL A   1      42.980  31.663  29.612  1.00  0.00     0.074 A 
ATOM     50  C   UNL A   1      42.206  32.633  30.360  1.00  0.00     0.031 C 
ATOM     51  C   UNL A   1      44.242  31.869  29.165  1.00  0.00     0.034 A 
BRANCH  38  52
ATOM     52  C   UNL A   1      46.740  27.049  26.243  1.00  0.00     0.023 A 
ATOM     53  C   UNL A   1      46.908  27.284  24.864  1.00  0.00     0.012 A 
ATOM     54  C   UNL A   1      47.774  26.424  26.969  1.00  0.00     0.148 A 
ATOM     55  C   UNL A   1      48.081  26.900  24.214  1.00  0.00     0.002 A 
ATOM     56  C   UNL A   1      48.953  26.069  26.320  1.00  0.00     0.091 A 
ATOM     57  F   UNL A   1      47.594  26.210  28.281  1.00  0.00    -0.205 F 
ATOM     58  C   UNL A   1      49.105  26.305  24.944  1.00  0.00     0.022 A 
BRANCH  56  59
ATOM     59  S   UNL A   1      50.360  25.348  27.173  1.00  0.00     0.127 S 
ATOM     60  O   UNL A   1      50.741  26.429  28.082  1.00  0.00    -0.237 OA
ATOM     61  O   UNL A   1      49.760  24.186  27.828  1.00  0.00    -0.237 OA
ATOM     62  O   UNL A   1      51.342  25.035  26.144  1.00  0.00    -0.744 OA
ENDBRANCH  56  59
ENDBRANCH  38  52
BRANCH  39  63
ATOM     63  C   UNL A   1      38.591  30.481  30.856  1.00  0.00     0.023 A 
ATOM     64  C   UNL A   1      38.481  30.372  32.255  1.00  0.00     0.012 A 
ATOM     65  C   UNL A   1      37.592  31.158  30.132  1.00  0.00     0.148 A 
ATOM     66  C   UNL A   1      37.393  30.929  32.925  1.00  0.00     0.002 A 
ATOM     67  C   UNL A   1      36.529  31.743  30.810  1.00  0.00     0.091 A 
ATOM     68  F   UNL A   1      37.728  31.252  28.802  1.00  0.00    -0.205 F 
ATOM     69  C   UNL A   1      36.423  31.623  32.205  1.00  0.00     0.022 A 
BRANCH  67  70
ATOM     70  S   UNL A   1      35.282  32.739  29.987  1.00  0.00     0.127 S 
ATOM     71  O   UNL A   1      34.734  31.791  29.020  1.00  0.00    -0.237 OA
ATOM     72  O   UNL A   1      34.390  33.075  31.096  1.00  0.00    -0.237 OA
ATOM     73  O   UNL A   1      35.994  33.874  29.414  1.00  0.00    -0.744 OA
ENDBRANCH  67  70
ENDBRANCH  39  63
BRANCH  51  74
ATOM     74  C   UNL A   1      44.882  33.202  29.434  1.00  0.00     0.023 A 
ATOM     75  C   UNL A   1      45.657  33.381  30.595  1.00  0.00     0.012 A 
ATOM     76  C   UNL A   1      44.818  34.231  28.474  1.00  0.00     0.148 A 
ATOM     77  C   UNL A   1      46.355  34.571  30.801  1.00  0.00     0.002 A 
ATOM     78  C   UNL A   1      45.542  35.399  28.667  1.00  0.00     0.091 A 
ATOM     79  F   UNL A   1      44.066  34.035  27.380  1.00  0.00    -0.205 F 
ATOM     80  C   UNL A   1      46.308  35.573  29.832  1.00  0.00     0.022 A 
BRANCH  78  81
ATOM     81  S   UNL A   1      45.601  36.718  27.450  1.00  0.00     0.127 S 
ATOM     82  O   UNL A   1      44.200  37.132  27.392  1.00  0.00    -0.237 OA
ATOM     83  O   UNL A   1      46.498  37.684  28.083  1.00  0.00    -0.237 OA
ATOM     84  O   UNL A   1      46.117  36.118  26.226  1.00  0.00    -0.744 OA
ENDBRANCH  78  81
ENDBRANCH  51  74
ENDBRANCH  25  26
ENDBRANCH  18  20
ENDBRANCH  17  18
ENDBRANCH   1  17
TORSDOF 15
ENDMDL
MODEL 3
REMARK VINA RESULT:     -11.2      5.740     10.468
REMARK SMILES Nc1cc(C(=O)OCCOC(=O)c2ccc(-c3c4nc(c(-c5cccc(S(=O)(=O)[O-])c5F)c5ccc([nH]5)c(-c5cccc(S(=O)(=O)[O-])c5F)c5nc(c(-c6cccc(S(=O)(=O)[O-])c6F)c6ccc3[nH]6)C=C5)C=C4)cc2)c(Cl)cc1Cl
REMARK SMILES IDX 9 1 8 2 7 3 5 4 6 5 4 6 2 7 3 8 79 9 78 10 80 11 76 12 77 13
REMARK SMILES IDX 1 14 10 17 11 18 12 19 13 20 14 21 75 22 15 23 74 24 16 25
REMARK SMILES IDX 17 26 18 27 68 28 19 29 73 30 67 31 69 32 20 33 72 34 66 35
REMARK SMILES IDX 65 36 21 38 53 39 33 40 52 41 34 42 37 43 51 44 70 45 35 46
REMARK SMILES IDX 36 47 50 49 71 50 38 51 22 52 23 53 31 54 24 55 26 56 32 57
REMARK SMILES IDX 25 58 27 59 28 60 29 61 30 62 54 63 55 64 63 65 56 66 58 67
REMARK SMILES IDX 64 68 57 69 59 70 60 71 61 72 62 73 39 74 40 75 48 76 41 77
REMARK SMILES IDX 43 78 49 79 42 80 44 81 45 82 46 83 47 84
REMARK H PARENT 1 15 1 16 69 37 37 48
REMARK Flexibility Score: inf
ROOT
ATOM      1  C   UNL A   1      31.773  29.213  26.319  1.00  0.00     0.275 C 
ENDROOT
BRANCH   1   2
ATOM      2  C   UNL A   1      32.047  27.707  26.256  1.00  0.00     0.275 C 
BRANCH   2   3
ATOM      3  O   UNL A   1      30.983  26.992  25.590  1.00  0.00    -0.458 OA
BRANCH   3   4
ATOM      4  C   UNL A   1      31.118  26.798  24.250  1.00  0.00     0.339 C 
ATOM      5  O   UNL A   1      31.752  25.893  23.735  1.00  0.00    -0.246 OA
BRANCH   4   6
ATOM      6  C   UNL A   1      30.348  27.834  23.500  1.00  0.00     0.080 A 
ATOM      7  C   UNL A   1      28.181  28.754  22.838  1.00  0.00     0.051 A 
ATOM      8  C   UNL A   1      28.942  27.818  23.549  1.00  0.00     0.044 A 
ATOM      9  C   UNL A   1      28.839  29.597  21.928  1.00  0.00     0.065 A 
ATOM     10  C   UNL A   1      30.229  29.656  21.898  1.00  0.00     0.044 A 
ATOM     11  Cl  UNL A   1      27.943  30.649  20.889  1.00  0.00    -0.082 Cl
ATOM     12  C   UNL A   1      30.979  28.839  22.748  1.00  0.00     0.057 A 
ATOM     13  Cl  UNL A   1      32.668  29.197  22.839  1.00  0.00    -0.083 Cl
BRANCH   7  14
ATOM     14  N   UNL A   1      26.793  28.758  22.969  1.00  0.00    -0.398 N 
ATOM     15  H   UNL A   1      26.241  29.286  22.348  1.00  0.00     0.156 HD
ATOM     16  H   UNL A   1      26.365  28.231  23.682  1.00  0.00     0.156 HD
ENDBRANCH   7  14
ENDBRANCH   4   6
ENDBRANCH   3   4
ENDBRANCH   2   3
ENDBRANCH   1   2
BRANCH   1  17
ATOM     17  O   UNL A   1      32.962  29.974  26.042  1.00  0.00    -0.458 OA
BRANCH  17  18
ATOM     18  C   UNL A   1      33.191  31.004  26.891  1.00  0.00     0.338 C 
ATOM     19  O   UNL A   1      32.414  31.891  27.197  1.00  0.00    -0.246 OA
BRANCH  18  20
ATOM     20  C   UNL A   1      34.474  30.778  27.572  1.00  0.00     0.060 A 
ATOM     21  C   UNL A   1      35.438  31.771  27.739  1.00  0.00     0.016 A 
ATOM     22  C   UNL A   1      34.682  29.505  28.094  1.00  0.00     0.016 A 
ATOM     23  C   UNL A   1      36.629  31.459  28.413  1.00  0.00     0.010 A 
ATOM     24  C   UNL A   1      35.866  29.190  28.754  1.00  0.00     0.010 A 
ATOM     25  C   UNL A   1      36.856  30.162  28.916  1.00  0.00    -0.014 A 
BRANCH  25  26
ATOM     26  C   UNL A   1      38.059  29.830  29.721  1.00  0.00     0.031 A 
ATOM     27  C   UNL A   1      38.294  30.433  31.081  1.00  0.00     0.074 A 
ATOM     28  C   UNL A   1      39.007  29.054  29.162  1.00  0.00     0.049 A 
ATOM     29  N   UNL A   1      39.280  30.212  31.914  1.00  0.00    -0.248 NA
ATOM     30  C   UNL A   1      37.316  31.421  31.562  1.00  0.00     0.031 C 
ATOM     31  C   UNL A   1      38.956  28.518  27.799  1.00  0.00     0.029 A 
ATOM     32  N   UNL A   1      40.203  28.598  29.655  1.00  0.00    -0.354 N 
ATOM     33  C   UNL A   1      39.048  31.033  33.011  1.00  0.00     0.074 A 
ATOM     34  C   UNL A   1      37.843  31.781  32.727  1.00  0.00     0.031 C 
ATOM     35  C   UNL A   1      40.056  27.784  27.575  1.00  0.00     0.029 A 
ATOM     36  C   UNL A   1      40.896  27.809  28.769  1.00  0.00     0.049 A 
ATOM     37  H   UNL A   1      40.534  28.816  30.556  1.00  0.00     0.167 HD
ATOM     38  C   UNL A   1      39.759  31.128  34.161  1.00  0.00     0.034 A 
ATOM     39  C   UNL A   1      42.069  27.159  28.902  1.00  0.00     0.034 A 
ATOM     40  C   UNL A   1      40.946  30.366  34.444  1.00  0.00     0.049 A 
ATOM     41  C   UNL A   1      42.807  27.232  30.206  1.00  0.00     0.074 A 
ATOM     42  C   UNL A   1      41.682  30.327  35.616  1.00  0.00     0.029 A 
ATOM     43  N   UNL A   1      41.578  29.517  33.548  1.00  0.00    -0.354 N 
ATOM     44  N   UNL A   1      42.487  27.889  31.293  1.00  0.00    -0.248 NA
ATOM     45  C   UNL A   1      44.046  26.448  30.320  1.00  0.00     0.031 C 
ATOM     46  C   UNL A   1      42.767  29.468  35.423  1.00  0.00     0.029 A 
ATOM     47  C   UNL A   1      42.693  28.952  34.141  1.00  0.00     0.049 A 
ATOM     48  H   UNL A   1      41.278  29.344  32.627  1.00  0.00     0.167 HD
ATOM     49  C   UNL A   1      43.463  27.577  32.229  1.00  0.00     0.074 A 
ATOM     50  C   UNL A   1      44.387  26.666  31.584  1.00  0.00     0.031 C 
ATOM     51  C   UNL A   1      43.582  28.013  33.505  1.00  0.00     0.034 A 
BRANCH  38  52
ATOM     52  C   UNL A   1      39.236  32.021  35.256  1.00  0.00     0.023 A 
ATOM     53  C   UNL A   1      38.347  31.479  36.205  1.00  0.00     0.012 A 
ATOM     54  C   UNL A   1      39.726  33.330  35.436  1.00  0.00     0.148 A 
ATOM     55  C   UNL A   1      37.945  32.226  37.311  1.00  0.00     0.002 A 
ATOM     56  C   UNL A   1      39.342  34.060  36.557  1.00  0.00     0.091 A 
ATOM     57  F   UNL A   1      40.572  33.827  34.521  1.00  0.00    -0.205 F 
ATOM     58  C   UNL A   1      38.451  33.510  37.492  1.00  0.00     0.022 A 
BRANCH  56  59
ATOM     59  S   UNL A   1      39.977  35.701  36.921  1.00  0.00     0.127 S 
ATOM     60  O   UNL A   1      39.256  36.031  38.150  1.00  0.00    -0.237 OA
ATOM     61  O   UNL A   1      41.405  35.444  37.104  1.00  0.00    -0.237 OA
ATOM     62  O   UNL A   1      39.644  36.529  35.770  1.00  0.00    -0.744 OA
ENDBRANCH  56  59
ENDBRANCH  38  52
BRANCH  39  63
ATOM     63  C   UNL A   1      42.541  26.294  27.789  1.00  0.00     0.023 A 
ATOM     64  C   UNL A   1      43.461  26.819  26.860  1.00  0.00     0.012 A 
ATOM     65  C   UNL A   1      42.170  24.940  27.709  1.00  0.00     0.148 A 
ATOM     66  C   UNL A   1      44.002  26.007  25.865  1.00  0.00     0.002 A 
ATOM     67  C   UNL A   1      42.742  24.127  26.737  1.00  0.00     0.091 A 
ATOM     68  F   UNL A   1      41.298  24.467  28.611  1.00  0.00    -0.205 F 
ATOM     69  C   UNL A   1      43.652  24.659  25.810  1.00  0.00     0.022 A 
BRANCH  67  70
ATOM     70  S   UNL A   1      42.432  22.360  26.643  1.00  0.00     0.127 S 
ATOM     71  O   UNL A   1      42.690  21.939  28.018  1.00  0.00    -0.237 OA
ATOM     72  O   UNL A   1      41.026  22.326  26.240  1.00  0.00    -0.237 OA
ATOM     73  O   UNL A   1      43.362  21.845  25.648  1.00  0.00    -0.744 OA
ENDBRANCH  67  70
ENDBRANCH  39  63
BRANCH  51  74
ATOM     74  C   UNL A   1      44.733  27.502  34.327  1.00  0.00     0.023 A 
ATOM     75  C   UNL A   1      45.924  28.249  34.400  1.00  0.00     0.012 A 
ATOM     76  C   UNL A   1      44.584  26.349  35.123  1.00  0.00     0.148 A 
ATOM     77  C   UNL A   1      46.955  27.852  35.250  1.00  0.00     0.002 A 
ATOM     78  C   UNL A   1      45.601  25.977  35.992  1.00  0.00     0.091 A 
ATOM     79  F   UNL A   1      43.442  25.652  35.027  1.00  0.00    -0.205 F 
ATOM     80  C   UNL A   1      46.789  26.725  36.054  1.00  0.00     0.022 A 
BRANCH  78  81
ATOM     81  S   UNL A   1      45.455  24.585  37.117  1.00  0.00     0.127 S 
ATOM     82  O   UNL A   1      46.766  24.587  37.765  1.00  0.00    -0.237 OA
ATOM     83  O   UNL A   1      44.348  24.998  37.978  1.00  0.00    -0.237 OA
ATOM     84  O   UNL A   1      45.180  23.419  36.286  1.00  0.00    -0.744 OA
ENDBRANCH  78  81
ENDBRANCH  51  74
ENDBRANCH  25  26
ENDBRANCH  18  20
ENDBRANCH  17  18
ENDBRANCH   1  17
TORSDOF 15
ENDMDL
