MODEL 1
REMARK VINA RESULT:     -11.7      0.000      0.000
REMARK SMILES CCCC[C@H](C(=O)OCCOC(=O)c1ccc(-c2c3nc(c(-c4cccc(S(=O)(=O)[O-])c4F)c4ccc([nH]4)c(-c4cccc(S(=O)(=O)[O-])c4F)c4nc(c(-c5cccc(S(=O)(=O)[O-])c5F)c5ccc2[nH]5)C=C4)C=C3)cc1)N1C(=O)/C(=C/c2ccc(C)cc2)SC1=S
REMARK SMILES IDX 9 1 8 2 6 3 7 4 5 5 4 6 3 7 2 8 1 9 77 10 78 11 90 12 79 13
REMARK SMILES IDX 80 14 89 15 91 16 81 17 82 18 83 19 88 20 84 21 87 22 85 23
REMARK SMILES IDX 86 24 10 25 11 26 12 27 13 28 14 29 15 30 76 31 16 32 75 33
REMARK SMILES IDX 17 34 18 35 19 36 69 37 20 38 74 39 68 40 70 41 21 42 73 43
REMARK SMILES IDX 67 44 66 45 22 47 54 48 34 49 53 50 35 51 38 52 52 53 71 54
REMARK SMILES IDX 36 55 37 56 51 58 72 59 39 60 23 61 24 62 32 63 25 64 27 65
REMARK SMILES IDX 33 66 26 67 28 68 29 69 30 70 31 71 55 72 56 73 64 74 57 75
REMARK SMILES IDX 59 76 65 77 58 78 60 79 61 80 62 81 63 82 40 83 41 84 49 85
REMARK SMILES IDX 42 86 44 87 50 88 43 89 45 90 46 91 47 92 48 93
REMARK H PARENT 70 46 38 57
REMARK Flexibility Score: inf
ROOT
ATOM      1  C   UNL A   1      31.642  29.806  25.313  1.00  0.00     0.274 C 
ENDROOT
BRANCH   1   2
ATOM      2  O   UNL A   1      32.817  29.338  24.615  1.00  0.00    -0.461 OA
BRANCH   2   3
ATOM      3  C   UNL A   1      32.588  28.740  23.408  1.00  0.00     0.329 C 
ATOM      4  O   UNL A   1      33.331  28.853  22.446  1.00  0.00    -0.250 OA
BRANCH   3   5
ATOM      5  C   UNL A   1      31.323  27.858  23.447  1.00  0.00     0.202 C 
BRANCH   5   6
ATOM      6  C   UNL A   1      30.160  28.206  22.486  1.00  0.00     0.038 C 
BRANCH   6   7
ATOM      7  C   UNL A   1      28.795  28.623  23.047  1.00  0.00     0.002 C 
BRANCH   7   8
ATOM      8  C   UNL A   1      28.041  29.699  22.273  1.00  0.00    -0.003 C 
ATOM      9  C   UNL A   1      28.864  30.958  22.036  1.00  0.00     0.004 C 
ENDBRANCH   7   8
ENDBRANCH   6   7
ENDBRANCH   5   6
BRANCH   5  10
ATOM     10  N   UNL A   1      31.549  26.379  23.530  1.00  0.00    -0.278 N 
ATOM     11  C   UNL A   1      31.389  25.743  24.765  1.00  0.00     0.266 C 
ATOM     12  C   UNL A   1      31.845  25.521  22.486  1.00  0.00     0.149 C 
ATOM     13  O   UNL A   1      31.099  26.275  25.827  1.00  0.00    -0.268 OA
ATOM     14  C   UNL A   1      31.684  24.290  24.625  1.00  0.00     0.081 C 
ATOM     15  S   UNL A   1      31.503  23.871  22.972  1.00  0.00    -0.054 SA
ATOM     16  S   UNL A   1      32.490  25.794  20.981  1.00  0.00    -0.052 S 
ATOM     17  C   UNL A   1      32.197  23.522  25.600  1.00  0.00     0.029 C 
BRANCH  17  18
ATOM     18  C   UNL A   1      32.801  22.199  25.358  1.00  0.00    -0.024 A 
ATOM     19  C   UNL A   1      32.014  21.052  25.256  1.00  0.00     0.008 A 
ATOM     20  C   UNL A   1      34.195  22.069  25.244  1.00  0.00     0.008 A 
ATOM     21  C   UNL A   1      32.608  19.813  24.976  1.00  0.00     0.004 A 
ATOM     22  C   UNL A   1      34.784  20.843  24.941  1.00  0.00     0.004 A 
ATOM     23  C   UNL A   1      33.994  19.704  24.798  1.00  0.00    -0.051 A 
ATOM     24  C   UNL A   1      34.619  18.387  24.454  1.00  0.00     0.044 C 
ENDBRANCH  17  18
ENDBRANCH   5  10
ENDBRANCH   3   5
ENDBRANCH   2   3
ENDBRANCH   1   2
BRANCH   1  25
ATOM     25  C   UNL A   1      31.973  30.625  26.564  1.00  0.00     0.275 C 
BRANCH  25  26
ATOM     26  O   UNL A   1      33.367  30.536  26.904  1.00  0.00    -0.458 OA
BRANCH  26  27
ATOM     27  C   UNL A   1      33.894  31.635  27.487  1.00  0.00     0.338 C 
ATOM     28  O   UNL A   1      33.343  32.717  27.662  1.00  0.00    -0.246 OA
BRANCH  27  29
ATOM     29  C   UNL A   1      35.193  31.289  28.073  1.00  0.00     0.060 A 
ATOM     30  C   UNL A   1      35.326  30.006  28.596  1.00  0.00     0.016 A 
ATOM     31  C   UNL A   1      36.244  32.199  28.170  1.00  0.00     0.016 A 
ATOM     32  C   UNL A   1      36.506  29.607  29.201  1.00  0.00     0.010 A 
ATOM     33  C   UNL A   1      37.437  31.799  28.788  1.00  0.00     0.010 A 
ATOM     34  C   UNL A   1      37.573  30.500  29.309  1.00  0.00    -0.014 A 
BRANCH  34  35
ATOM     35  C   UNL A   1      38.790  30.060  30.031  1.00  0.00     0.031 A 
ATOM     36  C   UNL A   1      39.758  29.134  29.357  1.00  0.00     0.074 A 
ATOM     37  C   UNL A   1      39.057  30.544  31.260  1.00  0.00     0.049 A 
ATOM     38  N   UNL A   1      40.821  28.555  29.845  1.00  0.00    -0.248 NA
ATOM     39  C   UNL A   1      39.493  28.816  27.943  1.00  0.00     0.031 C 
ATOM     40  C   UNL A   1      38.229  31.513  31.978  1.00  0.00     0.029 A 
ATOM     41  N   UNL A   1      40.104  30.303  32.113  1.00  0.00    -0.354 N 
ATOM     42  C   UNL A   1      41.302  27.734  28.833  1.00  0.00     0.074 A 
ATOM     43  C   UNL A   1      40.444  27.928  27.685  1.00  0.00     0.031 C 
ATOM     44  C   UNL A   1      38.815  31.806  33.151  1.00  0.00     0.029 A 
ATOM     45  C   UNL A   1      40.019  30.995  33.299  1.00  0.00     0.049 A 
ATOM     46  H   UNL A   1      40.844  29.692  31.898  1.00  0.00     0.167 HD
ATOM     47  C   UNL A   1      42.353  26.883  28.872  1.00  0.00     0.034 A 
ATOM     48  C   UNL A   1      40.813  30.960  34.390  1.00  0.00     0.034 A 
ATOM     49  C   UNL A   1      43.234  26.746  29.999  1.00  0.00     0.049 A 
ATOM     50  C   UNL A   1      41.989  30.017  34.393  1.00  0.00     0.074 A 
ATOM     51  C   UNL A   1      44.325  25.907  30.140  1.00  0.00     0.029 A 
ATOM     52  N   UNL A   1      43.131  27.472  31.176  1.00  0.00    -0.354 N 
ATOM     53  N   UNL A   1      42.446  29.259  33.425  1.00  0.00    -0.248 NA
ATOM     54  C   UNL A   1      42.753  29.914  35.646  1.00  0.00     0.031 C 
ATOM     55  C   UNL A   1      44.869  26.112  31.413  1.00  0.00     0.029 A 
ATOM     56  C   UNL A   1      44.127  27.090  32.057  1.00  0.00     0.049 A 
ATOM     57  H   UNL A   1      42.449  28.158  31.359  1.00  0.00     0.167 HD
ATOM     58  C   UNL A   1      43.539  28.582  33.952  1.00  0.00     0.074 A 
ATOM     59  C   UNL A   1      43.713  29.062  35.309  1.00  0.00     0.031 C 
ATOM     60  C   UNL A   1      44.304  27.616  33.386  1.00  0.00     0.034 A 
BRANCH  47  61
ATOM     61  C   UNL A   1      42.588  26.009  27.672  1.00  0.00     0.023 A 
ATOM     62  C   UNL A   1      43.358  26.479  26.590  1.00  0.00     0.012 A 
ATOM     63  C   UNL A   1      42.076  24.697  27.641  1.00  0.00     0.148 A 
ATOM     64  C   UNL A   1      43.597  25.660  25.486  1.00  0.00     0.002 A 
ATOM     65  C   UNL A   1      42.350  23.875  26.555  1.00  0.00     0.091 A 
ATOM     66  F   UNL A   1      41.320  24.282  28.668  1.00  0.00    -0.205 F 
ATOM     67  C   UNL A   1      43.103  24.357  25.474  1.00  0.00     0.022 A 
BRANCH  65  68
ATOM     68  S   UNL A   1      41.810  22.163  26.482  1.00  0.00     0.127 S 
ATOM     69  O   UNL A   1      40.361  22.315  26.362  1.00  0.00    -0.237 OA
ATOM     70  O   UNL A   1      42.475  21.681  25.271  1.00  0.00    -0.237 OA
ATOM     71  O   UNL A   1      42.276  21.544  27.715  1.00  0.00    -0.744 OA
ENDBRANCH  65  68
ENDBRANCH  47  61
BRANCH  48  72
ATOM     72  C   UNL A   1      40.531  31.847  35.557  1.00  0.00     0.023 A 
ATOM     73  C   UNL A   1      41.383  32.935  35.821  1.00  0.00     0.012 A 
ATOM     74  C   UNL A   1      39.408  31.649  36.385  1.00  0.00     0.148 A 
ATOM     75  C   UNL A   1      41.129  33.805  36.883  1.00  0.00     0.002 A 
ATOM     76  C   UNL A   1      39.123  32.557  37.401  1.00  0.00     0.091 A 
ATOM     77  F   UNL A   1      38.628  30.582  36.161  1.00  0.00    -0.205 F 
ATOM     78  C   UNL A   1      39.990  33.628  37.661  1.00  0.00     0.022 A 
BRANCH  76  79
ATOM     79  S   UNL A   1      37.592  32.472  38.338  1.00  0.00     0.127 S 
ATOM     80  O   UNL A   1      37.821  33.466  39.381  1.00  0.00    -0.237 OA
ATOM     81  O   UNL A   1      36.593  32.850  37.337  1.00  0.00    -0.237 OA
ATOM     82  O   UNL A   1      37.494  31.086  38.779  1.00  0.00    -0.744 OA
ENDBRANCH  76  79
ENDBRANCH  48  72
BRANCH  60  83
ATOM     83  C   UNL A   1      45.381  26.993  34.235  1.00  0.00     0.023 A 
ATOM     84  C   UNL A   1      46.674  27.555  34.222  1.00  0.00     0.012 A 
ATOM     85  C   UNL A   1      45.096  25.929  35.112  1.00  0.00     0.148 A 
ATOM     86  C   UNL A   1      47.674  27.052  35.052  1.00  0.00     0.002 A 
ATOM     87  C   UNL A   1      46.087  25.460  35.967  1.00  0.00     0.091 A 
ATOM     88  F   UNL A   1      43.863  25.401  35.098  1.00  0.00    -0.205 F 
ATOM     89  C   UNL A   1      47.378  26.014  35.931  1.00  0.00     0.022 A 
BRANCH  87  90
ATOM     90  S   UNL A   1      45.779  24.187  37.196  1.00  0.00     0.127 S 
ATOM     91  O   UNL A   1      44.721  24.798  38.000  1.00  0.00    -0.237 OA
ATOM     92  O   UNL A   1      45.345  23.059  36.373  1.00  0.00    -0.237 OA
ATOM     93  O   UNL A   1      47.045  23.980  37.886  1.00  0.00    -0.744 OA
ENDBRANCH  87  90
ENDBRANCH  60  83
ENDBRANCH  34  35
ENDBRANCH  27  29
ENDBRANCH  26  27
ENDBRANCH  25  26
ENDBRANCH   1  25
TORSDOF 19
ENDMDL
MODEL 2
REMARK VINA RESULT:     -11.5      5.172     10.559
REMARK SMILES CCCC[C@H](C(=O)OCCOC(=O)c1ccc(-c2c3nc(c(-c4cccc(S(=O)(=O)[O-])c4F)c4ccc([nH]4)c(-c4cccc(S(=O)(=O)[O-])c4F)c4nc(c(-c5cccc(S(=O)(=O)[O-])c5F)c5ccc2[nH]5)C=C4)C=C3)cc1)N1C(=O)/C(=C/c2ccc(C)cc2)SC1=S
REMARK SMILES IDX 9 1 8 2 6 3 7 4 5 5 4 6 3 7 2 8 1 9 77 10 78 11 90 12 79 13
REMARK SMILES IDX 80 14 89 15 91 16 81 17 82 18 83 19 88 20 84 21 87 22 85 23
REMARK SMILES IDX 86 24 10 25 11 26 12 27 13 28 14 29 15 30 76 31 16 32 75 33
REMARK SMILES IDX 17 34 18 35 19 36 69 37 20 38 74 39 68 40 70 41 21 42 73 43
REMARK SMILES IDX 67 44 66 45 22 47 54 48 34 49 53 50 35 51 38 52 52 53 71 54
REMARK SMILES IDX 36 55 37 56 51 58 72 59 39 60 23 61 24 62 32 63 25 64 27 65
REMARK SMILES IDX 33 66 26 67 28 68 29 69 30 70 31 71 55 72 56 73 64 74 57 75
REMARK SMILES IDX 59 76 65 77 58 78 60 79 61 80 62 81 63 82 40 83 41 84 49 85
REMARK SMILES IDX 42 86 44 87 50 88 43 89 45 90 46 91 47 92 48 93
REMARK H PARENT 70 46 38 57
REMARK Flexibility Score: inf
ROOT
ATOM      1  C   UNL A   1      35.937  20.972  24.865  1.00  0.00     0.274 C 
ENDROOT
BRANCH   1   2
ATOM      2  O   UNL A   1      35.379  21.686  25.991  1.00  0.00    -0.461 OA
BRANCH   2   3
ATOM      3  C   UNL A   1      34.066  21.423  26.265  1.00  0.00     0.329 C 
ATOM      4  O   UNL A   1      33.624  21.298  27.396  1.00  0.00    -0.250 OA
BRANCH   3   5
ATOM      5  C   UNL A   1      33.219  21.378  24.976  1.00  0.00     0.202 C 
BRANCH   5   6
ATOM      6  C   UNL A   1      32.372  20.112  24.703  1.00  0.00     0.038 C 
BRANCH   6   7
ATOM      7  C   UNL A   1      33.059  18.763  24.454  1.00  0.00     0.002 C 
BRANCH   7   8
ATOM      8  C   UNL A   1      32.727  17.640  25.429  1.00  0.00    -0.003 C 
ATOM      9  C   UNL A   1      33.229  16.277  24.970  1.00  0.00     0.004 C 
ENDBRANCH   7   8
ENDBRANCH   6   7
ENDBRANCH   5   6
BRANCH   5  10
ATOM     10  N   UNL A   1      32.472  22.631  24.632  1.00  0.00    -0.278 N 
ATOM     11  C   UNL A   1      33.013  23.495  23.675  1.00  0.00     0.266 C 
ATOM     12  C   UNL A   1      31.235  23.022  25.114  1.00  0.00     0.149 C 
ATOM     13  O   UNL A   1      34.073  23.355  23.083  1.00  0.00    -0.268 OA
ATOM     14  C   UNL A   1      32.126  24.679  23.507  1.00  0.00     0.081 C 
ATOM     15  S   UNL A   1      30.559  24.247  24.056  1.00  0.00    -0.054 SA
ATOM     16  S   UNL A   1      30.391  22.587  26.475  1.00  0.00    -0.052 S 
ATOM     17  C   UNL A   1      32.554  25.908  23.176  1.00  0.00     0.029 C 
BRANCH  17  18
ATOM     18  C   UNL A   1      31.739  27.125  23.348  1.00  0.00    -0.024 A 
ATOM     19  C   UNL A   1      31.853  27.915  24.492  1.00  0.00     0.008 A 
ATOM     20  C   UNL A   1      30.814  27.501  22.362  1.00  0.00     0.008 A 
ATOM     21  C   UNL A   1      31.104  29.094  24.609  1.00  0.00     0.004 A 
ATOM     22  C   UNL A   1      30.087  28.685  22.466  1.00  0.00     0.004 A 
ATOM     23  C   UNL A   1      30.230  29.496  23.590  1.00  0.00    -0.051 A 
ATOM     24  C   UNL A   1      29.466  30.780  23.701  1.00  0.00     0.044 C 
ENDBRANCH  17  18
ENDBRANCH   5  10
ENDBRANCH   3   5
ENDBRANCH   2   3
ENDBRANCH   1   2
BRANCH   1  25
ATOM     25  C   UNL A   1      37.457  20.807  24.952  1.00  0.00     0.275 C 
BRANCH  25  26
ATOM     26  O   UNL A   1      38.062  21.855  25.727  1.00  0.00    -0.458 OA
BRANCH  26  27
ATOM     27  C   UNL A   1      39.238  21.540  26.312  1.00  0.00     0.338 C 
ATOM     28  O   UNL A   1      39.808  20.454  26.291  1.00  0.00    -0.246 OA
BRANCH  27  29
ATOM     29  C   UNL A   1      39.855  22.764  26.835  1.00  0.00     0.060 A 
ATOM     30  C   UNL A   1      39.462  23.965  26.252  1.00  0.00     0.016 A 
ATOM     31  C   UNL A   1      40.835  22.751  27.825  1.00  0.00     0.016 A 
ATOM     32  C   UNL A   1      40.021  25.165  26.659  1.00  0.00     0.010 A 
ATOM     33  C   UNL A   1      41.406  23.965  28.234  1.00  0.00     0.010 A 
ATOM     34  C   UNL A   1      41.003  25.179  27.650  1.00  0.00    -0.014 A 
BRANCH  34  35
ATOM     35  C   UNL A   1      41.632  26.473  28.002  1.00  0.00     0.031 A 
ATOM     36  C   UNL A   1      40.881  27.453  28.854  1.00  0.00     0.074 A 
ATOM     37  C   UNL A   1      42.895  26.737  27.616  1.00  0.00     0.049 A 
ATOM     38  N   UNL A   1      41.206  28.673  29.189  1.00  0.00    -0.248 NA
ATOM     39  C   UNL A   1      39.590  27.002  29.401  1.00  0.00     0.031 C 
ATOM     40  C   UNL A   1      43.748  25.824  26.855  1.00  0.00     0.029 A 
ATOM     41  N   UNL A   1      43.686  27.839  27.822  1.00  0.00    -0.354 N 
ATOM     42  C   UNL A   1      40.125  29.168  29.906  1.00  0.00     0.074 A 
ATOM     43  C   UNL A   1      39.155  28.100  30.004  1.00  0.00     0.031 C 
ATOM     44  C   UNL A   1      44.954  26.390  26.685  1.00  0.00     0.029 A 
ATOM     45  C   UNL A   1      44.937  27.732  27.259  1.00  0.00     0.049 A 
ATOM     46  H   UNL A   1      43.387  28.631  28.324  1.00  0.00     0.167 HD
ATOM     47  C   UNL A   1      39.957  30.409  30.420  1.00  0.00     0.034 A 
ATOM     48  C   UNL A   1      45.946  28.627  27.196  1.00  0.00     0.034 A 
ATOM     49  C   UNL A   1      40.956  31.441  30.369  1.00  0.00     0.049 A 
ATOM     50  C   UNL A   1      45.735  29.993  27.795  1.00  0.00     0.074 A 
ATOM     51  C   UNL A   1      40.880  32.734  30.854  1.00  0.00     0.029 A 
ATOM     52  N   UNL A   1      42.215  31.296  29.808  1.00  0.00    -0.354 N 
ATOM     53  N   UNL A   1      44.716  30.446  28.488  1.00  0.00    -0.248 NA
ATOM     54  C   UNL A   1      46.806  30.979  27.592  1.00  0.00     0.031 C 
ATOM     55  C   UNL A   1      42.089  33.377  30.567  1.00  0.00     0.029 A 
ATOM     56  C   UNL A   1      42.922  32.479  29.918  1.00  0.00     0.049 A 
ATOM     57  H   UNL A   1      42.556  30.471  29.392  1.00  0.00     0.167 HD
ATOM     58  C   UNL A   1      45.018  31.767  28.793  1.00  0.00     0.074 A 
ATOM     59  C   UNL A   1      46.340  32.027  28.260  1.00  0.00     0.031 C 
ATOM     60  C   UNL A   1      44.255  32.699  29.417  1.00  0.00     0.034 A 
BRANCH  47  61
ATOM     61  C   UNL A   1      38.630  30.729  31.050  1.00  0.00     0.023 A 
ATOM     62  C   UNL A   1      38.392  30.417  32.402  1.00  0.00     0.012 A 
ATOM     63  C   UNL A   1      37.631  31.384  30.302  1.00  0.00     0.148 A 
ATOM     64  C   UNL A   1      37.170  30.736  32.995  1.00  0.00     0.002 A 
ATOM     65  C   UNL A   1      36.432  31.732  30.910  1.00  0.00     0.091 A 
ATOM     66  F   UNL A   1      37.869  31.643  29.008  1.00  0.00    -0.205 F 
ATOM     67  C   UNL A   1      36.196  31.401  32.253  1.00  0.00     0.022 A 
BRANCH  65  68
ATOM     68  S   UNL A   1      35.147  32.647  30.051  1.00  0.00     0.127 S 
ATOM     69  O   UNL A   1      35.883  33.819  29.580  1.00  0.00    -0.237 OA
ATOM     70  O   UNL A   1      34.752  31.711  28.998  1.00  0.00    -0.237 OA
ATOM     71  O   UNL A   1      34.114  32.913  31.043  1.00  0.00    -0.744 OA
ENDBRANCH  65  68
ENDBRANCH  47  61
BRANCH  48  72
ATOM     72  C   UNL A   1      47.242  28.257  26.553  1.00  0.00     0.023 A 
ATOM     73  C   UNL A   1      48.348  27.936  27.361  1.00  0.00     0.012 A 
ATOM     74  C   UNL A   1      47.382  28.182  25.153  1.00  0.00     0.148 A 
ATOM     75  C   UNL A   1      49.565  27.553  26.794  1.00  0.00     0.002 A 
ATOM     76  C   UNL A   1      48.576  27.736  24.595  1.00  0.00     0.091 A 
ATOM     77  F   UNL A   1      46.341  28.538  24.386  1.00  0.00    -0.205 F 
ATOM     78  C   UNL A   1      49.674  27.434  25.413  1.00  0.00     0.022 A 
BRANCH  76  79
ATOM     79  S   UNL A   1      48.731  27.415  22.834  1.00  0.00     0.127 S 
ATOM     80  O   UNL A   1      50.087  27.879  22.561  1.00  0.00    -0.237 OA
ATOM     81  O   UNL A   1      48.551  25.964  22.764  1.00  0.00    -0.237 OA
ATOM     82  O   UNL A   1      47.654  28.176  22.213  1.00  0.00    -0.744 OA
ENDBRANCH  76  79
ENDBRANCH  48  72
BRANCH  60  83
ATOM     83  C   UNL A   1      44.815  34.092  29.535  1.00  0.00     0.023 A 
ATOM     84  C   UNL A   1      45.507  34.454  30.708  1.00  0.00     0.012 A 
ATOM     85  C   UNL A   1      44.745  35.001  28.462  1.00  0.00     0.148 A 
ATOM     86  C   UNL A   1      46.103  35.709  30.820  1.00  0.00     0.002 A 
ATOM     87  C   UNL A   1      45.378  36.234  28.564  1.00  0.00     0.091 A 
ATOM     88  F   UNL A   1      44.069  34.640  27.361  1.00  0.00    -0.205 F 
ATOM     89  C   UNL A   1      46.048  36.592  29.747  1.00  0.00     0.022 A 
BRANCH  87  90
ATOM     90  S   UNL A   1      45.439  37.405  27.204  1.00  0.00     0.127 S 
ATOM     91  O   UNL A   1      46.107  36.621  26.166  1.00  0.00    -0.237 OA
ATOM     92  O   UNL A   1      44.022  37.665  26.954  1.00  0.00    -0.237 OA
ATOM     93  O   UNL A   1      46.187  38.554  27.696  1.00  0.00    -0.744 OA
ENDBRANCH  87  90
ENDBRANCH  60  83
ENDBRANCH  34  35
ENDBRANCH  27  29
ENDBRANCH  26  27
ENDBRANCH  25  26
ENDBRANCH   1  25
TORSDOF 19
ENDMDL
MODEL 3
REMARK VINA RESULT:     -11.3      5.149      8.324
REMARK SMILES CCCC[C@H](C(=O)OCCOC(=O)c1ccc(-c2c3nc(c(-c4cccc(S(=O)(=O)[O-])c4F)c4ccc([nH]4)c(-c4cccc(S(=O)(=O)[O-])c4F)c4nc(c(-c5cccc(S(=O)(=O)[O-])c5F)c5ccc2[nH]5)C=C4)C=C3)cc1)N1C(=O)/C(=C/c2ccc(C)cc2)SC1=S
REMARK SMILES IDX 9 1 8 2 6 3 7 4 5 5 4 6 3 7 2 8 1 9 77 10 78 11 90 12 79 13
REMARK SMILES IDX 80 14 89 15 91 16 81 17 82 18 83 19 88 20 84 21 87 22 85 23
REMARK SMILES IDX 86 24 10 25 11 26 12 27 13 28 14 29 15 30 76 31 16 32 75 33
REMARK SMILES IDX 17 34 18 35 19 36 69 37 20 38 74 39 68 40 70 41 21 42 73 43
REMARK SMILES IDX 67 44 66 45 22 47 54 48 34 49 53 50 35 51 38 52 52 53 71 54
REMARK SMILES IDX 36 55 37 56 51 58 72 59 39 60 23 61 24 62 32 63 25 64 27 65
REMARK SMILES IDX 33 66 26 67 28 68 29 69 30 70 31 71 55 72 56 73 64 74 57 75
REMARK SMILES IDX 59 76 65 77 58 78 60 79 61 80 62 81 63 82 40 83 41 84 49 85
REMARK SMILES IDX 42 86 44 87 50 88 43 89 45 90 46 91 47 92 48 93
REMARK H PARENT 70 46 38 57
REMARK Flexibility Score: inf
ROOT
ATOM      1  C   UNL A   1      36.239  20.574  25.031  1.00  0.00     0.274 C 
ENDROOT
BRANCH   1   2
ATOM      2  O   UNL A   1      35.847  21.539  26.032  1.00  0.00    -0.461 OA
BRANCH   2   3
ATOM      3  C   UNL A   1      34.528  21.515  26.391  1.00  0.00     0.329 C 
ATOM      4  O   UNL A   1      34.137  21.661  27.538  1.00  0.00    -0.250 OA
BRANCH   3   5
ATOM      5  C   UNL A   1      33.612  21.355  25.160  1.00  0.00     0.202 C 
BRANCH   5   6
ATOM      6  C   UNL A   1      32.744  20.078  25.057  1.00  0.00     0.038 C 
BRANCH   6   7
ATOM      7  C   UNL A   1      32.530  19.399  23.699  1.00  0.00     0.002 C 
BRANCH   7   8
ATOM      8  C   UNL A   1      33.077  17.984  23.551  1.00  0.00    -0.003 C 
ATOM      9  C   UNL A   1      32.811  17.105  24.767  1.00  0.00     0.004 C 
ENDBRANCH   7   8
ENDBRANCH   6   7
ENDBRANCH   5   6
BRANCH   5  10
ATOM     10  N   UNL A   1      32.854  22.577  24.735  1.00  0.00    -0.278 N 
ATOM     11  C   UNL A   1      33.416  23.413  23.765  1.00  0.00     0.266 C 
ATOM     12  C   UNL A   1      31.592  22.961  25.152  1.00  0.00     0.149 C 
ATOM     13  O   UNL A   1      34.501  23.272  23.221  1.00  0.00    -0.268 OA
ATOM     14  C   UNL A   1      32.513  24.570  23.514  1.00  0.00     0.081 C 
ATOM     15  S   UNL A   1      30.935  24.128  24.020  1.00  0.00    -0.054 SA
ATOM     16  S   UNL A   1      30.704  22.564  26.497  1.00  0.00    -0.052 S 
ATOM     17  C   UNL A   1      32.929  25.793  23.150  1.00  0.00     0.029 C 
BRANCH  17  18
ATOM     18  C   UNL A   1      32.085  26.999  23.240  1.00  0.00    -0.024 A 
ATOM     19  C   UNL A   1      31.177  27.323  22.232  1.00  0.00     0.008 A 
ATOM     20  C   UNL A   1      32.197  27.858  24.345  1.00  0.00     0.008 A 
ATOM     21  C   UNL A   1      30.349  28.447  22.366  1.00  0.00     0.004 A 
ATOM     22  C   UNL A   1      31.358  28.962  24.490  1.00  0.00     0.004 A 
ATOM     23  C   UNL A   1      30.422  29.263  23.503  1.00  0.00    -0.051 A 
ATOM     24  C   UNL A   1      29.504  30.437  23.661  1.00  0.00     0.044 C 
ENDBRANCH  17  18
ENDBRANCH   5  10
ENDBRANCH   3   5
ENDBRANCH   2   3
ENDBRANCH   1   2
BRANCH   1  25
ATOM     25  C   UNL A   1      37.752  20.343  24.980  1.00  0.00     0.275 C 
BRANCH  25  26
ATOM     26  O   UNL A   1      38.482  21.498  25.427  1.00  0.00    -0.458 OA
BRANCH  26  27
ATOM     27  C   UNL A   1      39.454  21.256  26.332  1.00  0.00     0.338 C 
ATOM     28  O   UNL A   1      39.968  20.174  26.597  1.00  0.00    -0.246 OA
BRANCH  27  29
ATOM     29  C   UNL A   1      39.964  22.535  26.840  1.00  0.00     0.060 A 
ATOM     30  C   UNL A   1      39.414  23.691  26.296  1.00  0.00     0.016 A 
ATOM     31  C   UNL A   1      40.991  22.619  27.777  1.00  0.00     0.016 A 
ATOM     32  C   UNL A   1      39.862  24.941  26.691  1.00  0.00     0.010 A 
ATOM     33  C   UNL A   1      41.450  23.883  28.174  1.00  0.00     0.010 A 
ATOM     34  C   UNL A   1      40.889  25.052  27.629  1.00  0.00    -0.014 A 
BRANCH  34  35
ATOM     35  C   UNL A   1      41.393  26.404  27.967  1.00  0.00     0.031 A 
ATOM     36  C   UNL A   1      42.768  26.813  27.529  1.00  0.00     0.074 A 
ATOM     37  C   UNL A   1      40.594  27.281  28.605  1.00  0.00     0.049 A 
ATOM     38  N   UNL A   1      43.432  27.902  27.808  1.00  0.00    -0.248 NA
ATOM     39  C   UNL A   1      43.494  25.868  26.663  1.00  0.00     0.031 C 
ATOM     40  C   UNL A   1      39.212  27.019  29.006  1.00  0.00     0.029 A 
ATOM     41  N   UNL A   1      40.822  28.571  29.014  1.00  0.00    -0.354 N 
ATOM     42  C   UNL A   1      44.684  27.738  27.231  1.00  0.00     0.074 A 
ATOM     43  C   UNL A   1      44.672  26.466  26.543  1.00  0.00     0.031 C 
ATOM     44  C   UNL A   1      38.704  28.125  29.575  1.00  0.00     0.029 A 
ATOM     45  C   UNL A   1      39.744  29.147  29.646  1.00  0.00     0.049 A 
ATOM     46  H   UNL A   1      41.675  29.039  28.869  1.00  0.00     0.167 HD
ATOM     47  C   UNL A   1      45.750  28.570  27.290  1.00  0.00     0.034 A 
ATOM     48  C   UNL A   1      39.619  30.355  30.234  1.00  0.00     0.034 A 
ATOM     49  C   UNL A   1      45.728  29.859  27.926  1.00  0.00     0.049 A 
ATOM     50  C   UNL A   1      40.819  31.267  30.265  1.00  0.00     0.074 A 
ATOM     51  C   UNL A   1      46.758  30.775  28.046  1.00  0.00     0.029 A 
ATOM     52  N   UNL A   1      44.619  30.418  28.541  1.00  0.00    -0.354 N 
ATOM     53  N   UNL A   1      41.993  31.111  29.701  1.00  0.00    -0.248 NA
ATOM     54  C   UNL A   1      40.682  32.518  31.027  1.00  0.00     0.031 C 
ATOM     55  C   UNL A   1      46.274  31.882  28.753  1.00  0.00     0.029 A 
ATOM     56  C   UNL A   1      44.940  31.660  29.058  1.00  0.00     0.049 A 
ATOM     57  H   UNL A   1      43.732  29.994  28.601  1.00  0.00     0.167 HD
ATOM     58  C   UNL A   1      42.736  32.234  30.047  1.00  0.00     0.074 A 
ATOM     59  C   UNL A   1      41.861  33.090  30.822  1.00  0.00     0.031 C 
ATOM     60  C   UNL A   1      44.038  32.513  29.789  1.00  0.00     0.034 A 
BRANCH  47  61
ATOM     61  C   UNL A   1      47.040  28.096  26.680  1.00  0.00     0.023 A 
ATOM     62  C   UNL A   1      48.083  27.625  27.500  1.00  0.00     0.012 A 
ATOM     63  C   UNL A   1      47.196  28.080  25.280  1.00  0.00     0.148 A 
ATOM     64  C   UNL A   1      49.271  27.162  26.934  1.00  0.00     0.002 A 
ATOM     65  C   UNL A   1      48.367  27.583  24.722  1.00  0.00     0.091 A 
ATOM     66  F   UNL A   1      46.201  28.562  24.520  1.00  0.00    -0.205 F 
ATOM     67  C   UNL A   1      49.408  27.131  25.547  1.00  0.00     0.022 A 
BRANCH  65  68
ATOM     68  S   UNL A   1      48.606  27.444  22.947  1.00  0.00     0.127 S 
ATOM     69  O   UNL A   1      48.429  26.008  22.737  1.00  0.00    -0.237 OA
ATOM     70  O   UNL A   1      47.521  28.274  22.424  1.00  0.00    -0.237 OA
ATOM     71  O   UNL A   1      49.942  27.957  22.682  1.00  0.00    -0.744 OA
ENDBRANCH  65  68
ENDBRANCH  47  61
BRANCH  48  72
ATOM     72  C   UNL A   1      38.315  30.773  30.829  1.00  0.00     0.023 A 
ATOM     73  C   UNL A   1      38.063  30.519  32.191  1.00  0.00     0.012 A 
ATOM     74  C   UNL A   1      37.338  31.452  30.075  1.00  0.00     0.148 A 
ATOM     75  C   UNL A   1      36.869  30.927  32.788  1.00  0.00     0.002 A 
ATOM     76  C   UNL A   1      36.179  31.914  30.691  1.00  0.00     0.091 A 
ATOM     77  F   UNL A   1      37.561  31.646  28.767  1.00  0.00    -0.205 F 
ATOM     78  C   UNL A   1      35.935  31.641  32.044  1.00  0.00     0.022 A 
BRANCH  76  79
ATOM     79  S   UNL A   1      35.011  32.971  29.826  1.00  0.00     0.127 S 
ATOM     80  O   UNL A   1      35.886  34.003  29.279  1.00  0.00    -0.237 OA
ATOM     81  O   UNL A   1      34.441  32.058  28.834  1.00  0.00    -0.237 OA
ATOM     82  O   UNL A   1      34.064  33.404  30.846  1.00  0.00    -0.744 OA
ENDBRANCH  76  79
ENDBRANCH  48  72
BRANCH  60  83
ATOM     83  C   UNL A   1      44.606  33.781  30.370  1.00  0.00     0.023 A 
ATOM     84  C   UNL A   1      45.292  33.723  31.600  1.00  0.00     0.012 A 
ATOM     85  C   UNL A   1      44.549  34.997  29.663  1.00  0.00     0.148 A 
ATOM     86  C   UNL A   1      45.895  34.862  32.129  1.00  0.00     0.002 A 
ATOM     87  C   UNL A   1      45.190  36.120  30.177  1.00  0.00     0.091 A 
ATOM     88  F   UNL A   1      43.879  35.032  28.502  1.00  0.00    -0.205 F 
ATOM     89  C   UNL A   1      45.854  36.055  31.413  1.00  0.00     0.022 A 
BRANCH  87  90
ATOM     90  S   UNL A   1      45.268  37.679  29.288  1.00  0.00     0.127 S 
ATOM     91  O   UNL A   1      46.091  38.491  30.182  1.00  0.00    -0.237 OA
ATOM     92  O   UNL A   1      45.923  37.291  28.039  1.00  0.00    -0.237 OA
ATOM     93  O   UNL A   1      43.889  38.123  29.135  1.00  0.00    -0.744 OA
ENDBRANCH  87  90
ENDBRANCH  60  83
ENDBRANCH  34  35
ENDBRANCH  27  29
ENDBRANCH  26  27
ENDBRANCH  25  26
ENDBRANCH   1  25
TORSDOF 19
ENDMDL
