MODEL 1
REMARK VINA RESULT:     -10.6      0.000      0.000
REMARK SMILES O=C(OCCOC(=O)[C@H]1Sc2[nH]c(=O)sc2[C@H]2c3cc(Br)cc(Br)c3OC(=O)[C@H]21)c1ccc(-c2c3nc(c(-c4cccc(S(=O)(=O)[O-])c4F)c4ccc([nH]4)c(-c4cccc(S(=O)(=O)[O-])c4F)c4nc(c(-c5cccc(S(=O)(=O)[O-])c5F)c5ccc2[nH]5)C=C4)C=C3)cc1
REMARK SMILES IDX 3 1 2 2 1 3 30 4 31 5 92 6 32 7 91 8 33 9 34 10 35 11 85 12
REMARK SMILES IDX 36 13 90 14 84 15 86 16 37 17 89 18 83 19 82 20 38 22 70 23
REMARK SMILES IDX 50 24 69 25 51 26 54 27 68 28 87 29 52 30 53 31 67 33 88 34
REMARK SMILES IDX 55 35 39 36 40 37 48 38 41 39 43 40 49 41 42 42 44 43 45 44
REMARK SMILES IDX 46 45 47 46 71 47 72 48 80 49 73 50 75 51 81 52 74 53 76 54
REMARK SMILES IDX 77 55 78 56 79 57 56 58 57 59 65 60 58 61 60 62 66 63 59 64
REMARK SMILES IDX 61 65 62 66 63 67 64 68 4 69 5 70 6 71 7 72 8 73 9 74 10 75
REMARK SMILES IDX 29 76 11 77 17 78 27 79 12 80 16 81 18 82 26 83 28 84 13 85
REMARK SMILES IDX 15 87 19 88 25 89 14 90 20 91 23 92 21 93 22 94 24 95
REMARK H PARENT 86 21 54 32 12 86
REMARK Flexibility Score: inf
ROOT
ATOM      1  O   UNL A   1      34.767  32.215  31.074  1.00  0.00    -0.458 OA
ENDROOT
BRANCH   1   2
ATOM      2  C   UNL A   1      35.245  32.043  29.824  1.00  0.00     0.338 C 
ATOM      3  O   UNL A   1      34.847  32.781  28.923  1.00  0.00    -0.246 OA
BRANCH   2   4
ATOM      4  C   UNL A   1      36.330  31.075  29.496  1.00  0.00     0.060 A 
ATOM      5  C   UNL A   1      36.269  29.708  29.773  1.00  0.00     0.016 A 
ATOM      6  C   UNL A   1      37.555  31.642  29.088  1.00  0.00     0.016 A 
ATOM      7  C   UNL A   1      37.436  28.954  29.778  1.00  0.00     0.010 A 
ATOM      8  C   UNL A   1      38.724  30.900  29.116  1.00  0.00     0.010 A 
ATOM      9  C   UNL A   1      38.663  29.580  29.546  1.00  0.00    -0.014 A 
BRANCH   9  10
ATOM     10  C   UNL A   1      39.879  28.828  29.811  1.00  0.00     0.031 A 
ATOM     11  C   UNL A   1      40.329  28.859  31.222  1.00  0.00     0.074 A 
ATOM     12  C   UNL A   1      40.517  28.133  28.847  1.00  0.00     0.049 A 
ATOM     13  N   UNL A   1      41.330  29.512  31.713  1.00  0.00    -0.248 NA
ATOM     14  C   UNL A   1      39.476  28.224  32.233  1.00  0.00     0.031 C 
ATOM     15  C   UNL A   1      40.047  27.816  27.493  1.00  0.00     0.029 A 
ATOM     16  N   UNL A   1      41.698  27.460  28.918  1.00  0.00    -0.354 N 
ATOM     17  C   UNL A   1      41.379  29.171  33.064  1.00  0.00     0.074 A 
ATOM     18  C   UNL A   1      40.113  28.556  33.358  1.00  0.00     0.031 C 
ATOM     19  C   UNL A   1      40.806  26.822  26.976  1.00  0.00     0.029 A 
ATOM     20  C   UNL A   1      41.902  26.546  27.886  1.00  0.00     0.049 A 
ATOM     21  H   UNL A   1      42.354  27.606  29.637  1.00  0.00     0.167 HD
ATOM     22  C   UNL A   1      42.553  29.207  33.755  1.00  0.00     0.034 A 
ATOM     23  C   UNL A   1      42.873  25.598  27.830  1.00  0.00     0.034 A 
ATOM     24  C   UNL A   1      43.555  29.948  33.024  1.00  0.00     0.049 A 
ATOM     25  C   UNL A   1      43.959  26.042  28.733  1.00  0.00     0.074 A 
ATOM     26  C   UNL A   1      43.693  31.247  32.580  1.00  0.00     0.029 A 
ATOM     27  N   UNL A   1      44.477  29.208  32.326  1.00  0.00    -0.354 N 
ATOM     28  N   UNL A   1      44.685  27.102  28.512  1.00  0.00    -0.248 NA
ATOM     29  C   UNL A   1      43.944  25.562  30.104  1.00  0.00     0.031 C 
ATOM     30  C   UNL A   1      44.352  31.134  31.320  1.00  0.00     0.029 A 
ATOM     31  C   UNL A   1      44.637  29.785  31.098  1.00  0.00     0.049 A 
ATOM     32  H   UNL A   1      44.941  28.403  32.652  1.00  0.00     0.167 HD
ATOM     33  C   UNL A   1      44.821  27.686  29.763  1.00  0.00     0.074 A 
ATOM     34  C   UNL A   1      44.443  26.641  30.713  1.00  0.00     0.031 C 
ATOM     35  C   UNL A   1      44.942  29.040  29.895  1.00  0.00     0.034 A 
BRANCH  22  36
ATOM     36  C   UNL A   1      42.960  28.267  34.876  1.00  0.00     0.023 A 
ATOM     37  C   UNL A   1      43.445  28.869  36.063  1.00  0.00     0.012 A 
ATOM     38  C   UNL A   1      43.176  26.877  34.743  1.00  0.00     0.148 A 
ATOM     39  C   UNL A   1      44.196  28.157  37.005  1.00  0.00     0.002 A 
ATOM     40  C   UNL A   1      43.868  26.158  35.712  1.00  0.00     0.091 A 
ATOM     41  F   UNL A   1      42.814  26.243  33.627  1.00  0.00    -0.205 F 
ATOM     42  C   UNL A   1      44.414  26.800  36.826  1.00  0.00     0.022 A 
BRANCH  40  43
ATOM     43  S   UNL A   1      44.146  24.387  35.561  1.00  0.00     0.127 S 
ATOM     44  O   UNL A   1      45.133  24.340  34.485  1.00  0.00    -0.237 OA
ATOM     45  O   UNL A   1      44.659  24.053  36.890  1.00  0.00    -0.237 OA
ATOM     46  O   UNL A   1      42.844  23.806  35.258  1.00  0.00    -0.744 OA
ENDBRANCH  40  43
ENDBRANCH  22  36
BRANCH  23  47
ATOM     47  C   UNL A   1      42.808  24.201  27.333  1.00  0.00     0.023 A 
ATOM     48  C   UNL A   1      41.586  23.498  27.382  1.00  0.00     0.012 A 
ATOM     49  C   UNL A   1      43.841  23.681  26.520  1.00  0.00     0.148 A 
ATOM     50  C   UNL A   1      41.381  22.346  26.611  1.00  0.00     0.002 A 
ATOM     51  C   UNL A   1      43.630  22.540  25.751  1.00  0.00     0.091 A 
ATOM     52  F   UNL A   1      44.990  24.361  26.429  1.00  0.00    -0.205 F 
ATOM     53  C   UNL A   1      42.397  21.875  25.785  1.00  0.00     0.022 A 
BRANCH  51  54
ATOM     54  S   UNL A   1      44.870  21.908  24.610  1.00  0.00     0.127 S 
ATOM     55  O   UNL A   1      46.030  21.746  25.486  1.00  0.00    -0.237 OA
ATOM     56  O   UNL A   1      44.258  20.658  24.165  1.00  0.00    -0.237 OA
ATOM     57  O   UNL A   1      45.026  22.931  23.583  1.00  0.00    -0.744 OA
ENDBRANCH  51  54
ENDBRANCH  23  47
BRANCH  35  58
ATOM     58  C   UNL A   1      45.159  29.864  28.650  1.00  0.00     0.023 A 
ATOM     59  C   UNL A   1      44.090  30.390  27.894  1.00  0.00     0.012 A 
ATOM     60  C   UNL A   1      46.467  30.288  28.361  1.00  0.00     0.148 A 
ATOM     61  C   UNL A   1      44.322  31.312  26.869  1.00  0.00     0.002 A 
ATOM     62  C   UNL A   1      46.688  31.245  27.379  1.00  0.00     0.091 A 
ATOM     63  F   UNL A   1      47.471  29.778  29.089  1.00  0.00    -0.205 F 
ATOM     64  C   UNL A   1      45.620  31.754  26.624  1.00  0.00     0.022 A 
BRANCH  62  65
ATOM     65  S   UNL A   1      48.312  31.963  27.122  1.00  0.00     0.127 S 
ATOM     66  O   UNL A   1      49.076  30.822  26.623  1.00  0.00    -0.237 OA
ATOM     67  O   UNL A   1      48.039  33.001  26.125  1.00  0.00    -0.237 OA
ATOM     68  O   UNL A   1      48.732  32.481  28.418  1.00  0.00    -0.744 OA
ENDBRANCH  62  65
ENDBRANCH  35  58
ENDBRANCH   9  10
ENDBRANCH   2   4
ENDBRANCH   1   2
BRANCH   1  69
ATOM     69  C   UNL A   1      34.401  33.419  31.777  1.00  0.00     0.275 C 
BRANCH  69  70
ATOM     70  C   UNL A   1      34.509  33.327  33.296  1.00  0.00     0.274 C 
BRANCH  70  71
ATOM     71  O   UNL A   1      35.825  32.987  33.757  1.00  0.00    -0.461 OA
BRANCH  71  72
ATOM     72  C   UNL A   1      36.828  33.847  33.443  1.00  0.00     0.320 C 
ATOM     73  O   UNL A   1      36.975  34.950  33.953  1.00  0.00    -0.251 OA
BRANCH  72  74
ATOM     74  C   UNL A   1      37.795  33.318  32.388  1.00  0.00     0.178 C 
ATOM     75  S   UNL A   1      37.987  34.550  31.035  1.00  0.00    -0.091 SA
ATOM     76  C   UNL A   1      39.020  32.551  32.948  1.00  0.00     0.137 C 
ATOM     77  C   UNL A   1      39.576  34.345  30.515  1.00  0.00     0.091 A 
ATOM     78  C   UNL A   1      40.444  32.936  32.430  1.00  0.00     0.082 C 
ATOM     79  C   UNL A   1      39.129  32.461  34.489  1.00  0.00     0.317 C 
ATOM     80  N   UNL A   1      40.001  35.045  29.428  1.00  0.00    -0.307 N 
ATOM     81  C   UNL A   1      40.536  33.653  31.128  1.00  0.00     0.049 A 
ATOM     82  C   UNL A   1      41.191  33.616  33.580  1.00  0.00     0.007 A 
ATOM     83  O   UNL A   1      40.299  31.816  34.839  1.00  0.00    -0.425 OA
ATOM     84  O   UNL A   1      38.447  33.032  35.328  1.00  0.00    -0.251 OA
ATOM     85  C   UNL A   1      41.335  34.953  29.122  1.00  0.00     0.305 A 
ATOM     86  H   UNL A   1      39.383  35.590  28.889  1.00  0.00     0.171 HD
ATOM     87  S   UNL A   1      42.046  33.774  30.234  1.00  0.00    -0.078 S 
ATOM     88  C   UNL A   1      41.752  34.893  33.571  1.00  0.00     0.024 A 
ATOM     89  C   UNL A   1      41.130  32.925  34.808  1.00  0.00     0.148 A 
ATOM     90  O   UNL A   1      41.957  35.595  28.301  1.00  0.00    -0.257 OA
ATOM     91  C   UNL A   1      42.251  35.437  34.759  1.00  0.00     0.019 A 
ATOM     92  C   UNL A   1      41.677  33.441  35.982  1.00  0.00     0.062 A 
ATOM     93  Br  UNL A   1      42.887  37.218  34.760  1.00  0.00    -0.051 Br
ATOM     94  C   UNL A   1      42.234  34.715  35.956  1.00  0.00     0.035 A 
ATOM     95  Br  UNL A   1      41.553  32.513  37.626  1.00  0.00    -0.047 Br
ENDBRANCH  72  74
ENDBRANCH  71  72
ENDBRANCH  70  71
ENDBRANCH  69  70
ENDBRANCH   1  69
TORSDOF 14
ENDMDL
MODEL 2
REMARK VINA RESULT:     -10.4      3.588     10.843
REMARK SMILES O=C(OCCOC(=O)[C@H]1Sc2[nH]c(=O)sc2[C@H]2c3cc(Br)cc(Br)c3OC(=O)[C@H]21)c1ccc(-c2c3nc(c(-c4cccc(S(=O)(=O)[O-])c4F)c4ccc([nH]4)c(-c4cccc(S(=O)(=O)[O-])c4F)c4nc(c(-c5cccc(S(=O)(=O)[O-])c5F)c5ccc2[nH]5)C=C4)C=C3)cc1
REMARK SMILES IDX 3 1 2 2 1 3 30 4 31 5 92 6 32 7 91 8 33 9 34 10 35 11 85 12
REMARK SMILES IDX 36 13 90 14 84 15 86 16 37 17 89 18 83 19 82 20 38 22 70 23
REMARK SMILES IDX 50 24 69 25 51 26 54 27 68 28 87 29 52 30 53 31 67 33 88 34
REMARK SMILES IDX 55 35 39 36 40 37 48 38 41 39 43 40 49 41 42 42 44 43 45 44
REMARK SMILES IDX 46 45 47 46 71 47 72 48 80 49 73 50 75 51 81 52 74 53 76 54
REMARK SMILES IDX 77 55 78 56 79 57 56 58 57 59 65 60 58 61 60 62 66 63 59 64
REMARK SMILES IDX 61 65 62 66 63 67 64 68 4 69 5 70 6 71 7 72 8 73 9 74 10 75
REMARK SMILES IDX 29 76 11 77 17 78 27 79 12 80 16 81 18 82 26 83 28 84 13 85
REMARK SMILES IDX 15 87 19 88 25 89 14 90 20 91 23 92 21 93 22 94 24 95
REMARK H PARENT 86 21 54 32 12 86
REMARK Flexibility Score: inf
ROOT
ATOM      1  O   UNL A   1      39.230  22.166  26.243  1.00  0.00    -0.458 OA
ENDROOT
BRANCH   1   2
ATOM      2  C   UNL A   1      38.737  23.416  26.369  1.00  0.00     0.338 C 
ATOM      3  O   UNL A   1      37.567  23.634  26.059  1.00  0.00    -0.246 OA
BRANCH   2   4
ATOM      4  C   UNL A   1      39.508  24.532  26.986  1.00  0.00     0.060 A 
ATOM      5  C   UNL A   1      39.518  24.816  28.353  1.00  0.00     0.016 A 
ATOM      6  C   UNL A   1      40.068  25.463  26.085  1.00  0.00     0.016 A 
ATOM      7  C   UNL A   1      39.948  26.060  28.795  1.00  0.00     0.010 A 
ATOM      8  C   UNL A   1      40.474  26.714  26.520  1.00  0.00     0.010 A 
ATOM      9  C   UNL A   1      40.328  27.030  27.864  1.00  0.00    -0.014 A 
BRANCH   9  10
ATOM     10  C   UNL A   1      40.522  28.393  28.333  1.00  0.00     0.031 A 
ATOM     11  C   UNL A   1      41.741  29.057  27.815  1.00  0.00     0.074 A 
ATOM     12  C   UNL A   1      39.637  29.004  29.148  1.00  0.00     0.049 A 
ATOM     13  N   UNL A   1      42.833  29.308  28.458  1.00  0.00    -0.248 NA
ATOM     14  C   UNL A   1      41.820  29.328  26.374  1.00  0.00     0.031 C 
ATOM     15  C   UNL A   1      38.290  28.558  29.523  1.00  0.00     0.029 A 
ATOM     16  N   UNL A   1      39.721  30.229  29.736  1.00  0.00    -0.354 N 
ATOM     17  C   UNL A   1      43.651  29.995  27.562  1.00  0.00     0.074 A 
ATOM     18  C   UNL A   1      43.066  29.793  26.264  1.00  0.00     0.031 C 
ATOM     19  C   UNL A   1      37.606  29.598  30.055  1.00  0.00     0.029 A 
ATOM     20  C   UNL A   1      38.507  30.726  30.205  1.00  0.00     0.049 A 
ATOM     21  H   UNL A   1      40.569  30.722  29.823  1.00  0.00     0.167 HD
ATOM     22  C   UNL A   1      44.597  30.870  28.005  1.00  0.00     0.034 A 
ATOM     23  C   UNL A   1      38.264  31.993  30.627  1.00  0.00     0.034 A 
ATOM     24  C   UNL A   1      44.839  30.692  29.418  1.00  0.00     0.049 A 
ATOM     25  C   UNL A   1      39.571  32.574  31.013  1.00  0.00     0.074 A 
ATOM     26  C   UNL A   1      45.306  29.670  30.218  1.00  0.00     0.029 A 
ATOM     27  N   UNL A   1      44.224  31.584  30.263  1.00  0.00    -0.354 N 
ATOM     28  N   UNL A   1      40.274  32.146  32.024  1.00  0.00    -0.248 NA
ATOM     29  C   UNL A   1      40.301  33.333  30.012  1.00  0.00     0.031 C 
ATOM     30  C   UNL A   1      44.545  29.769  31.420  1.00  0.00     0.029 A 
ATOM     31  C   UNL A   1      43.706  30.881  31.313  1.00  0.00     0.049 A 
ATOM     32  H   UNL A   1      44.167  32.559  30.134  1.00  0.00     0.167 HD
ATOM     33  C   UNL A   1      41.581  32.162  31.559  1.00  0.00     0.074 A 
ATOM     34  C   UNL A   1      41.548  33.003  30.362  1.00  0.00     0.031 C 
ATOM     35  C   UNL A   1      42.499  31.260  32.015  1.00  0.00     0.034 A 
BRANCH  22  36
ATOM     36  C   UNL A   1      45.028  32.149  27.309  1.00  0.00     0.023 A 
ATOM     37  C   UNL A   1      46.354  32.184  26.812  1.00  0.00     0.012 A 
ATOM     38  C   UNL A   1      44.347  33.385  27.370  1.00  0.00     0.148 A 
ATOM     39  C   UNL A   1      47.001  33.385  26.503  1.00  0.00     0.002 A 
ATOM     40  C   UNL A   1      44.972  34.572  27.000  1.00  0.00     0.091 A 
ATOM     41  F   UNL A   1      43.121  33.455  27.889  1.00  0.00    -0.205 F 
ATOM     42  C   UNL A   1      46.311  34.583  26.604  1.00  0.00     0.022 A 
BRANCH  40  43
ATOM     43  S   UNL A   1      44.118  36.155  27.067  1.00  0.00     0.127 S 
ATOM     44  O   UNL A   1      43.023  35.932  26.126  1.00  0.00    -0.237 OA
ATOM     45  O   UNL A   1      43.724  36.219  28.474  1.00  0.00    -0.237 OA
ATOM     46  O   UNL A   1      45.104  37.153  26.675  1.00  0.00    -0.744 OA
ENDBRANCH  40  43
ENDBRANCH  22  36
BRANCH  23  47
ATOM     47  C   UNL A   1      37.072  32.852  30.417  1.00  0.00     0.023 A 
ATOM     48  C   UNL A   1      36.402  32.825  29.176  1.00  0.00     0.012 A 
ATOM     49  C   UNL A   1      36.406  33.435  31.519  1.00  0.00     0.148 A 
ATOM     50  C   UNL A   1      35.096  33.317  29.048  1.00  0.00     0.002 A 
ATOM     51  C   UNL A   1      35.106  33.916  31.388  1.00  0.00     0.091 A 
ATOM     52  F   UNL A   1      37.013  33.427  32.713  1.00  0.00    -0.205 F 
ATOM     53  C   UNL A   1      34.443  33.848  30.156  1.00  0.00     0.022 A 
BRANCH  51  54
ATOM     54  S   UNL A   1      34.173  34.555  32.787  1.00  0.00     0.127 S 
ATOM     55  O   UNL A   1      32.934  34.996  32.145  1.00  0.00    -0.237 OA
ATOM     56  O   UNL A   1      34.039  33.368  33.626  1.00  0.00    -0.237 OA
ATOM     57  O   UNL A   1      34.979  35.632  33.346  1.00  0.00    -0.744 OA
ENDBRANCH  51  54
ENDBRANCH  23  47
BRANCH  35  58
ATOM     58  C   UNL A   1      42.130  30.402  33.200  1.00  0.00     0.023 A 
ATOM     59  C   UNL A   1      41.375  29.217  33.069  1.00  0.00     0.012 A 
ATOM     60  C   UNL A   1      42.738  30.687  34.434  1.00  0.00     0.148 A 
ATOM     61  C   UNL A   1      41.223  28.341  34.149  1.00  0.00     0.002 A 
ATOM     62  C   UNL A   1      42.630  29.788  35.487  1.00  0.00     0.091 A 
ATOM     63  F   UNL A   1      43.453  31.817  34.540  1.00  0.00    -0.205 F 
ATOM     64  C   UNL A   1      41.866  28.618  35.353  1.00  0.00     0.022 A 
BRANCH  62  65
ATOM     65  S   UNL A   1      43.558  30.012  37.006  1.00  0.00     0.127 S 
ATOM     66  O   UNL A   1      42.654  30.844  37.797  1.00  0.00    -0.237 OA
ATOM     67  O   UNL A   1      43.704  28.637  37.488  1.00  0.00    -0.237 OA
ATOM     68  O   UNL A   1      44.814  30.642  36.621  1.00  0.00    -0.744 OA
ENDBRANCH  62  65
ENDBRANCH  35  58
ENDBRANCH   9  10
ENDBRANCH   2   4
ENDBRANCH   1   2
BRANCH   1  69
ATOM     69  C   UNL A   1      40.364  21.540  26.875  1.00  0.00     0.275 C 
BRANCH  69  70
ATOM     70  C   UNL A   1      41.544  21.273  25.946  1.00  0.00     0.274 C 
BRANCH  70  71
ATOM     71  O   UNL A   1      42.291  22.453  25.616  1.00  0.00    -0.461 OA
BRANCH  71  72
ATOM     72  C   UNL A   1      43.373  22.732  26.386  1.00  0.00     0.320 C 
ATOM     73  O   UNL A   1      44.507  22.334  26.151  1.00  0.00    -0.251 OA
BRANCH  72  74
ATOM     74  C   UNL A   1      43.070  23.615  27.593  1.00  0.00     0.178 C 
ATOM     75  S   UNL A   1      43.487  22.723  29.147  1.00  0.00    -0.091 SA
ATOM     76  C   UNL A   1      43.426  25.113  27.414  1.00  0.00     0.137 C 
ATOM     77  C   UNL A   1      43.985  23.941  30.199  1.00  0.00     0.091 A 
ATOM     78  C   UNL A   1      44.260  25.823  28.530  1.00  0.00     0.082 C 
ATOM     79  C   UNL A   1      44.077  25.509  26.067  1.00  0.00     0.317 C 
ATOM     80  N   UNL A   1      44.258  23.613  31.492  1.00  0.00    -0.307 N 
ATOM     81  C   UNL A   1      44.272  25.203  29.884  1.00  0.00     0.049 A 
ATOM     82  C   UNL A   1      45.649  26.118  27.957  1.00  0.00     0.007 A 
ATOM     83  O   UNL A   1      44.400  26.852  26.080  1.00  0.00    -0.425 OA
ATOM     84  O   UNL A   1      44.474  24.772  25.176  1.00  0.00    -0.251 OA
ATOM     85  C   UNL A   1      44.790  24.604  32.277  1.00  0.00     0.305 A 
ATOM     86  H   UNL A   1      44.083  22.710  31.845  1.00  0.00     0.171 HD
ATOM     87  S   UNL A   1      44.802  26.086  31.309  1.00  0.00    -0.078 S 
ATOM     88  C   UNL A   1      46.872  25.692  28.475  1.00  0.00     0.024 A 
ATOM     89  C   UNL A   1      45.641  26.731  26.687  1.00  0.00     0.148 A 
ATOM     90  O   UNL A   1      45.242  24.504  33.398  1.00  0.00    -0.257 OA
ATOM     91  C   UNL A   1      48.043  25.900  27.739  1.00  0.00     0.019 A 
ATOM     92  C   UNL A   1      46.812  26.991  25.978  1.00  0.00     0.062 A 
ATOM     93  Br  UNL A   1      49.675  25.200  28.391  1.00  0.00    -0.051 Br
ATOM     94  C   UNL A   1      48.024  26.561  26.508  1.00  0.00     0.035 A 
ATOM     95  Br  UNL A   1      46.777  27.782  24.260  1.00  0.00    -0.047 Br
ENDBRANCH  72  74
ENDBRANCH  71  72
ENDBRANCH  70  71
ENDBRANCH  69  70
ENDBRANCH   1  69
TORSDOF 14
ENDMDL
MODEL 3
REMARK VINA RESULT:     -10.3      1.836      2.330
REMARK SMILES O=C(OCCOC(=O)[C@H]1Sc2[nH]c(=O)sc2[C@H]2c3cc(Br)cc(Br)c3OC(=O)[C@H]21)c1ccc(-c2c3nc(c(-c4cccc(S(=O)(=O)[O-])c4F)c4ccc([nH]4)c(-c4cccc(S(=O)(=O)[O-])c4F)c4nc(c(-c5cccc(S(=O)(=O)[O-])c5F)c5ccc2[nH]5)C=C4)C=C3)cc1
REMARK SMILES IDX 3 1 2 2 1 3 30 4 31 5 92 6 32 7 91 8 33 9 34 10 35 11 85 12
REMARK SMILES IDX 36 13 90 14 84 15 86 16 37 17 89 18 83 19 82 20 38 22 70 23
REMARK SMILES IDX 50 24 69 25 51 26 54 27 68 28 87 29 52 30 53 31 67 33 88 34
REMARK SMILES IDX 55 35 39 36 40 37 48 38 41 39 43 40 49 41 42 42 44 43 45 44
REMARK SMILES IDX 46 45 47 46 71 47 72 48 80 49 73 50 75 51 81 52 74 53 76 54
REMARK SMILES IDX 77 55 78 56 79 57 56 58 57 59 65 60 58 61 60 62 66 63 59 64
REMARK SMILES IDX 61 65 62 66 63 67 64 68 4 69 5 70 6 71 7 72 8 73 9 74 10 75
REMARK SMILES IDX 29 76 11 77 17 78 27 79 12 80 16 81 18 82 26 83 28 84 13 85
REMARK SMILES IDX 15 87 19 88 25 89 14 90 20 91 23 92 21 93 22 94 24 95
REMARK H PARENT 86 21 54 32 12 86
REMARK Flexibility Score: inf
ROOT
ATOM      1  O   UNL A   1      34.463  32.722  30.108  1.00  0.00    -0.458 OA
ENDROOT
BRANCH   1   2
ATOM      2  C   UNL A   1      34.721  32.074  28.952  1.00  0.00     0.338 C 
ATOM      3  O   UNL A   1      33.920  32.166  28.022  1.00  0.00    -0.246 OA
BRANCH   2   4
ATOM      4  C   UNL A   1      35.995  31.344  28.698  1.00  0.00     0.060 A 
ATOM      5  C   UNL A   1      36.085  29.961  28.533  1.00  0.00     0.016 A 
ATOM      6  C   UNL A   1      37.177  32.098  28.860  1.00  0.00     0.016 A 
ATOM      7  C   UNL A   1      37.315  29.330  28.669  1.00  0.00     0.010 A 
ATOM      8  C   UNL A   1      38.401  31.470  29.020  1.00  0.00     0.010 A 
ATOM      9  C   UNL A   1      38.443  30.082  29.008  1.00  0.00    -0.014 A 
BRANCH   9  10
ATOM     10  C   UNL A   1      39.651  29.371  29.395  1.00  0.00     0.031 A 
ATOM     11  C   UNL A   1      40.010  29.495  30.827  1.00  0.00     0.074 A 
ATOM     12  C   UNL A   1      40.361  28.632  28.517  1.00  0.00     0.049 A 
ATOM     13  N   UNL A   1      40.966  30.196  31.339  1.00  0.00    -0.248 NA
ATOM     14  C   UNL A   1      39.103  28.905  31.819  1.00  0.00     0.031 C 
ATOM     15  C   UNL A   1      39.983  28.226  27.157  1.00  0.00     0.029 A 
ATOM     16  N   UNL A   1      41.545  27.988  28.702  1.00  0.00    -0.354 N 
ATOM     17  C   UNL A   1      40.934  29.937  32.709  1.00  0.00     0.074 A 
ATOM     18  C   UNL A   1      39.661  29.315  32.960  1.00  0.00     0.031 C 
ATOM     19  C   UNL A   1      40.790  27.218  26.750  1.00  0.00     0.029 A 
ATOM     20  C   UNL A   1      41.830  27.019  27.743  1.00  0.00     0.049 A 
ATOM     21  H   UNL A   1      42.151  28.190  29.452  1.00  0.00     0.167 HD
ATOM     22  C   UNL A   1      42.061  30.037  33.469  1.00  0.00     0.034 A 
ATOM     23  C   UNL A   1      42.817  26.089  27.805  1.00  0.00     0.034 A 
ATOM     24  C   UNL A   1      43.095  30.753  32.759  1.00  0.00     0.049 A 
ATOM     25  C   UNL A   1      43.836  26.607  28.746  1.00  0.00     0.074 A 
ATOM     26  C   UNL A   1      43.241  32.026  32.246  1.00  0.00     0.029 A 
ATOM     27  N   UNL A   1      44.072  29.991  32.166  1.00  0.00    -0.354 N 
ATOM     28  N   UNL A   1      44.558  27.666  28.508  1.00  0.00    -0.248 NA
ATOM     29  C   UNL A   1      43.740  26.210  30.141  1.00  0.00     0.031 C 
ATOM     30  C   UNL A   1      43.981  31.851  31.039  1.00  0.00     0.029 A 
ATOM     31  C   UNL A   1      44.301  30.497  30.918  1.00  0.00     0.049 A 
ATOM     32  H   UNL A   1      44.527  29.216  32.569  1.00  0.00     0.167 HD
ATOM     33  C   UNL A   1      44.604  28.326  29.727  1.00  0.00     0.074 A 
ATOM     34  C   UNL A   1      44.182  27.333  30.714  1.00  0.00     0.031 C 
ATOM     35  C   UNL A   1      44.694  29.688  29.784  1.00  0.00     0.034 A 
BRANCH  22  36
ATOM     36  C   UNL A   1      42.411  29.174  34.668  1.00  0.00     0.023 A 
ATOM     37  C   UNL A   1      42.997  29.835  35.776  1.00  0.00     0.012 A 
ATOM     38  C   UNL A   1      42.478  27.763  34.671  1.00  0.00     0.148 A 
ATOM     39  C   UNL A   1      43.704  29.144  36.765  1.00  0.00     0.002 A 
ATOM     40  C   UNL A   1      43.128  27.074  35.690  1.00  0.00     0.091 A 
ATOM     41  F   UNL A   1      42.015  27.064  33.635  1.00  0.00    -0.205 F 
ATOM     42  C   UNL A   1      43.777  27.761  36.718  1.00  0.00     0.022 A 
BRANCH  40  43
ATOM     43  S   UNL A   1      43.220  25.277  35.711  1.00  0.00     0.127 S 
ATOM     44  O   UNL A   1      44.034  25.014  34.528  1.00  0.00    -0.237 OA
ATOM     45  O   UNL A   1      43.884  25.029  36.990  1.00  0.00    -0.237 OA
ATOM     46  O   UNL A   1      41.840  24.810  35.653  1.00  0.00    -0.744 OA
ENDBRANCH  40  43
ENDBRANCH  22  36
BRANCH  23  47
ATOM     47  C   UNL A   1      42.807  24.663  27.391  1.00  0.00     0.023 A 
ATOM     48  C   UNL A   1      41.612  23.918  27.484  1.00  0.00     0.012 A 
ATOM     49  C   UNL A   1      43.859  24.137  26.608  1.00  0.00     0.148 A 
ATOM     50  C   UNL A   1      41.453  22.715  26.783  1.00  0.00     0.002 A 
ATOM     51  C   UNL A   1      43.693  22.945  25.907  1.00  0.00     0.091 A 
ATOM     52  F   UNL A   1      44.981  24.855  26.475  1.00  0.00    -0.205 F 
ATOM     53  C   UNL A   1      42.486  22.237  25.983  1.00  0.00     0.022 A 
BRANCH  51  54
ATOM     54  S   UNL A   1      44.956  22.297  24.803  1.00  0.00     0.127 S 
ATOM     55  O   UNL A   1      44.305  21.098  24.272  1.00  0.00    -0.237 OA
ATOM     56  O   UNL A   1      45.105  23.388  23.844  1.00  0.00    -0.237 OA
ATOM     57  O   UNL A   1      46.120  22.031  25.638  1.00  0.00    -0.744 OA
ENDBRANCH  51  54
ENDBRANCH  23  47
BRANCH  35  58
ATOM     58  C   UNL A   1      44.977  30.440  28.507  1.00  0.00     0.023 A 
ATOM     59  C   UNL A   1      43.950  30.915  27.664  1.00  0.00     0.012 A 
ATOM     60  C   UNL A   1      46.298  30.856  28.267  1.00  0.00     0.148 A 
ATOM     61  C   UNL A   1      44.235  31.778  26.601  1.00  0.00     0.002 A 
ATOM     62  C   UNL A   1      46.570  31.756  27.245  1.00  0.00     0.091 A 
ATOM     63  F   UNL A   1      47.262  30.396  29.078  1.00  0.00    -0.205 F 
ATOM     64  C   UNL A   1      45.543  32.213  26.404  1.00  0.00     0.022 A 
BRANCH  62  65
ATOM     65  S   UNL A   1      48.202  32.470  27.037  1.00  0.00     0.127 S 
ATOM     66  O   UNL A   1      48.991  31.313  26.620  1.00  0.00    -0.237 OA
ATOM     67  O   UNL A   1      47.976  33.467  25.989  1.00  0.00    -0.237 OA
ATOM     68  O   UNL A   1      48.560  33.040  28.330  1.00  0.00    -0.744 OA
ENDBRANCH  62  65
ENDBRANCH  35  58
ENDBRANCH   9  10
ENDBRANCH   2   4
ENDBRANCH   1   2
BRANCH   1  69
ATOM     69  C   UNL A   1      34.771  32.363  31.469  1.00  0.00     0.275 C 
BRANCH  69  70
ATOM     70  C   UNL A   1      35.601  33.393  32.229  1.00  0.00     0.274 C 
BRANCH  70  71
ATOM     71  O   UNL A   1      36.833  32.868  32.744  1.00  0.00    -0.461 OA
BRANCH  71  72
ATOM     72  C   UNL A   1      37.607  33.715  33.469  1.00  0.00     0.320 C 
ATOM     73  O   UNL A   1      37.217  34.779  33.932  1.00  0.00    -0.251 OA
BRANCH  72  74
ATOM     74  C   UNL A   1      39.036  33.225  33.685  1.00  0.00     0.178 C 
ATOM     75  S   UNL A   1      40.232  34.545  33.227  1.00  0.00    -0.091 SA
ATOM     76  C   UNL A   1      39.247  32.363  34.957  1.00  0.00     0.137 C 
ATOM     77  C   UNL A   1      41.527  34.308  34.277  1.00  0.00     0.091 A 
ATOM     78  C   UNL A   1      40.430  32.722  35.914  1.00  0.00     0.082 C 
ATOM     79  C   UNL A   1      38.007  32.152  35.858  1.00  0.00     0.317 C 
ATOM     80  N   UNL A   1      42.645  35.069  34.114  1.00  0.00    -0.307 N 
ATOM     81  C   UNL A   1      41.550  33.530  35.358  1.00  0.00     0.049 A 
ATOM     82  C   UNL A   1      39.831  33.278  37.208  1.00  0.00     0.007 A 
ATOM     83  O   UNL A   1      38.363  31.430  36.981  1.00  0.00    -0.425 OA
ATOM     84  O   UNL A   1      36.913  32.688  35.772  1.00  0.00    -0.251 OA
ATOM     85  C   UNL A   1      43.619  34.941  35.071  1.00  0.00     0.305 A 
ATOM     86  H   UNL A   1      42.748  35.680  33.349  1.00  0.00     0.171 HD
ATOM     87  S   UNL A   1      43.107  33.650  36.168  1.00  0.00    -0.078 S 
ATOM     88  C   UNL A   1      40.087  34.526  37.777  1.00  0.00     0.024 A 
ATOM     89  C   UNL A   1      38.788  32.500  37.754  1.00  0.00     0.148 A 
ATOM     90  O   UNL A   1      44.619  35.613  35.211  1.00  0.00    -0.257 OA
ATOM     91  C   UNL A   1      39.328  34.955  38.871  1.00  0.00     0.019 A 
ATOM     92  C   UNL A   1      38.069  32.901  38.878  1.00  0.00     0.062 A 
ATOM     93  Br  UNL A   1      39.597  36.701  39.548  1.00  0.00    -0.051 Br
ATOM     94  C   UNL A   1      38.337  34.147  39.434  1.00  0.00     0.035 A 
ATOM     95  Br  UNL A   1      36.651  31.858  39.572  1.00  0.00    -0.047 Br
ENDBRANCH  72  74
ENDBRANCH  71  72
ENDBRANCH  70  71
ENDBRANCH  69  70
ENDBRANCH   1  69
TORSDOF 14
ENDMDL
