MODEL 1
REMARK VINA RESULT:     -12.0      0.000      0.000
REMARK SMILES CN(C)C(=O)c1ccc2c(c1)N(CC(=O)OCCOC(=O)c1ccc(-c3c4nc(c(-c5cccc(S(=O)(=O)[O-])c5F)c5ccc([nH]5)c(-c5cccc(S(=O)(=O)[O-])c5F)c5nc(c(-c6cccc(S(=O)(=O)[O-])c6F)c6ccc3[nH]6)C=C5)C=C4)cc1)C(=O)[C@@H]1CCCCN21
REMARK SMILES IDX 18 1 17 2 16 3 14 4 15 5 13 6 12 7 6 8 7 9 11 10 8 11 10 12
REMARK SMILES IDX 9 13 92 14 85 15 87 16 91 17 86 18 88 19 90 20 89 21 4 22
REMARK SMILES IDX 1 23 2 24 3 25 5 26 19 27 20 28 21 29 22 30 23 31 84 32
REMARK SMILES IDX 24 33 83 34 25 35 26 36 27 37 77 38 28 39 82 40 76 41 78 42
REMARK SMILES IDX 29 43 81 44 75 45 74 46 30 48 62 49 42 50 61 51 43 52 46 53
REMARK SMILES IDX 60 54 79 55 44 56 45 57 59 59 80 60 47 61 31 62 32 63 40 64
REMARK SMILES IDX 33 65 35 66 41 67 34 68 36 69 37 70 38 71 39 72 63 73 64 74
REMARK SMILES IDX 72 75 65 76 67 77 73 78 66 79 68 80 69 81 70 82 71 83 48 84
REMARK SMILES IDX 49 85 57 86 50 87 52 88 58 89 51 90 53 91 54 92 55 93 56 94
REMARK H PARENT 78 47 46 58
REMARK Flexibility Score: inf
ROOT
ATOM      1  C   UNL A   1      37.441  20.903  25.265  1.00  0.00     0.275 C 
ENDROOT
BRANCH   1   2
ATOM      2  C   UNL A   1      36.109  21.617  25.512  1.00  0.00     0.274 C 
BRANCH   2   3
ATOM      3  O   UNL A   1      36.272  22.974  25.974  1.00  0.00    -0.461 OA
BRANCH   3   4
ATOM      4  C   UNL A   1      35.102  23.644  26.158  1.00  0.00     0.326 C 
ATOM      5  O   UNL A   1      34.279  23.356  27.026  1.00  0.00    -0.250 OA
BRANCH   4   6
ATOM      6  C   UNL A   1      34.922  24.880  25.286  1.00  0.00     0.248 C 
BRANCH   6   7
ATOM      7  N   UNL A   1      33.596  25.379  24.961  1.00  0.00    -0.297 N 
ATOM      8  C   UNL A   1      31.866  22.512  23.292  1.00  0.00     0.042 A 
ATOM      9  C   UNL A   1      30.648  23.076  22.950  1.00  0.00     0.016 A 
ATOM     10  C   UNL A   1      32.860  23.284  23.896  1.00  0.00     0.042 A 
ATOM     11  C   UNL A   1      30.417  24.420  23.243  1.00  0.00     0.029 A 
ATOM     12  C   UNL A   1      32.629  24.631  24.218  1.00  0.00     0.069 A 
ATOM     13  C   UNL A   1      31.386  25.237  23.867  1.00  0.00     0.062 A 
ATOM     14  N   UNL A   1      31.140  26.592  24.121  1.00  0.00    -0.358 N 
ATOM     15  C   UNL A   1      33.319  26.675  25.373  1.00  0.00     0.250 C 
ATOM     16  C   UNL A   1      32.285  27.416  24.523  1.00  0.00     0.172 C 
ATOM     17  C   UNL A   1      29.840  27.209  23.863  1.00  0.00     0.117 C 
ATOM     18  O   UNL A   1      33.983  27.238  26.249  1.00  0.00    -0.272 OA
ATOM     19  C   UNL A   1      31.819  28.674  25.249  1.00  0.00     0.035 C 
ATOM     20  C   UNL A   1      29.829  28.734  23.709  1.00  0.00     0.022 C 
ATOM     21  C   UNL A   1      30.993  29.512  24.298  1.00  0.00     0.004 C 
BRANCH   8  22
ATOM     22  C   UNL A   1      32.106  21.077  23.044  1.00  0.00     0.253 C 
ATOM     23  C   UNL A   1      32.520  18.826  23.914  1.00  0.00     0.146 C 
ATOM     24  N   UNL A   1      32.326  20.245  24.141  1.00  0.00    -0.345 N 
ATOM     25  C   UNL A   1      32.535  20.709  25.507  1.00  0.00     0.146 C 
ATOM     26  O   UNL A   1      32.094  20.699  21.876  1.00  0.00    -0.269 OA
ENDBRANCH   8  22
ENDBRANCH   6   7
ENDBRANCH   4   6
ENDBRANCH   3   4
ENDBRANCH   2   3
ENDBRANCH   1   2
BRANCH   1  27
ATOM     27  O   UNL A   1      38.548  21.822  25.235  1.00  0.00    -0.458 OA
BRANCH  27  28
ATOM     28  C   UNL A   1      39.467  21.593  26.197  1.00  0.00     0.338 C 
ATOM     29  O   UNL A   1      39.812  20.492  26.608  1.00  0.00    -0.246 OA
BRANCH  28  30
ATOM     30  C   UNL A   1      40.051  22.835  26.720  1.00  0.00     0.060 A 
ATOM     31  C   UNL A   1      39.544  24.056  26.275  1.00  0.00     0.016 A 
ATOM     32  C   UNL A   1      40.971  22.798  27.769  1.00  0.00     0.016 A 
ATOM     33  C   UNL A   1      39.991  25.242  26.857  1.00  0.00     0.010 A 
ATOM     34  C   UNL A   1      41.339  23.977  28.415  1.00  0.00     0.010 A 
ATOM     35  C   UNL A   1      40.893  25.214  27.933  1.00  0.00    -0.014 A 
BRANCH  35  36
ATOM     36  C   UNL A   1      41.446  26.483  28.467  1.00  0.00     0.031 A 
ATOM     37  C   UNL A   1      42.886  26.831  28.196  1.00  0.00     0.074 A 
ATOM     38  C   UNL A   1      40.668  27.341  29.154  1.00  0.00     0.049 A 
ATOM     39  N   UNL A   1      43.498  27.975  28.359  1.00  0.00    -0.248 NA
ATOM     40  C   UNL A   1      43.757  25.759  27.684  1.00  0.00     0.031 C 
ATOM     41  C   UNL A   1      39.288  27.089  29.573  1.00  0.00     0.029 A 
ATOM     42  N   UNL A   1      40.929  28.611  29.610  1.00  0.00    -0.354 N 
ATOM     43  C   UNL A   1      44.810  27.760  27.961  1.00  0.00     0.074 A 
ATOM     44  C   UNL A   1      44.931  26.366  27.611  1.00  0.00     0.031 C 
ATOM     45  C   UNL A   1      38.814  28.183  30.198  1.00  0.00     0.029 A 
ATOM     46  C   UNL A   1      39.846  29.218  30.201  1.00  0.00     0.049 A 
ATOM     47  H   UNL A   1      41.809  29.044  29.523  1.00  0.00     0.167 HD
ATOM     48  C   UNL A   1      45.813  28.657  27.828  1.00  0.00     0.034 A 
ATOM     49  C   UNL A   1      39.689  30.482  30.644  1.00  0.00     0.034 A 
ATOM     50  C   UNL A   1      45.681  30.054  28.112  1.00  0.00     0.049 A 
ATOM     51  C   UNL A   1      40.806  31.476  30.456  1.00  0.00     0.074 A 
ATOM     52  C   UNL A   1      46.597  31.067  27.897  1.00  0.00     0.029 A 
ATOM     53  N   UNL A   1      44.558  30.633  28.678  1.00  0.00    -0.354 N 
ATOM     54  N   UNL A   1      41.967  31.310  29.871  1.00  0.00    -0.248 NA
ATOM     55  C   UNL A   1      40.574  32.844  30.947  1.00  0.00     0.031 C 
ATOM     56  C   UNL A   1      46.024  32.265  28.335  1.00  0.00     0.029 A 
ATOM     57  C   UNL A   1      44.759  31.991  28.832  1.00  0.00     0.049 A 
ATOM     58  H   UNL A   1      43.739  30.150  28.932  1.00  0.00     0.167 HD
ATOM     59  C   UNL A   1      42.592  32.552  29.897  1.00  0.00     0.074 A 
ATOM     60  C   UNL A   1      41.678  33.467  30.549  1.00  0.00     0.031 C 
ATOM     61  C   UNL A   1      43.817  32.898  29.432  1.00  0.00     0.034 A 
BRANCH  48  62
ATOM     62  C   UNL A   1      47.098  28.162  27.233  1.00  0.00     0.023 A 
ATOM     63  C   UNL A   1      48.191  27.931  28.094  1.00  0.00     0.012 A 
ATOM     64  C   UNL A   1      47.229  27.906  25.857  1.00  0.00     0.148 A 
ATOM     65  C   UNL A   1      49.405  27.471  27.593  1.00  0.00     0.002 A 
ATOM     66  C   UNL A   1      48.438  27.426  25.365  1.00  0.00     0.091 A 
ATOM     67  F   UNL A   1      46.182  28.155  25.058  1.00  0.00    -0.205 F 
ATOM     68  C   UNL A   1      49.526  27.213  26.231  1.00  0.00     0.022 A 
BRANCH  66  69
ATOM     69  S   UNL A   1      48.700  27.037  23.633  1.00  0.00     0.127 S 
ATOM     70  O   UNL A   1      50.127  26.714  23.616  1.00  0.00    -0.237 OA
ATOM     71  O   UNL A   1      47.813  25.890  23.438  1.00  0.00    -0.237 OA
ATOM     72  O   UNL A   1      48.326  28.232  22.889  1.00  0.00    -0.744 OA
ENDBRANCH  66  69
ENDBRANCH  48  62
BRANCH  49  73
ATOM     73  C   UNL A   1      38.366  30.919  31.172  1.00  0.00     0.023 A 
ATOM     74  C   UNL A   1      38.075  30.698  32.533  1.00  0.00     0.012 A 
ATOM     75  C   UNL A   1      37.420  31.571  30.360  1.00  0.00     0.148 A 
ATOM     76  C   UNL A   1      36.858  31.110  33.075  1.00  0.00     0.002 A 
ATOM     77  C   UNL A   1      36.217  32.001  30.912  1.00  0.00     0.091 A 
ATOM     78  F   UNL A   1      37.716  31.756  29.066  1.00  0.00    -0.205 F 
ATOM     79  C   UNL A   1      35.933  31.765  32.268  1.00  0.00     0.022 A 
BRANCH  77  80
ATOM     80  S   UNL A   1      34.982  32.908  29.975  1.00  0.00     0.127 S 
ATOM     81  O   UNL A   1      34.020  33.266  31.016  1.00  0.00    -0.237 OA
ATOM     82  O   UNL A   1      35.762  34.028  29.450  1.00  0.00    -0.237 OA
ATOM     83  O   UNL A   1      34.493  31.983  28.962  1.00  0.00    -0.744 OA
ENDBRANCH  77  80
ENDBRANCH  49  73
BRANCH  61  84
ATOM     84  C   UNL A   1      44.275  34.318  29.606  1.00  0.00     0.023 A 
ATOM     85  C   UNL A   1      45.066  34.641  30.725  1.00  0.00     0.012 A 
ATOM     86  C   UNL A   1      44.082  35.272  28.588  1.00  0.00     0.148 A 
ATOM     87  C   UNL A   1      45.664  35.895  30.827  1.00  0.00     0.002 A 
ATOM     88  C   UNL A   1      44.707  36.509  28.682  1.00  0.00     0.091 A 
ATOM     89  F   UNL A   1      43.324  34.935  27.534  1.00  0.00    -0.205 F 
ATOM     90  C   UNL A   1      45.497  36.823  29.801  1.00  0.00     0.022 A 
BRANCH  88  91
ATOM     91  S   UNL A   1      44.626  37.740  27.376  1.00  0.00     0.127 S 
ATOM     92  O   UNL A   1      44.878  38.976  28.116  1.00  0.00    -0.237 OA
ATOM     93  O   UNL A   1      45.715  37.325  26.492  1.00  0.00    -0.237 OA
ATOM     94  O   UNL A   1      43.295  37.629  26.795  1.00  0.00    -0.744 OA
ENDBRANCH  88  91
ENDBRANCH  61  84
ENDBRANCH  35  36
ENDBRANCH  28  30
ENDBRANCH  27  28
ENDBRANCH   1  27
TORSDOF 16
ENDMDL
MODEL 2
REMARK VINA RESULT:     -11.8      4.856     10.115
REMARK SMILES CN(C)C(=O)c1ccc2c(c1)N(CC(=O)OCCOC(=O)c1ccc(-c3c4nc(c(-c5cccc(S(=O)(=O)[O-])c5F)c5ccc([nH]5)c(-c5cccc(S(=O)(=O)[O-])c5F)c5nc(c(-c6cccc(S(=O)(=O)[O-])c6F)c6ccc3[nH]6)C=C5)C=C4)cc1)C(=O)[C@@H]1CCCCN21
REMARK SMILES IDX 18 1 17 2 16 3 14 4 15 5 13 6 12 7 6 8 7 9 11 10 8 11 10 12
REMARK SMILES IDX 9 13 92 14 85 15 87 16 91 17 86 18 88 19 90 20 89 21 4 22
REMARK SMILES IDX 1 23 2 24 3 25 5 26 19 27 20 28 21 29 22 30 23 31 84 32
REMARK SMILES IDX 24 33 83 34 25 35 26 36 27 37 77 38 28 39 82 40 76 41 78 42
REMARK SMILES IDX 29 43 81 44 75 45 74 46 30 48 62 49 42 50 61 51 43 52 46 53
REMARK SMILES IDX 60 54 79 55 44 56 45 57 59 59 80 60 47 61 31 62 32 63 40 64
REMARK SMILES IDX 33 65 35 66 41 67 34 68 36 69 37 70 38 71 39 72 63 73 64 74
REMARK SMILES IDX 72 75 65 76 67 77 73 78 66 79 68 80 69 81 70 82 71 83 48 84
REMARK SMILES IDX 49 85 57 86 50 87 52 88 58 89 51 90 53 91 54 92 55 93 56 94
REMARK H PARENT 78 47 46 58
REMARK Flexibility Score: inf
ROOT
ATOM      1  C   UNL A   1      32.046  30.825  26.613  1.00  0.00     0.275 C 
ENDROOT
BRANCH   1   2
ATOM      2  C   UNL A   1      31.771  29.331  26.803  1.00  0.00     0.274 C 
BRANCH   2   3
ATOM      3  O   UNL A   1      32.968  28.562  27.044  1.00  0.00    -0.461 OA
BRANCH   3   4
ATOM      4  C   UNL A   1      32.811  27.221  26.876  1.00  0.00     0.326 C 
ATOM      5  O   UNL A   1      31.913  26.566  27.401  1.00  0.00    -0.250 OA
BRANCH   4   6
ATOM      6  C   UNL A   1      33.765  26.582  25.873  1.00  0.00     0.248 C 
BRANCH   6   7
ATOM      7  N   UNL A   1      33.415  25.344  25.194  1.00  0.00    -0.297 N 
ATOM      8  C   UNL A   1      30.059  25.991  23.673  1.00  0.00     0.042 A 
ATOM      9  C   UNL A   1      29.759  24.761  23.111  1.00  0.00     0.016 A 
ATOM     10  C   UNL A   1      31.230  26.168  24.412  1.00  0.00     0.042 A 
ATOM     11  C   UNL A   1      30.659  23.707  23.269  1.00  0.00     0.029 A 
ATOM     12  C   UNL A   1      32.154  25.121  24.557  1.00  0.00     0.069 A 
ATOM     13  C   UNL A   1      31.864  23.842  23.995  1.00  0.00     0.062 A 
ATOM     14  N   UNL A   1      32.734  22.758  24.166  1.00  0.00    -0.358 N 
ATOM     15  C   UNL A   1      34.370  24.339  25.238  1.00  0.00     0.250 C 
ATOM     16  C   UNL A   1      33.815  22.916  25.145  1.00  0.00     0.172 C 
ATOM     17  C   UNL A   1      32.509  21.468  23.515  1.00  0.00     0.117 C 
ATOM     18  O   UNL A   1      35.553  24.572  25.504  1.00  0.00    -0.272 OA
ATOM     19  C   UNL A   1      34.947  21.933  24.866  1.00  0.00     0.035 C 
ATOM     20  C   UNL A   1      33.212  20.259  24.141  1.00  0.00     0.022 C 
ATOM     21  C   UNL A   1      34.421  20.523  25.021  1.00  0.00     0.004 C 
BRANCH   8  22
ATOM     22  C   UNL A   1      29.147  27.134  23.466  1.00  0.00     0.253 C 
ATOM     23  C   UNL A   1      28.735  29.363  22.540  1.00  0.00     0.146 C 
ATOM     24  N   UNL A   1      29.633  28.251  22.788  1.00  0.00    -0.345 N 
ATOM     25  C   UNL A   1      31.031  28.468  22.437  1.00  0.00     0.146 C 
ATOM     26  O   UNL A   1      28.005  27.029  23.903  1.00  0.00    -0.269 OA
ENDBRANCH   8  22
ENDBRANCH   6   7
ENDBRANCH   4   6
ENDBRANCH   3   4
ENDBRANCH   2   3
ENDBRANCH   1   2
BRANCH   1  27
ATOM     27  O   UNL A   1      33.455  31.109  26.535  1.00  0.00    -0.458 OA
BRANCH  27  28
ATOM     28  C   UNL A   1      33.907  31.884  27.544  1.00  0.00     0.338 C 
ATOM     29  O   UNL A   1      33.334  32.864  28.003  1.00  0.00    -0.246 OA
BRANCH  28  30
ATOM     30  C   UNL A   1      35.196  31.418  28.073  1.00  0.00     0.060 A 
ATOM     31  C   UNL A   1      36.266  32.311  28.117  1.00  0.00     0.016 A 
ATOM     32  C   UNL A   1      35.300  30.167  28.682  1.00  0.00     0.016 A 
ATOM     33  C   UNL A   1      37.456  31.932  28.738  1.00  0.00     0.010 A 
ATOM     34  C   UNL A   1      36.454  29.829  29.387  1.00  0.00     0.010 A 
ATOM     35  C   UNL A   1      37.561  30.686  29.379  1.00  0.00    -0.014 A 
BRANCH  35  36
ATOM     36  C   UNL A   1      38.865  30.249  29.935  1.00  0.00     0.031 A 
ATOM     37  C   UNL A   1      39.271  30.706  31.311  1.00  0.00     0.074 A 
ATOM     38  C   UNL A   1      39.669  29.420  29.241  1.00  0.00     0.049 A 
ATOM     39  N   UNL A   1      40.237  30.260  32.073  1.00  0.00    -0.248 NA
ATOM     40  C   UNL A   1      38.501  31.809  31.913  1.00  0.00     0.031 C 
ATOM     41  C   UNL A   1      39.450  28.979  27.863  1.00  0.00     0.029 A 
ATOM     42  N   UNL A   1      40.832  28.790  29.613  1.00  0.00    -0.354 N 
ATOM     43  C   UNL A   1      40.180  31.018  33.235  1.00  0.00     0.074 A 
ATOM     44  C   UNL A   1      39.133  31.996  33.061  1.00  0.00     0.031 C 
ATOM     45  C   UNL A   1      40.430  28.124  27.516  1.00  0.00     0.029 A 
ATOM     46  C   UNL A   1      41.330  27.939  28.652  1.00  0.00     0.049 A 
ATOM     47  H   UNL A   1      41.268  28.933  30.483  1.00  0.00     0.167 HD
ATOM     48  C   UNL A   1      40.887  30.870  34.377  1.00  0.00     0.034 A 
ATOM     49  C   UNL A   1      42.361  27.073  28.705  1.00  0.00     0.034 A 
ATOM     50  C   UNL A   1      41.882  29.861  34.578  1.00  0.00     0.049 A 
ATOM     51  C   UNL A   1      43.116  26.897  29.998  1.00  0.00     0.074 A 
ATOM     52  C   UNL A   1      42.570  29.549  35.736  1.00  0.00     0.029 A 
ATOM     53  N   UNL A   1      42.333  29.001  33.592  1.00  0.00    -0.354 N 
ATOM     54  N   UNL A   1      42.903  27.466  31.160  1.00  0.00    -0.248 NA
ATOM     55  C   UNL A   1      44.222  25.927  30.000  1.00  0.00     0.031 C 
ATOM     56  C   UNL A   1      43.441  28.494  35.448  1.00  0.00     0.029 A 
ATOM     57  C   UNL A   1      43.301  28.162  34.108  1.00  0.00     0.049 A 
ATOM     58  H   UNL A   1      42.012  28.989  32.662  1.00  0.00     0.167 HD
ATOM     59  C   UNL A   1      43.825  26.905  32.036  1.00  0.00     0.074 A 
ATOM     60  C   UNL A   1      44.596  25.945  31.275  1.00  0.00     0.031 C 
ATOM     61  C   UNL A   1      44.021  27.173  33.350  1.00  0.00     0.034 A 
BRANCH  48  62
ATOM     62  C   UNL A   1      40.510  31.749  35.533  1.00  0.00     0.023 A 
ATOM     63  C   UNL A   1      41.374  32.807  35.881  1.00  0.00     0.012 A 
ATOM     64  C   UNL A   1      39.317  31.557  36.253  1.00  0.00     0.148 A 
ATOM     65  C   UNL A   1      41.069  33.652  36.945  1.00  0.00     0.002 A 
ATOM     66  C   UNL A   1      39.009  32.417  37.301  1.00  0.00     0.091 A 
ATOM     67  F   UNL A   1      38.525  30.530  35.915  1.00  0.00    -0.205 F 
ATOM     68  C   UNL A   1      39.884  33.461  37.649  1.00  0.00     0.022 A 
BRANCH  66  69
ATOM     69  S   UNL A   1      37.499  32.279  38.263  1.00  0.00     0.127 S 
ATOM     70  O   UNL A   1      37.907  32.870  39.537  1.00  0.00    -0.237 OA
ATOM     71  O   UNL A   1      36.564  33.093  37.484  1.00  0.00    -0.237 OA
ATOM     72  O   UNL A   1      37.179  30.859  38.311  1.00  0.00    -0.744 OA
ENDBRANCH  66  69
ENDBRANCH  48  62
BRANCH  49  73
ATOM     73  C   UNL A   1      42.643  26.191  27.538  1.00  0.00     0.023 A 
ATOM     74  C   UNL A   1      43.437  26.694  26.488  1.00  0.00     0.012 A 
ATOM     75  C   UNL A   1      42.168  24.868  27.472  1.00  0.00     0.148 A 
ATOM     76  C   UNL A   1      43.744  25.898  25.385  1.00  0.00     0.002 A 
ATOM     77  C   UNL A   1      42.497  24.071  26.380  1.00  0.00     0.091 A 
ATOM     78  F   UNL A   1      41.403  24.420  28.477  1.00  0.00    -0.205 F 
ATOM     79  C   UNL A   1      43.281  24.586  25.334  1.00  0.00     0.022 A 
BRANCH  77  80
ATOM     80  S   UNL A   1      42.002  22.350  26.244  1.00  0.00     0.127 S 
ATOM     81  O   UNL A   1      42.664  21.945  25.005  1.00  0.00    -0.237 OA
ATOM     82  O   UNL A   1      42.573  21.773  27.461  1.00  0.00    -0.237 OA
ATOM     83  O   UNL A   1      40.546  22.357  26.202  1.00  0.00    -0.744 OA
ENDBRANCH  77  80
ENDBRANCH  49  73
BRANCH  61  84
ATOM     84  C   UNL A   1      45.113  26.440  34.077  1.00  0.00     0.023 A 
ATOM     85  C   UNL A   1      46.362  27.071  34.234  1.00  0.00     0.012 A 
ATOM     86  C   UNL A   1      44.851  25.230  34.749  1.00  0.00     0.148 A 
ATOM     87  C   UNL A   1      47.336  26.509  35.056  1.00  0.00     0.002 A 
ATOM     88  C   UNL A   1      45.817  24.693  35.591  1.00  0.00     0.091 A 
ATOM     89  F   UNL A   1      43.652  24.653  34.580  1.00  0.00    -0.205 F 
ATOM     90  C   UNL A   1      47.060  25.329  35.744  1.00  0.00     0.022 A 
BRANCH  88  91
ATOM     91  S   UNL A   1      45.529  23.226  36.588  1.00  0.00     0.127 S 
ATOM     92  O   UNL A   1      46.874  22.659  36.680  1.00  0.00    -0.237 OA
ATOM     93  O   UNL A   1      45.021  23.796  37.836  1.00  0.00    -0.237 OA
ATOM     94  O   UNL A   1      44.567  22.417  35.852  1.00  0.00    -0.744 OA
ENDBRANCH  88  91
ENDBRANCH  61  84
ENDBRANCH  35  36
ENDBRANCH  28  30
ENDBRANCH  27  28
ENDBRANCH   1  27
TORSDOF 16
ENDMDL
MODEL 3
REMARK VINA RESULT:     -11.7      2.177      7.921
REMARK SMILES CN(C)C(=O)c1ccc2c(c1)N(CC(=O)OCCOC(=O)c1ccc(-c3c4nc(c(-c5cccc(S(=O)(=O)[O-])c5F)c5ccc([nH]5)c(-c5cccc(S(=O)(=O)[O-])c5F)c5nc(c(-c6cccc(S(=O)(=O)[O-])c6F)c6ccc3[nH]6)C=C5)C=C4)cc1)C(=O)[C@@H]1CCCCN21
REMARK SMILES IDX 18 1 17 2 16 3 14 4 15 5 13 6 12 7 6 8 7 9 11 10 8 11 10 12
REMARK SMILES IDX 9 13 92 14 85 15 87 16 91 17 86 18 88 19 90 20 89 21 4 22
REMARK SMILES IDX 1 23 2 24 3 25 5 26 19 27 20 28 21 29 22 30 23 31 84 32
REMARK SMILES IDX 24 33 83 34 25 35 26 36 27 37 77 38 28 39 82 40 76 41 78 42
REMARK SMILES IDX 29 43 81 44 75 45 74 46 30 48 62 49 42 50 61 51 43 52 46 53
REMARK SMILES IDX 60 54 79 55 44 56 45 57 59 59 80 60 47 61 31 62 32 63 40 64
REMARK SMILES IDX 33 65 35 66 41 67 34 68 36 69 37 70 38 71 39 72 63 73 64 74
REMARK SMILES IDX 72 75 65 76 67 77 73 78 66 79 68 80 69 81 70 82 71 83 48 84
REMARK SMILES IDX 49 85 57 86 50 87 52 88 58 89 51 90 53 91 54 92 55 93 56 94
REMARK H PARENT 78 47 46 58
REMARK Flexibility Score: inf
ROOT
ATOM      1  C   UNL A   1      39.634  20.121  26.137  1.00  0.00     0.275 C 
ENDROOT
BRANCH   1   2
ATOM      2  C   UNL A   1      38.370  19.896  25.303  1.00  0.00     0.274 C 
BRANCH   2   3
ATOM      3  O   UNL A   1      37.845  21.113  24.732  1.00  0.00    -0.461 OA
BRANCH   3   4
ATOM      4  C   UNL A   1      37.547  22.074  25.648  1.00  0.00     0.326 C 
ATOM      5  O   UNL A   1      38.330  22.957  25.992  1.00  0.00    -0.250 OA
BRANCH   4   6
ATOM      6  C   UNL A   1      36.105  22.068  26.142  1.00  0.00     0.248 C 
BRANCH   6   7
ATOM      7  N   UNL A   1      35.017  22.496  25.278  1.00  0.00    -0.297 N 
ATOM      8  C   UNL A   1      33.028  19.396  24.623  1.00  0.00     0.042 A 
ATOM      9  C   UNL A   1      32.061  19.859  23.744  1.00  0.00     0.016 A 
ATOM     10  C   UNL A   1      34.037  20.245  25.078  1.00  0.00     0.042 A 
ATOM     11  C   UNL A   1      32.094  21.195  23.344  1.00  0.00     0.029 A 
ATOM     12  C   UNL A   1      34.066  21.597  24.700  1.00  0.00     0.069 A 
ATOM     13  C   UNL A   1      33.087  22.095  23.790  1.00  0.00     0.062 A 
ATOM     14  N   UNL A   1      33.115  23.423  23.346  1.00  0.00    -0.358 N 
ATOM     15  C   UNL A   1      34.972  23.852  24.987  1.00  0.00     0.250 C 
ATOM     16  C   UNL A   1      34.320  24.203  23.648  1.00  0.00     0.172 C 
ATOM     17  C   UNL A   1      32.066  23.982  22.495  1.00  0.00     0.117 C 
ATOM     18  O   UNL A   1      35.566  24.688  25.674  1.00  0.00    -0.272 OA
ATOM     19  C   UNL A   1      34.026  25.699  23.590  1.00  0.00     0.035 C 
ATOM     20  C   UNL A   1      32.436  25.235  21.693  1.00  0.00     0.022 C 
ATOM     21  C   UNL A   1      33.613  26.063  22.181  1.00  0.00     0.004 C 
BRANCH   8  22
ATOM     22  C   UNL A   1      32.974  18.001  25.104  1.00  0.00     0.253 C 
ATOM     23  C   UNL A   1      33.523  15.636  24.783  1.00  0.00     0.146 C 
ATOM     24  N   UNL A   1      33.530  17.005  24.303  1.00  0.00    -0.345 N 
ATOM     25  C   UNL A   1      33.988  17.199  22.933  1.00  0.00     0.146 C 
ATOM     26  O   UNL A   1      32.440  17.802  26.191  1.00  0.00    -0.269 OA
ENDBRANCH   8  22
ENDBRANCH   6   7
ENDBRANCH   4   6
ENDBRANCH   3   4
ENDBRANCH   2   3
ENDBRANCH   1   2
BRANCH   1  27
ATOM     27  O   UNL A   1      40.686  19.206  25.778  1.00  0.00    -0.458 OA
BRANCH  27  28
ATOM     28  C   UNL A   1      41.818  19.377  26.495  1.00  0.00     0.338 C 
ATOM     29  O   UNL A   1      42.473  18.485  27.019  1.00  0.00    -0.246 OA
BRANCH  28  30
ATOM     30  C   UNL A   1      42.219  20.788  26.580  1.00  0.00     0.060 A 
ATOM     31  C   UNL A   1      42.263  21.546  25.410  1.00  0.00     0.016 A 
ATOM     32  C   UNL A   1      42.379  21.404  27.822  1.00  0.00     0.016 A 
ATOM     33  C   UNL A   1      42.509  22.917  25.485  1.00  0.00     0.010 A 
ATOM     34  C   UNL A   1      42.525  22.788  27.900  1.00  0.00     0.010 A 
ATOM     35  C   UNL A   1      42.642  23.551  26.731  1.00  0.00    -0.014 A 
BRANCH  35  36
ATOM     36  C   UNL A   1      43.015  24.986  26.794  1.00  0.00     0.031 A 
ATOM     37  C   UNL A   1      42.065  25.969  27.425  1.00  0.00     0.074 A 
ATOM     38  C   UNL A   1      44.207  25.410  26.331  1.00  0.00     0.049 A 
ATOM     39  N   UNL A   1      42.287  27.204  27.794  1.00  0.00    -0.248 NA
ATOM     40  C   UNL A   1      40.685  25.515  27.669  1.00  0.00     0.031 C 
ATOM     41  C   UNL A   1      45.180  24.589  25.609  1.00  0.00     0.029 A 
ATOM     42  N   UNL A   1      44.806  26.644  26.412  1.00  0.00    -0.354 N 
ATOM     43  C   UNL A   1      41.086  27.662  28.318  1.00  0.00     0.074 A 
ATOM     44  C   UNL A   1      40.117  26.604  28.162  1.00  0.00     0.031 C 
ATOM     45  C   UNL A   1      46.269  25.335  25.342  1.00  0.00     0.029 A 
ATOM     46  C   UNL A   1      46.080  26.674  25.893  1.00  0.00     0.049 A 
ATOM     47  H   UNL A   1      44.365  27.432  26.804  1.00  0.00     0.167 HD
ATOM     48  C   UNL A   1      40.825  28.833  28.940  1.00  0.00     0.034 A 
ATOM     49  C   UNL A   1      47.005  27.655  25.909  1.00  0.00     0.034 A 
ATOM     50  C   UNL A   1      41.799  29.861  29.154  1.00  0.00     0.049 A 
ATOM     51  C   UNL A   1      46.708  28.941  26.637  1.00  0.00     0.074 A 
ATOM     52  C   UNL A   1      41.670  31.032  29.877  1.00  0.00     0.029 A 
ATOM     53  N   UNL A   1      43.084  29.838  28.640  1.00  0.00    -0.354 N 
ATOM     54  N   UNL A   1      45.641  29.272  27.322  1.00  0.00    -0.248 NA
ATOM     55  C   UNL A   1      47.760  29.970  26.634  1.00  0.00     0.031 C 
ATOM     56  C   UNL A   1      42.884  31.720  29.800  1.00  0.00     0.029 A 
ATOM     57  C   UNL A   1      43.760  30.981  29.020  1.00  0.00     0.049 A 
ATOM     58  H   UNL A   1      43.460  29.115  28.088  1.00  0.00     0.167 HD
ATOM     59  C   UNL A   1      45.901  30.530  27.854  1.00  0.00     0.074 A 
ATOM     60  C   UNL A   1      47.231  30.902  27.419  1.00  0.00     0.031 C 
ATOM     61  C   UNL A   1      45.104  31.310  28.624  1.00  0.00     0.034 A 
BRANCH  48  62
ATOM     62  C   UNL A   1      39.459  28.999  29.539  1.00  0.00     0.023 A 
ATOM     63  C   UNL A   1      39.233  28.503  30.839  1.00  0.00     0.012 A 
ATOM     64  C   UNL A   1      38.421  29.649  28.849  1.00  0.00     0.148 A 
ATOM     65  C   UNL A   1      37.984  28.633  31.441  1.00  0.00     0.002 A 
ATOM     66  C   UNL A   1      37.182  29.794  29.464  1.00  0.00     0.091 A 
ATOM     67  F   UNL A   1      38.657  30.091  27.606  1.00  0.00    -0.205 F 
ATOM     68  C   UNL A   1      36.962  29.284  30.756  1.00  0.00     0.022 A 
BRANCH  66  69
ATOM     69  S   UNL A   1      35.800  30.635  28.686  1.00  0.00     0.127 S 
ATOM     70  O   UNL A   1      35.048  29.511  28.129  1.00  0.00    -0.237 OA
ATOM     71  O   UNL A   1      35.160  31.293  29.825  1.00  0.00    -0.237 OA
ATOM     72  O   UNL A   1      36.380  31.541  27.704  1.00  0.00    -0.744 OA
ENDBRANCH  66  69
ENDBRANCH  48  62
BRANCH  49  73
ATOM     73  C   UNL A   1      48.359  27.399  25.344  1.00  0.00     0.023 A 
ATOM     74  C   UNL A   1      49.367  26.909  26.200  1.00  0.00     0.012 A 
ATOM     75  C   UNL A   1      48.648  27.602  23.982  1.00  0.00     0.148 A 
ATOM     76  C   UNL A   1      50.643  26.637  25.710  1.00  0.00     0.002 A 
ATOM     77  C   UNL A   1      49.917  27.305  23.494  1.00  0.00     0.091 A 
ATOM     78  F   UNL A   1      47.676  28.082  23.194  1.00  0.00    -0.205 F 
ATOM     79  C   UNL A   1      50.917  26.828  24.358  1.00  0.00     0.022 A 
BRANCH  77  80
ATOM     80  S   UNL A   1      50.356  27.459  21.759  1.00  0.00     0.127 S 
ATOM     81  O   UNL A   1      49.921  28.822  21.461  1.00  0.00    -0.237 OA
ATOM     82  O   UNL A   1      51.807  27.272  21.796  1.00  0.00    -0.237 OA
ATOM     83  O   UNL A   1      49.627  26.404  21.070  1.00  0.00    -0.744 OA
ENDBRANCH  77  80
ENDBRANCH  49  73
BRANCH  61  84
ATOM     84  C   UNL A   1      45.615  32.656  29.053  1.00  0.00     0.023 A 
ATOM     85  C   UNL A   1      46.417  32.738  30.207  1.00  0.00     0.012 A 
ATOM     86  C   UNL A   1      45.457  33.787  28.229  1.00  0.00     0.148 A 
ATOM     87  C   UNL A   1      47.061  33.929  30.535  1.00  0.00     0.002 A 
ATOM     88  C   UNL A   1      46.128  34.963  28.545  1.00  0.00     0.091 A 
ATOM     89  F   UNL A   1      44.688  33.679  27.136  1.00  0.00    -0.205 F 
ATOM     90  C   UNL A   1      46.928  35.036  29.698  1.00  0.00     0.022 A 
BRANCH  88  91
ATOM     91  S   UNL A   1      46.093  36.416  27.489  1.00  0.00     0.127 S 
ATOM     92  O   UNL A   1      46.631  35.886  26.236  1.00  0.00    -0.237 OA
ATOM     93  O   UNL A   1      44.667  36.737  27.453  1.00  0.00    -0.237 OA
ATOM     94  O   UNL A   1      46.926  37.415  28.144  1.00  0.00    -0.744 OA
ENDBRANCH  88  91
ENDBRANCH  61  84
ENDBRANCH  35  36
ENDBRANCH  28  30
ENDBRANCH  27  28
ENDBRANCH   1  27
TORSDOF 16
ENDMDL
