MODEL 1
REMARK VINA RESULT:     -11.6      0.000      0.000
REMARK SMILES O=C(NCCC1=CCCCC1)C1=C(C(=O)OCCOC(=O)c2ccc(-c3c4nc(c(-c5cccc(S(=O)(=O)[O-])c5F)c5ccc([nH]5)c(-c5cccc(S(=O)(=O)[O-])c5F)c5nc(c(-c6cccc(S(=O)(=O)[O-])c6F)c6ccc3[nH]6)C=C5)C=C4)cc2)CCCC1
REMARK SMILES IDX 17 1 16 2 14 3 15 4 13 5 12 6 88 7 85 8 87 9 86 10 2 11 1 12
REMARK SMILES IDX 3 13 4 15 5 16 6 17 7 18 11 19 8 20 10 21 9 22 18 23 19 24
REMARK SMILES IDX 20 25 21 26 22 27 23 28 84 29 24 30 83 31 25 32 26 33 27 34
REMARK SMILES IDX 77 35 28 36 82 37 76 38 78 39 29 40 81 41 75 42 74 43 30 45
REMARK SMILES IDX 62 46 42 47 61 48 43 49 46 50 60 51 79 52 44 53 45 54 59 56
REMARK SMILES IDX 80 57 47 58 31 59 32 60 40 61 33 62 35 63 41 64 34 65 36 66
REMARK SMILES IDX 37 67 38 68 39 69 63 70 64 71 72 72 65 73 67 74 73 75 66 76
REMARK SMILES IDX 68 77 69 78 70 79 71 80 48 81 49 82 57 83 50 84 52 85 58 86
REMARK SMILES IDX 51 87 53 88 54 89 55 90 56 91
REMARK H PARENT 3 14 78 44 46 55
REMARK Flexibility Score: inf
ROOT
ATOM      1  C   UNL A   1      35.251  21.245  25.647  1.00  0.00     0.275 C 
ENDROOT
BRANCH   1   2
ATOM      2  O   UNL A   1      34.438  21.885  24.644  1.00  0.00    -0.459 OA
BRANCH   2   3
ATOM      3  C   UNL A   1      34.357  23.235  24.718  1.00  0.00     0.334 C 
ATOM      4  O   UNL A   1      35.284  24.023  24.602  1.00  0.00    -0.247 OA
BRANCH   3   5
ATOM      5  C   UNL A   1      32.969  23.693  24.977  1.00  0.00     0.046 C 
ATOM      6  C   UNL A   1      32.080  23.886  23.983  1.00  0.00     0.027 C 
ATOM      7  C   UNL A   1      30.679  24.387  24.227  1.00  0.00     0.042 C 
ATOM      8  C   UNL A   1      32.577  23.811  26.429  1.00  0.00     0.044 C 
ATOM      9  C   UNL A   1      30.422  24.829  25.671  1.00  0.00     0.005 C 
ATOM     10  C   UNL A   1      31.068  23.864  26.656  1.00  0.00     0.005 C 
BRANCH   6  11
ATOM     11  C   UNL A   1      32.428  23.680  22.556  1.00  0.00     0.247 C 
ATOM     12  O   UNL A   1      32.686  22.556  22.134  1.00  0.00    -0.270 OA
ATOM     13  N   UNL A   1      32.507  24.750  21.721  1.00  0.00    -0.352 N 
ATOM     14  H   UNL A   1      32.668  24.515  20.779  1.00  0.00     0.163 HD
BRANCH  13  15
ATOM     15  C   UNL A   1      32.399  26.186  21.970  1.00  0.00     0.120 C 
BRANCH  15  16
ATOM     16  C   UNL A   1      33.554  26.716  22.829  1.00  0.00     0.052 C 
BRANCH  16  17
ATOM     17  C   UNL A   1      33.097  27.280  24.159  1.00  0.00    -0.072 C 
ATOM     18  C   UNL A   1      33.837  27.140  25.275  1.00  0.00    -0.028 C 
ATOM     19  C   UNL A   1      31.761  27.989  24.170  1.00  0.00     0.031 C 
ATOM     20  C   UNL A   1      33.438  27.691  26.609  1.00  0.00     0.027 C 
ATOM     21  C   UNL A   1      31.443  28.722  25.479  1.00  0.00     0.005 C 
ATOM     22  C   UNL A   1      31.938  27.953  26.700  1.00  0.00     0.004 C 
ENDBRANCH  16  17
ENDBRANCH  15  16
ENDBRANCH  13  15
ENDBRANCH   6  11
ENDBRANCH   3   5
ENDBRANCH   2   3
ENDBRANCH   1   2
BRANCH   1  23
ATOM     23  C   UNL A   1      36.512  20.634  25.044  1.00  0.00     0.275 C 
BRANCH  23  24
ATOM     24  O   UNL A   1      37.585  21.587  25.091  1.00  0.00    -0.458 OA
BRANCH  24  25
ATOM     25  C   UNL A   1      38.683  21.179  25.765  1.00  0.00     0.338 C 
ATOM     26  O   UNL A   1      39.207  20.079  25.750  1.00  0.00    -0.246 OA
BRANCH  25  27
ATOM     27  C   UNL A   1      39.269  22.332  26.456  1.00  0.00     0.060 A 
ATOM     28  C   UNL A   1      38.804  23.597  26.106  1.00  0.00     0.016 A 
ATOM     29  C   UNL A   1      40.346  22.190  27.322  1.00  0.00     0.016 A 
ATOM     30  C   UNL A   1      39.451  24.738  26.549  1.00  0.00     0.010 A 
ATOM     31  C   UNL A   1      40.964  23.340  27.823  1.00  0.00     0.010 A 
ATOM     32  C   UNL A   1      40.545  24.621  27.408  1.00  0.00    -0.014 A 
BRANCH  32  33
ATOM     33  C   UNL A   1      41.313  25.828  27.789  1.00  0.00     0.031 A 
ATOM     34  C   UNL A   1      40.634  26.893  28.603  1.00  0.00     0.074 A 
ATOM     35  C   UNL A   1      42.604  25.961  27.430  1.00  0.00     0.049 A 
ATOM     36  N   UNL A   1      41.032  28.107  28.872  1.00  0.00    -0.248 NA
ATOM     37  C   UNL A   1      39.325  26.545  29.185  1.00  0.00     0.031 C 
ATOM     38  C   UNL A   1      43.389  24.962  26.704  1.00  0.00     0.029 A 
ATOM     39  N   UNL A   1      43.479  27.000  27.618  1.00  0.00    -0.354 N 
ATOM     40  C   UNL A   1      39.993  28.694  29.584  1.00  0.00     0.074 A 
ATOM     41  C   UNL A   1      38.954  27.698  29.724  1.00  0.00     0.031 C 
ATOM     42  C   UNL A   1      44.628  25.437  26.502  1.00  0.00     0.029 A 
ATOM     43  C   UNL A   1      44.702  26.800  27.018  1.00  0.00     0.049 A 
ATOM     44  H   UNL A   1      43.256  27.810  28.130  1.00  0.00     0.167 HD
ATOM     45  C   UNL A   1      39.917  29.952  30.077  1.00  0.00     0.034 A 
ATOM     46  C   UNL A   1      45.744  27.639  26.863  1.00  0.00     0.034 A 
ATOM     47  C   UNL A   1      40.987  30.908  29.986  1.00  0.00     0.049 A 
ATOM     48  C   UNL A   1      45.630  29.036  27.411  1.00  0.00     0.074 A 
ATOM     49  C   UNL A   1      41.020  32.211  30.447  1.00  0.00     0.029 A 
ATOM     50  N   UNL A   1      42.223  30.653  29.410  1.00  0.00    -0.354 N 
ATOM     51  N   UNL A   1      44.644  29.582  28.081  1.00  0.00    -0.248 NA
ATOM     52  C   UNL A   1      46.773  29.932  27.187  1.00  0.00     0.031 C 
ATOM     53  C   UNL A   1      42.279  32.745  30.149  1.00  0.00     0.029 A 
ATOM     54  C   UNL A   1      43.031  31.770  29.512  1.00  0.00     0.049 A 
ATOM     55  H   UNL A   1      42.484  29.802  28.989  1.00  0.00     0.167 HD
ATOM     56  C   UNL A   1      45.055  30.874  28.381  1.00  0.00     0.074 A 
ATOM     57  C   UNL A   1      46.392  31.021  27.841  1.00  0.00     0.031 C 
ATOM     58  C   UNL A   1      44.382  31.862  29.022  1.00  0.00     0.034 A 
BRANCH  45  59
ATOM     59  C   UNL A   1      38.644  30.357  30.767  1.00  0.00     0.023 A 
ATOM     60  C   UNL A   1      38.453  30.041  32.126  1.00  0.00     0.012 A 
ATOM     61  C   UNL A   1      37.653  31.086  30.081  1.00  0.00     0.148 A 
ATOM     62  C   UNL A   1      37.283  30.419  32.785  1.00  0.00     0.002 A 
ATOM     63  C   UNL A   1      36.507  31.494  30.754  1.00  0.00     0.091 A 
ATOM     64  F   UNL A   1      37.841  31.354  28.780  1.00  0.00    -0.205 F 
ATOM     65  C   UNL A   1      36.316  31.153  32.103  1.00  0.00     0.022 A 
BRANCH  63  66
ATOM     66  S   UNL A   1      35.236  32.500  29.979  1.00  0.00     0.127 S 
ATOM     67  O   UNL A   1      36.001  33.675  29.565  1.00  0.00    -0.237 OA
ATOM     68  O   UNL A   1      34.791  31.643  28.880  1.00  0.00    -0.237 OA
ATOM     69  O   UNL A   1      34.231  32.738  31.007  1.00  0.00    -0.744 OA
ENDBRANCH  63  66
ENDBRANCH  45  59
BRANCH  46  70
ATOM     70  C   UNL A   1      46.980  27.180  26.168  1.00  0.00     0.023 A 
ATOM     71  C   UNL A   1      47.133  27.431  24.791  1.00  0.00     0.012 A 
ATOM     72  C   UNL A   1      48.016  26.522  26.862  1.00  0.00     0.148 A 
ATOM     73  C   UNL A   1      48.282  27.018  24.115  1.00  0.00     0.002 A 
ATOM     74  C   UNL A   1      49.183  26.167  26.195  1.00  0.00     0.091 A 
ATOM     75  F   UNL A   1      47.845  26.262  28.166  1.00  0.00    -0.205 F 
ATOM     76  C   UNL A   1      49.312  26.399  24.818  1.00  0.00     0.022 A 
BRANCH  74  77
ATOM     77  S   UNL A   1      50.606  25.498  27.065  1.00  0.00     0.127 S 
ATOM     78  O   UNL A   1      50.057  24.278  27.648  1.00  0.00    -0.237 OA
ATOM     79  O   UNL A   1      51.563  25.286  25.978  1.00  0.00    -0.237 OA
ATOM     80  O   UNL A   1      51.001  26.538  28.007  1.00  0.00    -0.744 OA
ENDBRANCH  74  77
ENDBRANCH  46  70
BRANCH  58  81
ATOM     81  C   UNL A   1      45.092  33.173  29.207  1.00  0.00     0.023 A 
ATOM     82  C   UNL A   1      45.870  33.385  30.363  1.00  0.00     0.012 A 
ATOM     83  C   UNL A   1      45.054  34.160  28.203  1.00  0.00     0.148 A 
ATOM     84  C   UNL A   1      46.581  34.573  30.527  1.00  0.00     0.002 A 
ATOM     85  C   UNL A   1      45.800  35.323  28.355  1.00  0.00     0.091 A 
ATOM     86  F   UNL A   1      44.290  33.945  27.123  1.00  0.00    -0.205 F 
ATOM     87  C   UNL A   1      46.555  35.535  29.519  1.00  0.00     0.022 A 
BRANCH  85  88
ATOM     88  S   UNL A   1      45.893  36.570  27.067  1.00  0.00     0.127 S 
ATOM     89  O   UNL A   1      44.521  37.074  27.038  1.00  0.00    -0.237 OA
ATOM     90  O   UNL A   1      46.876  37.509  27.610  1.00  0.00    -0.237 OA
ATOM     91  O   UNL A   1      46.332  35.870  25.867  1.00  0.00    -0.744 OA
ENDBRANCH  85  88
ENDBRANCH  58  81
ENDBRANCH  32  33
ENDBRANCH  25  27
ENDBRANCH  24  25
ENDBRANCH  23  24
ENDBRANCH   1  23
TORSDOF 18
ENDMDL
MODEL 2
REMARK VINA RESULT:     -11.5      5.296      8.107
REMARK SMILES O=C(NCCC1=CCCCC1)C1=C(C(=O)OCCOC(=O)c2ccc(-c3c4nc(c(-c5cccc(S(=O)(=O)[O-])c5F)c5ccc([nH]5)c(-c5cccc(S(=O)(=O)[O-])c5F)c5nc(c(-c6cccc(S(=O)(=O)[O-])c6F)c6ccc3[nH]6)C=C5)C=C4)cc2)CCCC1
REMARK SMILES IDX 17 1 16 2 14 3 15 4 13 5 12 6 88 7 85 8 87 9 86 10 2 11 1 12
REMARK SMILES IDX 3 13 4 15 5 16 6 17 7 18 11 19 8 20 10 21 9 22 18 23 19 24
REMARK SMILES IDX 20 25 21 26 22 27 23 28 84 29 24 30 83 31 25 32 26 33 27 34
REMARK SMILES IDX 77 35 28 36 82 37 76 38 78 39 29 40 81 41 75 42 74 43 30 45
REMARK SMILES IDX 62 46 42 47 61 48 43 49 46 50 60 51 79 52 44 53 45 54 59 56
REMARK SMILES IDX 80 57 47 58 31 59 32 60 40 61 33 62 35 63 41 64 34 65 36 66
REMARK SMILES IDX 37 67 38 68 39 69 63 70 64 71 72 72 65 73 67 74 73 75 66 76
REMARK SMILES IDX 68 77 69 78 70 79 71 80 48 81 49 82 57 83 50 84 52 85 58 86
REMARK SMILES IDX 51 87 53 88 54 89 55 90 56 91
REMARK H PARENT 3 14 78 44 46 55
REMARK Flexibility Score: inf
ROOT
ATOM      1  C   UNL A   1      31.153  31.632  26.062  1.00  0.00     0.275 C 
ENDROOT
BRANCH   1   2
ATOM      2  O   UNL A   1      31.499  30.373  26.671  1.00  0.00    -0.459 OA
BRANCH   2   3
ATOM      3  C   UNL A   1      32.254  29.536  25.920  1.00  0.00     0.334 C 
ATOM      4  O   UNL A   1      33.387  29.751  25.516  1.00  0.00    -0.247 OA
BRANCH   3   5
ATOM      5  C   UNL A   1      31.536  28.275  25.605  1.00  0.00     0.046 C 
ATOM      6  C   UNL A   1      31.062  28.009  24.372  1.00  0.00     0.027 C 
ATOM      7  C   UNL A   1      30.298  26.751  24.046  1.00  0.00     0.042 C 
ATOM      8  C   UNL A   1      31.477  27.258  26.717  1.00  0.00     0.044 C 
ATOM      9  C   UNL A   1      29.953  25.900  25.272  1.00  0.00     0.005 C 
ATOM     10  C   UNL A   1      31.124  25.849  26.243  1.00  0.00     0.005 C 
BRANCH   6  11
ATOM     11  C   UNL A   1      31.199  28.964  23.246  1.00  0.00     0.247 C 
ATOM     12  O   UNL A   1      30.268  29.705  22.939  1.00  0.00    -0.270 OA
ATOM     13  N   UNL A   1      32.347  28.986  22.518  1.00  0.00    -0.352 N 
ATOM     14  H   UNL A   1      32.382  29.699  21.840  1.00  0.00     0.163 HD
BRANCH  13  15
ATOM     15  C   UNL A   1      33.538  28.139  22.558  1.00  0.00     0.120 C 
BRANCH  15  16
ATOM     16  C   UNL A   1      33.334  26.813  21.815  1.00  0.00     0.052 C 
BRANCH  16  17
ATOM     17  C   UNL A   1      33.443  25.601  22.720  1.00  0.00    -0.072 C 
ATOM     18  C   UNL A   1      32.968  24.398  22.346  1.00  0.00    -0.028 C 
ATOM     19  C   UNL A   1      34.092  25.820  24.068  1.00  0.00     0.031 C 
ATOM     20  C   UNL A   1      33.064  23.168  23.195  1.00  0.00     0.027 C 
ATOM     21  C   UNL A   1      34.370  24.532  24.854  1.00  0.00     0.005 C 
ATOM     22  C   UNL A   1      33.262  23.500  24.670  1.00  0.00     0.004 C 
ENDBRANCH  16  17
ENDBRANCH  15  16
ENDBRANCH  13  15
ENDBRANCH   6  11
ENDBRANCH   3   5
ENDBRANCH   2   3
ENDBRANCH   1   2
BRANCH   1  23
ATOM     23  C   UNL A   1      31.408  32.803  27.006  1.00  0.00     0.275 C 
BRANCH  23  24
ATOM     24  O   UNL A   1      32.761  33.261  26.858  1.00  0.00    -0.458 OA
BRANCH  24  25
ATOM     25  C   UNL A   1      33.294  33.834  27.961  1.00  0.00     0.338 C 
ATOM     26  O   UNL A   1      32.831  34.735  28.636  1.00  0.00    -0.246 OA
BRANCH  25  27
ATOM     27  C   UNL A   1      34.510  33.101  28.332  1.00  0.00     0.060 A 
ATOM     28  C   UNL A   1      34.400  31.727  28.523  1.00  0.00     0.016 A 
ATOM     29  C   UNL A   1      35.695  33.763  28.627  1.00  0.00     0.016 A 
ATOM     30  C   UNL A   1      35.441  31.003  29.081  1.00  0.00     0.010 A 
ATOM     31  C   UNL A   1      36.771  33.026  29.131  1.00  0.00     0.010 A 
ATOM     32  C   UNL A   1      36.636  31.648  29.398  1.00  0.00    -0.014 A 
BRANCH  32  33
ATOM     33  C   UNL A   1      37.707  30.906  30.104  1.00  0.00     0.031 A 
ATOM     34  C   UNL A   1      37.929  31.169  31.566  1.00  0.00     0.074 A 
ATOM     35  C   UNL A   1      38.455  29.996  29.451  1.00  0.00     0.049 A 
ATOM     36  N   UNL A   1      38.923  30.802  32.330  1.00  0.00    -0.248 NA
ATOM     37  C   UNL A   1      36.897  31.962  32.259  1.00  0.00     0.031 C 
ATOM     38  C   UNL A   1      38.283  29.604  28.052  1.00  0.00     0.029 A 
ATOM     39  N   UNL A   1      39.520  29.246  29.878  1.00  0.00    -0.354 N 
ATOM     40  C   UNL A   1      38.678  31.382  33.569  1.00  0.00     0.074 A 
ATOM     41  C   UNL A   1      37.432  32.109  33.463  1.00  0.00     0.031 C 
ATOM     42  C   UNL A   1      39.212  28.689  27.733  1.00  0.00     0.029 A 
ATOM     43  C   UNL A   1      40.089  28.487  28.881  1.00  0.00     0.049 A 
ATOM     44  H   UNL A   1      39.847  29.250  30.806  1.00  0.00     0.167 HD
ATOM     45  C   UNL A   1      39.428  31.309  34.693  1.00  0.00     0.034 A 
ATOM     46  C   UNL A   1      41.217  27.751  28.883  1.00  0.00     0.034 A 
ATOM     47  C   UNL A   1      40.629  30.527  34.800  1.00  0.00     0.049 A 
ATOM     48  C   UNL A   1      42.038  27.696  30.143  1.00  0.00     0.074 A 
ATOM     49  C   UNL A   1      41.469  30.383  35.888  1.00  0.00     0.029 A 
ATOM     50  N   UNL A   1      41.148  29.741  33.782  1.00  0.00    -0.354 N 
ATOM     51  N   UNL A   1      41.800  28.248  31.308  1.00  0.00    -0.248 NA
ATOM     52  C   UNL A   1      43.281  26.913  30.092  1.00  0.00     0.031 C 
ATOM     53  C   UNL A   1      42.498  29.506  35.527  1.00  0.00     0.029 A 
ATOM     54  C   UNL A   1      42.291  29.098  34.219  1.00  0.00     0.049 A 
ATOM     55  H   UNL A   1      40.759  29.653  32.882  1.00  0.00     0.167 HD
ATOM     56  C   UNL A   1      42.846  27.861  32.135  1.00  0.00     0.074 A 
ATOM     57  C   UNL A   1      43.708  27.006  31.344  1.00  0.00     0.031 C 
ATOM     58  C   UNL A   1      43.091  28.200  33.426  1.00  0.00     0.034 A 
BRANCH  45  59
ATOM     59  C   UNL A   1      38.962  32.084  35.895  1.00  0.00     0.023 A 
ATOM     60  C   UNL A   1      39.184  33.474  35.960  1.00  0.00     0.012 A 
ATOM     61  C   UNL A   1      38.271  31.444  36.942  1.00  0.00     0.148 A 
ATOM     62  C   UNL A   1      38.748  34.210  37.063  1.00  0.00     0.002 A 
ATOM     63  C   UNL A   1      37.806  32.190  38.019  1.00  0.00     0.091 A 
ATOM     64  F   UNL A   1      38.094  30.117  36.874  1.00  0.00    -0.205 F 
ATOM     65  C   UNL A   1      38.052  33.571  38.085  1.00  0.00     0.022 A 
BRANCH  63  66
ATOM     66  S   UNL A   1      36.841  31.469  39.352  1.00  0.00     0.127 S 
ATOM     67  O   UNL A   1      35.966  32.582  39.719  1.00  0.00    -0.237 OA
ATOM     68  O   UNL A   1      36.166  30.359  38.679  1.00  0.00    -0.237 OA
ATOM     69  O   UNL A   1      37.802  31.066  40.370  1.00  0.00    -0.744 OA
ENDBRANCH  63  66
ENDBRANCH  45  59
BRANCH  46  70
ATOM     70  C   UNL A   1      41.628  27.005  27.659  1.00  0.00     0.023 A 
ATOM     71  C   UNL A   1      42.197  27.708  26.580  1.00  0.00     0.012 A 
ATOM     72  C   UNL A   1      41.487  25.606  27.565  1.00  0.00     0.148 A 
ATOM     73  C   UNL A   1      42.597  27.036  25.423  1.00  0.00     0.002 A 
ATOM     74  C   UNL A   1      41.942  24.936  26.435  1.00  0.00     0.091 A 
ATOM     75  F   UNL A   1      40.917  24.952  28.587  1.00  0.00    -0.205 F 
ATOM     76  C   UNL A   1      42.483  25.650  25.356  1.00  0.00     0.022 A 
BRANCH  74  77
ATOM     77  S   UNL A   1      41.960  23.141  26.340  1.00  0.00     0.127 S 
ATOM     78  O   UNL A   1      42.600  22.914  25.047  1.00  0.00    -0.237 OA
ATOM     79  O   UNL A   1      42.772  22.777  27.501  1.00  0.00    -0.237 OA
ATOM     80  O   UNL A   1      40.563  22.740  26.443  1.00  0.00    -0.744 OA
ENDBRANCH  74  77
ENDBRANCH  46  70
BRANCH  58  81
ATOM     81  C   UNL A   1      44.316  27.617  34.072  1.00  0.00     0.023 A 
ATOM     82  C   UNL A   1      45.541  28.309  33.992  1.00  0.00     0.012 A 
ATOM     83  C   UNL A   1      44.236  26.429  34.824  1.00  0.00     0.148 A 
ATOM     84  C   UNL A   1      46.675  27.812  34.631  1.00  0.00     0.002 A 
ATOM     85  C   UNL A   1      45.361  25.963  35.494  1.00  0.00     0.091 A 
ATOM     86  F   UNL A   1      43.065  25.777  34.868  1.00  0.00    -0.205 F 
ATOM     87  C   UNL A   1      46.582  26.648  35.390  1.00  0.00     0.022 A 
BRANCH  85  88
ATOM     88  S   UNL A   1      45.305  24.523  36.564  1.00  0.00     0.127 S 
ATOM     89  O   UNL A   1      44.870  23.479  35.638  1.00  0.00    -0.237 OA
ATOM     90  O   UNL A   1      46.695  24.406  37.006  1.00  0.00    -0.237 OA
ATOM     91  O   UNL A   1      44.364  24.854  37.626  1.00  0.00    -0.744 OA
ENDBRANCH  85  88
ENDBRANCH  58  81
ENDBRANCH  32  33
ENDBRANCH  25  27
ENDBRANCH  24  25
ENDBRANCH  23  24
ENDBRANCH   1  23
TORSDOF 18
ENDMDL
MODEL 3
REMARK VINA RESULT:     -11.4      1.654      2.343
REMARK SMILES O=C(NCCC1=CCCCC1)C1=C(C(=O)OCCOC(=O)c2ccc(-c3c4nc(c(-c5cccc(S(=O)(=O)[O-])c5F)c5ccc([nH]5)c(-c5cccc(S(=O)(=O)[O-])c5F)c5nc(c(-c6cccc(S(=O)(=O)[O-])c6F)c6ccc3[nH]6)C=C5)C=C4)cc2)CCCC1
REMARK SMILES IDX 17 1 16 2 14 3 15 4 13 5 12 6 88 7 85 8 87 9 86 10 2 11 1 12
REMARK SMILES IDX 3 13 4 15 5 16 6 17 7 18 11 19 8 20 10 21 9 22 18 23 19 24
REMARK SMILES IDX 20 25 21 26 22 27 23 28 84 29 24 30 83 31 25 32 26 33 27 34
REMARK SMILES IDX 77 35 28 36 82 37 76 38 78 39 29 40 81 41 75 42 74 43 30 45
REMARK SMILES IDX 62 46 42 47 61 48 43 49 46 50 60 51 79 52 44 53 45 54 59 56
REMARK SMILES IDX 80 57 47 58 31 59 32 60 40 61 33 62 35 63 41 64 34 65 36 66
REMARK SMILES IDX 37 67 38 68 39 69 63 70 64 71 72 72 65 73 67 74 73 75 66 76
REMARK SMILES IDX 68 77 69 78 70 79 71 80 48 81 49 82 57 83 50 84 52 85 58 86
REMARK SMILES IDX 51 87 53 88 54 89 55 90 56 91
REMARK H PARENT 3 14 78 44 46 55
REMARK Flexibility Score: inf
ROOT
ATOM      1  C   UNL A   1      35.963  20.744  24.802  1.00  0.00     0.275 C 
ENDROOT
BRANCH   1   2
ATOM      2  O   UNL A   1      35.386  21.113  26.070  1.00  0.00    -0.459 OA
BRANCH   2   3
ATOM      3  C   UNL A   1      34.763  22.315  26.112  1.00  0.00     0.334 C 
ATOM      4  O   UNL A   1      34.668  23.047  27.087  1.00  0.00    -0.247 OA
BRANCH   3   5
ATOM      5  C   UNL A   1      34.164  22.675  24.803  1.00  0.00     0.046 C 
ATOM      6  C   UNL A   1      32.935  22.259  24.439  1.00  0.00     0.027 C 
ATOM      7  C   UNL A   1      32.328  22.584  23.098  1.00  0.00     0.042 C 
ATOM      8  C   UNL A   1      34.963  23.633  23.956  1.00  0.00     0.044 C 
ATOM      9  C   UNL A   1      33.299  23.263  22.126  1.00  0.00     0.005 C 
ATOM     10  C   UNL A   1      34.150  24.298  22.847  1.00  0.00     0.005 C 
BRANCH   6  11
ATOM     11  C   UNL A   1      32.100  21.394  25.307  1.00  0.00     0.247 C 
ATOM     12  O   UNL A   1      32.268  20.177  25.320  1.00  0.00    -0.270 OA
ATOM     13  N   UNL A   1      31.110  21.948  26.058  1.00  0.00    -0.352 N 
ATOM     14  H   UNL A   1      30.657  21.314  26.659  1.00  0.00     0.163 HD
BRANCH  13  15
ATOM     15  C   UNL A   1      30.596  23.314  26.130  1.00  0.00     0.120 C 
BRANCH  15  16
ATOM     16  C   UNL A   1      31.596  24.278  26.779  1.00  0.00     0.052 C 
BRANCH  16  17
ATOM     17  C   UNL A   1      31.917  25.478  25.910  1.00  0.00    -0.072 C 
ATOM     18  C   UNL A   1      31.027  25.962  25.023  1.00  0.00    -0.028 C 
ATOM     19  C   UNL A   1      33.291  26.086  26.076  1.00  0.00     0.031 C 
ATOM     20  C   UNL A   1      31.289  27.153  24.152  1.00  0.00     0.027 C 
ATOM     21  C   UNL A   1      33.490  27.414  25.337  1.00  0.00     0.005 C 
ATOM     22  C   UNL A   1      32.779  27.430  23.987  1.00  0.00     0.004 C 
ENDBRANCH  16  17
ENDBRANCH  15  16
ENDBRANCH  13  15
ENDBRANCH   6  11
ENDBRANCH   3   5
ENDBRANCH   2   3
ENDBRANCH   1   2
BRANCH   1  23
ATOM     23  C   UNL A   1      37.470  20.531  24.910  1.00  0.00     0.275 C 
BRANCH  23  24
ATOM     24  O   UNL A   1      38.070  21.643  25.592  1.00  0.00    -0.458 OA
BRANCH  24  25
ATOM     25  C   UNL A   1      39.275  21.388  26.151  1.00  0.00     0.338 C 
ATOM     26  O   UNL A   1      39.947  20.377  26.055  1.00  0.00    -0.246 OA
BRANCH  25  27
ATOM     27  C   UNL A   1      39.752  22.604  26.819  1.00  0.00     0.060 A 
ATOM     28  C   UNL A   1      39.271  23.825  26.354  1.00  0.00     0.016 A 
ATOM     29  C   UNL A   1      40.754  22.558  27.780  1.00  0.00     0.016 A 
ATOM     30  C   UNL A   1      39.832  25.017  26.783  1.00  0.00     0.010 A 
ATOM     31  C   UNL A   1      41.280  23.761  28.263  1.00  0.00     0.010 A 
ATOM     32  C   UNL A   1      40.849  24.996  27.737  1.00  0.00    -0.014 A 
BRANCH  32  33
ATOM     33  C   UNL A   1      41.533  26.256  28.109  1.00  0.00     0.031 A 
ATOM     34  C   UNL A   1      40.768  27.299  28.872  1.00  0.00     0.074 A 
ATOM     35  C   UNL A   1      42.825  26.455  27.787  1.00  0.00     0.049 A 
ATOM     36  N   UNL A   1      41.086  28.541  29.120  1.00  0.00    -0.248 NA
ATOM     37  C   UNL A   1      39.462  26.890  29.422  1.00  0.00     0.031 C 
ATOM     38  C   UNL A   1      43.690  25.486  27.112  1.00  0.00     0.029 A 
ATOM     39  N   UNL A   1      43.633  27.548  27.974  1.00  0.00    -0.354 N 
ATOM     40  C   UNL A   1      39.991  29.084  29.783  1.00  0.00     0.074 A 
ATOM     41  C   UNL A   1      39.008  28.032  29.918  1.00  0.00     0.031 C 
ATOM     42  C   UNL A   1      44.906  26.028  26.937  1.00  0.00     0.029 A 
ATOM     43  C   UNL A   1      44.884  27.405  27.418  1.00  0.00     0.049 A 
ATOM     44  H   UNL A   1      43.346  28.357  28.456  1.00  0.00     0.167 HD
ATOM     45  C   UNL A   1      39.827  30.347  30.239  1.00  0.00     0.034 A 
ATOM     46  C   UNL A   1      45.880  28.300  27.273  1.00  0.00     0.034 A 
ATOM     47  C   UNL A   1      40.842  31.362  30.156  1.00  0.00     0.049 A 
ATOM     48  C   UNL A   1      45.667  29.701  27.779  1.00  0.00     0.074 A 
ATOM     49  C   UNL A   1      40.784  32.676  30.583  1.00  0.00     0.029 A 
ATOM     50  N   UNL A   1      42.109  31.165  29.626  1.00  0.00    -0.354 N 
ATOM     51  N   UNL A   1      44.630  30.205  28.403  1.00  0.00    -0.248 NA
ATOM     52  C   UNL A   1      46.763  30.657  27.567  1.00  0.00     0.031 C 
ATOM     53  C   UNL A   1      42.019  33.274  30.309  1.00  0.00     0.029 A 
ATOM     54  C   UNL A   1      42.847  32.330  29.723  1.00  0.00     0.049 A 
ATOM     55  H   UNL A   1      42.433  30.321  29.237  1.00  0.00     0.167 HD
ATOM     56  C   UNL A   1      44.955  31.526  28.681  1.00  0.00     0.074 A 
ATOM     57  C   UNL A   1      46.299  31.738  28.179  1.00  0.00     0.031 C 
ATOM     58  C   UNL A   1      44.206  32.489  29.273  1.00  0.00     0.034 A 
BRANCH  45  59
ATOM     59  C   UNL A   1      38.511  30.694  30.878  1.00  0.00     0.023 A 
ATOM     60  C   UNL A   1      38.289  30.388  32.235  1.00  0.00     0.012 A 
ATOM     61  C   UNL A   1      37.507  31.358  30.146  1.00  0.00     0.148 A 
ATOM     62  C   UNL A   1      37.078  30.714  32.847  1.00  0.00     0.002 A 
ATOM     63  C   UNL A   1      36.318  31.714  30.772  1.00  0.00     0.091 A 
ATOM     64  F   UNL A   1      37.727  31.616  28.849  1.00  0.00    -0.205 F 
ATOM     65  C   UNL A   1      36.099  31.385  32.119  1.00  0.00     0.022 A 
BRANCH  63  66
ATOM     66  S   UNL A   1      35.024  32.639  29.937  1.00  0.00     0.127 S 
ATOM     67  O   UNL A   1      34.084  32.884  31.030  1.00  0.00    -0.237 OA
ATOM     68  O   UNL A   1      35.742  33.826  29.474  1.00  0.00    -0.237 OA
ATOM     69  O   UNL A   1      34.534  31.773  28.873  1.00  0.00    -0.744 OA
ENDBRANCH  63  66
ENDBRANCH  45  59
BRANCH  46  70
ATOM     70  C   UNL A   1      47.163  27.897  26.630  1.00  0.00     0.023 A 
ATOM     71  C   UNL A   1      48.247  27.505  27.438  1.00  0.00     0.012 A 
ATOM     72  C   UNL A   1      47.310  27.870  25.228  1.00  0.00     0.148 A 
ATOM     73  C   UNL A   1      49.459  27.116  26.864  1.00  0.00     0.002 A 
ATOM     74  C   UNL A   1      48.500  27.425  24.663  1.00  0.00     0.091 A 
ATOM     75  F   UNL A   1      46.280  28.274  24.471  1.00  0.00    -0.205 F 
ATOM     76  C   UNL A   1      49.581  27.062  25.478  1.00  0.00     0.022 A 
BRANCH  74  77
ATOM     77  S   UNL A   1      48.677  27.193  22.889  1.00  0.00     0.127 S 
ATOM     78  O   UNL A   1      50.101  27.449  22.693  1.00  0.00    -0.237 OA
ATOM     79  O   UNL A   1      48.273  25.797  22.717  1.00  0.00    -0.237 OA
ATOM     80  O   UNL A   1      47.763  28.153  22.285  1.00  0.00    -0.744 OA
ENDBRANCH  74  77
ENDBRANCH  46  70
BRANCH  58  81
ATOM     81  C   UNL A   1      44.833  33.844  29.445  1.00  0.00     0.023 A 
ATOM     82  C   UNL A   1      45.611  34.110  30.589  1.00  0.00     0.012 A 
ATOM     83  C   UNL A   1      44.718  34.822  28.438  1.00  0.00     0.148 A 
ATOM     84  C   UNL A   1      46.245  35.342  30.740  1.00  0.00     0.002 A 
ATOM     85  C   UNL A   1      45.389  36.031  28.577  1.00  0.00     0.091 A 
ATOM     86  F   UNL A   1      43.955  34.555  27.369  1.00  0.00    -0.205 F 
ATOM     87  C   UNL A   1      46.145  36.296  29.730  1.00  0.00     0.022 A 
BRANCH  85  88
ATOM     88  S   UNL A   1      45.384  37.277  27.284  1.00  0.00     0.127 S 
ATOM     89  O   UNL A   1      46.053  38.396  27.944  1.00  0.00    -0.237 OA
ATOM     90  O   UNL A   1      46.169  36.636  26.227  1.00  0.00    -0.237 OA
ATOM     91  O   UNL A   1      43.984  37.492  26.944  1.00  0.00    -0.744 OA
ENDBRANCH  85  88
ENDBRANCH  58  81
ENDBRANCH  32  33
ENDBRANCH  25  27
ENDBRANCH  24  25
ENDBRANCH  23  24
ENDBRANCH   1  23
TORSDOF 18
ENDMDL
