MODEL 1
REMARK VINA RESULT:     -12.6      0.000      0.000
REMARK SMILES Cc1ccccc1/[NH+]=C1\S[C@@H](CC(=O)Nc2ccc(C(=O)OCCOC(=O)c3ccc(-c4c5nc(c(-c6cccc(S(=O)(=O)[O-])c6F)c6ccc([nH]6)c(-c6cccc(S(=O)(=O)[O-])c6F)c6nc(c(-c7cccc(S(=O)(=O)[O-])c7F)c7ccc4[nH]7)C=C6)C=C5)cc3)cc2)C(=O)N1C
REMARK SMILES IDX 23 1 22 2 20 3 21 4 19 5 16 6 17 7 92 8 18 9 91 10 15 11
REMARK SMILES IDX 13 12 14 13 12 15 11 16 8 17 9 18 10 20 95 21 93 22 96 23
REMARK SMILES IDX 94 24 7 25 1 26 2 27 3 28 4 29 6 30 5 31 24 32 25 33 26 34
REMARK SMILES IDX 27 35 28 36 29 37 90 38 30 39 89 40 31 41 32 42 33 43 83 44
REMARK SMILES IDX 34 45 88 46 82 47 84 48 35 49 87 50 81 51 80 52 36 54 68 55
REMARK SMILES IDX 48 56 67 57 49 58 52 59 66 60 85 61 50 62 51 63 65 65 86 66
REMARK SMILES IDX 53 67 37 68 38 69 46 70 39 71 41 72 47 73 40 74 42 75 43 76
REMARK SMILES IDX 44 77 45 78 69 79 70 80 78 81 71 82 73 83 79 84 72 85 74 86
REMARK SMILES IDX 75 87 76 88 77 89 54 90 55 91 63 92 56 93 58 94 64 95 57 96
REMARK SMILES IDX 59 97 60 98 61 99 62 100
REMARK H PARENT 15 14 8 19 84 53 52 64
REMARK Flexibility Score: inf
ROOT
ATOM      1  C   UNL A   1      39.076  21.094  25.498  1.00  0.00     0.275 C 
ENDROOT
BRANCH   1   2
ATOM      2  O   UNL A   1      37.718  21.354  25.845  1.00  0.00    -0.458 OA
BRANCH   2   3
ATOM      3  C   UNL A   1      37.101  22.474  25.388  1.00  0.00     0.338 C 
ATOM      4  O   UNL A   1      37.611  23.430  24.859  1.00  0.00    -0.246 OA
BRANCH   3   5
ATOM      5  C   UNL A   1      35.652  22.250  25.571  1.00  0.00     0.060 A 
ATOM      6  C   UNL A   1      32.929  21.999  26.231  1.00  0.00     0.041 A 
ATOM      7  C   UNL A   1      33.720  23.042  26.646  1.00  0.00     0.027 A 
ATOM      8  C   UNL A   1      33.558  20.980  25.532  1.00  0.00     0.027 A 
ATOM      9  C   UNL A   1      35.007  23.264  26.233  1.00  0.00     0.018 A 
ATOM     10  C   UNL A   1      34.945  21.086  25.239  1.00  0.00     0.018 A 
BRANCH   6  11
ATOM     11  N   UNL A   1      31.593  21.997  26.681  1.00  0.00    -0.326 N 
ATOM     12  C   UNL A   1      30.654  23.008  26.479  1.00  0.00     0.226 C 
ATOM     13  O   UNL A   1      29.757  23.195  27.303  1.00  0.00    -0.275 OA
ATOM     14  H   UNL A   1      31.295  21.205  27.186  1.00  0.00     0.169 HD
BRANCH  12  15
ATOM     15  C   UNL A   1      30.642  23.732  25.122  1.00  0.00     0.128 C 
BRANCH  15  16
ATOM     16  C   UNL A   1      31.347  25.078  24.925  1.00  0.00     0.183 C 
ATOM     17  N   UNL A   1      31.342  28.720  24.862  1.00  0.00    -0.234 N 
ATOM     18  C   UNL A   1      30.837  27.548  24.816  1.00  0.00     0.319 C 
ATOM     19  H   UNL A   1      31.241  29.234  24.029  1.00  0.00     0.313 HD
ATOM     20  S   UNL A   1      30.484  26.330  25.976  1.00  0.00    -0.022 SA
ATOM     21  N   UNL A   1      30.705  26.991  23.590  1.00  0.00    -0.193 N 
ATOM     22  C   UNL A   1      31.387  25.797  23.564  1.00  0.00     0.324 C 
ATOM     23  C   UNL A   1      30.424  27.795  22.413  1.00  0.00     0.301 C 
ATOM     24  O   UNL A   1      32.005  25.379  22.589  1.00  0.00    -0.245 OA
BRANCH  17  25
ATOM     25  C   UNL A   1      32.010  29.405  25.877  1.00  0.00     0.128 A 
ATOM     26  C   UNL A   1      34.021  27.828  26.362  1.00  0.00     0.049 C 
ATOM     27  C   UNL A   1      33.269  29.122  26.444  1.00  0.00    -0.004 A 
ATOM     28  C   UNL A   1      33.919  30.124  27.185  1.00  0.00     0.008 A 
ATOM     29  C   UNL A   1      33.375  31.393  27.338  1.00  0.00     0.001 A 
ATOM     30  C   UNL A   1      31.466  30.689  26.079  1.00  0.00     0.052 A 
ATOM     31  C   UNL A   1      32.139  31.678  26.791  1.00  0.00     0.004 A 
ENDBRANCH  17  25
ENDBRANCH  15  16
ENDBRANCH  12  15
ENDBRANCH   6  11
ENDBRANCH   3   5
ENDBRANCH   2   3
ENDBRANCH   1   2
BRANCH   1  32
ATOM     32  C   UNL A   1      40.168  21.674  26.413  1.00  0.00     0.275 C 
BRANCH  32  33
ATOM     33  O   UNL A   1      40.139  23.069  26.854  1.00  0.00    -0.458 OA
BRANCH  33  34
ATOM     34  C   UNL A   1      41.042  24.072  26.699  1.00  0.00     0.338 C 
ATOM     35  O   UNL A   1      42.099  23.914  26.106  1.00  0.00    -0.246 OA
BRANCH  34  36
ATOM     36  C   UNL A   1      40.685  25.366  27.286  1.00  0.00     0.060 A 
ATOM     37  C   UNL A   1      41.020  26.572  26.645  1.00  0.00     0.016 A 
ATOM     38  C   UNL A   1      39.921  25.345  28.445  1.00  0.00     0.016 A 
ATOM     39  C   UNL A   1      40.546  27.774  27.151  1.00  0.00     0.010 A 
ATOM     40  C   UNL A   1      39.308  26.498  28.847  1.00  0.00     0.010 A 
ATOM     41  C   UNL A   1      39.720  27.711  28.271  1.00  0.00    -0.014 A 
BRANCH  41  42
ATOM     42  C   UNL A   1      39.655  28.791  29.237  1.00  0.00     0.031 A 
ATOM     43  C   UNL A   1      38.766  29.934  29.032  1.00  0.00     0.074 A 
ATOM     44  C   UNL A   1      40.370  28.482  30.348  1.00  0.00     0.049 A 
ATOM     45  N   UNL A   1      39.082  31.138  29.352  1.00  0.00    -0.248 NA
ATOM     46  C   UNL A   1      37.460  29.833  28.375  1.00  0.00     0.031 C 
ATOM     47  C   UNL A   1      40.294  28.964  31.709  1.00  0.00     0.029 A 
ATOM     48  N   UNL A   1      41.440  27.566  30.387  1.00  0.00    -0.354 N 
ATOM     49  C   UNL A   1      37.900  31.851  29.330  1.00  0.00     0.074 A 
ATOM     50  C   UNL A   1      36.987  31.080  28.521  1.00  0.00     0.031 C 
ATOM     51  C   UNL A   1      41.404  28.566  32.368  1.00  0.00     0.029 A 
ATOM     52  C   UNL A   1      42.309  27.951  31.397  1.00  0.00     0.049 A 
ATOM     53  H   UNL A   1      41.551  26.785  29.797  1.00  0.00     0.167 HD
ATOM     54  C   UNL A   1      37.693  32.811  30.275  1.00  0.00     0.034 A 
ATOM     55  C   UNL A   1      43.594  28.314  31.106  1.00  0.00     0.034 A 
ATOM     56  C   UNL A   1      38.794  32.769  31.249  1.00  0.00     0.049 A 
ATOM     57  C   UNL A   1      43.771  29.792  31.385  1.00  0.00     0.074 A 
ATOM     58  C   UNL A   1      38.899  32.096  32.457  1.00  0.00     0.029 A 
ATOM     59  N   UNL A   1      40.084  33.133  30.889  1.00  0.00    -0.354 N 
ATOM     60  N   UNL A   1      42.779  30.628  31.502  1.00  0.00    -0.248 NA
ATOM     61  C   UNL A   1      45.067  30.440  31.524  1.00  0.00     0.031 C 
ATOM     62  C   UNL A   1      40.263  32.052  32.823  1.00  0.00     0.029 A 
ATOM     63  C   UNL A   1      40.995  32.678  31.830  1.00  0.00     0.049 A 
ATOM     64  H   UNL A   1      40.318  33.642  30.079  1.00  0.00     0.167 HD
ATOM     65  C   UNL A   1      43.254  31.898  31.660  1.00  0.00     0.074 A 
ATOM     66  C   UNL A   1      44.697  31.719  31.714  1.00  0.00     0.031 C 
ATOM     67  C   UNL A   1      42.415  32.979  31.695  1.00  0.00     0.034 A 
BRANCH  54  68
ATOM     68  C   UNL A   1      36.354  33.452  30.607  1.00  0.00     0.023 A 
ATOM     69  C   UNL A   1      35.916  33.336  31.949  1.00  0.00     0.012 A 
ATOM     70  C   UNL A   1      35.508  34.177  29.736  1.00  0.00     0.148 A 
ATOM     71  C   UNL A   1      34.691  33.822  32.401  1.00  0.00     0.002 A 
ATOM     72  C   UNL A   1      34.273  34.674  30.194  1.00  0.00     0.091 A 
ATOM     73  F   UNL A   1      35.895  34.392  28.471  1.00  0.00    -0.205 F 
ATOM     74  C   UNL A   1      33.861  34.482  31.519  1.00  0.00     0.022 A 
BRANCH  72  75
ATOM     75  S   UNL A   1      33.143  35.634  29.174  1.00  0.00     0.127 S 
ATOM     76  O   UNL A   1      34.060  36.461  28.390  1.00  0.00    -0.237 OA
ATOM     77  O   UNL A   1      32.448  34.609  28.391  1.00  0.00    -0.237 OA
ATOM     78  O   UNL A   1      32.281  36.338  30.110  1.00  0.00    -0.744 OA
ENDBRANCH  72  75
ENDBRANCH  54  68
BRANCH  55  79
ATOM     79  C   UNL A   1      44.196  27.618  29.909  1.00  0.00     0.023 A 
ATOM     80  C   UNL A   1      44.213  26.198  29.895  1.00  0.00     0.012 A 
ATOM     81  C   UNL A   1      44.407  28.289  28.691  1.00  0.00     0.148 A 
ATOM     82  C   UNL A   1      44.296  25.483  28.695  1.00  0.00     0.002 A 
ATOM     83  C   UNL A   1      44.467  27.569  27.495  1.00  0.00     0.091 A 
ATOM     84  F   UNL A   1      44.489  29.625  28.687  1.00  0.00    -0.205 F 
ATOM     85  C   UNL A   1      44.391  26.172  27.490  1.00  0.00     0.022 A 
BRANCH  83  86
ATOM     86  S   UNL A   1      44.438  28.458  25.930  1.00  0.00     0.127 S 
ATOM     87  O   UNL A   1      43.378  29.450  26.123  1.00  0.00    -0.237 OA
ATOM     88  O   UNL A   1      45.771  29.039  25.848  1.00  0.00    -0.237 OA
ATOM     89  O   UNL A   1      44.117  27.399  24.982  1.00  0.00    -0.744 OA
ENDBRANCH  83  86
ENDBRANCH  55  79
BRANCH  67  90
ATOM     90  C   UNL A   1      42.838  34.430  31.655  1.00  0.00     0.023 A 
ATOM     91  C   UNL A   1      43.168  35.149  32.815  1.00  0.00     0.012 A 
ATOM     92  C   UNL A   1      43.048  35.092  30.415  1.00  0.00     0.148 A 
ATOM     93  C   UNL A   1      43.595  36.478  32.763  1.00  0.00     0.002 A 
ATOM     94  C   UNL A   1      43.607  36.361  30.364  1.00  0.00     0.091 A 
ATOM     95  F   UNL A   1      42.677  34.510  29.265  1.00  0.00    -0.205 F 
ATOM     96  C   UNL A   1      43.838  37.077  31.537  1.00  0.00     0.022 A 
BRANCH  94  97
ATOM     97  S   UNL A   1      44.193  37.058  28.814  1.00  0.00     0.127 S 
ATOM     98  O   UNL A   1      44.843  38.286  29.264  1.00  0.00    -0.237 OA
ATOM     99  O   UNL A   1      45.111  36.020  28.338  1.00  0.00    -0.237 OA
ATOM    100  O   UNL A   1      43.003  37.225  27.991  1.00  0.00    -0.744 OA
ENDBRANCH  94  97
ENDBRANCH  67  90
ENDBRANCH  41  42
ENDBRANCH  34  36
ENDBRANCH  33  34
ENDBRANCH  32  33
ENDBRANCH   1  32
TORSDOF 18
ENDMDL
MODEL 2
REMARK VINA RESULT:     -12.6      1.624      2.005
REMARK SMILES Cc1ccccc1/[NH+]=C1\S[C@@H](CC(=O)Nc2ccc(C(=O)OCCOC(=O)c3ccc(-c4c5nc(c(-c6cccc(S(=O)(=O)[O-])c6F)c6ccc([nH]6)c(-c6cccc(S(=O)(=O)[O-])c6F)c6nc(c(-c7cccc(S(=O)(=O)[O-])c7F)c7ccc4[nH]7)C=C6)C=C5)cc3)cc2)C(=O)N1C
REMARK SMILES IDX 23 1 22 2 20 3 21 4 19 5 16 6 17 7 92 8 18 9 91 10 15 11
REMARK SMILES IDX 13 12 14 13 12 15 11 16 8 17 9 18 10 20 95 21 93 22 96 23
REMARK SMILES IDX 94 24 7 25 1 26 2 27 3 28 4 29 6 30 5 31 24 32 25 33 26 34
REMARK SMILES IDX 27 35 28 36 29 37 90 38 30 39 89 40 31 41 32 42 33 43 83 44
REMARK SMILES IDX 34 45 88 46 82 47 84 48 35 49 87 50 81 51 80 52 36 54 68 55
REMARK SMILES IDX 48 56 67 57 49 58 52 59 66 60 85 61 50 62 51 63 65 65 86 66
REMARK SMILES IDX 53 67 37 68 38 69 46 70 39 71 41 72 47 73 40 74 42 75 43 76
REMARK SMILES IDX 44 77 45 78 69 79 70 80 78 81 71 82 73 83 79 84 72 85 74 86
REMARK SMILES IDX 75 87 76 88 77 89 54 90 55 91 63 92 56 93 58 94 64 95 57 96
REMARK SMILES IDX 59 97 60 98 61 99 62 100
REMARK H PARENT 15 14 8 19 84 53 52 64
REMARK Flexibility Score: inf
ROOT
ATOM      1  C   UNL A   1      39.316  21.052  25.518  1.00  0.00     0.275 C 
ENDROOT
BRANCH   1   2
ATOM      2  O   UNL A   1      37.900  21.215  25.489  1.00  0.00    -0.458 OA
BRANCH   2   3
ATOM      3  C   UNL A   1      37.353  22.449  25.642  1.00  0.00     0.338 C 
ATOM      4  O   UNL A   1      37.915  23.513  25.580  1.00  0.00    -0.246 OA
BRANCH   3   5
ATOM      5  C   UNL A   1      35.899  22.238  25.800  1.00  0.00     0.060 A 
ATOM      6  C   UNL A   1      33.161  22.021  26.407  1.00  0.00     0.041 A 
ATOM      7  C   UNL A   1      33.950  23.072  26.808  1.00  0.00     0.027 A 
ATOM      8  C   UNL A   1      33.799  20.978  25.752  1.00  0.00     0.027 A 
ATOM      9  C   UNL A   1      35.246  23.274  26.418  1.00  0.00     0.018 A 
ATOM     10  C   UNL A   1      35.193  21.068  25.487  1.00  0.00     0.018 A 
BRANCH   6  11
ATOM     11  N   UNL A   1      31.816  22.039  26.827  1.00  0.00    -0.326 N 
ATOM     12  C   UNL A   1      30.886  23.047  26.571  1.00  0.00     0.226 C 
ATOM     13  O   UNL A   1      29.972  23.265  27.369  1.00  0.00    -0.275 OA
ATOM     14  H   UNL A   1      31.502  21.266  27.351  1.00  0.00     0.169 HD
BRANCH  12  15
ATOM     15  C   UNL A   1      30.907  23.726  25.191  1.00  0.00     0.128 C 
BRANCH  15  16
ATOM     16  C   UNL A   1      31.549  25.103  24.984  1.00  0.00     0.183 C 
ATOM     17  N   UNL A   1      31.372  28.739  24.891  1.00  0.00    -0.234 N 
ATOM     18  C   UNL A   1      30.923  27.544  24.853  1.00  0.00     0.319 C 
ATOM     19  H   UNL A   1      31.249  29.241  24.053  1.00  0.00     0.313 HD
ATOM     20  S   UNL A   1      30.625  26.321  26.023  1.00  0.00    -0.022 SA
ATOM     21  N   UNL A   1      30.820  26.972  23.632  1.00  0.00    -0.193 N 
ATOM     22  C   UNL A   1      31.558  25.811  23.618  1.00  0.00     0.324 C 
ATOM     23  C   UNL A   1      30.505  27.751  22.447  1.00  0.00     0.301 C 
ATOM     24  O   UNL A   1      32.197  25.415  22.647  1.00  0.00    -0.245 OA
BRANCH  17  25
ATOM     25  C   UNL A   1      32.004  29.464  25.901  1.00  0.00     0.128 A 
ATOM     26  C   UNL A   1      34.083  27.986  26.407  1.00  0.00     0.049 C 
ATOM     27  C   UNL A   1      33.272  29.244  26.475  1.00  0.00    -0.004 A 
ATOM     28  C   UNL A   1      33.873  30.281  27.209  1.00  0.00     0.008 A 
ATOM     29  C   UNL A   1      33.271  31.526  27.348  1.00  0.00     0.001 A 
ATOM     30  C   UNL A   1      31.401  30.723  26.090  1.00  0.00     0.052 A 
ATOM     31  C   UNL A   1      32.025  31.749  26.795  1.00  0.00     0.004 A 
ENDBRANCH  17  25
ENDBRANCH  15  16
ENDBRANCH  12  15
ENDBRANCH   6  11
ENDBRANCH   3   5
ENDBRANCH   2   3
ENDBRANCH   1   2
BRANCH   1  32
ATOM     32  C   UNL A   1      40.013  21.141  26.886  1.00  0.00     0.275 C 
BRANCH  32  33
ATOM     33  O   UNL A   1      40.603  22.390  27.368  1.00  0.00    -0.458 OA
BRANCH  33  34
ATOM     34  C   UNL A   1      41.208  23.407  26.702  1.00  0.00     0.338 C 
ATOM     35  O   UNL A   1      41.967  23.212  25.763  1.00  0.00    -0.246 OA
BRANCH  34  36
ATOM     36  C   UNL A   1      40.907  24.763  27.168  1.00  0.00     0.060 A 
ATOM     37  C   UNL A   1      41.124  25.881  26.343  1.00  0.00     0.016 A 
ATOM     38  C   UNL A   1      40.310  24.883  28.415  1.00  0.00     0.016 A 
ATOM     39  C   UNL A   1      40.698  27.134  26.758  1.00  0.00     0.010 A 
ATOM     40  C   UNL A   1      39.734  26.075  28.754  1.00  0.00     0.010 A 
ATOM     41  C   UNL A   1      40.035  27.208  27.981  1.00  0.00    -0.014 A 
BRANCH  41  42
ATOM     42  C   UNL A   1      40.080  28.400  28.806  1.00  0.00     0.031 A 
ATOM     43  C   UNL A   1      38.999  29.384  28.768  1.00  0.00     0.074 A 
ATOM     44  C   UNL A   1      41.125  28.344  29.670  1.00  0.00     0.049 A 
ATOM     45  N   UNL A   1      39.198  30.651  28.852  1.00  0.00    -0.248 NA
ATOM     46  C   UNL A   1      37.592  29.031  28.556  1.00  0.00     0.031 C 
ATOM     47  C   UNL A   1      41.368  29.005  30.932  1.00  0.00     0.029 A 
ATOM     48  N   UNL A   1      42.293  27.580  29.471  1.00  0.00    -0.354 N 
ATOM     49  C   UNL A   1      37.961  31.205  29.121  1.00  0.00     0.074 A 
ATOM     50  C   UNL A   1      36.989  30.219  28.713  1.00  0.00     0.031 C 
ATOM     51  C   UNL A   1      42.670  28.844  31.256  1.00  0.00     0.029 A 
ATOM     52  C   UNL A   1      43.342  28.211  30.123  1.00  0.00     0.049 A 
ATOM     53  H   UNL A   1      42.352  26.742  28.958  1.00  0.00     0.167 HD
ATOM     54  C   UNL A   1      37.885  32.258  29.982  1.00  0.00     0.034 A 
ATOM     55  C   UNL A   1      44.414  28.682  29.417  1.00  0.00     0.034 A 
ATOM     56  C   UNL A   1      39.212  32.492  30.571  1.00  0.00     0.049 A 
ATOM     57  C   UNL A   1      44.426  30.195  29.477  1.00  0.00     0.074 A 
ATOM     58  C   UNL A   1      39.767  32.018  31.751  1.00  0.00     0.029 A 
ATOM     59  N   UNL A   1      40.268  32.955  29.798  1.00  0.00    -0.354 N 
ATOM     60  N   UNL A   1      43.389  30.912  29.807  1.00  0.00    -0.248 NA
ATOM     61  C   UNL A   1      45.586  31.010  29.147  1.00  0.00     0.031 C 
ATOM     62  C   UNL A   1      41.167  32.195  31.683  1.00  0.00     0.029 A 
ATOM     63  C   UNL A   1      41.472  32.755  30.457  1.00  0.00     0.049 A 
ATOM     64  H   UNL A   1      40.174  33.366  28.909  1.00  0.00     0.167 HD
ATOM     65  C   UNL A   1      43.680  32.240  29.683  1.00  0.00     0.074 A 
ATOM     66  C   UNL A   1      45.087  32.247  29.310  1.00  0.00     0.031 C 
ATOM     67  C   UNL A   1      42.726  33.204  29.864  1.00  0.00     0.034 A 
BRANCH  54  68
ATOM     68  C   UNL A   1      36.614  32.772  30.641  1.00  0.00     0.023 A 
ATOM     69  C   UNL A   1      36.364  32.324  31.961  1.00  0.00     0.012 A 
ATOM     70  C   UNL A   1      35.666  33.670  30.098  1.00  0.00     0.148 A 
ATOM     71  C   UNL A   1      35.221  32.661  32.682  1.00  0.00     0.002 A 
ATOM     72  C   UNL A   1      34.514  34.017  30.829  1.00  0.00     0.091 A 
ATOM     73  F   UNL A   1      35.878  34.196  28.883  1.00  0.00    -0.205 F 
ATOM     74  C   UNL A   1      34.287  33.500  32.110  1.00  0.00     0.022 A 
BRANCH  72  75
ATOM     75  S   UNL A   1      33.268  35.173  30.240  1.00  0.00     0.127 S 
ATOM     76  O   UNL A   1      32.397  35.312  31.408  1.00  0.00    -0.237 OA
ATOM     77  O   UNL A   1      34.046  36.376  29.932  1.00  0.00    -0.237 OA
ATOM     78  O   UNL A   1      32.678  34.544  29.069  1.00  0.00    -0.744 OA
ENDBRANCH  72  75
ENDBRANCH  54  68
BRANCH  55  79
ATOM     79  C   UNL A   1      44.748  27.898  28.170  1.00  0.00     0.023 A 
ATOM     80  C   UNL A   1      44.268  28.381  26.924  1.00  0.00     0.012 A 
ATOM     81  C   UNL A   1      45.779  26.942  28.151  1.00  0.00     0.148 A 
ATOM     82  C   UNL A   1      44.889  28.029  25.720  1.00  0.00     0.002 A 
ATOM     83  C   UNL A   1      46.407  26.612  26.947  1.00  0.00     0.091 A 
ATOM     84  F   UNL A   1      46.189  26.400  29.304  1.00  0.00    -0.205 F 
ATOM     85  C   UNL A   1      45.980  27.168  25.736  1.00  0.00     0.022 A 
BRANCH  83  86
ATOM     86  S   UNL A   1      47.908  25.620  26.981  1.00  0.00     0.127 S 
ATOM     87  O   UNL A   1      48.795  26.376  27.868  1.00  0.00    -0.237 OA
ATOM     88  O   UNL A   1      47.463  24.353  27.545  1.00  0.00    -0.237 OA
ATOM     89  O   UNL A   1      48.306  25.617  25.578  1.00  0.00    -0.744 OA
ENDBRANCH  83  86
ENDBRANCH  55  79
BRANCH  67  90
ATOM     90  C   UNL A   1      42.882  34.675  29.549  1.00  0.00     0.023 A 
ATOM     91  C   UNL A   1      42.218  35.287  28.473  1.00  0.00     0.012 A 
ATOM     92  C   UNL A   1      43.611  35.531  30.418  1.00  0.00     0.148 A 
ATOM     93  C   UNL A   1      42.338  36.655  28.214  1.00  0.00     0.002 A 
ATOM     94  C   UNL A   1      43.610  36.907  30.237  1.00  0.00     0.091 A 
ATOM     95  F   UNL A   1      44.344  35.018  31.417  1.00  0.00    -0.205 F 
ATOM     96  C   UNL A   1      43.014  37.470  29.110  1.00  0.00     0.022 A 
BRANCH  94  97
ATOM     97  S   UNL A   1      44.229  38.013  31.512  1.00  0.00     0.127 S 
ATOM     98  O   UNL A   1      45.670  37.798  31.421  1.00  0.00    -0.237 OA
ATOM     99  O   UNL A   1      43.775  39.321  31.031  1.00  0.00    -0.237 OA
ATOM    100  O   UNL A   1      43.589  37.577  32.745  1.00  0.00    -0.744 OA
ENDBRANCH  94  97
ENDBRANCH  67  90
ENDBRANCH  41  42
ENDBRANCH  34  36
ENDBRANCH  33  34
ENDBRANCH  32  33
ENDBRANCH   1  32
TORSDOF 18
ENDMDL
MODEL 3
REMARK VINA RESULT:     -12.4      3.847      9.672
REMARK SMILES Cc1ccccc1/[NH+]=C1\S[C@@H](CC(=O)Nc2ccc(C(=O)OCCOC(=O)c3ccc(-c4c5nc(c(-c6cccc(S(=O)(=O)[O-])c6F)c6ccc([nH]6)c(-c6cccc(S(=O)(=O)[O-])c6F)c6nc(c(-c7cccc(S(=O)(=O)[O-])c7F)c7ccc4[nH]7)C=C6)C=C5)cc3)cc2)C(=O)N1C
REMARK SMILES IDX 23 1 22 2 20 3 21 4 19 5 16 6 17 7 92 8 18 9 91 10 15 11
REMARK SMILES IDX 13 12 14 13 12 15 11 16 8 17 9 18 10 20 95 21 93 22 96 23
REMARK SMILES IDX 94 24 7 25 1 26 2 27 3 28 4 29 6 30 5 31 24 32 25 33 26 34
REMARK SMILES IDX 27 35 28 36 29 37 90 38 30 39 89 40 31 41 32 42 33 43 83 44
REMARK SMILES IDX 34 45 88 46 82 47 84 48 35 49 87 50 81 51 80 52 36 54 68 55
REMARK SMILES IDX 48 56 67 57 49 58 52 59 66 60 85 61 50 62 51 63 65 65 86 66
REMARK SMILES IDX 53 67 37 68 38 69 46 70 39 71 41 72 47 73 40 74 42 75 43 76
REMARK SMILES IDX 44 77 45 78 69 79 70 80 78 81 71 82 73 83 79 84 72 85 74 86
REMARK SMILES IDX 75 87 76 88 77 89 54 90 55 91 63 92 56 93 58 94 64 95 57 96
REMARK SMILES IDX 59 97 60 98 61 99 62 100
REMARK H PARENT 15 14 8 19 84 53 52 64
REMARK Flexibility Score: inf
ROOT
ATOM      1  C   UNL A   1      33.731  30.190  27.697  1.00  0.00     0.275 C 
ENDROOT
BRANCH   1   2
ATOM      2  O   UNL A   1      32.400  30.072  27.201  1.00  0.00    -0.458 OA
BRANCH   2   3
ATOM      3  C   UNL A   1      31.854  28.845  27.003  1.00  0.00     0.338 C 
ATOM      4  O   UNL A   1      31.167  28.215  27.768  1.00  0.00    -0.246 OA
BRANCH   3   5
ATOM      5  C   UNL A   1      32.181  28.468  25.612  1.00  0.00     0.060 A 
ATOM      6  C   UNL A   1      32.470  27.617  22.946  1.00  0.00     0.041 A 
ATOM      7  C   UNL A   1      31.270  27.985  23.502  1.00  0.00     0.027 A 
ATOM      8  C   UNL A   1      33.565  27.580  23.797  1.00  0.00     0.027 A 
ATOM      9  C   UNL A   1      31.116  28.529  24.749  1.00  0.00     0.018 A 
ATOM     10  C   UNL A   1      33.408  27.966  25.156  1.00  0.00     0.018 A 
BRANCH   6  11
ATOM     11  N   UNL A   1      32.443  27.175  21.608  1.00  0.00    -0.326 N 
ATOM     12  C   UNL A   1      32.553  25.854  21.175  1.00  0.00     0.226 C 
ATOM     13  O   UNL A   1      33.050  25.601  20.075  1.00  0.00    -0.275 OA
ATOM     14  H   UNL A   1      32.335  27.865  20.913  1.00  0.00     0.169 HD
BRANCH  12  15
ATOM     15  C   UNL A   1      31.859  24.756  21.997  1.00  0.00     0.128 C 
BRANCH  15  16
ATOM     16  C   UNL A   1      32.515  24.151  23.244  1.00  0.00     0.183 C 
ATOM     17  N   UNL A   1      33.246  21.335  25.434  1.00  0.00    -0.234 N 
ATOM     18  C   UNL A   1      32.606  21.990  24.543  1.00  0.00     0.319 C 
ATOM     19  H   UNL A   1      32.725  21.149  26.248  1.00  0.00     0.313 HD
ATOM     20  S   UNL A   1      32.875  22.373  22.890  1.00  0.00    -0.022 SA
ATOM     21  N   UNL A   1      31.571  22.746  24.973  1.00  0.00    -0.193 N 
ATOM     22  C   UNL A   1      31.783  24.052  24.594  1.00  0.00     0.324 C 
ATOM     23  C   UNL A   1      30.753  22.350  26.106  1.00  0.00     0.301 C 
ATOM     24  O   UNL A   1      31.477  25.024  25.279  1.00  0.00    -0.245 OA
BRANCH  17  25
ATOM     25  C   UNL A   1      34.548  20.834  25.464  1.00  0.00     0.128 A 
ATOM     26  C   UNL A   1      34.231  18.446  24.484  1.00  0.00     0.049 C 
ATOM     27  C   UNL A   1      35.038  19.634  24.910  1.00  0.00    -0.004 A 
ATOM     28  C   UNL A   1      36.424  19.487  24.733  1.00  0.00     0.008 A 
ATOM     29  C   UNL A   1      37.317  20.504  25.049  1.00  0.00     0.001 A 
ATOM     30  C   UNL A   1      35.479  21.833  25.810  1.00  0.00     0.052 A 
ATOM     31  C   UNL A   1      36.846  21.681  25.598  1.00  0.00     0.004 A 
ENDBRANCH  17  25
ENDBRANCH  15  16
ENDBRANCH  12  15
ENDBRANCH   6  11
ENDBRANCH   3   5
ENDBRANCH   2   3
ENDBRANCH   1   2
BRANCH   1  32
ATOM     32  C   UNL A   1      34.234  31.599  28.057  1.00  0.00     0.275 C 
BRANCH  32  33
ATOM     33  O   UNL A   1      34.551  31.973  29.434  1.00  0.00    -0.458 OA
BRANCH  33  34
ATOM     34  C   UNL A   1      35.742  32.216  30.041  1.00  0.00     0.338 C 
ATOM     35  O   UNL A   1      35.951  33.233  30.686  1.00  0.00    -0.246 OA
BRANCH  34  36
ATOM     36  C   UNL A   1      36.776  31.190  29.882  1.00  0.00     0.060 A 
ATOM     37  C   UNL A   1      36.888  30.124  30.793  1.00  0.00     0.016 A 
ATOM     38  C   UNL A   1      37.569  31.263  28.745  1.00  0.00     0.016 A 
ATOM     39  C   UNL A   1      37.782  29.094  30.538  1.00  0.00     0.010 A 
ATOM     40  C   UNL A   1      38.319  30.176  28.398  1.00  0.00     0.010 A 
ATOM     41  C   UNL A   1      38.509  29.161  29.351  1.00  0.00    -0.014 A 
BRANCH  41  42
ATOM     42  C   UNL A   1      39.828  28.573  29.225  1.00  0.00     0.031 A 
ATOM     43  C   UNL A   1      39.995  27.160  28.890  1.00  0.00     0.074 A 
ATOM     44  C   UNL A   1      40.787  29.532  29.292  1.00  0.00     0.049 A 
ATOM     45  N   UNL A   1      40.918  26.421  29.394  1.00  0.00    -0.248 NA
ATOM     46  C   UNL A   1      39.086  26.427  28.004  1.00  0.00     0.031 C 
ATOM     47  C   UNL A   1      42.151  29.566  28.815  1.00  0.00     0.029 A 
ATOM     48  N   UNL A   1      40.630  30.783  29.921  1.00  0.00    -0.354 N 
ATOM     49  C   UNL A   1      40.965  25.291  28.601  1.00  0.00     0.074 A 
ATOM     50  C   UNL A   1      39.697  25.236  27.914  1.00  0.00     0.031 C 
ATOM     51  C   UNL A   1      42.776  30.621  29.380  1.00  0.00     0.029 A 
ATOM     52  C   UNL A   1      41.872  31.204  30.371  1.00  0.00     0.049 A 
ATOM     53  H   UNL A   1      39.782  31.274  30.022  1.00  0.00     0.167 HD
ATOM     54  C   UNL A   1      42.176  24.730  28.326  1.00  0.00     0.034 A 
ATOM     55  C   UNL A   1      42.101  31.387  31.706  1.00  0.00     0.034 A 
ATOM     56  C   UNL A   1      43.237  25.596  28.862  1.00  0.00     0.049 A 
ATOM     57  C   UNL A   1      43.088  30.345  32.191  1.00  0.00     0.074 A 
ATOM     58  C   UNL A   1      43.960  26.612  28.254  1.00  0.00     0.029 A 
ATOM     59  N   UNL A   1      43.409  25.756  30.230  1.00  0.00    -0.354 N 
ATOM     60  N   UNL A   1      43.355  29.247  31.541  1.00  0.00    -0.248 NA
ATOM     61  C   UNL A   1      43.820  30.445  33.445  1.00  0.00     0.031 C 
ATOM     62  C   UNL A   1      44.567  27.389  29.265  1.00  0.00     0.029 A 
ATOM     63  C   UNL A   1      44.200  26.865  30.491  1.00  0.00     0.049 A 
ATOM     64  H   UNL A   1      43.023  25.166  30.917  1.00  0.00     0.167 HD
ATOM     65  C   UNL A   1      44.210  28.471  32.269  1.00  0.00     0.074 A 
ATOM     66  C   UNL A   1      44.507  29.290  33.435  1.00  0.00     0.031 C 
ATOM     67  C   UNL A   1      44.562  27.213  31.859  1.00  0.00     0.034 A 
BRANCH  54  68
ATOM     68  C   UNL A   1      42.451  23.711  27.232  1.00  0.00     0.023 A 
ATOM     69  C   UNL A   1      43.110  24.192  26.074  1.00  0.00     0.012 A 
ATOM     70  C   UNL A   1      42.150  22.329  27.247  1.00  0.00     0.148 A 
ATOM     71  C   UNL A   1      43.387  23.399  24.963  1.00  0.00     0.002 A 
ATOM     72  C   UNL A   1      42.436  21.525  26.127  1.00  0.00     0.091 A 
ATOM     73  F   UNL A   1      41.595  21.789  28.341  1.00  0.00    -0.205 F 
ATOM     74  C   UNL A   1      43.038  22.064  24.984  1.00  0.00     0.022 A 
BRANCH  72  75
ATOM     75  S   UNL A   1      42.121  19.755  26.062  1.00  0.00     0.127 S 
ATOM     76  O   UNL A   1      40.685  19.706  25.785  1.00  0.00    -0.237 OA
ATOM     77  O   UNL A   1      42.958  19.307  24.946  1.00  0.00    -0.237 OA
ATOM     78  O   UNL A   1      42.544  19.239  27.353  1.00  0.00    -0.744 OA
ENDBRANCH  72  75
ENDBRANCH  54  68
BRANCH  55  79
ATOM     79  C   UNL A   1      40.895  31.822  32.504  1.00  0.00     0.023 A 
ATOM     80  C   UNL A   1      39.945  30.836  32.879  1.00  0.00     0.012 A 
ATOM     81  C   UNL A   1      40.858  33.058  33.174  1.00  0.00     0.148 A 
ATOM     82  C   UNL A   1      39.091  31.027  33.971  1.00  0.00     0.002 A 
ATOM     83  C   UNL A   1      40.018  33.233  34.276  1.00  0.00     0.091 A 
ATOM     84  F   UNL A   1      41.679  34.039  32.781  1.00  0.00    -0.205 F 
ATOM     85  C   UNL A   1      39.151  32.216  34.690  1.00  0.00     0.022 A 
BRANCH  83  86
ATOM     86  S   UNL A   1      40.199  34.705  35.296  1.00  0.00     0.127 S 
ATOM     87  O   UNL A   1      41.632  34.997  35.221  1.00  0.00    -0.237 OA
ATOM     88  O   UNL A   1      39.368  35.690  34.617  1.00  0.00    -0.237 OA
ATOM     89  O   UNL A   1      39.740  34.235  36.597  1.00  0.00    -0.744 OA
ENDBRANCH  83  86
ENDBRANCH  55  79
BRANCH  67  90
ATOM     90  C   UNL A   1      45.324  26.195  32.678  1.00  0.00     0.023 A 
ATOM     91  C   UNL A   1      46.727  26.127  32.676  1.00  0.00     0.012 A 
ATOM     92  C   UNL A   1      44.646  25.345  33.594  1.00  0.00     0.148 A 
ATOM     93  C   UNL A   1      47.421  25.208  33.467  1.00  0.00     0.002 A 
ATOM     94  C   UNL A   1      45.348  24.537  34.478  1.00  0.00     0.091 A 
ATOM     95  F   UNL A   1      43.307  25.286  33.599  1.00  0.00    -0.205 F 
ATOM     96  C   UNL A   1      46.734  24.430  34.386  1.00  0.00     0.022 A 
BRANCH  94  97
ATOM     97  S   UNL A   1      44.523  23.732  35.858  1.00  0.00     0.127 S 
ATOM     98  O   UNL A   1      43.876  24.862  36.519  1.00  0.00    -0.237 OA
ATOM     99  O   UNL A   1      43.607  22.816  35.176  1.00  0.00    -0.237 OA
ATOM    100  O   UNL A   1      45.582  23.069  36.606  1.00  0.00    -0.744 OA
ENDBRANCH  94  97
ENDBRANCH  67  90
ENDBRANCH  41  42
ENDBRANCH  34  36
ENDBRANCH  33  34
ENDBRANCH  32  33
ENDBRANCH   1  32
TORSDOF 18
ENDMDL
