MODEL 1
REMARK VINA RESULT:     -11.2      0.000      0.000
REMARK SMILES C[C@@H](C(=O)OCCOC(=O)c1ccc(-c2c3nc(c(-c4cccc(S(=O)(=O)[O-])c4F)c4ccc([nH]4)c(-c4cccc(S(=O)(=O)[O-])c4F)c4nc(c(-c5cccc(S(=O)(=O)[O-])c5F)c5ccc2[nH]5)C=C4)C=C3)cc1)c1ccc(=O)n(C(F)F)c1
REMARK SMILES IDX 7 1 6 2 5 3 3 4 4 5 2 6 1 7 74 8 75 9 83 10 76 11 79 12
REMARK SMILES IDX 77 13 78 14 80 15 81 16 82 17 8 18 9 19 10 20 11 21 12 22
REMARK SMILES IDX 73 23 13 24 72 25 14 26 15 27 16 28 66 29 17 30 71 31 65 32
REMARK SMILES IDX 67 33 18 34 70 35 64 36 63 37 19 39 51 40 31 41 50 42 32 43
REMARK SMILES IDX 35 44 49 45 68 46 33 47 34 48 48 50 69 51 36 52 20 53 21 54
REMARK SMILES IDX 29 55 22 56 24 57 30 58 23 59 25 60 26 61 27 62 28 63 52 64
REMARK SMILES IDX 53 65 61 66 54 67 56 68 62 69 55 70 57 71 58 72 59 73 60 74
REMARK SMILES IDX 37 75 38 76 46 77 39 78 41 79 47 80 40 81 42 82 43 83 44 84
REMARK SMILES IDX 45 85
REMARK H PARENT 67 38 35 49
REMARK Flexibility Score: inf
ROOT
ATOM      1  C   UNL A   1      36.667  20.397  25.024  1.00  0.00     0.275 C 
ENDROOT
BRANCH   1   2
ATOM      2  C   UNL A   1      35.206  20.832  25.086  1.00  0.00     0.274 C 
BRANCH   2   3
ATOM      3  O   UNL A   1      35.088  22.112  25.743  1.00  0.00    -0.462 OA
BRANCH   3   4
ATOM      4  C   UNL A   1      34.046  22.904  25.367  1.00  0.00     0.313 C 
ATOM      5  O   UNL A   1      33.668  23.025  24.208  1.00  0.00    -0.252 OA
BRANCH   4   6
ATOM      6  C   UNL A   1      33.448  23.700  26.548  1.00  0.00     0.127 C 
ATOM      7  C   UNL A   1      32.502  22.848  27.406  1.00  0.00     0.025 C 
BRANCH   6   8
ATOM      8  C   UNL A   1      32.834  25.025  26.085  1.00  0.00    -0.017 A 
ATOM      9  C   UNL A   1      31.382  25.090  25.982  1.00  0.00     0.012 A 
ATOM     10  C   UNL A   1      33.530  26.130  25.751  1.00  0.00     0.099 A 
ATOM     11  C   UNL A   1      30.756  26.199  25.569  1.00  0.00     0.072 A 
ATOM     12  N   UNL A   1      32.908  27.287  25.308  1.00  0.00    -0.258 N 
ATOM     13  C   UNL A   1      31.535  27.397  25.165  1.00  0.00     0.254 A 
ATOM     14  O   UNL A   1      30.931  28.374  24.743  1.00  0.00    -0.269 OA
BRANCH  12  15
ATOM     15  C   UNL A   1      33.682  28.455  24.965  1.00  0.00     0.451 C 
ATOM     16  F   UNL A   1      34.499  28.813  25.985  1.00  0.00    -0.185 F 
ATOM     17  F   UNL A   1      34.438  28.236  23.865  1.00  0.00    -0.185 F 
ENDBRANCH  12  15
ENDBRANCH   6   8
ENDBRANCH   4   6
ENDBRANCH   3   4
ENDBRANCH   2   3
ENDBRANCH   1   2
BRANCH   1  18
ATOM     18  O   UNL A   1      37.513  21.506  25.372  1.00  0.00    -0.458 OA
BRANCH  18  19
ATOM     19  C   UNL A   1      38.720  21.188  25.891  1.00  0.00     0.338 C 
ATOM     20  O   UNL A   1      39.295  20.114  25.841  1.00  0.00    -0.246 OA
BRANCH  19  21
ATOM     21  C   UNL A   1      39.317  22.393  26.480  1.00  0.00     0.060 A 
ATOM     22  C   UNL A   1      38.788  23.633  26.131  1.00  0.00     0.016 A 
ATOM     23  C   UNL A   1      40.459  22.310  27.274  1.00  0.00     0.016 A 
ATOM     24  C   UNL A   1      39.447  24.799  26.502  1.00  0.00     0.010 A 
ATOM     25  C   UNL A   1      41.073  23.488  27.715  1.00  0.00     0.010 A 
ATOM     26  C   UNL A   1      40.597  24.746  27.299  1.00  0.00    -0.014 A 
BRANCH  26  27
ATOM     27  C   UNL A   1      41.320  26.002  27.648  1.00  0.00     0.031 A 
ATOM     28  C   UNL A   1      40.656  27.040  28.514  1.00  0.00     0.074 A 
ATOM     29  C   UNL A   1      42.579  26.208  27.213  1.00  0.00     0.049 A 
ATOM     30  N   UNL A   1      41.056  28.252  28.805  1.00  0.00    -0.248 NA
ATOM     31  C   UNL A   1      39.361  26.678  29.115  1.00  0.00     0.031 C 
ATOM     32  C   UNL A   1      43.356  25.278  26.394  1.00  0.00     0.029 A 
ATOM     33  N   UNL A   1      43.430  27.270  27.404  1.00  0.00    -0.354 N 
ATOM     34  C   UNL A   1      40.035  28.819  29.558  1.00  0.00     0.074 A 
ATOM     35  C   UNL A   1      38.998  27.817  29.688  1.00  0.00     0.031 C 
ATOM     36  C   UNL A   1      44.581  25.787  26.188  1.00  0.00     0.029 A 
ATOM     37  C   UNL A   1      44.654  27.112  26.795  1.00  0.00     0.049 A 
ATOM     38  H   UNL A   1      43.187  28.068  27.926  1.00  0.00     0.167 HD
ATOM     39  C   UNL A   1      39.970  30.056  30.104  1.00  0.00     0.034 A 
ATOM     40  C   UNL A   1      45.709  27.947  26.713  1.00  0.00     0.034 A 
ATOM     41  C   UNL A   1      41.040  31.017  30.064  1.00  0.00     0.049 A 
ATOM     42  C   UNL A   1      45.624  29.304  27.358  1.00  0.00     0.074 A 
ATOM     43  C   UNL A   1      41.073  32.289  30.608  1.00  0.00     0.029 A 
ATOM     44  N   UNL A   1      42.275  30.801  29.474  1.00  0.00    -0.354 N 
ATOM     45  N   UNL A   1      44.656  29.817  28.077  1.00  0.00    -0.248 NA
ATOM     46  C   UNL A   1      46.778  30.198  27.179  1.00  0.00     0.031 C 
ATOM     47  C   UNL A   1      42.332  32.842  30.348  1.00  0.00     0.029 A 
ATOM     48  C   UNL A   1      43.080  31.915  29.642  1.00  0.00     0.049 A 
ATOM     49  H   UNL A   1      42.542  29.977  29.006  1.00  0.00     0.167 HD
ATOM     50  C   UNL A   1      45.085  31.087  28.445  1.00  0.00     0.074 A 
ATOM     51  C   UNL A   1      46.416  31.253  27.898  1.00  0.00     0.031 C 
ATOM     52  C   UNL A   1      44.424  32.043  29.141  1.00  0.00     0.034 A 
BRANCH  39  53
ATOM     53  C   UNL A   1      38.706  30.435  30.824  1.00  0.00     0.023 A 
ATOM     54  C   UNL A   1      38.566  30.139  32.193  1.00  0.00     0.012 A 
ATOM     55  C   UNL A   1      37.679  31.132  30.157  1.00  0.00     0.148 A 
ATOM     56  C   UNL A   1      37.414  30.512  32.884  1.00  0.00     0.002 A 
ATOM     57  C   UNL A   1      36.547  31.529  30.859  1.00  0.00     0.091 A 
ATOM     58  F   UNL A   1      37.817  31.377  28.846  1.00  0.00    -0.205 F 
ATOM     59  C   UNL A   1      36.410  31.215  32.222  1.00  0.00     0.022 A 
BRANCH  57  60
ATOM     60  S   UNL A   1      35.239  32.494  30.095  1.00  0.00     0.127 S 
ATOM     61  O   UNL A   1      34.299  32.650  31.204  1.00  0.00    -0.237 OA
ATOM     62  O   UNL A   1      35.935  33.723  29.710  1.00  0.00    -0.237 OA
ATOM     63  O   UNL A   1      34.766  31.697  28.971  1.00  0.00    -0.744 OA
ENDBRANCH  57  60
ENDBRANCH  39  53
BRANCH  40  64
ATOM     64  C   UNL A   1      46.951  27.506  26.016  1.00  0.00     0.023 A 
ATOM     65  C   UNL A   1      47.884  26.711  26.709  1.00  0.00     0.012 A 
ATOM     66  C   UNL A   1      47.192  27.824  24.665  1.00  0.00     0.148 A 
ATOM     67  C   UNL A   1      49.039  26.254  26.073  1.00  0.00     0.002 A 
ATOM     68  C   UNL A   1      48.314  27.313  24.020  1.00  0.00     0.091 A 
ATOM     69  F   UNL A   1      46.313  28.610  24.025  1.00  0.00    -0.205 F 
ATOM     70  C   UNL A   1      49.247  26.541  24.727  1.00  0.00     0.022 A 
BRANCH  68  71
ATOM     71  S   UNL A   1      48.552  27.513  22.251  1.00  0.00     0.127 S 
ATOM     72  O   UNL A   1      48.718  26.131  21.809  1.00  0.00    -0.237 OA
ATOM     73  O   UNL A   1      47.299  28.145  21.834  1.00  0.00    -0.237 OA
ATOM     74  O   UNL A   1      49.720  28.375  22.122  1.00  0.00    -0.744 OA
ENDBRANCH  68  71
ENDBRANCH  40  64
BRANCH  52  75
ATOM     75  C   UNL A   1      45.122  33.359  29.351  1.00  0.00     0.023 A 
ATOM     76  C   UNL A   1      45.950  33.522  30.479  1.00  0.00     0.012 A 
ATOM     77  C   UNL A   1      45.025  34.398  28.406  1.00  0.00     0.148 A 
ATOM     78  C   UNL A   1      46.656  34.708  30.675  1.00  0.00     0.002 A 
ATOM     79  C   UNL A   1      45.761  35.564  28.589  1.00  0.00     0.091 A 
ATOM     80  F   UNL A   1      44.215  34.233  27.350  1.00  0.00    -0.205 F 
ATOM     81  C   UNL A   1      46.570  35.723  29.726  1.00  0.00     0.022 A 
BRANCH  79  82
ATOM     82  S   UNL A   1      45.769  36.888  27.373  1.00  0.00     0.127 S 
ATOM     83  O   UNL A   1      46.619  37.885  28.020  1.00  0.00    -0.237 OA
ATOM     84  O   UNL A   1      46.368  36.241  26.205  1.00  0.00    -0.237 OA
ATOM     85  O   UNL A   1      44.373  37.266  27.196  1.00  0.00    -0.744 OA
ENDBRANCH  79  82
ENDBRANCH  52  75
ENDBRANCH  26  27
ENDBRANCH  19  21
ENDBRANCH  18  19
ENDBRANCH   1  18
TORSDOF 16
ENDMDL
MODEL 2
REMARK VINA RESULT:     -11.2      1.687      2.059
REMARK SMILES C[C@@H](C(=O)OCCOC(=O)c1ccc(-c2c3nc(c(-c4cccc(S(=O)(=O)[O-])c4F)c4ccc([nH]4)c(-c4cccc(S(=O)(=O)[O-])c4F)c4nc(c(-c5cccc(S(=O)(=O)[O-])c5F)c5ccc2[nH]5)C=C4)C=C3)cc1)c1ccc(=O)n(C(F)F)c1
REMARK SMILES IDX 7 1 6 2 5 3 3 4 4 5 2 6 1 7 74 8 75 9 83 10 76 11 79 12
REMARK SMILES IDX 77 13 78 14 80 15 81 16 82 17 8 18 9 19 10 20 11 21 12 22
REMARK SMILES IDX 73 23 13 24 72 25 14 26 15 27 16 28 66 29 17 30 71 31 65 32
REMARK SMILES IDX 67 33 18 34 70 35 64 36 63 37 19 39 51 40 31 41 50 42 32 43
REMARK SMILES IDX 35 44 49 45 68 46 33 47 34 48 48 50 69 51 36 52 20 53 21 54
REMARK SMILES IDX 29 55 22 56 24 57 30 58 23 59 25 60 26 61 27 62 28 63 52 64
REMARK SMILES IDX 53 65 61 66 54 67 56 68 62 69 55 70 57 71 58 72 59 73 60 74
REMARK SMILES IDX 37 75 38 76 46 77 39 78 41 79 47 80 40 81 42 82 43 83 44 84
REMARK SMILES IDX 45 85
REMARK H PARENT 67 38 35 49
REMARK Flexibility Score: inf
ROOT
ATOM      1  C   UNL A   1      36.488  20.661  24.969  1.00  0.00     0.275 C 
ENDROOT
BRANCH   1   2
ATOM      2  C   UNL A   1      35.408  21.656  25.386  1.00  0.00     0.274 C 
BRANCH   2   3
ATOM      3  O   UNL A   1      34.476  21.871  24.305  1.00  0.00    -0.462 OA
BRANCH   3   4
ATOM      4  C   UNL A   1      34.699  22.952  23.505  1.00  0.00     0.313 C 
ATOM      5  O   UNL A   1      35.803  23.261  23.073  1.00  0.00    -0.252 OA
BRANCH   4   6
ATOM      6  C   UNL A   1      33.425  23.792  23.273  1.00  0.00     0.127 C 
ATOM      7  C   UNL A   1      32.956  23.750  21.812  1.00  0.00     0.025 C 
BRANCH   6   8
ATOM      8  C   UNL A   1      33.573  25.211  23.832  1.00  0.00    -0.017 A 
ATOM      9  C   UNL A   1      33.651  25.357  25.280  1.00  0.00     0.012 A 
ATOM     10  C   UNL A   1      33.623  26.337  23.091  1.00  0.00     0.099 A 
ATOM     11  C   UNL A   1      33.764  26.558  25.860  1.00  0.00     0.072 A 
ATOM     12  N   UNL A   1      33.726  27.594  23.667  1.00  0.00    -0.258 N 
ATOM     13  C   UNL A   1      33.777  27.794  25.037  1.00  0.00     0.254 A 
ATOM     14  O   UNL A   1      33.827  28.876  25.605  1.00  0.00    -0.269 OA
BRANCH  12  15
ATOM     15  C   UNL A   1      33.784  28.778  22.846  1.00  0.00     0.451 C 
ATOM     16  F   UNL A   1      34.503  28.553  21.720  1.00  0.00    -0.185 F 
ATOM     17  F   UNL A   1      32.545  29.189  22.490  1.00  0.00    -0.185 F 
ENDBRANCH  12  15
ENDBRANCH   6   8
ENDBRANCH   4   6
ENDBRANCH   3   4
ENDBRANCH   2   3
ENDBRANCH   1   2
BRANCH   1  18
ATOM     18  O   UNL A   1      37.749  21.341  24.857  1.00  0.00    -0.458 OA
BRANCH  18  19
ATOM     19  C   UNL A   1      38.697  20.979  25.750  1.00  0.00     0.338 C 
ATOM     20  O   UNL A   1      39.094  19.854  26.002  1.00  0.00    -0.246 OA
BRANCH  19  21
ATOM     21  C   UNL A   1      39.275  22.190  26.348  1.00  0.00     0.060 A 
ATOM     22  C   UNL A   1      38.828  23.429  25.897  1.00  0.00     0.016 A 
ATOM     23  C   UNL A   1      40.329  22.104  27.255  1.00  0.00     0.016 A 
ATOM     24  C   UNL A   1      39.490  24.589  26.285  1.00  0.00     0.010 A 
ATOM     25  C   UNL A   1      40.939  23.281  27.706  1.00  0.00     0.010 A 
ATOM     26  C   UNL A   1      40.553  24.534  27.195  1.00  0.00    -0.014 A 
BRANCH  26  27
ATOM     27  C   UNL A   1      41.282  25.780  27.564  1.00  0.00     0.031 A 
ATOM     28  C   UNL A   1      40.613  26.822  28.421  1.00  0.00     0.074 A 
ATOM     29  C   UNL A   1      42.551  25.975  27.155  1.00  0.00     0.049 A 
ATOM     30  N   UNL A   1      41.019  28.028  28.725  1.00  0.00    -0.248 NA
ATOM     31  C   UNL A   1      39.302  26.472  28.995  1.00  0.00     0.031 C 
ATOM     32  C   UNL A   1      43.335  25.039  26.347  1.00  0.00     0.029 A 
ATOM     33  N   UNL A   1      43.410  27.026  27.367  1.00  0.00    -0.354 N 
ATOM     34  C   UNL A   1      39.990  28.603  29.461  1.00  0.00     0.074 A 
ATOM     35  C   UNL A   1      38.940  27.613  29.565  1.00  0.00     0.031 C 
ATOM     36  C   UNL A   1      44.568  25.536  26.168  1.00  0.00     0.029 A 
ATOM     37  C   UNL A   1      44.644  26.858  26.782  1.00  0.00     0.049 A 
ATOM     38  H   UNL A   1      43.166  27.824  27.888  1.00  0.00     0.167 HD
ATOM     39  C   UNL A   1      39.928  29.839  30.011  1.00  0.00     0.034 A 
ATOM     40  C   UNL A   1      45.709  27.681  26.724  1.00  0.00     0.034 A 
ATOM     41  C   UNL A   1      41.009  30.788  29.996  1.00  0.00     0.049 A 
ATOM     42  C   UNL A   1      45.626  29.036  27.374  1.00  0.00     0.074 A 
ATOM     43  C   UNL A   1      41.045  32.058  30.546  1.00  0.00     0.029 A 
ATOM     44  N   UNL A   1      42.253  30.561  29.430  1.00  0.00    -0.354 N 
ATOM     45  N   UNL A   1      44.650  29.557  28.075  1.00  0.00    -0.248 NA
ATOM     46  C   UNL A   1      46.794  29.918  27.221  1.00  0.00     0.031 C 
ATOM     47  C   UNL A   1      42.315  32.598  30.313  1.00  0.00     0.029 A 
ATOM     48  C   UNL A   1      43.067  31.665  29.618  1.00  0.00     0.049 A 
ATOM     49  H   UNL A   1      42.520  29.736  28.963  1.00  0.00     0.167 HD
ATOM     50  C   UNL A   1      45.086  30.820  28.457  1.00  0.00     0.074 A 
ATOM     51  C   UNL A   1      46.429  30.973  27.938  1.00  0.00     0.031 C 
ATOM     52  C   UNL A   1      44.421  31.780  29.144  1.00  0.00     0.034 A 
BRANCH  39  53
ATOM     53  C   UNL A   1      38.654  30.228  30.707  1.00  0.00     0.023 A 
ATOM     54  C   UNL A   1      38.458  29.875  32.056  1.00  0.00     0.012 A 
ATOM     55  C   UNL A   1      37.674  30.992  30.041  1.00  0.00     0.148 A 
ATOM     56  C   UNL A   1      37.297  30.256  32.726  1.00  0.00     0.002 A 
ATOM     57  C   UNL A   1      36.534  31.396  30.725  1.00  0.00     0.091 A 
ATOM     58  F   UNL A   1      37.864  31.292  28.748  1.00  0.00    -0.205 F 
ATOM     59  C   UNL A   1      36.341  31.024  32.066  1.00  0.00     0.022 A 
BRANCH  57  60
ATOM     60  S   UNL A   1      35.285  32.441  29.966  1.00  0.00     0.127 S 
ATOM     61  O   UNL A   1      36.076  33.601  29.559  1.00  0.00    -0.237 OA
ATOM     62  O   UNL A   1      34.808  31.611  28.858  1.00  0.00    -0.237 OA
ATOM     63  O   UNL A   1      34.291  32.683  31.003  1.00  0.00    -0.744 OA
ENDBRANCH  57  60
ENDBRANCH  39  53
BRANCH  40  64
ATOM     64  C   UNL A   1      46.960  27.229  26.050  1.00  0.00     0.023 A 
ATOM     65  C   UNL A   1      47.154  27.529  24.688  1.00  0.00     0.012 A 
ATOM     66  C   UNL A   1      47.976  26.553  26.753  1.00  0.00     0.148 A 
ATOM     67  C   UNL A   1      48.329  27.151  24.037  1.00  0.00     0.002 A 
ATOM     68  C   UNL A   1      49.170  26.234  26.114  1.00  0.00     0.091 A 
ATOM     69  F   UNL A   1      47.766  26.243  28.041  1.00  0.00    -0.205 F 
ATOM     70  C   UNL A   1      49.342  26.518  24.751  1.00  0.00     0.022 A 
BRANCH  68  71
ATOM     71  S   UNL A   1      50.570  25.566  27.020  1.00  0.00     0.127 S 
ATOM     72  O   UNL A   1      50.014  24.334  27.571  1.00  0.00    -0.237 OA
ATOM     73  O   UNL A   1      51.565  25.373  25.963  1.00  0.00    -0.237 OA
ATOM     74  O   UNL A   1      50.925  26.599  27.984  1.00  0.00    -0.744 OA
ENDBRANCH  68  71
ENDBRANCH  40  64
BRANCH  52  75
ATOM     75  C   UNL A   1      45.129  33.087  29.374  1.00  0.00     0.023 A 
ATOM     76  C   UNL A   1      45.959  33.228  30.504  1.00  0.00     0.012 A 
ATOM     77  C   UNL A   1      45.040  34.141  28.445  1.00  0.00     0.148 A 
ATOM     78  C   UNL A   1      46.674  34.405  30.718  1.00  0.00     0.002 A 
ATOM     79  C   UNL A   1      45.785  35.299  28.645  1.00  0.00     0.091 A 
ATOM     80  F   UNL A   1      44.228  33.999  27.387  1.00  0.00    -0.205 F 
ATOM     81  C   UNL A   1      46.596  35.435  29.784  1.00  0.00     0.022 A 
BRANCH  79  82
ATOM     82  S   UNL A   1      45.803  36.641  27.449  1.00  0.00     0.127 S 
ATOM     83  O   UNL A   1      46.697  37.603  28.091  1.00  0.00    -0.237 OA
ATOM     84  O   UNL A   1      46.356  35.996  26.257  1.00  0.00    -0.237 OA
ATOM     85  O   UNL A   1      44.415  37.061  27.311  1.00  0.00    -0.744 OA
ENDBRANCH  79  82
ENDBRANCH  52  75
ENDBRANCH  26  27
ENDBRANCH  19  21
ENDBRANCH  18  19
ENDBRANCH   1  18
TORSDOF 16
ENDMDL
MODEL 3
REMARK VINA RESULT:     -11.1      2.781      3.653
REMARK SMILES C[C@@H](C(=O)OCCOC(=O)c1ccc(-c2c3nc(c(-c4cccc(S(=O)(=O)[O-])c4F)c4ccc([nH]4)c(-c4cccc(S(=O)(=O)[O-])c4F)c4nc(c(-c5cccc(S(=O)(=O)[O-])c5F)c5ccc2[nH]5)C=C4)C=C3)cc1)c1ccc(=O)n(C(F)F)c1
REMARK SMILES IDX 7 1 6 2 5 3 3 4 4 5 2 6 1 7 74 8 75 9 83 10 76 11 79 12
REMARK SMILES IDX 77 13 78 14 80 15 81 16 82 17 8 18 9 19 10 20 11 21 12 22
REMARK SMILES IDX 73 23 13 24 72 25 14 26 15 27 16 28 66 29 17 30 71 31 65 32
REMARK SMILES IDX 67 33 18 34 70 35 64 36 63 37 19 39 51 40 31 41 50 42 32 43
REMARK SMILES IDX 35 44 49 45 68 46 33 47 34 48 48 50 69 51 36 52 20 53 21 54
REMARK SMILES IDX 29 55 22 56 24 57 30 58 23 59 25 60 26 61 27 62 28 63 52 64
REMARK SMILES IDX 53 65 61 66 54 67 56 68 62 69 55 70 57 71 58 72 59 73 60 74
REMARK SMILES IDX 37 75 38 76 46 77 39 78 41 79 47 80 40 81 42 82 43 83 44 84
REMARK SMILES IDX 45 85
REMARK H PARENT 67 38 35 49
REMARK Flexibility Score: inf
ROOT
ATOM      1  C   UNL A   1      36.992  21.395  24.247  1.00  0.00     0.275 C 
ENDROOT
BRANCH   1   2
ATOM      2  C   UNL A   1      36.381  22.734  23.844  1.00  0.00     0.274 C 
BRANCH   2   3
ATOM      3  O   UNL A   1      35.469  23.199  24.862  1.00  0.00    -0.462 OA
BRANCH   3   4
ATOM      4  C   UNL A   1      34.138  23.100  24.589  1.00  0.00     0.313 C 
ATOM      5  O   UNL A   1      33.541  23.858  23.834  1.00  0.00    -0.252 OA
BRANCH   4   6
ATOM      6  C   UNL A   1      33.447  21.984  25.401  1.00  0.00     0.127 C 
ATOM      7  C   UNL A   1      34.127  21.741  26.756  1.00  0.00     0.025 C 
BRANCH   6   8
ATOM      8  C   UNL A   1      33.261  20.711  24.569  1.00  0.00    -0.017 A 
ATOM      9  C   UNL A   1      32.343  20.777  23.440  1.00  0.00     0.012 A 
ATOM     10  C   UNL A   1      33.868  19.530  24.808  1.00  0.00     0.099 A 
ATOM     11  C   UNL A   1      32.103  19.711  22.666  1.00  0.00     0.072 A 
ATOM     12  N   UNL A   1      33.627  18.408  24.030  1.00  0.00    -0.258 N 
ATOM     13  C   UNL A   1      32.746  18.406  22.962  1.00  0.00     0.254 A 
ATOM     14  O   UNL A   1      32.461  17.441  22.265  1.00  0.00    -0.269 OA
BRANCH  12  15
ATOM     15  C   UNL A   1      34.298  17.162  24.308  1.00  0.00     0.451 C 
ATOM     16  F   UNL A   1      33.617  16.437  25.227  1.00  0.00    -0.185 F 
ATOM     17  F   UNL A   1      34.434  16.418  23.187  1.00  0.00    -0.185 F 
ENDBRANCH  12  15
ENDBRANCH   6   8
ENDBRANCH   4   6
ENDBRANCH   3   4
ENDBRANCH   2   3
ENDBRANCH   1   2
BRANCH   1  18
ATOM     18  O   UNL A   1      37.351  21.431  25.638  1.00  0.00    -0.458 OA
BRANCH  18  19
ATOM     19  C   UNL A   1      38.647  21.170  25.921  1.00  0.00     0.338 C 
ATOM     20  O   UNL A   1      39.274  20.153  25.678  1.00  0.00    -0.246 OA
BRANCH  19  21
ATOM     21  C   UNL A   1      39.255  22.368  26.514  1.00  0.00     0.060 A 
ATOM     22  C   UNL A   1      38.742  23.614  26.162  1.00  0.00     0.016 A 
ATOM     23  C   UNL A   1      40.392  22.270  27.313  1.00  0.00     0.016 A 
ATOM     24  C   UNL A   1      39.414  24.772  26.537  1.00  0.00     0.010 A 
ATOM     25  C   UNL A   1      41.018  23.441  27.757  1.00  0.00     0.010 A 
ATOM     26  C   UNL A   1      40.559  24.705  27.340  1.00  0.00    -0.014 A 
BRANCH  26  27
ATOM     27  C   UNL A   1      41.295  25.951  27.694  1.00  0.00     0.031 A 
ATOM     28  C   UNL A   1      40.636  27.002  28.547  1.00  0.00     0.074 A 
ATOM     29  C   UNL A   1      42.562  26.139  27.273  1.00  0.00     0.049 A 
ATOM     30  N   UNL A   1      41.048  28.210  28.839  1.00  0.00    -0.248 NA
ATOM     31  C   UNL A   1      39.328  26.661  29.134  1.00  0.00     0.031 C 
ATOM     32  C   UNL A   1      43.336  25.195  26.467  1.00  0.00     0.029 A 
ATOM     33  N   UNL A   1      43.425  27.189  27.471  1.00  0.00    -0.354 N 
ATOM     34  C   UNL A   1      40.026  28.794  29.577  1.00  0.00     0.074 A 
ATOM     35  C   UNL A   1      38.974  27.807  29.698  1.00  0.00     0.031 C 
ATOM     36  C   UNL A   1      44.570  25.686  26.274  1.00  0.00     0.029 A 
ATOM     37  C   UNL A   1      44.655  27.013  26.877  1.00  0.00     0.049 A 
ATOM     38  H   UNL A   1      43.188  27.993  27.987  1.00  0.00     0.167 HD
ATOM     39  C   UNL A   1      39.972  30.034  30.118  1.00  0.00     0.034 A 
ATOM     40  C   UNL A   1      45.722  27.832  26.805  1.00  0.00     0.034 A 
ATOM     41  C   UNL A   1      41.055  30.979  30.088  1.00  0.00     0.049 A 
ATOM     42  C   UNL A   1      45.648  29.193  27.444  1.00  0.00     0.074 A 
ATOM     43  C   UNL A   1      41.100  32.253  30.627  1.00  0.00     0.029 A 
ATOM     44  N   UNL A   1      42.295  30.744  29.514  1.00  0.00    -0.354 N 
ATOM     45  N   UNL A   1      44.678  29.722  28.149  1.00  0.00    -0.248 NA
ATOM     46  C   UNL A   1      46.817  30.070  27.276  1.00  0.00     0.031 C 
ATOM     47  C   UNL A   1      42.369  32.788  30.380  1.00  0.00     0.029 A 
ATOM     48  C   UNL A   1      43.113  31.847  29.687  1.00  0.00     0.049 A 
ATOM     49  H   UNL A   1      42.555  29.915  29.052  1.00  0.00     0.167 HD
ATOM     50  C   UNL A   1      45.121  30.987  28.517  1.00  0.00     0.074 A 
ATOM     51  C   UNL A   1      46.461  31.132  27.987  1.00  0.00     0.031 C 
ATOM     52  C   UNL A   1      44.464  31.954  29.202  1.00  0.00     0.034 A 
BRANCH  39  53
ATOM     53  C   UNL A   1      38.704  30.433  30.821  1.00  0.00     0.023 A 
ATOM     54  C   UNL A   1      38.556  30.171  32.196  1.00  0.00     0.012 A 
ATOM     55  C   UNL A   1      37.683  31.115  30.130  1.00  0.00     0.148 A 
ATOM     56  C   UNL A   1      37.401  30.564  32.871  1.00  0.00     0.002 A 
ATOM     57  C   UNL A   1      36.548  31.532  30.816  1.00  0.00     0.091 A 
ATOM     58  F   UNL A   1      37.829  31.328  28.814  1.00  0.00    -0.205 F 
ATOM     59  C   UNL A   1      36.403  31.252  32.185  1.00  0.00     0.022 A 
BRANCH  57  60
ATOM     60  S   UNL A   1      35.246  32.480  30.021  1.00  0.00     0.127 S 
ATOM     61  O   UNL A   1      34.300  32.666  31.120  1.00  0.00    -0.237 OA
ATOM     62  O   UNL A   1      35.947  33.698  29.610  1.00  0.00    -0.237 OA
ATOM     63  O   UNL A   1      34.778  31.656  28.915  1.00  0.00    -0.744 OA
ENDBRANCH  57  60
ENDBRANCH  39  53
BRANCH  40  64
ATOM     64  C   UNL A   1      46.966  27.371  26.124  1.00  0.00     0.023 A 
ATOM     65  C   UNL A   1      47.192  27.735  24.783  1.00  0.00     0.012 A 
ATOM     66  C   UNL A   1      47.946  26.623  26.805  1.00  0.00     0.148 A 
ATOM     67  C   UNL A   1      48.362  27.348  24.129  1.00  0.00     0.002 A 
ATOM     68  C   UNL A   1      49.138  26.295  26.166  1.00  0.00     0.091 A 
ATOM     69  F   UNL A   1      47.705  26.254  28.072  1.00  0.00    -0.205 F 
ATOM     70  C   UNL A   1      49.341  26.643  24.823  1.00  0.00     0.022 A 
BRANCH  68  71
ATOM     71  S   UNL A   1      50.499  25.530  27.055  1.00  0.00     0.127 S 
ATOM     72  O   UNL A   1      51.494  25.365  25.999  1.00  0.00    -0.237 OA
ATOM     73  O   UNL A   1      50.830  26.545  28.057  1.00  0.00    -0.237 OA
ATOM     74  O   UNL A   1      49.944  24.305  27.615  1.00  0.00    -0.744 OA
ENDBRANCH  68  71
ENDBRANCH  40  64
BRANCH  52  75
ATOM     75  C   UNL A   1      45.178  33.261  29.416  1.00  0.00     0.023 A 
ATOM     76  C   UNL A   1      46.047  33.395  30.517  1.00  0.00     0.012 A 
ATOM     77  C   UNL A   1      45.055  34.322  28.498  1.00  0.00     0.148 A 
ATOM     78  C   UNL A   1      46.767  34.572  30.714  1.00  0.00     0.002 A 
ATOM     79  C   UNL A   1      45.804  35.479  28.680  1.00  0.00     0.091 A 
ATOM     80  F   UNL A   1      44.206  34.185  27.468  1.00  0.00    -0.205 F 
ATOM     81  C   UNL A   1      46.654  35.609  29.791  1.00  0.00     0.022 A 
BRANCH  79  82
ATOM     82  S   UNL A   1      45.778  36.829  27.494  1.00  0.00     0.127 S 
ATOM     83  O   UNL A   1      44.345  37.077  27.352  1.00  0.00    -0.237 OA
ATOM     84  O   UNL A   1      46.512  37.883  28.196  1.00  0.00    -0.237 OA
ATOM     85  O   UNL A   1      46.453  36.321  26.307  1.00  0.00    -0.744 OA
ENDBRANCH  79  82
ENDBRANCH  52  75
ENDBRANCH  26  27
ENDBRANCH  19  21
ENDBRANCH  18  19
ENDBRANCH   1  18
TORSDOF 16
ENDMDL
