MODEL 1
REMARK VINA RESULT:     -14.8      0.000      0.000
REMARK SMILES N#C/C(=C/c1cccc(OCC(=O)OCCOC(=O)c2ccc(-c3c4nc(c(-c5cccc(S(=O)(=O)[O-])c5F)c5ccc([nH]5)c(-c5cccc(S(=O)(=O)[O-])c5F)c5nc(c(-c6cccc(S(=O)(=O)[O-])c6F)c6ccc3[nH]6)C=C5)C=C4)cc2)c1)c1nc2ccccc2[nH]1
REMARK SMILES IDX 15 1 14 2 12 3 13 4 11 5 10 6 9 7 5 8 6 9 83 10 7 11 8 12
REMARK SMILES IDX 4 13 3 14 2 15 1 16 84 17 85 18 92 19 86 20 91 21 87 23
REMARK SMILES IDX 90 24 88 25 89 26 16 27 17 28 18 29 19 30 20 31 21 32 82 33
REMARK SMILES IDX 22 34 81 35 23 36 24 37 25 38 75 39 26 40 80 41 74 42 76 43
REMARK SMILES IDX 27 44 79 45 73 46 72 47 28 49 60 50 40 51 59 52 41 53 44 54
REMARK SMILES IDX 58 55 77 56 42 57 43 58 57 60 78 61 45 62 29 63 30 64 38 65
REMARK SMILES IDX 31 66 33 67 39 68 32 69 34 70 35 71 36 72 37 73 61 74 62 75
REMARK SMILES IDX 70 76 63 77 65 78 71 79 64 80 66 81 67 82 68 83 69 84 46 85
REMARK SMILES IDX 47 86 55 87 48 88 50 89 56 90 49 91 51 92 52 93 53 94 54 95
REMARK H PARENT 92 22 76 48 44 59
REMARK Flexibility Score: inf
ROOT
ATOM      1  C   UNL A   1      36.275  18.918  24.698  1.00  0.00     0.274 C 
ENDROOT
BRANCH   1   2
ATOM      2  O   UNL A   1      34.332  19.451  24.643  1.00  0.00    -0.460 OA
BRANCH   2   3
ATOM      3  C   UNL A   1      32.956  19.754  24.540  1.00  0.00     0.344 C 
ATOM      4  O   UNL A   1      32.076  19.040  25.030  1.00  0.00    -0.248 OA
BRANCH   3   5
ATOM      5  C   UNL A   1      32.512  21.152  23.643  1.00  0.00     0.351 C 
BRANCH   5   6
ATOM      6  O   UNL A   1      31.960  22.459  23.908  1.00  0.00    -0.482 OA
BRANCH   6   7
ATOM      7  C   UNL A   1      31.917  23.583  23.100  1.00  0.00     0.120 A 
ATOM      8  C   UNL A   1      31.684  26.044  22.731  1.00  0.00    -0.021 A 
ATOM      9  C   UNL A   1      32.574  25.948  21.663  1.00  0.00     0.008 A 
ATOM     10  C   UNL A   1      31.225  24.798  23.266  1.00  0.00     0.054 A 
ATOM     11  C   UNL A   1      33.054  24.692  21.257  1.00  0.00     0.004 A 
ATOM     12  C   UNL A   1      32.771  23.534  22.003  1.00  0.00     0.046 A 
BRANCH   8  13
ATOM     13  C   UNL A   1      31.424  27.429  23.362  1.00  0.00     0.031 C 
ATOM     14  C   UNL A   1      31.680  27.927  24.626  1.00  0.00     0.095 C 
BRANCH  14  15
ATOM     15  C   UNL A   1      31.373  29.369  24.998  1.00  0.00     0.103 C 
ATOM     16  N   UNL A   1      31.119  30.564  25.307  1.00  0.00    -0.192 NA
ENDBRANCH  14  15
BRANCH  14  17
ATOM     17  C   UNL A   1      32.325  27.093  25.627  1.00  0.00     0.149 A 
ATOM     18  N   UNL A   1      33.823  26.524  25.136  1.00  0.00    -0.228 NA
ATOM     19  N   UNL A   1      31.484  25.742  26.711  1.00  0.00    -0.337 N 
ATOM     20  C   UNL A   1      34.190  24.814  25.665  1.00  0.00     0.089 A 
ATOM     21  C   UNL A   1      32.625  24.210  26.660  1.00  0.00     0.066 A 
ATOM     22  H   UNL A   1      30.632  25.824  27.197  1.00  0.00     0.168 HD
ATOM     23  C   UNL A   1      35.708  23.852  25.701  1.00  0.00     0.030 A 
ATOM     24  C   UNL A   1      32.732  22.634  27.459  1.00  0.00     0.028 A 
ATOM     25  C   UNL A   1      35.719  22.284  26.565  1.00  0.00     0.002 A 
ATOM     26  C   UNL A   1      34.271  21.707  27.419  1.00  0.00     0.002 A 
ENDBRANCH  14  17
ENDBRANCH   8  13
ENDBRANCH   6   7
ENDBRANCH   5   6
ENDBRANCH   3   5
ENDBRANCH   2   3
ENDBRANCH   1   2
BRANCH   1  27
ATOM     27  C   UNL A   1      37.390  20.039  24.454  1.00  0.00     0.275 C 
BRANCH  27  28
ATOM     28  O   UNL A   1      38.759  19.557  25.107  1.00  0.00    -0.458 OA
BRANCH  28  29
ATOM     29  C   UNL A   1      40.342  20.294  26.083  1.00  0.00     0.338 C 
ATOM     30  O   UNL A   1      41.546  20.111  25.843  1.00  0.00    -0.246 OA
BRANCH  29  31
ATOM     31  C   UNL A   1      40.497  21.635  27.188  1.00  0.00     0.060 A 
ATOM     32  C   UNL A   1      39.777  22.793  26.812  1.00  0.00     0.016 A 
ATOM     33  C   UNL A   1      41.358  21.826  28.281  1.00  0.00     0.016 A 
ATOM     34  C   UNL A   1      40.225  24.083  27.105  1.00  0.00     0.010 A 
ATOM     35  C   UNL A   1      41.823  23.110  28.582  1.00  0.00     0.010 A 
ATOM     36  C   UNL A   1      41.340  24.239  27.910  1.00  0.00    -0.014 A 
BRANCH  36  37
ATOM     37  C   UNL A   1      41.831  25.559  28.340  1.00  0.00     0.031 A 
ATOM     38  C   UNL A   1      40.936  26.641  28.877  1.00  0.00     0.074 A 
ATOM     39  C   UNL A   1      43.099  25.801  27.967  1.00  0.00     0.049 A 
ATOM     40  N   UNL A   1      41.212  27.899  29.098  1.00  0.00    -0.248 NA
ATOM     41  C   UNL A   1      39.550  26.279  29.208  1.00  0.00     0.031 C 
ATOM     42  C   UNL A   1      43.987  24.804  27.351  1.00  0.00     0.029 A 
ATOM     43  N   UNL A   1      43.803  26.964  27.914  1.00  0.00    -0.354 N 
ATOM     44  C   UNL A   1      40.038  28.488  29.567  1.00  0.00     0.074 A 
ATOM     45  C   UNL A   1      39.035  27.444  29.592  1.00  0.00     0.031 C 
ATOM     46  C   UNL A   1      45.059  25.428  26.855  1.00  0.00     0.029 A 
ATOM     47  C   UNL A   1      44.947  26.846  27.162  1.00  0.00     0.049 A 
ATOM     48  H   UNL A   1      43.526  27.795  28.363  1.00  0.00     0.167 HD
ATOM     49  C   UNL A   1      39.843  29.775  29.951  1.00  0.00     0.034 A 
ATOM     50  C   UNL A   1      45.804  27.789  26.747  1.00  0.00     0.034 A 
ATOM     51  C   UNL A   1      40.889  30.768  29.909  1.00  0.00     0.049 A 
ATOM     52  C   UNL A   1      45.585  29.185  27.227  1.00  0.00     0.074 A 
ATOM     53  C   UNL A   1      40.876  32.060  30.406  1.00  0.00     0.029 A 
ATOM     54  N   UNL A   1      42.123  30.586  29.302  1.00  0.00    -0.354 N 
ATOM     55  N   UNL A   1      44.562  29.679  27.882  1.00  0.00    -0.248 NA
ATOM     56  C   UNL A   1      46.675  30.135  26.989  1.00  0.00     0.031 C 
ATOM     57  C   UNL A   1      42.082  32.674  30.050  1.00  0.00     0.029 A 
ATOM     58  C   UNL A   1      42.870  31.747  29.388  1.00  0.00     0.049 A 
ATOM     59  H   UNL A   1      42.423  29.752  28.874  1.00  0.00     0.167 HD
ATOM     60  C   UNL A   1      44.913  30.983  28.196  1.00  0.00     0.074 A 
ATOM     61  C   UNL A   1      46.243  31.195  27.658  1.00  0.00     0.031 C 
ATOM     62  C   UNL A   1      44.204  31.918  28.873  1.00  0.00     0.034 A 
BRANCH  49  63
ATOM     63  C   UNL A   1      38.499  30.205  30.503  1.00  0.00     0.023 A 
ATOM     64  C   UNL A   1      38.258  30.129  31.890  1.00  0.00     0.012 A 
ATOM     65  C   UNL A   1      37.546  30.849  29.681  1.00  0.00     0.148 A 
ATOM     66  C   UNL A   1      37.093  30.664  32.446  1.00  0.00     0.002 A 
ATOM     67  C   UNL A   1      36.407  31.416  30.247  1.00  0.00     0.091 A 
ATOM     68  F   UNL A   1      37.785  30.920  28.364  1.00  0.00    -0.205 F 
ATOM     69  C   UNL A   1      36.176  31.318  31.628  1.00  0.00     0.022 A 
BRANCH  67  70
ATOM     70  S   UNL A   1      35.201  32.357  29.299  1.00  0.00     0.127 S 
ATOM     71  O   UNL A   1      34.381  32.941  30.360  1.00  0.00    -0.237 OA
ATOM     72  O   UNL A   1      36.048  33.316  28.590  1.00  0.00    -0.237 OA
ATOM     73  O   UNL A   1      34.516  31.397  28.445  1.00  0.00    -0.744 OA
ENDBRANCH  67  70
ENDBRANCH  49  63
BRANCH  50  74
ATOM     74  C   UNL A   1      46.999  27.385  25.971  1.00  0.00     0.023 A 
ATOM     75  C   UNL A   1      47.964  26.575  26.595  1.00  0.00     0.012 A 
ATOM     76  C   UNL A   1      47.142  27.717  24.610  1.00  0.00     0.148 A 
ATOM     77  C   UNL A   1      49.088  26.148  25.893  1.00  0.00     0.002 A 
ATOM     78  C   UNL A   1      48.241  27.247  23.903  1.00  0.00     0.091 A 
ATOM     79  F   UNL A   1      46.187  28.459  24.031  1.00  0.00    -0.205 F 
ATOM     80  C   UNL A   1      49.224  26.480  24.548  1.00  0.00     0.022 A 
BRANCH  78  81
ATOM     81  S   UNL A   1      48.432  27.509  22.137  1.00  0.00     0.127 S 
ATOM     82  O   UNL A   1      48.601  26.141  21.651  1.00  0.00    -0.237 OA
ATOM     83  O   UNL A   1      47.157  28.135  21.782  1.00  0.00    -0.237 OA
ATOM     84  O   UNL A   1      49.586  28.383  21.990  1.00  0.00    -0.744 OA
ENDBRANCH  78  81
ENDBRANCH  50  74
BRANCH  62  85
ATOM     85  C   UNL A   1      44.878  33.239  29.115  1.00  0.00     0.023 A 
ATOM     86  C   UNL A   1      45.613  33.453  30.298  1.00  0.00     0.012 A 
ATOM     87  C   UNL A   1      44.819  34.249  28.138  1.00  0.00     0.148 A 
ATOM     88  C   UNL A   1      46.245  34.674  30.521  1.00  0.00     0.002 A 
ATOM     89  C   UNL A   1      45.503  35.438  28.340  1.00  0.00     0.091 A 
ATOM     90  F   UNL A   1      44.095  34.028  27.031  1.00  0.00    -0.205 F 
ATOM     91  C   UNL A   1      46.203  35.659  29.539  1.00  0.00     0.022 A 
BRANCH  89  92
ATOM     92  S   UNL A   1      45.592  36.723  27.089  1.00  0.00     0.127 S 
ATOM     93  O   UNL A   1      46.110  35.983  25.939  1.00  0.00    -0.237 OA
ATOM     94  O   UNL A   1      44.192  37.132  26.972  1.00  0.00    -0.237 OA
ATOM     95  O   UNL A   1      46.481  37.747  27.621  1.00  0.00    -0.744 OA
ENDBRANCH  89  92
ENDBRANCH  62  85
ENDBRANCH  36  37
ENDBRANCH  29  31
ENDBRANCH  28  29
ENDBRANCH  27  28
ENDBRANCH   1  27
TORSDOF 19
ENDMDL
MODEL 2
REMARK VINA RESULT:     -13.5      2.473      8.366
REMARK SMILES N#C/C(=C/c1cccc(OCC(=O)OCCOC(=O)c2ccc(-c3c4nc(c(-c5cccc(S(=O)(=O)[O-])c5F)c5ccc([nH]5)c(-c5cccc(S(=O)(=O)[O-])c5F)c5nc(c(-c6cccc(S(=O)(=O)[O-])c6F)c6ccc3[nH]6)C=C5)C=C4)cc2)c1)c1nc2ccccc2[nH]1
REMARK SMILES IDX 15 1 14 2 12 3 13 4 11 5 10 6 9 7 5 8 6 9 83 10 7 11 8 12
REMARK SMILES IDX 4 13 3 14 2 15 1 16 84 17 85 18 92 19 86 20 91 21 87 23
REMARK SMILES IDX 90 24 88 25 89 26 16 27 17 28 18 29 19 30 20 31 21 32 82 33
REMARK SMILES IDX 22 34 81 35 23 36 24 37 25 38 75 39 26 40 80 41 74 42 76 43
REMARK SMILES IDX 27 44 79 45 73 46 72 47 28 49 60 50 40 51 59 52 41 53 44 54
REMARK SMILES IDX 58 55 77 56 42 57 43 58 57 60 78 61 45 62 29 63 30 64 38 65
REMARK SMILES IDX 31 66 33 67 39 68 32 69 34 70 35 71 36 72 37 73 61 74 62 75
REMARK SMILES IDX 70 76 63 77 65 78 71 79 64 80 66 81 67 82 68 83 69 84 46 85
REMARK SMILES IDX 47 86 55 87 48 88 50 89 56 90 49 91 51 92 52 93 53 94 54 95
REMARK H PARENT 92 22 76 48 44 59
REMARK Flexibility Score: inf
ROOT
ATOM      1  C   UNL A   1      36.791  20.134  24.821  1.00  0.00     0.274 C 
ENDROOT
BRANCH   1   2
ATOM      2  O   UNL A   1      35.060  21.152  24.656  1.00  0.00    -0.460 OA
BRANCH   2   3
ATOM      3  C   UNL A   1      33.896  21.946  24.563  1.00  0.00     0.344 C 
ATOM      4  O   UNL A   1      32.790  21.562  24.959  1.00  0.00    -0.248 OA
BRANCH   3   5
ATOM      5  C   UNL A   1      34.039  23.487  23.814  1.00  0.00     0.351 C 
BRANCH   5   6
ATOM      6  O   UNL A   1      33.346  24.753  23.837  1.00  0.00    -0.482 OA
BRANCH   6   7
ATOM      7  C   UNL A   1      32.734  25.410  24.892  1.00  0.00     0.120 A 
ATOM      8  C   UNL A   1      32.625  27.209  26.623  1.00  0.00    -0.021 A 
ATOM      9  C   UNL A   1      31.238  27.231  26.484  1.00  0.00     0.008 A 
ATOM     10  C   UNL A   1      33.294  26.128  25.966  1.00  0.00     0.054 A 
ATOM     11  C   UNL A   1      30.600  26.304  25.643  1.00  0.00     0.004 A 
ATOM     12  C   UNL A   1      31.345  25.445  24.817  1.00  0.00     0.046 A 
BRANCH   8  13
ATOM     13  C   UNL A   1      33.326  28.416  27.282  1.00  0.00     0.031 C 
ATOM     14  C   UNL A   1      33.468  29.731  26.879  1.00  0.00     0.095 C 
BRANCH  14  15
ATOM     15  C   UNL A   1      34.172  30.764  27.743  1.00  0.00     0.103 C 
ATOM     16  N   UNL A   1      34.757  31.622  28.460  1.00  0.00    -0.192 NA
ENDBRANCH  14  15
BRANCH  14  17
ATOM     17  C   UNL A   1      32.875  30.184  25.631  1.00  0.00     0.149 A 
ATOM     18  N   UNL A   1      31.475  31.077  25.860  1.00  0.00    -0.228 NA
ATOM     19  N   UNL A   1      32.689  29.162  24.010  1.00  0.00    -0.337 N 
ATOM     20  C   UNL A   1      30.177  30.776  24.610  1.00  0.00     0.089 A 
ATOM     21  C   UNL A   1      30.905  29.443  23.387  1.00  0.00     0.066 A 
ATOM     22  H   UNL A   1      33.380  28.604  23.585  1.00  0.00     0.168 HD
ATOM     23  C   UNL A   1      28.665  31.654  24.191  1.00  0.00     0.030 A 
ATOM     24  C   UNL A   1      29.947  29.053  21.951  1.00  0.00     0.028 A 
ATOM     25  C   UNL A   1      27.788  31.204  22.697  1.00  0.00     0.002 A 
ATOM     26  C   UNL A   1      28.422  29.944  21.616  1.00  0.00     0.002 A 
ENDBRANCH  14  17
ENDBRANCH   8  13
ENDBRANCH   6   7
ENDBRANCH   5   6
ENDBRANCH   3   5
ENDBRANCH   2   3
ENDBRANCH   1   2
BRANCH   1  27
ATOM     27  C   UNL A   1      38.104  20.914  25.298  1.00  0.00     0.275 C 
BRANCH  27  28
ATOM     28  O   UNL A   1      39.217  19.852  25.708  1.00  0.00    -0.458 OA
BRANCH  28  29
ATOM     29  C   UNL A   1      41.189  19.732  26.018  1.00  0.00     0.338 C 
ATOM     30  O   UNL A   1      41.920  18.733  25.935  1.00  0.00    -0.246 OA
BRANCH  29  31
ATOM     31  C   UNL A   1      42.429  20.959  26.066  1.00  0.00     0.060 A 
ATOM     32  C   UNL A   1      42.654  21.516  27.347  1.00  0.00     0.016 A 
ATOM     33  C   UNL A   1      43.106  21.617  25.027  1.00  0.00     0.016 A 
ATOM     34  C   UNL A   1      43.044  22.844  27.528  1.00  0.00     0.010 A 
ATOM     35  C   UNL A   1      43.496  22.951  25.189  1.00  0.00     0.010 A 
ATOM     36  C   UNL A   1      43.358  23.609  26.417  1.00  0.00    -0.014 A 
BRANCH  36  37
ATOM     37  C   UNL A   1      43.860  24.990  26.519  1.00  0.00     0.031 A 
ATOM     38  C   UNL A   1      45.320  25.344  26.483  1.00  0.00     0.074 A 
ATOM     39  C   UNL A   1      42.920  25.868  26.906  1.00  0.00     0.049 A 
ATOM     40  N   UNL A   1      45.894  26.486  26.761  1.00  0.00    -0.248 NA
ATOM     41  C   UNL A   1      46.270  24.292  26.093  1.00  0.00     0.031 C 
ATOM     42  C   UNL A   1      41.492  25.549  27.046  1.00  0.00     0.029 A 
ATOM     43  N   UNL A   1      43.033  27.139  27.381  1.00  0.00    -0.354 N 
ATOM     44  C   UNL A   1      47.266  26.289  26.607  1.00  0.00     0.074 A 
ATOM     45  C   UNL A   1      47.443  24.907  26.216  1.00  0.00     0.031 C 
ATOM     46  C   UNL A   1      40.890  26.543  27.704  1.00  0.00     0.029 A 
ATOM     47  C   UNL A   1      41.877  27.574  27.980  1.00  0.00     0.049 A 
ATOM     48  H   UNL A   1      43.850  27.683  27.304  1.00  0.00     0.167 HD
ATOM     49  C   UNL A   1      48.264  27.196  26.765  1.00  0.00     0.034 A 
ATOM     50  C   UNL A   1      41.646  28.684  28.697  1.00  0.00     0.034 A 
ATOM     51  C   UNL A   1      48.019  28.565  27.151  1.00  0.00     0.049 A 
ATOM     52  C   UNL A   1      42.752  29.680  28.811  1.00  0.00     0.074 A 
ATOM     53  C   UNL A   1      48.911  29.622  27.199  1.00  0.00     0.029 A 
ATOM     54  N   UNL A   1      46.797  29.053  27.588  1.00  0.00    -0.354 N 
ATOM     55  N   UNL A   1      44.004  29.564  28.442  1.00  0.00    -0.248 NA
ATOM     56  C   UNL A   1      42.394  30.991  29.358  1.00  0.00     0.031 C 
ATOM     57  C   UNL A   1      48.239  30.734  27.718  1.00  0.00     0.029 A 
ATOM     58  C   UNL A   1      46.914  30.387  27.934  1.00  0.00     0.049 A 
ATOM     59  H   UNL A   1      45.967  28.527  27.644  1.00  0.00     0.167 HD
ATOM     60  C   UNL A   1      44.573  30.811  28.649  1.00  0.00     0.074 A 
ATOM     61  C   UNL A   1      43.522  31.662  29.174  1.00  0.00     0.031 C 
ATOM     62  C   UNL A   1      45.844  31.218  28.421  1.00  0.00     0.034 A 
BRANCH  49  63
ATOM     63  C   UNL A   1      49.698  26.801  26.479  1.00  0.00     0.023 A 
ATOM     64  C   UNL A   1      50.376  25.944  27.370  1.00  0.00     0.012 A 
ATOM     65  C   UNL A   1      50.313  27.128  25.248  1.00  0.00     0.148 A 
ATOM     66  C   UNL A   1      51.639  25.436  27.054  1.00  0.00     0.002 A 
ATOM     67  C   UNL A   1      51.554  26.586  24.923  1.00  0.00     0.091 A 
ATOM     68  F   UNL A   1      49.660  27.941  24.407  1.00  0.00    -0.205 F 
ATOM     69  C   UNL A   1      52.221  25.746  25.828  1.00  0.00     0.022 A 
BRANCH  67  70
ATOM     70  S   UNL A   1      52.357  26.849  23.334  1.00  0.00     0.127 S 
ATOM     71  O   UNL A   1      52.673  28.275  23.396  1.00  0.00    -0.237 OA
ATOM     72  O   UNL A   1      53.519  25.965  23.427  1.00  0.00    -0.237 OA
ATOM     73  O   UNL A   1      51.382  26.475  22.320  1.00  0.00    -0.744 OA
ENDBRANCH  67  70
ENDBRANCH  49  63
BRANCH  50  74
ATOM     74  C   UNL A   1      40.278  28.941  29.205  1.00  0.00     0.023 A 
ATOM     75  C   UNL A   1      39.269  29.269  28.283  1.00  0.00     0.012 A 
ATOM     76  C   UNL A   1      39.954  28.776  30.566  1.00  0.00     0.148 A 
ATOM     77  C   UNL A   1      37.964  29.489  28.715  1.00  0.00     0.002 A 
ATOM     78  C   UNL A   1      38.640  28.949  30.981  1.00  0.00     0.091 A 
ATOM     79  F   UNL A   1      40.929  28.425  31.416  1.00  0.00    -0.205 F 
ATOM     80  C   UNL A   1      37.649  29.326  30.060  1.00  0.00     0.022 A 
BRANCH  78  81
ATOM     81  S   UNL A   1      38.115  28.628  32.668  1.00  0.00     0.127 S 
ATOM     82  O   UNL A   1      36.748  29.144  32.656  1.00  0.00    -0.237 OA
ATOM     83  O   UNL A   1      38.222  27.171  32.748  1.00  0.00    -0.237 OA
ATOM     84  O   UNL A   1      39.056  29.344  33.517  1.00  0.00    -0.744 OA
ENDBRANCH  78  81
ENDBRANCH  50  74
BRANCH  62  85
ATOM     85  C   UNL A   1      46.153  32.664  28.687  1.00  0.00     0.023 A 
ATOM     86  C   UNL A   1      46.496  33.088  29.986  1.00  0.00     0.012 A 
ATOM     87  C   UNL A   1      46.150  33.592  27.630  1.00  0.00     0.148 A 
ATOM     88  C   UNL A   1      46.792  34.426  30.234  1.00  0.00     0.002 A 
ATOM     89  C   UNL A   1      46.505  34.910  27.873  1.00  0.00     0.091 A 
ATOM     90  F   UNL A   1      45.798  33.168  26.407  1.00  0.00    -0.205 F 
ATOM     91  C   UNL A   1      46.810  35.333  29.178  1.00  0.00     0.022 A 
BRANCH  89  92
ATOM     92  S   UNL A   1      46.657  36.124  26.560  1.00  0.00     0.127 S 
ATOM     93  O   UNL A   1      45.299  36.150  26.019  1.00  0.00    -0.237 OA
ATOM     94  O   UNL A   1      47.043  37.327  27.299  1.00  0.00    -0.237 OA
ATOM     95  O   UNL A   1      47.677  35.616  25.652  1.00  0.00    -0.744 OA
ENDBRANCH  89  92
ENDBRANCH  62  85
ENDBRANCH  36  37
ENDBRANCH  29  31
ENDBRANCH  28  29
ENDBRANCH  27  28
ENDBRANCH   1  27
TORSDOF 19
ENDMDL
MODEL 3
REMARK VINA RESULT:     -13.2      2.683      8.171
REMARK SMILES N#C/C(=C/c1cccc(OCC(=O)OCCOC(=O)c2ccc(-c3c4nc(c(-c5cccc(S(=O)(=O)[O-])c5F)c5ccc([nH]5)c(-c5cccc(S(=O)(=O)[O-])c5F)c5nc(c(-c6cccc(S(=O)(=O)[O-])c6F)c6ccc3[nH]6)C=C5)C=C4)cc2)c1)c1nc2ccccc2[nH]1
REMARK SMILES IDX 15 1 14 2 12 3 13 4 11 5 10 6 9 7 5 8 6 9 83 10 7 11 8 12
REMARK SMILES IDX 4 13 3 14 2 15 1 16 84 17 85 18 92 19 86 20 91 21 87 23
REMARK SMILES IDX 90 24 88 25 89 26 16 27 17 28 18 29 19 30 20 31 21 32 82 33
REMARK SMILES IDX 22 34 81 35 23 36 24 37 25 38 75 39 26 40 80 41 74 42 76 43
REMARK SMILES IDX 27 44 79 45 73 46 72 47 28 49 60 50 40 51 59 52 41 53 44 54
REMARK SMILES IDX 58 55 77 56 42 57 43 58 57 60 78 61 45 62 29 63 30 64 38 65
REMARK SMILES IDX 31 66 33 67 39 68 32 69 34 70 35 71 36 72 37 73 61 74 62 75
REMARK SMILES IDX 70 76 63 77 65 78 71 79 64 80 66 81 67 82 68 83 69 84 46 85
REMARK SMILES IDX 47 86 55 87 48 88 50 89 56 90 49 91 51 92 52 93 53 94 54 95
REMARK H PARENT 92 22 76 48 44 59
REMARK Flexibility Score: inf
ROOT
ATOM      1  C   UNL A   1      34.913  23.005  24.009  1.00  0.00     0.274 C 
ENDROOT
BRANCH   1   2
ATOM      2  O   UNL A   1      34.045  23.626  22.299  1.00  0.00    -0.460 OA
BRANCH   2   3
ATOM      3  C   UNL A   1      33.371  24.107  21.156  1.00  0.00     0.344 C 
ATOM      4  O   UNL A   1      33.043  23.376  20.216  1.00  0.00    -0.248 OA
BRANCH   3   5
ATOM      5  C   UNL A   1      33.053  25.795  21.067  1.00  0.00     0.351 C 
BRANCH   5   6
ATOM      6  O   UNL A   1      32.573  26.838  21.942  1.00  0.00    -0.482 OA
BRANCH   6   7
ATOM      7  C   UNL A   1      32.503  26.872  23.325  1.00  0.00     0.120 A 
ATOM      8  C   UNL A   1      31.636  26.061  25.524  1.00  0.00    -0.021 A 
ATOM      9  C   UNL A   1      32.871  26.359  26.098  1.00  0.00     0.008 A 
ATOM     10  C   UNL A   1      31.442  26.546  24.191  1.00  0.00     0.054 A 
ATOM     11  C   UNL A   1      33.869  26.986  25.334  1.00  0.00     0.004 A 
ATOM     12  C   UNL A   1      33.704  27.186  23.952  1.00  0.00     0.046 A 
BRANCH   8  13
ATOM     13  C   UNL A   1      30.683  25.099  26.265  1.00  0.00     0.031 C 
ATOM     14  C   UNL A   1      30.663  23.720  26.366  1.00  0.00     0.095 C 
BRANCH  14  15
ATOM     15  C   UNL A   1      29.633  22.992  27.213  1.00  0.00     0.103 C 
ATOM     16  N   UNL A   1      28.778  22.387  27.916  1.00  0.00    -0.192 NA
ENDBRANCH  14  15
BRANCH  14  17
ATOM     17  C   UNL A   1      31.686  22.921  25.710  1.00  0.00     0.149 A 
ATOM     18  N   UNL A   1      31.309  22.555  24.119  1.00  0.00    -0.228 NA
ATOM     19  N   UNL A   1      32.643  21.433  26.469  1.00  0.00    -0.337 N 
ATOM     20  C   UNL A   1      31.806  20.877  23.594  1.00  0.00     0.089 A 
ATOM     21  C   UNL A   1      32.637  20.049  25.152  1.00  0.00     0.066 A 
ATOM     22  H   UNL A   1      33.054  21.393  27.362  1.00  0.00     0.168 HD
ATOM     23  C   UNL A   1      31.940  20.098  21.979  1.00  0.00     0.030 A 
ATOM     24  C   UNL A   1      33.384  18.461  24.922  1.00  0.00     0.028 A 
ATOM     25  C   UNL A   1      32.745  18.505  21.851  1.00  0.00     0.002 A 
ATOM     26  C   UNL A   1      33.447  17.723  23.285  1.00  0.00     0.002 A 
ENDBRANCH  14  17
ENDBRANCH   8  13
ENDBRANCH   6   7
ENDBRANCH   5   6
ENDBRANCH   3   5
ENDBRANCH   2   3
ENDBRANCH   1   2
BRANCH   1  27
ATOM     27  C   UNL A   1      35.706  24.069  24.903  1.00  0.00     0.275 C 
BRANCH  27  28
ATOM     28  O   UNL A   1      36.618  23.288  25.948  1.00  0.00    -0.458 OA
BRANCH  28  29
ATOM     29  C   UNL A   1      38.543  23.067  26.448  1.00  0.00     0.338 C 
ATOM     30  O   UNL A   1      39.251  22.054  26.343  1.00  0.00    -0.246 OA
BRANCH  29  31
ATOM     31  C   UNL A   1      39.801  24.237  26.746  1.00  0.00     0.060 A 
ATOM     32  C   UNL A   1      40.018  24.532  28.113  1.00  0.00     0.016 A 
ATOM     33  C   UNL A   1      40.504  25.072  25.862  1.00  0.00     0.016 A 
ATOM     34  C   UNL A   1      40.427  25.792  28.552  1.00  0.00     0.010 A 
ATOM     35  C   UNL A   1      40.913  26.342  26.284  1.00  0.00     0.010 A 
ATOM     36  C   UNL A   1      40.769  26.752  27.614  1.00  0.00    -0.014 A 
BRANCH  36  37
ATOM     37  C   UNL A   1      41.292  28.077  27.988  1.00  0.00     0.031 A 
ATOM     38  C   UNL A   1      42.746  28.345  28.263  1.00  0.00     0.074 A 
ATOM     39  C   UNL A   1      40.329  28.955  28.312  1.00  0.00     0.049 A 
ATOM     40  N   UNL A   1      43.298  29.407  28.788  1.00  0.00    -0.248 NA
ATOM     41  C   UNL A   1      43.713  27.295  27.913  1.00  0.00     0.031 C 
ATOM     42  C   UNL A   1      38.889  28.706  28.150  1.00  0.00     0.029 A 
ATOM     43  N   UNL A   1      40.397  30.147  28.965  1.00  0.00    -0.354 N 
ATOM     44  C   UNL A   1      44.667  29.150  28.858  1.00  0.00     0.074 A 
ATOM     45  C   UNL A   1      44.864  27.819  28.325  1.00  0.00     0.031 C 
ATOM     46  C   UNL A   1      38.211  29.645  28.815  1.00  0.00     0.029 A 
ATOM     47  C   UNL A   1      39.166  30.574  29.399  1.00  0.00     0.049 A 
ATOM     48  H   UNL A   1      41.233  30.648  29.109  1.00  0.00     0.167 HD
ATOM     49  C   UNL A   1      45.650  29.969  29.312  1.00  0.00     0.034 A 
ATOM     50  C   UNL A   1      38.845  31.597  30.203  1.00  0.00     0.034 A 
ATOM     51  C   UNL A   1      45.387  31.292  29.826  1.00  0.00     0.049 A 
ATOM     52  C   UNL A   1      39.945  32.504  30.645  1.00  0.00     0.074 A 
ATOM     53  C   UNL A   1      46.291  32.280  30.175  1.00  0.00     0.029 A 
ATOM     54  N   UNL A   1      44.122  31.794  30.098  1.00  0.00    -0.354 N 
ATOM     55  N   UNL A   1      41.240  32.360  30.496  1.00  0.00    -0.248 NA
ATOM     56  C   UNL A   1      39.540  33.756  31.288  1.00  0.00     0.031 C 
ATOM     57  C   UNL A   1      45.574  33.357  30.707  1.00  0.00     0.029 A 
ATOM     58  C   UNL A   1      44.221  33.065  30.633  1.00  0.00     0.049 A 
ATOM     59  H   UNL A   1      43.278  31.315  29.933  1.00  0.00     0.167 HD
ATOM     60  C   UNL A   1      41.804  33.536  30.966  1.00  0.00     0.074 A 
ATOM     61  C   UNL A   1      40.705  34.376  31.402  1.00  0.00     0.031 C 
ATOM     62  C   UNL A   1      43.109  33.892  31.025  1.00  0.00     0.034 A 
BRANCH  49  63
ATOM     63  C   UNL A   1      47.097  29.528  29.239  1.00  0.00     0.023 A 
ATOM     64  C   UNL A   1      47.677  28.854  30.334  1.00  0.00     0.012 A 
ATOM     65  C   UNL A   1      47.826  29.618  28.031  1.00  0.00     0.148 A 
ATOM     66  C   UNL A   1      48.955  28.296  30.237  1.00  0.00     0.002 A 
ATOM     67  C   UNL A   1      49.083  29.025  27.929  1.00  0.00     0.091 A 
ATOM     68  F   UNL A   1      47.267  30.258  26.995  1.00  0.00    -0.205 F 
ATOM     69  C   UNL A   1      49.651  28.370  29.033  1.00  0.00     0.022 A 
BRANCH  67  70
ATOM     70  S   UNL A   1      50.030  28.985  26.400  1.00  0.00     0.127 S 
ATOM     71  O   UNL A   1      50.320  30.403  26.195  1.00  0.00    -0.237 OA
ATOM     72  O   UNL A   1      51.190  28.177  26.778  1.00  0.00    -0.237 OA
ATOM     73  O   UNL A   1      49.163  28.379  25.400  1.00  0.00    -0.744 OA
ENDBRANCH  67  70
ENDBRANCH  49  63
BRANCH  50  74
ATOM     74  C   UNL A   1      37.417  31.870  30.487  1.00  0.00     0.023 A 
ATOM     75  C   UNL A   1      36.888  31.464  31.725  1.00  0.00     0.012 A 
ATOM     76  C   UNL A   1      36.613  32.598  29.590  1.00  0.00     0.148 A 
ATOM     77  C   UNL A   1      35.559  31.727  32.045  1.00  0.00     0.002 A 
ATOM     78  C   UNL A   1      35.302  32.900  29.936  1.00  0.00     0.091 A 
ATOM     79  F   UNL A   1      37.155  33.006  28.433  1.00  0.00    -0.205 F 
ATOM     80  C   UNL A   1      34.769  32.447  31.154  1.00  0.00     0.022 A 
BRANCH  78  81
ATOM     81  S   UNL A   1      34.251  33.936  28.914  1.00  0.00     0.127 S 
ATOM     82  O   UNL A   1      33.736  32.972  27.945  1.00  0.00    -0.237 OA
ATOM     83  O   UNL A   1      33.266  34.421  29.883  1.00  0.00    -0.237 OA
ATOM     84  O   UNL A   1      35.121  34.973  28.379  1.00  0.00    -0.744 OA
ENDBRANCH  78  81
ENDBRANCH  50  74
BRANCH  62  85
ATOM     85  C   UNL A   1      43.415  35.272  31.533  1.00  0.00     0.023 A 
ATOM     86  C   UNL A   1      43.567  35.502  32.915  1.00  0.00     0.012 A 
ATOM     87  C   UNL A   1      43.600  36.332  30.626  1.00  0.00     0.148 A 
ATOM     88  C   UNL A   1      43.859  36.779  33.387  1.00  0.00     0.002 A 
ATOM     89  C   UNL A   1      43.951  37.586  31.100  1.00  0.00     0.091 A 
ATOM     90  F   UNL A   1      43.427  36.092  29.318  1.00  0.00    -0.205 F 
ATOM     91  C   UNL A   1      44.064  37.817  32.481  1.00  0.00     0.022 A 
BRANCH  89  92
ATOM     92  S   UNL A   1      44.337  38.956  30.005  1.00  0.00     0.127 S 
ATOM     93  O   UNL A   1      43.044  39.201  29.367  1.00  0.00    -0.237 OA
ATOM     94  O   UNL A   1      44.758  39.992  30.948  1.00  0.00    -0.237 OA
ATOM     95  O   UNL A   1      45.388  38.481  29.115  1.00  0.00    -0.744 OA
ENDBRANCH  89  92
ENDBRANCH  62  85
ENDBRANCH  36  37
ENDBRANCH  29  31
ENDBRANCH  28  29
ENDBRANCH  27  28
ENDBRANCH   1  27
TORSDOF 19
ENDMDL
