MODEL 1
REMARK VINA RESULT:     -10.2      0.000      0.000
REMARK SMILES CC[NH+](CC)CC[N@H+]1CC[C@@H](C(=O)OCCOC(=O)c2ccc(-c3c4nc(c(-c5cccc(S(=O)(=O)[O-])c5F)c5ccc([nH]5)c(-c5cccc(S(=O)(=O)[O-])c5F)c5nc(c(-c6cccc(S(=O)(=O)[O-])c6F)c6ccc3[nH]6)C=C5)C=C4)cc2)[C@@H]1C
REMARK SMILES IDX 15 1 14 2 12 3 13 4 11 5 8 6 9 7 83 8 10 10 84 11 7 12 6 13
REMARK SMILES IDX 3 14 2 16 1 17 4 18 5 19 16 20 17 21 18 22 19 23 20 24 21 25
REMARK SMILES IDX 82 26 22 27 81 28 23 29 24 30 25 31 75 32 26 33 80 34 74 35
REMARK SMILES IDX 76 36 27 37 79 38 73 39 72 40 28 42 60 43 40 44 59 45 41 46
REMARK SMILES IDX 44 47 58 48 77 49 42 50 43 51 57 53 78 54 45 55 29 56 30 57
REMARK SMILES IDX 38 58 31 59 33 60 39 61 32 62 34 63 35 64 36 65 37 66 61 67
REMARK SMILES IDX 62 68 70 69 63 70 65 71 71 72 64 73 66 74 67 75 68 76 69 77
REMARK SMILES IDX 46 78 47 79 55 80 48 81 50 82 56 83 49 84 51 85 52 86 53 87
REMARK SMILES IDX 54 88
REMARK H PARENT 8 9 3 15 76 41 44 52
REMARK Flexibility Score: inf
ROOT
ATOM      1  C   UNL A   1      31.725  30.150  25.945  1.00  0.00     0.274 C 
ENDROOT
BRANCH   1   2
ATOM      2  O   UNL A   1      33.022  29.721  25.489  1.00  0.00    -0.462 OA
BRANCH   2   3
ATOM      3  C   UNL A   1      33.300  28.396  25.611  1.00  0.00     0.315 C 
ATOM      4  O   UNL A   1      33.146  27.757  26.645  1.00  0.00    -0.252 OA
BRANCH   3   5
ATOM      5  C   UNL A   1      33.726  27.752  24.301  1.00  0.00     0.162 C 
ATOM      6  N   UNL A   1      32.072  27.289  22.618  1.00  0.00    -0.327 N 
ATOM      7  C   UNL A   1      33.015  28.240  22.030  1.00  0.00     0.263 C 
ATOM      8  C   UNL A   1      32.788  26.675  23.754  1.00  0.00     0.195 C 
ATOM      9  H   UNL A   1      31.802  26.594  21.921  1.00  0.00     0.348 HD
ATOM     10  C   UNL A   1      33.858  28.778  23.174  1.00  0.00     0.083 C 
ATOM     11  C   UNL A   1      33.616  25.483  23.241  1.00  0.00     0.076 C 
BRANCH   6  12
ATOM     12  C   UNL A   1      30.747  27.841  22.977  1.00  0.00     0.324 C 
BRANCH  12  13
ATOM     13  C   UNL A   1      30.322  29.295  22.602  1.00  0.00     0.324 C 
BRANCH  13  14
ATOM     14  N   UNL A   1      29.119  29.841  23.264  1.00  0.00    -0.331 N 
ATOM     15  H   UNL A   1      29.142  29.424  24.194  1.00  0.00     0.348 HD
BRANCH  14  16
ATOM     16  C   UNL A   1      27.843  29.446  22.628  1.00  0.00     0.258 C 
ATOM     17  C   UNL A   1      26.948  28.432  23.336  1.00  0.00     0.071 C 
ENDBRANCH  14  16
BRANCH  14  18
ATOM     18  C   UNL A   1      29.162  31.316  23.376  1.00  0.00     0.258 C 
ATOM     19  C   UNL A   1      28.482  32.039  22.221  1.00  0.00     0.071 C 
ENDBRANCH  14  18
ENDBRANCH  13  14
ENDBRANCH  12  13
ENDBRANCH   6  12
ENDBRANCH   3   5
ENDBRANCH   2   3
ENDBRANCH   1   2
BRANCH   1  20
ATOM     20  C   UNL A   1      31.781  31.603  26.410  1.00  0.00     0.275 C 
BRANCH  20  21
ATOM     21  O   UNL A   1      32.498  31.705  27.653  1.00  0.00    -0.458 OA
BRANCH  21  22
ATOM     22  C   UNL A   1      33.464  32.648  27.676  1.00  0.00     0.338 C 
ATOM     23  O   UNL A   1      33.319  33.861  27.568  1.00  0.00    -0.246 OA
BRANCH  22  24
ATOM     24  C   UNL A   1      34.776  32.040  27.925  1.00  0.00     0.060 A 
ATOM     25  C   UNL A   1      34.855  30.667  28.152  1.00  0.00     0.016 A 
ATOM     26  C   UNL A   1      35.885  32.856  28.141  1.00  0.00     0.016 A 
ATOM     27  C   UNL A   1      35.997  30.125  28.730  1.00  0.00     0.010 A 
ATOM     28  C   UNL A   1      37.070  32.288  28.619  1.00  0.00     0.010 A 
ATOM     29  C   UNL A   1      37.116  30.930  28.982  1.00  0.00    -0.014 A 
BRANCH  29  30
ATOM     30  C   UNL A   1      38.296  30.366  29.693  1.00  0.00     0.031 A 
ATOM     31  C   UNL A   1      38.567  30.750  31.125  1.00  0.00     0.074 A 
ATOM     32  C   UNL A   1      39.114  29.496  29.067  1.00  0.00     0.049 A 
ATOM     33  N   UNL A   1      39.603  30.468  31.873  1.00  0.00    -0.248 NA
ATOM     34  C   UNL A   1      37.550  31.573  31.801  1.00  0.00     0.031 C 
ATOM     35  C   UNL A   1      38.962  29.033  27.687  1.00  0.00     0.029 A 
ATOM     36  N   UNL A   1      40.237  28.844  29.513  1.00  0.00    -0.354 N 
ATOM     37  C   UNL A   1      39.404  31.148  33.070  1.00  0.00     0.074 A 
ATOM     38  C   UNL A   1      38.141  31.843  32.957  1.00  0.00     0.031 C 
ATOM     39  C   UNL A   1      39.932  28.150  27.408  1.00  0.00     0.029 A 
ATOM     40  C   UNL A   1      40.813  28.030  28.565  1.00  0.00     0.049 A 
ATOM     41  H   UNL A   1      40.596  28.949  30.424  1.00  0.00     0.167 HD
ATOM     42  C   UNL A   1      40.193  31.177  34.171  1.00  0.00     0.034 A 
ATOM     43  C   UNL A   1      41.933  27.283  28.614  1.00  0.00     0.034 A 
ATOM     44  C   UNL A   1      41.395  30.405  34.322  1.00  0.00     0.049 A 
ATOM     45  C   UNL A   1      42.747  27.271  29.878  1.00  0.00     0.074 A 
ATOM     46  C   UNL A   1      42.251  30.345  35.407  1.00  0.00     0.029 A 
ATOM     47  N   UNL A   1      41.896  29.530  33.369  1.00  0.00    -0.354 N 
ATOM     48  N   UNL A   1      42.521  27.893  31.009  1.00  0.00    -0.248 NA
ATOM     49  C   UNL A   1      43.959  26.440  29.878  1.00  0.00     0.031 C 
ATOM     50  C   UNL A   1      43.263  29.421  35.117  1.00  0.00     0.029 A 
ATOM     51  C   UNL A   1      43.037  28.911  33.849  1.00  0.00     0.049 A 
ATOM     52  H   UNL A   1      41.498  29.373  32.483  1.00  0.00     0.167 HD
ATOM     53  C   UNL A   1      43.556  27.522  31.860  1.00  0.00     0.074 A 
ATOM     54  C   UNL A   1      44.388  26.591  31.125  1.00  0.00     0.031 C 
ATOM     55  C   UNL A   1      43.814  27.940  33.124  1.00  0.00     0.034 A 
BRANCH  42  56
ATOM     56  C   UNL A   1      39.754  32.046  35.318  1.00  0.00     0.023 A 
ATOM     57  C   UNL A   1      40.157  33.396  35.363  1.00  0.00     0.012 A 
ATOM     58  C   UNL A   1      38.913  31.542  36.328  1.00  0.00     0.148 A 
ATOM     59  C   UNL A   1      39.749  34.223  36.409  1.00  0.00     0.002 A 
ATOM     60  C   UNL A   1      38.483  32.382  37.350  1.00  0.00     0.091 A 
ATOM     61  F   UNL A   1      38.564  30.247  36.288  1.00  0.00    -0.205 F 
ATOM     62  C   UNL A   1      38.905  33.719  37.396  1.00  0.00     0.022 A 
BRANCH  60  63
ATOM     63  S   UNL A   1      37.340  31.826  38.622  1.00  0.00     0.127 S 
ATOM     64  O   UNL A   1      38.132  32.017  39.836  1.00  0.00    -0.237 OA
ATOM     65  O   UNL A   1      36.221  32.759  38.473  1.00  0.00    -0.237 OA
ATOM     66  O   UNL A   1      37.019  30.447  38.284  1.00  0.00    -0.744 OA
ENDBRANCH  60  63
ENDBRANCH  42  56
BRANCH  43  67
ATOM     67  C   UNL A   1      42.312  26.447  27.440  1.00  0.00     0.023 A 
ATOM     68  C   UNL A   1      43.105  27.010  26.424  1.00  0.00     0.012 A 
ATOM     69  C   UNL A   1      41.949  25.089  27.355  1.00  0.00     0.148 A 
ATOM     70  C   UNL A   1      43.520  26.240  25.336  1.00  0.00     0.002 A 
ATOM     71  C   UNL A   1      42.415  24.313  26.300  1.00  0.00     0.091 A 
ATOM     72  F   UNL A   1      41.170  24.573  28.317  1.00  0.00    -0.205 F 
ATOM     73  C   UNL A   1      43.190  24.888  25.281  1.00  0.00     0.022 A 
BRANCH  71  74
ATOM     74  S   UNL A   1      42.154  22.536  26.257  1.00  0.00     0.127 S 
ATOM     75  O   UNL A   1      40.697  22.445  26.211  1.00  0.00    -0.237 OA
ATOM     76  O   UNL A   1      42.834  22.145  25.022  1.00  0.00    -0.237 OA
ATOM     77  O   UNL A   1      42.793  22.033  27.467  1.00  0.00    -0.744 OA
ENDBRANCH  71  74
ENDBRANCH  43  67
BRANCH  55  78
ATOM     78  C   UNL A   1      45.039  27.386  33.795  1.00  0.00     0.023 A 
ATOM     79  C   UNL A   1      46.260  28.081  33.681  1.00  0.00     0.012 A 
ATOM     80  C   UNL A   1      44.976  26.222  34.583  1.00  0.00     0.148 A 
ATOM     81  C   UNL A   1      47.405  27.611  34.321  1.00  0.00     0.002 A 
ATOM     82  C   UNL A   1      46.116  25.778  35.246  1.00  0.00     0.091 A 
ATOM     83  F   UNL A   1      43.814  25.557  34.661  1.00  0.00    -0.205 F 
ATOM     84  C   UNL A   1      47.331  26.466  35.111  1.00  0.00     0.022 A 
BRANCH  82  85
ATOM     85  S   UNL A   1      46.058  24.353  36.338  1.00  0.00     0.127 S 
ATOM     86  O   UNL A   1      47.436  24.281  36.817  1.00  0.00    -0.237 OA
ATOM     87  O   UNL A   1      45.084  24.761  37.353  1.00  0.00    -0.237 OA
ATOM     88  O   UNL A   1      45.613  23.250  35.497  1.00  0.00    -0.744 OA
ENDBRANCH  82  85
ENDBRANCH  55  78
ENDBRANCH  29  30
ENDBRANCH  22  24
ENDBRANCH  21  22
ENDBRANCH  20  21
ENDBRANCH   1  20
TORSDOF 19
ENDMDL
MODEL 2
REMARK VINA RESULT:     -10.2      5.882      8.624
REMARK SMILES CC[NH+](CC)CC[N@H+]1CC[C@@H](C(=O)OCCOC(=O)c2ccc(-c3c4nc(c(-c5cccc(S(=O)(=O)[O-])c5F)c5ccc([nH]5)c(-c5cccc(S(=O)(=O)[O-])c5F)c5nc(c(-c6cccc(S(=O)(=O)[O-])c6F)c6ccc3[nH]6)C=C5)C=C4)cc2)[C@@H]1C
REMARK SMILES IDX 15 1 14 2 12 3 13 4 11 5 8 6 9 7 83 8 10 10 84 11 7 12 6 13
REMARK SMILES IDX 3 14 2 16 1 17 4 18 5 19 16 20 17 21 18 22 19 23 20 24 21 25
REMARK SMILES IDX 82 26 22 27 81 28 23 29 24 30 25 31 75 32 26 33 80 34 74 35
REMARK SMILES IDX 76 36 27 37 79 38 73 39 72 40 28 42 60 43 40 44 59 45 41 46
REMARK SMILES IDX 44 47 58 48 77 49 42 50 43 51 57 53 78 54 45 55 29 56 30 57
REMARK SMILES IDX 38 58 31 59 33 60 39 61 32 62 34 63 35 64 36 65 37 66 61 67
REMARK SMILES IDX 62 68 70 69 63 70 65 71 71 72 64 73 66 74 67 75 68 76 69 77
REMARK SMILES IDX 46 78 47 79 55 80 48 81 50 82 56 83 49 84 51 85 52 86 53 87
REMARK SMILES IDX 54 88
REMARK H PARENT 8 9 3 15 76 41 44 52
REMARK Flexibility Score: inf
ROOT
ATOM      1  C   UNL A   1      35.883  21.099  25.678  1.00  0.00     0.274 C 
ENDROOT
BRANCH   1   2
ATOM      2  O   UNL A   1      35.658  22.505  25.464  1.00  0.00    -0.462 OA
BRANCH   2   3
ATOM      3  C   UNL A   1      34.922  22.843  24.373  1.00  0.00     0.315 C 
ATOM      4  O   UNL A   1      35.329  22.758  23.220  1.00  0.00    -0.252 OA
BRANCH   3   5
ATOM      5  C   UNL A   1      33.496  23.241  24.714  1.00  0.00     0.162 C 
ATOM      6  N   UNL A   1      31.845  21.530  25.080  1.00  0.00    -0.327 N 
ATOM      7  C   UNL A   1      31.961  22.277  26.333  1.00  0.00     0.263 C 
ATOM      8  C   UNL A   1      32.396  22.420  24.039  1.00  0.00     0.195 C 
ATOM      9  H   UNL A   1      30.866  21.302  24.904  1.00  0.00     0.348 HD
ATOM     10  C   UNL A   1      33.213  23.131  26.214  1.00  0.00     0.083 C 
ATOM     11  C   UNL A   1      31.283  23.361  23.541  1.00  0.00     0.076 C 
BRANCH   6  12
ATOM     12  C   UNL A   1      32.442  20.177  25.085  1.00  0.00     0.324 C 
BRANCH  12  13
ATOM     13  C   UNL A   1      32.530  19.302  23.795  1.00  0.00     0.324 C 
BRANCH  13  14
ATOM     14  N   UNL A   1      32.525  17.835  23.971  1.00  0.00    -0.331 N 
ATOM     15  H   UNL A   1      31.726  17.526  23.420  1.00  0.00     0.348 HD
BRANCH  14  16
ATOM     16  C   UNL A   1      32.306  17.390  25.365  1.00  0.00     0.258 C 
ATOM     17  C   UNL A   1      32.409  15.903  25.691  1.00  0.00     0.071 C 
ENDBRANCH  14  16
BRANCH  14  18
ATOM     18  C   UNL A   1      33.761  17.205  23.456  1.00  0.00     0.258 C 
ATOM     19  C   UNL A   1      35.023  17.642  24.188  1.00  0.00     0.071 C 
ENDBRANCH  14  18
ENDBRANCH  13  14
ENDBRANCH  12  13
ENDBRANCH   6  12
ENDBRANCH   3   5
ENDBRANCH   2   3
ENDBRANCH   1   2
BRANCH   1  20
ATOM     20  C   UNL A   1      37.138  20.645  24.935  1.00  0.00     0.275 C 
BRANCH  20  21
ATOM     21  O   UNL A   1      38.178  21.630  25.058  1.00  0.00    -0.458 OA
BRANCH  21  22
ATOM     22  C   UNL A   1      39.135  21.338  25.965  1.00  0.00     0.338 C 
ATOM     23  O   UNL A   1      39.663  20.249  26.160  1.00  0.00    -0.246 OA
BRANCH  22  24
ATOM     24  C   UNL A   1      39.547  22.544  26.691  1.00  0.00     0.060 A 
ATOM     25  C   UNL A   1      38.935  23.760  26.388  1.00  0.00     0.016 A 
ATOM     26  C   UNL A   1      40.674  22.506  27.510  1.00  0.00     0.016 A 
ATOM     27  C   UNL A   1      39.530  24.952  26.786  1.00  0.00     0.010 A 
ATOM     28  C   UNL A   1      41.205  23.703  27.999  1.00  0.00     0.010 A 
ATOM     29  C   UNL A   1      40.678  24.940  27.587  1.00  0.00    -0.014 A 
BRANCH  29  30
ATOM     30  C   UNL A   1      41.367  26.216  27.924  1.00  0.00     0.031 A 
ATOM     31  C   UNL A   1      40.652  27.267  28.735  1.00  0.00     0.074 A 
ATOM     32  C   UNL A   1      42.636  26.429  27.525  1.00  0.00     0.049 A 
ATOM     33  N   UNL A   1      41.030  28.486  29.024  1.00  0.00    -0.248 NA
ATOM     34  C   UNL A   1      39.330  26.909  29.278  1.00  0.00     0.031 C 
ATOM     35  C   UNL A   1      43.446  25.493  26.743  1.00  0.00     0.029 A 
ATOM     36  N   UNL A   1      43.469  27.502  27.723  1.00  0.00    -0.354 N 
ATOM     37  C   UNL A   1      39.963  29.065  29.702  1.00  0.00     0.074 A 
ATOM     38  C   UNL A   1      38.927  28.059  29.798  1.00  0.00     0.031 C 
ATOM     39  C   UNL A   1      44.667  26.017  26.555  1.00  0.00     0.029 A 
ATOM     40  C   UNL A   1      44.709  27.350  27.146  1.00  0.00     0.049 A 
ATOM     41  H   UNL A   1      43.204  28.305  28.229  1.00  0.00     0.167 HD
ATOM     42  C   UNL A   1      39.861  30.314  30.215  1.00  0.00     0.034 A 
ATOM     43  C   UNL A   1      45.758  28.194  27.084  1.00  0.00     0.034 A 
ATOM     44  C   UNL A   1      40.927  31.277  30.211  1.00  0.00     0.049 A 
ATOM     45  C   UNL A   1      45.645  29.545  27.733  1.00  0.00     0.074 A 
ATOM     46  C   UNL A   1      40.932  32.561  30.727  1.00  0.00     0.029 A 
ATOM     47  N   UNL A   1      42.193  31.051  29.691  1.00  0.00    -0.354 N 
ATOM     48  N   UNL A   1      44.640  30.059  28.399  1.00  0.00    -0.248 NA
ATOM     49  C   UNL A   1      46.817  30.428  27.636  1.00  0.00     0.031 C 
ATOM     50  C   UNL A   1      42.207  33.106  30.533  1.00  0.00     0.029 A 
ATOM     51  C   UNL A   1      42.993  32.162  29.891  1.00  0.00     0.049 A 
ATOM     52  H   UNL A   1      42.479  30.222  29.245  1.00  0.00     0.167 HD
ATOM     53  C   UNL A   1      45.060  31.317  28.811  1.00  0.00     0.074 A 
ATOM     54  C   UNL A   1      46.425  31.474  28.351  1.00  0.00     0.031 C 
ATOM     55  C   UNL A   1      44.368  32.272  29.480  1.00  0.00     0.034 A 
BRANCH  42  56
ATOM     56  C   UNL A   1      38.557  30.696  30.863  1.00  0.00     0.023 A 
ATOM     57  C   UNL A   1      38.339  30.391  32.221  1.00  0.00     0.012 A 
ATOM     58  C   UNL A   1      37.567  31.392  30.143  1.00  0.00     0.148 A 
ATOM     59  C   UNL A   1      37.145  30.749  32.845  1.00  0.00     0.002 A 
ATOM     60  C   UNL A   1      36.393  31.776  30.782  1.00  0.00     0.091 A 
ATOM     61  F   UNL A   1      37.777  31.648  28.843  1.00  0.00    -0.205 F 
ATOM     62  C   UNL A   1      36.177  31.449  32.130  1.00  0.00     0.022 A 
BRANCH  60  63
ATOM     63  S   UNL A   1      35.126  32.740  29.947  1.00  0.00     0.127 S 
ATOM     64  O   UNL A   1      34.638  31.789  28.950  1.00  0.00    -0.237 OA
ATOM     65  O   UNL A   1      34.181  33.027  31.028  1.00  0.00    -0.237 OA
ATOM     66  O   UNL A   1      35.810  33.914  29.423  1.00  0.00    -0.744 OA
ENDBRANCH  60  63
ENDBRANCH  42  56
BRANCH  43  67
ATOM     67  C   UNL A   1      47.019  27.753  26.425  1.00  0.00     0.023 A 
ATOM     68  C   UNL A   1      47.975  27.045  27.175  1.00  0.00     0.012 A 
ATOM     69  C   UNL A   1      47.248  27.973  25.053  1.00  0.00     0.148 A 
ATOM     70  C   UNL A   1      49.144  26.573  26.575  1.00  0.00     0.002 A 
ATOM     71  C   UNL A   1      48.386  27.450  24.449  1.00  0.00     0.091 A 
ATOM     72  F   UNL A   1      46.342  28.673  24.357  1.00  0.00    -0.205 F 
ATOM     73  C   UNL A   1      49.343  26.761  25.209  1.00  0.00     0.022 A 
BRANCH  71  74
ATOM     74  S   UNL A   1      48.620  27.524  22.669  1.00  0.00     0.127 S 
ATOM     75  O   UNL A   1      49.914  28.190  22.561  1.00  0.00    -0.237 OA
ATOM     76  O   UNL A   1      48.621  26.110  22.291  1.00  0.00    -0.237 OA
ATOM     77  O   UNL A   1      47.469  28.267  22.170  1.00  0.00    -0.744 OA
ENDBRANCH  71  74
ENDBRANCH  43  67
BRANCH  55  78
ATOM     78  C   UNL A   1      45.078  33.567  29.763  1.00  0.00     0.023 A 
ATOM     79  C   UNL A   1      45.828  33.695  30.949  1.00  0.00     0.012 A 
ATOM     80  C   UNL A   1      45.057  34.627  28.838  1.00  0.00     0.148 A 
ATOM     81  C   UNL A   1      46.526  34.870  31.222  1.00  0.00     0.002 A 
ATOM     82  C   UNL A   1      45.783  35.784  29.102  1.00  0.00     0.091 A 
ATOM     83  F   UNL A   1      44.317  34.500  27.727  1.00  0.00    -0.205 F 
ATOM     84  C   UNL A   1      46.512  35.910  30.295  1.00  0.00     0.022 A 
BRANCH  82  85
ATOM     85  S   UNL A   1      45.862  37.123  27.908  1.00  0.00     0.127 S 
ATOM     86  O   UNL A   1      46.411  36.450  26.733  1.00  0.00    -0.237 OA
ATOM     87  O   UNL A   1      44.460  37.524  27.777  1.00  0.00    -0.237 OA
ATOM     88  O   UNL A   1      46.713  38.132  28.526  1.00  0.00    -0.744 OA
ENDBRANCH  82  85
ENDBRANCH  55  78
ENDBRANCH  29  30
ENDBRANCH  22  24
ENDBRANCH  21  22
ENDBRANCH  20  21
ENDBRANCH   1  20
TORSDOF 19
ENDMDL
MODEL 3
REMARK VINA RESULT:     -10.1      5.205     10.230
REMARK SMILES CC[NH+](CC)CC[N@H+]1CC[C@@H](C(=O)OCCOC(=O)c2ccc(-c3c4nc(c(-c5cccc(S(=O)(=O)[O-])c5F)c5ccc([nH]5)c(-c5cccc(S(=O)(=O)[O-])c5F)c5nc(c(-c6cccc(S(=O)(=O)[O-])c6F)c6ccc3[nH]6)C=C5)C=C4)cc2)[C@@H]1C
REMARK SMILES IDX 15 1 14 2 12 3 13 4 11 5 8 6 9 7 83 8 10 10 84 11 7 12 6 13
REMARK SMILES IDX 3 14 2 16 1 17 4 18 5 19 16 20 17 21 18 22 19 23 20 24 21 25
REMARK SMILES IDX 82 26 22 27 81 28 23 29 24 30 25 31 75 32 26 33 80 34 74 35
REMARK SMILES IDX 76 36 27 37 79 38 73 39 72 40 28 42 60 43 40 44 59 45 41 46
REMARK SMILES IDX 44 47 58 48 77 49 42 50 43 51 57 53 78 54 45 55 29 56 30 57
REMARK SMILES IDX 38 58 31 59 33 60 39 61 32 62 34 63 35 64 36 65 37 66 61 67
REMARK SMILES IDX 62 68 70 69 63 70 65 71 71 72 64 73 66 74 67 75 68 76 69 77
REMARK SMILES IDX 46 78 47 79 55 80 48 81 50 82 56 83 49 84 51 85 52 86 53 87
REMARK SMILES IDX 54 88
REMARK H PARENT 8 9 3 15 76 41 44 52
REMARK Flexibility Score: inf
ROOT
ATOM      1  C   UNL A   1      35.948  20.347  25.178  1.00  0.00     0.274 C 
ENDROOT
BRANCH   1   2
ATOM      2  O   UNL A   1      35.884  21.475  26.069  1.00  0.00    -0.462 OA
BRANCH   2   3
ATOM      3  C   UNL A   1      34.793  22.277  25.955  1.00  0.00     0.315 C 
ATOM      4  O   UNL A   1      34.256  22.841  26.902  1.00  0.00    -0.252 OA
BRANCH   3   5
ATOM      5  C   UNL A   1      34.357  22.492  24.515  1.00  0.00     0.162 C 
ATOM      6  N   UNL A   1      33.015  24.409  23.959  1.00  0.00    -0.327 N 
ATOM      7  C   UNL A   1      34.265  24.540  23.212  1.00  0.00     0.263 C 
ATOM      8  C   UNL A   1      32.921  22.980  24.321  1.00  0.00     0.195 C 
ATOM      9  H   UNL A   1      32.231  24.704  23.375  1.00  0.00     0.348 HD
ATOM     10  C   UNL A   1      35.231  23.524  23.800  1.00  0.00     0.083 C 
ATOM     11  C   UNL A   1      32.268  22.209  23.159  1.00  0.00     0.076 C 
BRANCH   6  12
ATOM     12  C   UNL A   1      32.857  25.326  25.109  1.00  0.00     0.324 C 
BRANCH  12  13
ATOM     13  C   UNL A   1      31.842  26.511  25.095  1.00  0.00     0.324 C 
BRANCH  13  14
ATOM     14  N   UNL A   1      32.152  27.658  24.217  1.00  0.00    -0.331 N 
ATOM     15  H   UNL A   1      31.829  27.357  23.299  1.00  0.00     0.348 HD
BRANCH  14  16
ATOM     16  C   UNL A   1      33.595  27.965  24.106  1.00  0.00     0.258 C 
ATOM     17  C   UNL A   1      34.105  28.671  22.853  1.00  0.00     0.071 C 
ENDBRANCH  14  16
BRANCH  14  18
ATOM     18  C   UNL A   1      31.431  28.886  24.623  1.00  0.00     0.258 C 
ATOM     19  C   UNL A   1      31.708  29.314  26.058  1.00  0.00     0.071 C 
ENDBRANCH  14  18
ENDBRANCH  13  14
ENDBRANCH  12  13
ENDBRANCH   6  12
ENDBRANCH   3   5
ENDBRANCH   2   3
ENDBRANCH   1   2
BRANCH   1  20
ATOM     20  C   UNL A   1      37.400  19.920  24.966  1.00  0.00     0.275 C 
BRANCH  20  21
ATOM     21  O   UNL A   1      38.277  21.055  25.073  1.00  0.00    -0.458 OA
BRANCH  21  22
ATOM     22  C   UNL A   1      39.305  20.899  25.934  1.00  0.00     0.338 C 
ATOM     23  O   UNL A   1      39.971  19.886  26.118  1.00  0.00    -0.246 OA
BRANCH  22  24
ATOM     24  C   UNL A   1      39.604  22.162  26.619  1.00  0.00     0.060 A 
ATOM     25  C   UNL A   1      38.946  23.324  26.216  1.00  0.00     0.016 A 
ATOM     26  C   UNL A   1      40.677  22.229  27.505  1.00  0.00     0.016 A 
ATOM     27  C   UNL A   1      39.448  24.566  26.585  1.00  0.00     0.010 A 
ATOM     28  C   UNL A   1      41.110  23.478  27.962  1.00  0.00     0.010 A 
ATOM     29  C   UNL A   1      40.543  24.661  27.454  1.00  0.00    -0.014 A 
BRANCH  29  30
ATOM     30  C   UNL A   1      41.137  25.990  27.764  1.00  0.00     0.031 A 
ATOM     31  C   UNL A   1      42.515  26.335  27.261  1.00  0.00     0.074 A 
ATOM     32  C   UNL A   1      40.439  26.896  28.477  1.00  0.00     0.049 A 
ATOM     33  N   UNL A   1      43.253  27.383  27.526  1.00  0.00    -0.248 NA
ATOM     34  C   UNL A   1      43.158  25.369  26.353  1.00  0.00     0.031 C 
ATOM     35  C   UNL A   1      39.093  26.695  29.017  1.00  0.00     0.029 A 
ATOM     36  N   UNL A   1      40.766  28.170  28.869  1.00  0.00    -0.354 N 
ATOM     37  C   UNL A   1      44.471  27.161  26.893  1.00  0.00     0.074 A 
ATOM     38  C   UNL A   1      44.370  25.887  26.216  1.00  0.00     0.031 C 
ATOM     39  C   UNL A   1      38.697  27.814  29.641  1.00  0.00     0.029 A 
ATOM     40  C   UNL A   1      39.780  28.790  29.603  1.00  0.00     0.049 A 
ATOM     41  H   UNL A   1      41.624  28.600  28.648  1.00  0.00     0.167 HD
ATOM     42  C   UNL A   1      45.569  27.953  26.864  1.00  0.00     0.034 A 
ATOM     43  C   UNL A   1      39.756  30.001  30.193  1.00  0.00     0.034 A 
ATOM     44  C   UNL A   1      45.633  29.264  27.450  1.00  0.00     0.049 A 
ATOM     45  C   UNL A   1      40.959  30.894  30.076  1.00  0.00     0.074 A 
ATOM     46  C   UNL A   1      46.691  30.156  27.453  1.00  0.00     0.029 A 
ATOM     47  N   UNL A   1      44.584  29.885  28.110  1.00  0.00    -0.354 N 
ATOM     48  N   UNL A   1      42.087  30.678  29.444  1.00  0.00    -0.248 NA
ATOM     49  C   UNL A   1      40.881  32.203  30.739  1.00  0.00     0.031 C 
ATOM     50  C   UNL A   1      46.276  31.325  28.102  1.00  0.00     0.029 A 
ATOM     51  C   UNL A   1      44.961  31.156  28.507  1.00  0.00     0.049 A 
ATOM     52  H   UNL A   1      43.702  29.481  28.273  1.00  0.00     0.167 HD
ATOM     53  C   UNL A   1      42.849  31.827  29.621  1.00  0.00     0.074 A 
ATOM     54  C   UNL A   1      42.038  32.751  30.390  1.00  0.00     0.031 C 
ATOM     55  C   UNL A   1      44.117  32.083  29.216  1.00  0.00     0.034 A 
BRANCH  42  56
ATOM     56  C   UNL A   1      46.781  27.437  26.137  1.00  0.00     0.023 A 
ATOM     57  C   UNL A   1      46.905  27.652  24.750  1.00  0.00     0.012 A 
ATOM     58  C   UNL A   1      47.815  26.777  26.828  1.00  0.00     0.148 A 
ATOM     59  C   UNL A   1      48.026  27.196  24.058  1.00  0.00     0.002 A 
ATOM     60  C   UNL A   1      48.946  26.355  26.138  1.00  0.00     0.091 A 
ATOM     61  F   UNL A   1      47.668  26.553  28.143  1.00  0.00    -0.205 F 
ATOM     62  C   UNL A   1      49.050  26.557  24.753  1.00  0.00     0.022 A 
BRANCH  60  63
ATOM     63  S   UNL A   1      50.339  25.584  26.973  1.00  0.00     0.127 S 
ATOM     64  O   UNL A   1      49.726  24.374  27.517  1.00  0.00    -0.237 OA
ATOM     65  O   UNL A   1      51.277  25.349  25.874  1.00  0.00    -0.237 OA
ATOM     66  O   UNL A   1      50.797  26.560  27.952  1.00  0.00    -0.744 OA
ENDBRANCH  60  63
ENDBRANCH  42  56
BRANCH  43  67
ATOM     67  C   UNL A   1      38.524  30.450  30.901  1.00  0.00     0.023 A 
ATOM     68  C   UNL A   1      38.421  30.255  32.291  1.00  0.00     0.012 A 
ATOM     69  C   UNL A   1      37.488  31.122  30.223  1.00  0.00     0.148 A 
ATOM     70  C   UNL A   1      37.303  30.710  32.992  1.00  0.00     0.002 A 
ATOM     71  C   UNL A   1      36.406  31.624  30.937  1.00  0.00     0.091 A 
ATOM     72  F   UNL A   1      37.588  31.276  28.895  1.00  0.00    -0.205 F 
ATOM     73  C   UNL A   1      36.303  31.408  32.319  1.00  0.00     0.022 A 
BRANCH  71  74
ATOM     74  S   UNL A   1      35.169  32.664  30.153  1.00  0.00     0.127 S 
ATOM     75  O   UNL A   1      34.256  32.936  31.259  1.00  0.00    -0.237 OA
ATOM     76  O   UNL A   1      35.958  33.815  29.710  1.00  0.00    -0.237 OA
ATOM     77  O   UNL A   1      34.638  31.858  29.061  1.00  0.00    -0.744 OA
ENDBRANCH  71  74
ENDBRANCH  43  67
BRANCH  55  78
ATOM     78  C   UNL A   1      44.702  33.416  29.586  1.00  0.00     0.023 A 
ATOM     79  C   UNL A   1      45.411  33.544  30.797  1.00  0.00     0.012 A 
ATOM     80  C   UNL A   1      44.607  34.521  28.719  1.00  0.00     0.148 A 
ATOM     81  C   UNL A   1      45.996  34.758  31.151  1.00  0.00     0.002 A 
ATOM     82  C   UNL A   1      45.222  35.720  29.064  1.00  0.00     0.091 A 
ATOM     83  F   UNL A   1      43.907  34.391  27.583  1.00  0.00    -0.205 F 
ATOM     84  C   UNL A   1      45.910  35.844  30.280  1.00  0.00     0.022 A 
BRANCH  82  85
ATOM     85  S   UNL A   1      45.207  37.125  27.945  1.00  0.00     0.127 S 
ATOM     86  O   UNL A   1      43.781  37.429  27.857  1.00  0.00    -0.237 OA
ATOM     87  O   UNL A   1      45.997  38.124  28.668  1.00  0.00    -0.237 OA
ATOM     88  O   UNL A   1      45.836  36.642  26.722  1.00  0.00    -0.744 OA
ENDBRANCH  82  85
ENDBRANCH  55  78
ENDBRANCH  29  30
ENDBRANCH  22  24
ENDBRANCH  21  22
ENDBRANCH  20  21
ENDBRANCH   1  20
TORSDOF 19
ENDMDL
