MODEL 1
REMARK VINA RESULT:     -12.9      0.000      0.000
REMARK SMILES Cc1cc2c(cc1C(=O)c1ccccc1C(=O)OCCOC(=O)c1ccc(-c3c4nc(c(-c5cccc(S(=O)(=O)[O-])c5F)c5ccc([nH]5)c(-c5cccc(S(=O)(=O)[O-])c5F)c5nc(c(-c6cccc(S(=O)(=O)[O-])c6F)c6ccc3[nH]6)C=C5)C=C4)cc1)CCCC2
REMARK SMILES IDX 20 1 19 2 18 3 16 4 17 5 15 6 10 7 11 8 12 9 14 10 13 11
REMARK SMILES IDX 8 12 9 13 7 14 1 15 2 16 3 17 4 18 6 19 5 20 90 21 87 22
REMARK SMILES IDX 89 23 88 24 21 25 22 26 23 27 24 28 25 29 86 30 26 31 85 32
REMARK SMILES IDX 27 33 28 34 29 35 79 36 30 37 84 38 78 39 80 40 31 41 83 42
REMARK SMILES IDX 77 43 76 44 32 46 64 47 44 48 63 49 45 50 48 51 62 52 81 53
REMARK SMILES IDX 46 54 47 55 61 57 82 58 49 59 33 60 34 61 42 62 35 63 37 64
REMARK SMILES IDX 43 65 36 66 38 67 39 68 40 69 41 70 65 71 66 72 74 73 67 74
REMARK SMILES IDX 69 75 75 76 68 77 70 78 71 79 72 80 73 81 50 82 51 83 59 84
REMARK SMILES IDX 52 85 54 86 60 87 53 88 55 89 56 90 57 91 58 92
REMARK H PARENT 80 45 48 56
REMARK Flexibility Score: inf
ROOT
ATOM      1  C   UNL A   1      31.914  29.505  26.811  1.00  0.00     0.275 C 
ENDROOT
BRANCH   1   2
ATOM      2  C   UNL A   1      31.780  28.249  25.950  1.00  0.00     0.275 C 
BRANCH   2   3
ATOM      3  O   UNL A   1      32.977  27.453  26.027  1.00  0.00    -0.458 OA
BRANCH   3   4
ATOM      4  C   UNL A   1      33.719  27.363  24.899  1.00  0.00     0.339 C 
ATOM      5  O   UNL A   1      34.186  28.300  24.268  1.00  0.00    -0.246 OA
BRANCH   4   6
ATOM      6  C   UNL A   1      34.020  25.949  24.560  1.00  0.00     0.071 A 
ATOM      7  C   UNL A   1      33.507  25.280  23.440  1.00  0.00     0.037 A 
ATOM      8  C   UNL A   1      33.898  23.957  23.170  1.00  0.00     0.013 A 
ATOM      9  C   UNL A   1      34.724  23.273  24.064  1.00  0.00     0.001 A 
ATOM     10  C   UNL A   1      34.891  25.261  25.423  1.00  0.00     0.016 A 
ATOM     11  C   UNL A   1      35.215  23.923  25.193  1.00  0.00     0.001 A 
BRANCH   7  12
ATOM     12  C   UNL A   1      32.660  25.974  22.460  1.00  0.00     0.194 C 
ATOM     13  O   UNL A   1      33.079  25.981  21.302  1.00  0.00    -0.289 OA
BRANCH  12  14
ATOM     14  C   UNL A   1      31.325  26.583  22.787  1.00  0.00     0.026 A 
ATOM     15  C   UNL A   1      30.366  24.723  24.318  1.00  0.00     0.045 C 
ATOM     16  C   UNL A   1      30.287  26.016  23.553  1.00  0.00    -0.040 A 
ATOM     17  C   UNL A   1      29.052  26.699  23.629  1.00  0.00     0.008 A 
ATOM     18  C   UNL A   1      28.863  27.967  23.064  1.00  0.00    -0.044 A 
ATOM     19  C   UNL A   1      31.133  27.876  22.254  1.00  0.00     0.016 A 
ATOM     20  C   UNL A   1      29.927  28.577  22.395  1.00  0.00    -0.044 A 
ATOM     21  C   UNL A   1      27.505  28.619  23.142  1.00  0.00     0.036 C 
ATOM     22  C   UNL A   1      29.836  29.998  21.898  1.00  0.00     0.036 C 
ATOM     23  C   UNL A   1      27.556  30.131  22.939  1.00  0.00     0.005 C 
ATOM     24  C   UNL A   1      28.399  30.482  21.720  1.00  0.00     0.005 C 
ENDBRANCH  12  14
ENDBRANCH   7  12
ENDBRANCH   4   6
ENDBRANCH   3   4
ENDBRANCH   2   3
ENDBRANCH   1   2
BRANCH   1  25
ATOM     25  O   UNL A   1      32.833  30.433  26.208  1.00  0.00    -0.458 OA
BRANCH  25  26
ATOM     26  C   UNL A   1      33.173  31.489  26.986  1.00  0.00     0.338 C 
ATOM     27  O   UNL A   1      32.493  32.463  27.255  1.00  0.00    -0.246 OA
BRANCH  26  28
ATOM     28  C   UNL A   1      34.456  31.187  27.638  1.00  0.00     0.060 A 
ATOM     29  C   UNL A   1      35.381  32.183  27.951  1.00  0.00     0.016 A 
ATOM     30  C   UNL A   1      34.711  29.853  27.962  1.00  0.00     0.016 A 
ATOM     31  C   UNL A   1      36.578  31.827  28.584  1.00  0.00     0.010 A 
ATOM     32  C   UNL A   1      35.903  29.498  28.585  1.00  0.00     0.010 A 
ATOM     33  C   UNL A   1      36.847  30.482  28.903  1.00  0.00    -0.014 A 
BRANCH  33  34
ATOM     34  C   UNL A   1      38.073  30.105  29.646  1.00  0.00     0.031 A 
ATOM     35  C   UNL A   1      38.335  30.617  31.034  1.00  0.00     0.074 A 
ATOM     36  C   UNL A   1      38.996  29.344  29.027  1.00  0.00     0.049 A 
ATOM     37  N   UNL A   1      39.328  30.335  31.835  1.00  0.00    -0.248 NA
ATOM     38  C   UNL A   1      37.372  31.583  31.586  1.00  0.00     0.031 C 
ATOM     39  C   UNL A   1      38.906  28.878  27.643  1.00  0.00     0.029 A 
ATOM     40  N   UNL A   1      40.188  28.836  29.476  1.00  0.00    -0.354 N 
ATOM     41  C   UNL A   1      39.123  31.093  32.980  1.00  0.00     0.074 A 
ATOM     42  C   UNL A   1      37.924  31.874  32.758  1.00  0.00     0.031 C 
ATOM     43  C   UNL A   1      39.980  28.122  27.367  1.00  0.00     0.029 A 
ATOM     44  C   UNL A   1      40.834  28.054  28.550  1.00  0.00     0.049 A 
ATOM     45  H   UNL A   1      40.545  29.014  30.376  1.00  0.00     0.167 HD
ATOM     46  C   UNL A   1      39.845  31.109  34.126  1.00  0.00     0.034 A 
ATOM     47  C   UNL A   1      41.967  27.333  28.650  1.00  0.00     0.034 A 
ATOM     48  C   UNL A   1      41.012  30.300  34.359  1.00  0.00     0.049 A 
ATOM     49  C   UNL A   1      42.709  27.302  29.955  1.00  0.00     0.074 A 
ATOM     50  C   UNL A   1      41.761  30.187  35.517  1.00  0.00     0.029 A 
ATOM     51  N   UNL A   1      41.596  29.464  33.421  1.00  0.00    -0.354 N 
ATOM     52  N   UNL A   1      42.415  27.907  31.079  1.00  0.00    -0.248 NA
ATOM     53  C   UNL A   1      43.915  26.464  30.018  1.00  0.00     0.031 C 
ATOM     54  C   UNL A   1      42.797  29.276  35.280  1.00  0.00     0.029 A 
ATOM     55  C   UNL A   1      42.692  28.825  33.974  1.00  0.00     0.049 A 
ATOM     56  H   UNL A   1      41.279  29.343  32.497  1.00  0.00     0.167 HD
ATOM     57  C   UNL A   1      43.389  27.514  31.989  1.00  0.00     0.074 A 
ATOM     58  C   UNL A   1      44.273  26.603  31.289  1.00  0.00     0.031 C 
ATOM     59  C   UNL A   1      43.540  27.889  33.282  1.00  0.00     0.034 A 
BRANCH  46  60
ATOM     60  C   UNL A   1      39.341  31.959  35.259  1.00  0.00     0.023 A 
ATOM     61  C   UNL A   1      38.447  31.386  36.186  1.00  0.00     0.012 A 
ATOM     62  C   UNL A   1      39.801  33.274  35.463  1.00  0.00     0.148 A 
ATOM     63  C   UNL A   1      38.001  32.113  37.288  1.00  0.00     0.002 A 
ATOM     64  C   UNL A   1      39.374  33.985  36.580  1.00  0.00     0.091 A 
ATOM     65  F   UNL A   1      40.640  33.804  34.562  1.00  0.00    -0.205 F 
ATOM     66  C   UNL A   1      38.471  33.409  37.489  1.00  0.00     0.022 A 
BRANCH  64  67
ATOM     67  S   UNL A   1      39.962  35.638  36.965  1.00  0.00     0.127 S 
ATOM     68  O   UNL A   1      39.234  35.931  38.199  1.00  0.00    -0.237 OA
ATOM     69  O   UNL A   1      41.398  35.422  37.142  1.00  0.00    -0.237 OA
ATOM     70  O   UNL A   1      39.608  36.467  35.821  1.00  0.00    -0.744 OA
ENDBRANCH  64  67
ENDBRANCH  46  60
BRANCH  47  71
ATOM     71  C   UNL A   1      42.369  26.476  27.504  1.00  0.00     0.023 A 
ATOM     72  C   UNL A   1      43.271  26.996  26.557  1.00  0.00     0.012 A 
ATOM     73  C   UNL A   1      41.965  25.131  27.412  1.00  0.00     0.148 A 
ATOM     74  C   UNL A   1      43.769  26.189  25.534  1.00  0.00     0.002 A 
ATOM     75  C   UNL A   1      42.491  24.322  26.412  1.00  0.00     0.091 A 
ATOM     76  F   UNL A   1      41.110  24.662  28.332  1.00  0.00    -0.205 F 
ATOM     77  C   UNL A   1      43.387  24.851  25.468  1.00  0.00     0.022 A 
BRANCH  75  78
ATOM     78  S   UNL A   1      42.151  22.562  26.302  1.00  0.00     0.127 S 
ATOM     79  O   UNL A   1      42.771  22.061  27.526  1.00  0.00    -0.237 OA
ATOM     80  O   UNL A   1      40.688  22.542  26.299  1.00  0.00    -0.237 OA
ATOM     81  O   UNL A   1      42.769  22.113  25.062  1.00  0.00    -0.744 OA
ENDBRANCH  75  78
ENDBRANCH  47  71
BRANCH  59  82
ATOM     82  C   UNL A   1      44.711  27.332  34.045  1.00  0.00     0.023 A 
ATOM     83  C   UNL A   1      45.908  28.070  34.093  1.00  0.00     0.012 A 
ATOM     84  C   UNL A   1      44.586  26.153  34.806  1.00  0.00     0.148 A 
ATOM     85  C   UNL A   1      46.971  27.641  34.887  1.00  0.00     0.002 A 
ATOM     86  C   UNL A   1      45.638  25.747  35.618  1.00  0.00     0.091 A 
ATOM     87  F   UNL A   1      43.437  25.465  34.732  1.00  0.00    -0.205 F 
ATOM     88  C   UNL A   1      46.832  26.488  35.657  1.00  0.00     0.022 A 
BRANCH  86  89
ATOM     89  S   UNL A   1      45.534  24.316  36.698  1.00  0.00     0.127 S 
ATOM     90  O   UNL A   1      44.829  23.354  35.852  1.00  0.00    -0.237 OA
ATOM     91  O   UNL A   1      46.944  24.004  36.935  1.00  0.00    -0.237 OA
ATOM     92  O   UNL A   1      44.804  24.754  37.881  1.00  0.00    -0.744 OA
ENDBRANCH  86  89
ENDBRANCH  59  82
ENDBRANCH  33  34
ENDBRANCH  26  28
ENDBRANCH  25  26
ENDBRANCH   1  25
TORSDOF 16
ENDMDL
MODEL 2
REMARK VINA RESULT:     -12.8      5.223     10.264
REMARK SMILES Cc1cc2c(cc1C(=O)c1ccccc1C(=O)OCCOC(=O)c1ccc(-c3c4nc(c(-c5cccc(S(=O)(=O)[O-])c5F)c5ccc([nH]5)c(-c5cccc(S(=O)(=O)[O-])c5F)c5nc(c(-c6cccc(S(=O)(=O)[O-])c6F)c6ccc3[nH]6)C=C5)C=C4)cc1)CCCC2
REMARK SMILES IDX 20 1 19 2 18 3 16 4 17 5 15 6 10 7 11 8 12 9 14 10 13 11
REMARK SMILES IDX 8 12 9 13 7 14 1 15 2 16 3 17 4 18 6 19 5 20 90 21 87 22
REMARK SMILES IDX 89 23 88 24 21 25 22 26 23 27 24 28 25 29 86 30 26 31 85 32
REMARK SMILES IDX 27 33 28 34 29 35 79 36 30 37 84 38 78 39 80 40 31 41 83 42
REMARK SMILES IDX 77 43 76 44 32 46 64 47 44 48 63 49 45 50 48 51 62 52 81 53
REMARK SMILES IDX 46 54 47 55 61 57 82 58 49 59 33 60 34 61 42 62 35 63 37 64
REMARK SMILES IDX 43 65 36 66 38 67 39 68 40 69 41 70 65 71 66 72 74 73 67 74
REMARK SMILES IDX 69 75 75 76 68 77 70 78 71 79 72 80 73 81 50 82 51 83 59 84
REMARK SMILES IDX 52 85 54 86 60 87 53 88 55 89 56 90 57 91 58 92
REMARK H PARENT 80 45 48 56
REMARK Flexibility Score: inf
ROOT
ATOM      1  C   UNL A   1      37.101  20.798  25.142  1.00  0.00     0.275 C 
ENDROOT
BRANCH   1   2
ATOM      2  C   UNL A   1      35.660  21.247  24.902  1.00  0.00     0.275 C 
BRANCH   2   3
ATOM      3  O   UNL A   1      35.529  22.664  25.122  1.00  0.00    -0.458 OA
BRANCH   3   4
ATOM      4  C   UNL A   1      34.712  23.048  26.130  1.00  0.00     0.339 C 
ATOM      5  O   UNL A   1      34.740  22.631  27.279  1.00  0.00    -0.246 OA
BRANCH   4   6
ATOM      6  C   UNL A   1      33.820  24.160  25.710  1.00  0.00     0.071 A 
ATOM      7  C   UNL A   1      32.459  24.008  25.410  1.00  0.00     0.037 A 
ATOM      8  C   UNL A   1      31.683  25.132  25.080  1.00  0.00     0.013 A 
ATOM      9  C   UNL A   1      32.281  26.388  24.958  1.00  0.00     0.001 A 
ATOM     10  C   UNL A   1      34.395  25.440  25.634  1.00  0.00     0.016 A 
ATOM     11  C   UNL A   1      33.638  26.541  25.230  1.00  0.00     0.001 A 
BRANCH   7  12
ATOM     12  C   UNL A   1      31.787  22.710  25.554  1.00  0.00     0.194 C 
ATOM     13  O   UNL A   1      30.858  22.676  26.362  1.00  0.00    -0.289 OA
BRANCH  12  14
ATOM     14  C   UNL A   1      32.124  21.494  24.736  1.00  0.00     0.026 A 
ATOM     15  C   UNL A   1      32.246  22.579  22.384  1.00  0.00     0.045 C 
ATOM     16  C   UNL A   1      32.269  21.415  23.336  1.00  0.00    -0.040 A 
ATOM     17  C   UNL A   1      32.455  20.144  22.747  1.00  0.00     0.008 A 
ATOM     18  C   UNL A   1      32.611  18.981  23.512  1.00  0.00    -0.044 A 
ATOM     19  C   UNL A   1      32.318  20.320  25.496  1.00  0.00     0.016 A 
ATOM     20  C   UNL A   1      32.573  19.075  24.905  1.00  0.00    -0.044 A 
ATOM     21  C   UNL A   1      32.759  17.650  22.817  1.00  0.00     0.036 C 
ATOM     22  C   UNL A   1      32.883  17.890  25.785  1.00  0.00     0.036 C 
ATOM     23  C   UNL A   1      33.388  16.579  23.705  1.00  0.00     0.005 C 
ATOM     24  C   UNL A   1      32.716  16.551  25.072  1.00  0.00     0.005 C 
ENDBRANCH  12  14
ENDBRANCH   7  12
ENDBRANCH   4   6
ENDBRANCH   3   4
ENDBRANCH   2   3
ENDBRANCH   1   2
BRANCH   1  25
ATOM     25  O   UNL A   1      37.926  21.920  25.502  1.00  0.00    -0.458 OA
BRANCH  25  26
ATOM     26  C   UNL A   1      39.068  21.603  26.157  1.00  0.00     0.338 C 
ATOM     27  O   UNL A   1      39.635  20.525  26.184  1.00  0.00    -0.246 OA
BRANCH  26  28
ATOM     28  C   UNL A   1      39.651  22.842  26.695  1.00  0.00     0.060 A 
ATOM     29  C   UNL A   1      40.662  22.830  27.655  1.00  0.00     0.016 A 
ATOM     30  C   UNL A   1      39.169  24.049  26.185  1.00  0.00     0.016 A 
ATOM     31  C   UNL A   1      41.181  24.046  28.114  1.00  0.00     0.010 A 
ATOM     32  C   UNL A   1      39.680  25.258  26.645  1.00  0.00     0.010 A 
ATOM     33  C   UNL A   1      40.691  25.268  27.614  1.00  0.00    -0.014 A 
BRANCH  33  34
ATOM     34  C   UNL A   1      41.289  26.558  28.032  1.00  0.00     0.031 A 
ATOM     35  C   UNL A   1      42.717  26.898  27.712  1.00  0.00     0.074 A 
ATOM     36  C   UNL A   1      40.549  27.404  28.774  1.00  0.00     0.049 A 
ATOM     37  N   UNL A   1      43.368  28.005  27.957  1.00  0.00    -0.248 NA
ATOM     38  C   UNL A   1      43.523  25.859  27.052  1.00  0.00     0.031 C 
ATOM     39  C   UNL A   1      39.189  27.137  29.242  1.00  0.00     0.029 A 
ATOM     40  N   UNL A   1      40.836  28.650  29.268  1.00  0.00    -0.354 N 
ATOM     41  C   UNL A   1      44.662  27.797  27.495  1.00  0.00     0.074 A 
ATOM     42  C   UNL A   1      44.713  26.444  26.982  1.00  0.00     0.031 C 
ATOM     43  C   UNL A   1      38.745  28.203  29.925  1.00  0.00     0.029 A 
ATOM     44  C   UNL A   1      39.789  29.225  29.946  1.00  0.00     0.049 A 
ATOM     45  H   UNL A   1      41.708  29.091  29.147  1.00  0.00     0.167 HD
ATOM     46  C   UNL A   1      45.700  28.667  27.467  1.00  0.00     0.034 A 
ATOM     47  C   UNL A   1      39.667  30.448  30.495  1.00  0.00     0.034 A 
ATOM     48  C   UNL A   1      45.633  30.024  27.940  1.00  0.00     0.049 A 
ATOM     49  C   UNL A   1      40.802  31.425  30.382  1.00  0.00     0.074 A 
ATOM     50  C   UNL A   1      46.608  31.005  27.876  1.00  0.00     0.029 A 
ATOM     51  N   UNL A   1      44.531  30.594  28.557  1.00  0.00    -0.354 N 
ATOM     52  N   UNL A   1      41.968  31.263  29.805  1.00  0.00    -0.248 NA
ATOM     53  C   UNL A   1      40.596  32.760  30.961  1.00  0.00     0.031 C 
ATOM     54  C   UNL A   1      46.092  32.172  28.452  1.00  0.00     0.029 A 
ATOM     55  C   UNL A   1      44.797  31.915  28.874  1.00  0.00     0.049 A 
ATOM     56  H   UNL A   1      43.684  30.129  28.743  1.00  0.00     0.167 HD
ATOM     57  C   UNL A   1      42.630  32.477  29.938  1.00  0.00     0.074 A 
ATOM     58  C   UNL A   1      41.728  33.373  30.634  1.00  0.00     0.031 C 
ATOM     59  C   UNL A   1      43.878  32.810  29.529  1.00  0.00     0.034 A 
BRANCH  46  60
ATOM     60  C   UNL A   1      46.977  28.211  26.816  1.00  0.00     0.023 A 
ATOM     61  C   UNL A   1      48.035  27.775  27.638  1.00  0.00     0.012 A 
ATOM     62  C   UNL A   1      47.108  28.129  25.416  1.00  0.00     0.148 A 
ATOM     63  C   UNL A   1      49.214  27.284  27.081  1.00  0.00     0.002 A 
ATOM     64  C   UNL A   1      48.277  27.612  24.866  1.00  0.00     0.091 A 
ATOM     65  F   UNL A   1      46.095  28.562  24.653  1.00  0.00    -0.205 F 
ATOM     66  C   UNL A   1      49.331  27.195  25.696  1.00  0.00     0.022 A 
BRANCH  64  67
ATOM     67  S   UNL A   1      48.508  27.399  23.098  1.00  0.00     0.127 S 
ATOM     68  O   UNL A   1      49.869  27.903  22.915  1.00  0.00    -0.237 OA
ATOM     69  O   UNL A   1      48.369  25.951  22.940  1.00  0.00    -0.237 OA
ATOM     70  O   UNL A   1      47.461  28.183  22.458  1.00  0.00    -0.744 OA
ENDBRANCH  64  67
ENDBRANCH  46  60
BRANCH  47  71
ATOM     71  C   UNL A   1      38.354  30.843  31.071  1.00  0.00     0.023 A 
ATOM     72  C   UNL A   1      38.142  30.662  32.451  1.00  0.00     0.012 A 
ATOM     73  C   UNL A   1      37.376  31.496  30.298  1.00  0.00     0.148 A 
ATOM     74  C   UNL A   1      36.974  31.127  33.055  1.00  0.00     0.002 A 
ATOM     75  C   UNL A   1      36.231  31.990  30.913  1.00  0.00     0.091 A 
ATOM     76  F   UNL A   1      37.610  31.661  28.988  1.00  0.00    -0.205 F 
ATOM     77  C   UNL A   1      36.025  31.799  32.289  1.00  0.00     0.022 A 
BRANCH  75  78
ATOM     78  S   UNL A   1      34.999  32.962  30.040  1.00  0.00     0.127 S 
ATOM     79  O   UNL A   1      34.467  31.988  29.090  1.00  0.00    -0.237 OA
ATOM     80  O   UNL A   1      34.088  33.329  31.124  1.00  0.00    -0.237 OA
ATOM     81  O   UNL A   1      35.721  34.079  29.446  1.00  0.00    -0.744 OA
ENDBRANCH  75  78
ENDBRANCH  47  71
BRANCH  59  82
ATOM     82  C   UNL A   1      44.370  34.200  29.827  1.00  0.00     0.023 A 
ATOM     83  C   UNL A   1      45.039  34.442  31.041  1.00  0.00     0.012 A 
ATOM     84  C   UNL A   1      44.281  35.222  28.863  1.00  0.00     0.148 A 
ATOM     85  C   UNL A   1      45.611  35.688  31.296  1.00  0.00     0.002 A 
ATOM     86  C   UNL A   1      44.878  36.452  29.110  1.00  0.00     0.091 A 
ATOM     87  F   UNL A   1      43.629  34.966  27.719  1.00  0.00    -0.205 F 
ATOM     88  C   UNL A   1      45.541  36.687  30.328  1.00  0.00     0.022 A 
BRANCH  86  89
ATOM     89  S   UNL A   1      44.903  37.781  27.902  1.00  0.00     0.127 S 
ATOM     90  O   UNL A   1      43.476  38.027  27.701  1.00  0.00    -0.237 OA
ATOM     91  O   UNL A   1      45.610  38.840  28.622  1.00  0.00    -0.237 OA
ATOM     92  O   UNL A   1      45.612  37.259  26.742  1.00  0.00    -0.744 OA
ENDBRANCH  86  89
ENDBRANCH  59  82
ENDBRANCH  33  34
ENDBRANCH  26  28
ENDBRANCH  25  26
ENDBRANCH   1  25
TORSDOF 16
ENDMDL
MODEL 3
REMARK VINA RESULT:     -12.7      4.990      9.831
REMARK SMILES Cc1cc2c(cc1C(=O)c1ccccc1C(=O)OCCOC(=O)c1ccc(-c3c4nc(c(-c5cccc(S(=O)(=O)[O-])c5F)c5ccc([nH]5)c(-c5cccc(S(=O)(=O)[O-])c5F)c5nc(c(-c6cccc(S(=O)(=O)[O-])c6F)c6ccc3[nH]6)C=C5)C=C4)cc1)CCCC2
REMARK SMILES IDX 20 1 19 2 18 3 16 4 17 5 15 6 10 7 11 8 12 9 14 10 13 11
REMARK SMILES IDX 8 12 9 13 7 14 1 15 2 16 3 17 4 18 6 19 5 20 90 21 87 22
REMARK SMILES IDX 89 23 88 24 21 25 22 26 23 27 24 28 25 29 86 30 26 31 85 32
REMARK SMILES IDX 27 33 28 34 29 35 79 36 30 37 84 38 78 39 80 40 31 41 83 42
REMARK SMILES IDX 77 43 76 44 32 46 64 47 44 48 63 49 45 50 48 51 62 52 81 53
REMARK SMILES IDX 46 54 47 55 61 57 82 58 49 59 33 60 34 61 42 62 35 63 37 64
REMARK SMILES IDX 43 65 36 66 38 67 39 68 40 69 41 70 65 71 66 72 74 73 67 74
REMARK SMILES IDX 69 75 75 76 68 77 70 78 71 79 72 80 73 81 50 82 51 83 59 84
REMARK SMILES IDX 52 85 54 86 60 87 53 88 55 89 56 90 57 91 58 92
REMARK H PARENT 80 45 48 56
REMARK Flexibility Score: inf
ROOT
ATOM      1  C   UNL A   1      37.529  20.938  24.932  1.00  0.00     0.275 C 
ENDROOT
BRANCH   1   2
ATOM      2  C   UNL A   1      36.695  21.892  24.077  1.00  0.00     0.275 C 
BRANCH   2   3
ATOM      3  O   UNL A   1      36.097  22.913  24.897  1.00  0.00    -0.458 OA
BRANCH   3   4
ATOM      4  C   UNL A   1      34.959  22.578  25.548  1.00  0.00     0.339 C 
ATOM      5  O   UNL A   1      34.701  22.818  26.719  1.00  0.00    -0.246 OA
BRANCH   4   6
ATOM      6  C   UNL A   1      33.966  21.970  24.625  1.00  0.00     0.071 A 
ATOM      7  C   UNL A   1      33.291  22.675  23.618  1.00  0.00     0.037 A 
ATOM      8  C   UNL A   1      32.414  21.999  22.754  1.00  0.00     0.013 A 
ATOM      9  C   UNL A   1      32.139  20.644  22.950  1.00  0.00     0.001 A 
ATOM     10  C   UNL A   1      33.718  20.595  24.776  1.00  0.00     0.016 A 
ATOM     11  C   UNL A   1      32.787  19.943  23.965  1.00  0.00     0.001 A 
BRANCH   7  12
ATOM     12  C   UNL A   1      33.574  24.093  23.361  1.00  0.00     0.194 C 
ATOM     13  O   UNL A   1      34.381  24.322  22.459  1.00  0.00    -0.289 OA
BRANCH  12  14
ATOM     14  C   UNL A   1      32.891  25.229  24.072  1.00  0.00     0.026 A 
ATOM     15  C   UNL A   1      30.442  24.779  23.350  1.00  0.00     0.045 C 
ATOM     16  C   UNL A   1      31.525  25.573  24.026  1.00  0.00    -0.040 A 
ATOM     17  C   UNL A   1      31.107  26.763  24.663  1.00  0.00     0.008 A 
ATOM     18  C   UNL A   1      31.978  27.548  25.428  1.00  0.00    -0.044 A 
ATOM     19  C   UNL A   1      33.750  26.009  24.876  1.00  0.00     0.016 A 
ATOM     20  C   UNL A   1      33.310  27.149  25.562  1.00  0.00    -0.044 A 
ATOM     21  C   UNL A   1      31.476  28.831  26.042  1.00  0.00     0.036 C 
ATOM     22  C   UNL A   1      34.259  27.864  26.492  1.00  0.00     0.036 C 
ATOM     23  C   UNL A   1      32.340  29.316  27.204  1.00  0.00     0.005 C 
ATOM     24  C   UNL A   1      33.815  29.285  26.828  1.00  0.00     0.005 C 
ENDBRANCH  12  14
ENDBRANCH   7  12
ENDBRANCH   4   6
ENDBRANCH   3   4
ENDBRANCH   2   3
ENDBRANCH   1   2
BRANCH   1  25
ATOM     25  O   UNL A   1      38.013  21.607  26.109  1.00  0.00    -0.458 OA
BRANCH  25  26
ATOM     26  C   UNL A   1      39.329  21.423  26.371  1.00  0.00     0.338 C 
ATOM     27  O   UNL A   1      40.010  20.447  26.108  1.00  0.00    -0.246 OA
BRANCH  26  28
ATOM     28  C   UNL A   1      39.884  22.692  26.865  1.00  0.00     0.060 A 
ATOM     29  C   UNL A   1      40.846  22.738  27.874  1.00  0.00     0.016 A 
ATOM     30  C   UNL A   1      39.426  23.867  26.265  1.00  0.00     0.016 A 
ATOM     31  C   UNL A   1      41.341  23.981  28.288  1.00  0.00     0.010 A 
ATOM     32  C   UNL A   1      39.913  25.102  26.680  1.00  0.00     0.010 A 
ATOM     33  C   UNL A   1      40.875  25.171  27.696  1.00  0.00    -0.014 A 
BRANCH  33  34
ATOM     34  C   UNL A   1      41.451  26.484  28.068  1.00  0.00     0.031 A 
ATOM     35  C   UNL A   1      42.862  26.851  27.706  1.00  0.00     0.074 A 
ATOM     36  C   UNL A   1      40.708  27.330  28.806  1.00  0.00     0.049 A 
ATOM     37  N   UNL A   1      43.492  27.978  27.909  1.00  0.00    -0.248 NA
ATOM     38  C   UNL A   1      43.678  25.816  27.052  1.00  0.00     0.031 C 
ATOM     39  C   UNL A   1      39.366  27.042  29.313  1.00  0.00     0.029 A 
ATOM     40  N   UNL A   1      40.975  28.595  29.263  1.00  0.00    -0.354 N 
ATOM     41  C   UNL A   1      44.779  27.791  27.422  1.00  0.00     0.074 A 
ATOM     42  C   UNL A   1      44.851  26.427  26.940  1.00  0.00     0.031 C 
ATOM     43  C   UNL A   1      38.911  28.114  29.981  1.00  0.00     0.029 A 
ATOM     44  C   UNL A   1      39.930  29.160  29.953  1.00  0.00     0.049 A 
ATOM     45  H   UNL A   1      41.833  29.054  29.111  1.00  0.00     0.167 HD
ATOM     46  C   UNL A   1      45.794  28.684  27.349  1.00  0.00     0.034 A 
ATOM     47  C   UNL A   1      39.791  30.394  30.475  1.00  0.00     0.034 A 
ATOM     48  C   UNL A   1      45.705  30.050  27.790  1.00  0.00     0.049 A 
ATOM     49  C   UNL A   1      40.899  31.394  30.311  1.00  0.00     0.074 A 
ATOM     50  C   UNL A   1      46.654  31.052  27.680  1.00  0.00     0.029 A 
ATOM     51  N   UNL A   1      44.604  30.609  28.419  1.00  0.00    -0.354 N 
ATOM     52  N   UNL A   1      42.054  31.246  29.712  1.00  0.00    -0.248 NA
ATOM     53  C   UNL A   1      40.674  32.737  30.864  1.00  0.00     0.031 C 
ATOM     54  C   UNL A   1      46.123  32.220  28.240  1.00  0.00     0.029 A 
ATOM     55  C   UNL A   1      44.845  31.943  28.698  1.00  0.00     0.049 A 
ATOM     56  H   UNL A   1      43.773  30.128  28.636  1.00  0.00     0.167 HD
ATOM     57  C   UNL A   1      42.690  32.478  29.799  1.00  0.00     0.074 A 
ATOM     58  C   UNL A   1      41.782  33.369  30.495  1.00  0.00     0.031 C 
ATOM     59  C   UNL A   1      43.920  32.831  29.353  1.00  0.00     0.034 A 
BRANCH  46  60
ATOM     60  C   UNL A   1      47.067  28.243  26.678  1.00  0.00     0.023 A 
ATOM     61  C   UNL A   1      48.148  27.836  27.485  1.00  0.00     0.012 A 
ATOM     62  C   UNL A   1      47.173  28.147  25.278  1.00  0.00     0.148 A 
ATOM     63  C   UNL A   1      49.325  27.359  26.911  1.00  0.00     0.002 A 
ATOM     64  C   UNL A   1      48.340  27.643  24.711  1.00  0.00     0.091 A 
ATOM     65  F   UNL A   1      46.137  28.552  24.529  1.00  0.00    -0.205 F 
ATOM     66  C   UNL A   1      49.417  27.255  25.525  1.00  0.00     0.022 A 
BRANCH  64  67
ATOM     67  S   UNL A   1      48.542  27.413  22.941  1.00  0.00     0.127 S 
ATOM     68  O   UNL A   1      47.461  28.242  22.410  1.00  0.00    -0.237 OA
ATOM     69  O   UNL A   1      49.886  27.943  22.711  1.00  0.00    -0.237 OA
ATOM     70  O   UNL A   1      48.404  25.982  22.704  1.00  0.00    -0.744 OA
ENDBRANCH  64  67
ENDBRANCH  46  60
BRANCH  47  71
ATOM     71  C   UNL A   1      38.482  30.771  31.072  1.00  0.00     0.023 A 
ATOM     72  C   UNL A   1      38.300  30.599  32.457  1.00  0.00     0.012 A 
ATOM     73  C   UNL A   1      37.479  31.399  30.312  1.00  0.00     0.148 A 
ATOM     74  C   UNL A   1      37.136  31.049  33.080  1.00  0.00     0.002 A 
ATOM     75  C   UNL A   1      36.337  31.878  30.944  1.00  0.00     0.091 A 
ATOM     76  F   UNL A   1      37.685  31.556  28.996  1.00  0.00    -0.205 F 
ATOM     77  C   UNL A   1      36.160  31.697  32.326  1.00  0.00     0.022 A 
BRANCH  75  78
ATOM     78  S   UNL A   1      35.072  32.821  30.086  1.00  0.00     0.127 S 
ATOM     79  O   UNL A   1      34.111  33.076  31.157  1.00  0.00    -0.237 OA
ATOM     80  O   UNL A   1      35.825  33.993  29.641  1.00  0.00    -0.237 OA
ATOM     81  O   UNL A   1      34.592  31.961  29.013  1.00  0.00    -0.744 OA
ENDBRANCH  75  78
ENDBRANCH  47  71
BRANCH  59  82
ATOM     82  C   UNL A   1      44.384  34.239  29.606  1.00  0.00     0.023 A 
ATOM     83  C   UNL A   1      45.035  34.537  30.818  1.00  0.00     0.012 A 
ATOM     84  C   UNL A   1      44.288  35.225  28.605  1.00  0.00     0.148 A 
ATOM     85  C   UNL A   1      45.582  35.801  31.034  1.00  0.00     0.002 A 
ATOM     86  C   UNL A   1      44.861  36.473  28.814  1.00  0.00     0.091 A 
ATOM     87  F   UNL A   1      43.654  34.916  27.464  1.00  0.00    -0.205 F 
ATOM     88  C   UNL A   1      45.506  36.764  30.030  1.00  0.00     0.022 A 
BRANCH  86  89
ATOM     89  S   UNL A   1      44.877  37.758  27.559  1.00  0.00     0.127 S 
ATOM     90  O   UNL A   1      45.468  38.879  28.289  1.00  0.00    -0.237 OA
ATOM     91  O   UNL A   1      45.739  37.176  26.531  1.00  0.00    -0.237 OA
ATOM     92  O   UNL A   1      43.490  37.944  27.154  1.00  0.00    -0.744 OA
ENDBRANCH  86  89
ENDBRANCH  59  82
ENDBRANCH  33  34
ENDBRANCH  26  28
ENDBRANCH  25  26
ENDBRANCH   1  25
TORSDOF 16
ENDMDL
