MODEL 1
REMARK VINA RESULT:     -11.8      0.000      0.000
REMARK SMILES O=C(OCCOC(=O)[C@H]1CCCN(S(=O)(=O)c2cccc(Br)c2)C1)c1ccc(-c2c3nc(c(-c4cccc(S(=O)(=O)[O-])c4F)c4ccc([nH]4)c(-c4cccc(S(=O)(=O)[O-])c4F)c4nc(c(-c5cccc(S(=O)(=O)[O-])c5F)c5ccc2[nH]5)C=C4)C=C3)cc1
REMARK SMILES IDX 4 1 3 2 2 3 1 4 25 5 26 6 87 7 27 8 86 9 28 10 29 11 30 12
REMARK SMILES IDX 80 13 31 14 85 15 79 16 81 17 32 18 84 19 78 20 77 21 33 23
REMARK SMILES IDX 65 24 45 25 64 26 46 27 49 28 63 29 82 30 47 31 48 32 62 34
REMARK SMILES IDX 83 35 50 36 34 37 35 38 43 39 36 40 38 41 44 42 37 43 39 44
REMARK SMILES IDX 40 45 41 46 42 47 66 48 67 49 75 50 68 51 70 52 76 53 69 54
REMARK SMILES IDX 71 55 72 56 73 57 74 58 51 59 52 60 60 61 53 62 55 63 61 64
REMARK SMILES IDX 54 65 56 66 57 67 58 68 59 69 5 70 6 71 7 72 8 73 9 74 10 75
REMARK SMILES IDX 24 76 11 77 13 78 12 79 14 80 15 81 16 82 17 83 18 84 23 85
REMARK SMILES IDX 19 86 21 87 20 88 22 89
REMARK H PARENT 81 22 49 33
REMARK Flexibility Score: inf
ROOT
ATOM      1  C   UNL A   1      32.914  29.944  25.850  1.00  0.00     0.275 C 
ENDROOT
BRANCH   1   2
ATOM      2  O   UNL A   1      32.637  31.175  26.532  1.00  0.00    -0.458 OA
BRANCH   2   3
ATOM      3  C   UNL A   1      33.414  31.890  27.379  1.00  0.00     0.338 C 
ATOM      4  O   UNL A   1      33.046  33.027  27.671  1.00  0.00    -0.246 OA
BRANCH   3   5
ATOM      5  C   UNL A   1      34.763  31.445  27.872  1.00  0.00     0.060 A 
ATOM      6  C   UNL A   1      35.922  32.222  27.977  1.00  0.00     0.016 A 
ATOM      7  C   UNL A   1      34.822  30.127  28.363  1.00  0.00     0.016 A 
ATOM      8  C   UNL A   1      37.051  31.762  28.664  1.00  0.00     0.010 A 
ATOM      9  C   UNL A   1      35.931  29.675  29.084  1.00  0.00     0.010 A 
ATOM     10  C   UNL A   1      37.049  30.503  29.258  1.00  0.00    -0.014 A 
BRANCH  10  11
ATOM     11  C   UNL A   1      38.262  29.981  29.925  1.00  0.00     0.031 A 
ATOM     12  C   UNL A   1      38.566  30.526  31.289  1.00  0.00     0.074 A 
ATOM     13  C   UNL A   1      39.064  29.066  29.341  1.00  0.00     0.049 A 
ATOM     14  N   UNL A   1      39.549  30.229  32.090  1.00  0.00    -0.248 NA
ATOM     15  C   UNL A   1      37.621  31.521  31.832  1.00  0.00     0.031 C 
ATOM     16  C   UNL A   1      38.820  28.401  28.059  1.00  0.00     0.029 A 
ATOM     17  N   UNL A   1      40.272  28.549  29.740  1.00  0.00    -0.354 N 
ATOM     18  C   UNL A   1      39.332  30.988  33.231  1.00  0.00     0.074 A 
ATOM     19  C   UNL A   1      38.179  31.821  32.991  1.00  0.00     0.031 C 
ATOM     20  C   UNL A   1      39.873  27.621  27.747  1.00  0.00     0.029 A 
ATOM     21  C   UNL A   1      40.860  27.714  28.813  1.00  0.00     0.049 A 
ATOM     22  H   UNL A   1      40.682  28.756  30.611  1.00  0.00     0.167 HD
ATOM     23  C   UNL A   1      40.002  30.952  34.403  1.00  0.00     0.034 A 
ATOM     24  C   UNL A   1      42.054  27.087  28.842  1.00  0.00     0.034 A 
ATOM     25  C   UNL A   1      41.149  30.124  34.623  1.00  0.00     0.049 A 
ATOM     26  C   UNL A   1      42.863  27.182  30.112  1.00  0.00     0.074 A 
ATOM     27  C   UNL A   1      41.898  29.978  35.773  1.00  0.00     0.029 A 
ATOM     28  N   UNL A   1      41.730  29.324  33.651  1.00  0.00    -0.354 N 
ATOM     29  N   UNL A   1      42.574  27.811  31.227  1.00  0.00    -0.248 NA
ATOM     30  C   UNL A   1      44.115  26.416  30.157  1.00  0.00     0.031 C 
ATOM     31  C   UNL A   1      42.965  29.123  35.480  1.00  0.00     0.029 A 
ATOM     32  C   UNL A   1      42.849  28.700  34.163  1.00  0.00     0.049 A 
ATOM     33  H   UNL A   1      41.395  29.217  32.731  1.00  0.00     0.167 HD
ATOM     34  C   UNL A   1      43.563  27.449  32.132  1.00  0.00     0.074 A 
ATOM     35  C   UNL A   1      44.471  26.566  31.425  1.00  0.00     0.031 C 
ATOM     36  C   UNL A   1      43.702  27.794  33.436  1.00  0.00     0.034 A 
BRANCH  23  37
ATOM     37  C   UNL A   1      39.484  31.831  35.504  1.00  0.00     0.023 A 
ATOM     38  C   UNL A   1      38.491  31.346  36.384  1.00  0.00     0.012 A 
ATOM     39  C   UNL A   1      39.942  33.152  35.637  1.00  0.00     0.148 A 
ATOM     40  C   UNL A   1      37.926  32.181  37.344  1.00  0.00     0.002 A 
ATOM     41  C   UNL A   1      39.408  33.964  36.628  1.00  0.00     0.091 A 
ATOM     42  F   UNL A   1      40.862  33.598  34.771  1.00  0.00    -0.205 F 
ATOM     43  C   UNL A   1      38.389  33.488  37.471  1.00  0.00     0.022 A 
BRANCH  41  44
ATOM     44  S   UNL A   1      39.975  35.643  36.909  1.00  0.00     0.127 S 
ATOM     45  O   UNL A   1      39.278  35.985  38.149  1.00  0.00    -0.237 OA
ATOM     46  O   UNL A   1      41.418  35.454  37.051  1.00  0.00    -0.237 OA
ATOM     47  O   UNL A   1      39.568  36.409  35.740  1.00  0.00    -0.744 OA
ENDBRANCH  41  44
ENDBRANCH  23  37
BRANCH  24  48
ATOM     48  C   UNL A   1      42.524  26.204  27.732  1.00  0.00     0.023 A 
ATOM     49  C   UNL A   1      43.249  26.780  26.671  1.00  0.00     0.012 A 
ATOM     50  C   UNL A   1      42.178  24.839  27.657  1.00  0.00     0.148 A 
ATOM     51  C   UNL A   1      43.600  26.024  25.549  1.00  0.00     0.002 A 
ATOM     52  C   UNL A   1      42.539  24.089  26.535  1.00  0.00     0.091 A 
ATOM     53  F   UNL A   1      41.492  24.300  28.675  1.00  0.00    -0.205 F 
ATOM     54  C   UNL A   1      43.244  24.682  25.480  1.00  0.00     0.022 A 
BRANCH  52  55
ATOM     55  S   UNL A   1      42.061  22.366  26.339  1.00  0.00     0.127 S 
ATOM     56  O   UNL A   1      42.593  21.735  27.546  1.00  0.00    -0.237 OA
ATOM     57  O   UNL A   1      40.605  22.465  26.301  1.00  0.00    -0.237 OA
ATOM     58  O   UNL A   1      42.722  21.944  25.110  1.00  0.00    -0.744 OA
ENDBRANCH  52  55
ENDBRANCH  24  48
BRANCH  36  59
ATOM     59  C   UNL A   1      44.835  27.173  34.204  1.00  0.00     0.023 A 
ATOM     60  C   UNL A   1      46.094  27.802  34.244  1.00  0.00     0.012 A 
ATOM     61  C   UNL A   1      44.606  26.019  34.979  1.00  0.00     0.148 A 
ATOM     62  C   UNL A   1      47.118  27.273  35.026  1.00  0.00     0.002 A 
ATOM     63  C   UNL A   1      45.611  25.535  35.803  1.00  0.00     0.091 A 
ATOM     64  F   UNL A   1      43.404  25.428  34.907  1.00  0.00    -0.205 F 
ATOM     65  C   UNL A   1      46.872  26.152  35.818  1.00  0.00     0.022 A 
BRANCH  63  66
ATOM     66  S   UNL A   1      45.341  24.179  36.948  1.00  0.00     0.127 S 
ATOM     67  O   UNL A   1      44.297  24.724  37.814  1.00  0.00    -0.237 OA
ATOM     68  O   UNL A   1      44.898  23.107  36.055  1.00  0.00    -0.237 OA
ATOM     69  O   UNL A   1      46.623  23.934  37.594  1.00  0.00    -0.744 OA
ENDBRANCH  63  66
ENDBRANCH  36  59
ENDBRANCH  10  11
ENDBRANCH   3   5
ENDBRANCH   2   3
ENDBRANCH   1   2
BRANCH   1  70
ATOM     70  C   UNL A   1      31.728  28.977  25.768  1.00  0.00     0.274 C 
BRANCH  70  71
ATOM     71  O   UNL A   1      30.907  29.137  24.596  1.00  0.00    -0.462 OA
BRANCH  71  72
ATOM     72  C   UNL A   1      30.527  27.983  23.974  1.00  0.00     0.310 C 
ATOM     73  O   UNL A   1      29.761  27.939  23.019  1.00  0.00    -0.252 OA
BRANCH  72  74
ATOM     74  C   UNL A   1      31.100  26.737  24.627  1.00  0.00     0.114 C 
ATOM     75  C   UNL A   1      30.035  25.865  25.262  1.00  0.00     0.018 C 
ATOM     76  C   UNL A   1      31.893  25.927  23.616  1.00  0.00     0.117 C 
ATOM     77  C   UNL A   1      30.600  24.602  25.876  1.00  0.00     0.018 C 
ATOM     78  N   UNL A   1      32.532  24.747  24.293  1.00  0.00    -0.197 NA
ATOM     79  C   UNL A   1      31.517  23.853  24.930  1.00  0.00     0.102 C 
BRANCH  78  80
ATOM     80  S   UNL A   1      33.582  23.907  23.184  1.00  0.00     0.243 S 
ATOM     81  O   UNL A   1      32.861  22.733  22.742  1.00  0.00    -0.207 OA
ATOM     82  O   UNL A   1      34.025  24.906  22.226  1.00  0.00    -0.207 OA
BRANCH  80  83
ATOM     83  C   UNL A   1      34.960  23.431  24.187  1.00  0.00     0.083 A 
ATOM     84  C   UNL A   1      35.464  24.329  25.130  1.00  0.00     0.022 A 
ATOM     85  C   UNL A   1      35.523  22.161  24.051  1.00  0.00     0.037 A 
ATOM     86  C   UNL A   1      36.600  24.003  25.865  1.00  0.00     0.003 A 
ATOM     87  C   UNL A   1      36.617  21.820  24.845  1.00  0.00     0.019 A 
ATOM     88  C   UNL A   1      37.172  22.741  25.733  1.00  0.00     0.016 A 
ATOM     89  Br  UNL A   1      37.355  20.082  24.725  1.00  0.00    -0.051 Br
ENDBRANCH  80  83
ENDBRANCH  78  80
ENDBRANCH  72  74
ENDBRANCH  71  72
ENDBRANCH  70  71
ENDBRANCH   1  70
TORSDOF 16
ENDMDL
MODEL 2
REMARK VINA RESULT:     -11.7      4.202      6.797
REMARK SMILES O=C(OCCOC(=O)[C@H]1CCCN(S(=O)(=O)c2cccc(Br)c2)C1)c1ccc(-c2c3nc(c(-c4cccc(S(=O)(=O)[O-])c4F)c4ccc([nH]4)c(-c4cccc(S(=O)(=O)[O-])c4F)c4nc(c(-c5cccc(S(=O)(=O)[O-])c5F)c5ccc2[nH]5)C=C4)C=C3)cc1
REMARK SMILES IDX 4 1 3 2 2 3 1 4 25 5 26 6 87 7 27 8 86 9 28 10 29 11 30 12
REMARK SMILES IDX 80 13 31 14 85 15 79 16 81 17 32 18 84 19 78 20 77 21 33 23
REMARK SMILES IDX 65 24 45 25 64 26 46 27 49 28 63 29 82 30 47 31 48 32 62 34
REMARK SMILES IDX 83 35 50 36 34 37 35 38 43 39 36 40 38 41 44 42 37 43 39 44
REMARK SMILES IDX 40 45 41 46 42 47 66 48 67 49 75 50 68 51 70 52 76 53 69 54
REMARK SMILES IDX 71 55 72 56 73 57 74 58 51 59 52 60 60 61 53 62 55 63 61 64
REMARK SMILES IDX 54 65 56 66 57 67 58 68 59 69 5 70 6 71 7 72 8 73 9 74 10 75
REMARK SMILES IDX 24 76 11 77 13 78 12 79 14 80 15 81 16 82 17 83 18 84 23 85
REMARK SMILES IDX 19 86 21 87 20 88 22 89
REMARK H PARENT 81 22 49 33
REMARK Flexibility Score: inf
ROOT
ATOM      1  C   UNL A   1      33.077  32.430  27.961  1.00  0.00     0.275 C 
ENDROOT
BRANCH   1   2
ATOM      2  O   UNL A   1      34.316  31.814  27.585  1.00  0.00    -0.458 OA
BRANCH   2   3
ATOM      3  C   UNL A   1      34.727  30.533  27.732  1.00  0.00     0.338 C 
ATOM      4  O   UNL A   1      33.922  29.640  27.471  1.00  0.00    -0.246 OA
BRANCH   3   5
ATOM      5  C   UNL A   1      36.048  30.130  28.327  1.00  0.00     0.060 A 
ATOM      6  C   UNL A   1      36.268  29.553  29.583  1.00  0.00     0.016 A 
ATOM      7  C   UNL A   1      37.162  30.271  27.477  1.00  0.00     0.016 A 
ATOM      8  C   UNL A   1      37.510  29.012  29.932  1.00  0.00     0.010 A 
ATOM      9  C   UNL A   1      38.394  29.698  27.802  1.00  0.00     0.010 A 
ATOM     10  C   UNL A   1      38.569  29.042  29.029  1.00  0.00    -0.014 A 
BRANCH  10  11
ATOM     11  C   UNL A   1      39.905  28.535  29.415  1.00  0.00     0.031 A 
ATOM     12  C   UNL A   1      40.657  29.332  30.439  1.00  0.00     0.074 A 
ATOM     13  C   UNL A   1      40.431  27.416  28.873  1.00  0.00     0.049 A 
ATOM     14  N   UNL A   1      41.828  29.103  30.959  1.00  0.00    -0.248 NA
ATOM     15  C   UNL A   1      39.986  30.537  30.964  1.00  0.00     0.031 C 
ATOM     16  C   UNL A   1      39.757  26.514  27.938  1.00  0.00     0.029 A 
ATOM     17  N   UNL A   1      41.676  26.854  29.013  1.00  0.00    -0.354 N 
ATOM     18  C   UNL A   1      42.026  30.124  31.878  1.00  0.00     0.074 A 
ATOM     19  C   UNL A   1      40.899  31.020  31.787  1.00  0.00     0.031 C 
ATOM     20  C   UNL A   1      40.615  25.556  27.537  1.00  0.00     0.029 A 
ATOM     21  C   UNL A   1      41.894  25.761  28.199  1.00  0.00     0.049 A 
ATOM     22  H   UNL A   1      42.353  27.200  29.638  1.00  0.00     0.167 HD
ATOM     23  C   UNL A   1      43.034  30.270  32.765  1.00  0.00     0.034 A 
ATOM     24  C   UNL A   1      43.002  25.010  28.031  1.00  0.00     0.034 A 
ATOM     25  C   UNL A   1      44.148  29.375  32.838  1.00  0.00     0.049 A 
ATOM     26  C   UNL A   1      44.179  25.288  28.933  1.00  0.00     0.074 A 
ATOM     27  C   UNL A   1      45.218  29.399  33.710  1.00  0.00     0.029 A 
ATOM     28  N   UNL A   1      44.347  28.307  31.976  1.00  0.00    -0.354 N 
ATOM     29  N   UNL A   1      44.294  26.186  29.884  1.00  0.00    -0.248 NA
ATOM     30  C   UNL A   1      45.340  24.399  28.798  1.00  0.00     0.031 C 
ATOM     31  C   UNL A   1      46.091  28.371  33.341  1.00  0.00     0.029 A 
ATOM     32  C   UNL A   1      45.538  27.678  32.273  1.00  0.00     0.049 A 
ATOM     33  H   UNL A   1      43.730  28.037  31.258  1.00  0.00     0.167 HD
ATOM     34  C   UNL A   1      45.502  25.917  30.514  1.00  0.00     0.074 A 
ATOM     35  C   UNL A   1      46.090  24.787  29.820  1.00  0.00     0.031 C 
ATOM     36  C   UNL A   1      46.068  26.529  31.583  1.00  0.00     0.034 A 
BRANCH  23  37
ATOM     37  C   UNL A   1      42.939  31.435  33.707  1.00  0.00     0.023 A 
ATOM     38  C   UNL A   1      43.477  32.687  33.335  1.00  0.00     0.012 A 
ATOM     39  C   UNL A   1      42.362  31.279  34.978  1.00  0.00     0.148 A 
ATOM     40  C   UNL A   1      43.489  33.748  34.236  1.00  0.00     0.002 A 
ATOM     41  C   UNL A   1      42.335  32.355  35.854  1.00  0.00     0.091 A 
ATOM     42  F   UNL A   1      41.886  30.073  35.318  1.00  0.00    -0.205 F 
ATOM     43  C   UNL A   1      42.913  33.585  35.493  1.00  0.00     0.022 A 
BRANCH  41  44
ATOM     44  S   UNL A   1      41.567  32.264  37.473  1.00  0.00     0.127 S 
ATOM     45  O   UNL A   1      41.715  33.640  37.946  1.00  0.00    -0.237 OA
ATOM     46  O   UNL A   1      40.197  31.877  37.135  1.00  0.00    -0.237 OA
ATOM     47  O   UNL A   1      42.319  31.267  38.222  1.00  0.00    -0.744 OA
ENDBRANCH  41  44
ENDBRANCH  23  37
BRANCH  24  48
ATOM     48  C   UNL A   1      43.047  23.845  27.096  1.00  0.00     0.023 A 
ATOM     49  C   UNL A   1      43.632  24.019  25.827  1.00  0.00     0.012 A 
ATOM     50  C   UNL A   1      42.434  22.613  27.399  1.00  0.00     0.148 A 
ATOM     51  C   UNL A   1      43.585  23.001  24.871  1.00  0.00     0.002 A 
ATOM     52  C   UNL A   1      42.398  21.597  26.440  1.00  0.00     0.091 A 
ATOM     53  F   UNL A   1      41.885  22.456  28.612  1.00  0.00    -0.205 F 
ATOM     54  C   UNL A   1      42.968  21.793  25.176  1.00  0.00     0.022 A 
BRANCH  52  55
ATOM     55  S   UNL A   1      41.563  20.031  26.732  1.00  0.00     0.127 S 
ATOM     56  O   UNL A   1      40.177  20.434  26.969  1.00  0.00    -0.237 OA
ATOM     57  O   UNL A   1      41.782  19.338  25.466  1.00  0.00    -0.237 OA
ATOM     58  O   UNL A   1      42.228  19.479  27.906  1.00  0.00    -0.744 OA
ENDBRANCH  52  55
ENDBRANCH  24  48
BRANCH  36  59
ATOM     59  C   UNL A   1      47.355  25.960  32.111  1.00  0.00     0.023 A 
ATOM     60  C   UNL A   1      48.589  26.394  31.591  1.00  0.00     0.012 A 
ATOM     61  C   UNL A   1      47.332  25.075  33.207  1.00  0.00     0.148 A 
ATOM     62  C   UNL A   1      49.783  25.931  32.139  1.00  0.00     0.002 A 
ATOM     63  C   UNL A   1      48.525  24.669  33.787  1.00  0.00     0.091 A 
ATOM     64  F   UNL A   1      46.143  24.662  33.671  1.00  0.00    -0.205 F 
ATOM     65  C   UNL A   1      49.751  25.085  33.246  1.00  0.00     0.022 A 
BRANCH  63  66
ATOM     66  S   UNL A   1      48.574  23.686  35.288  1.00  0.00     0.127 S 
ATOM     67  O   UNL A   1      47.990  22.425  34.837  1.00  0.00    -0.237 OA
ATOM     68  O   UNL A   1      50.009  23.630  35.572  1.00  0.00    -0.237 OA
ATOM     69  O   UNL A   1      47.791  24.418  36.275  1.00  0.00    -0.744 OA
ENDBRANCH  63  66
ENDBRANCH  36  59
ENDBRANCH  10  11
ENDBRANCH   3   5
ENDBRANCH   2   3
ENDBRANCH   1   2
BRANCH   1  70
ATOM     70  C   UNL A   1      33.144  33.952  28.128  1.00  0.00     0.274 C 
BRANCH  70  71
ATOM     71  O   UNL A   1      32.730  34.430  29.421  1.00  0.00    -0.462 OA
BRANCH  71  72
ATOM     72  C   UNL A   1      32.810  35.779  29.612  1.00  0.00     0.310 C 
ATOM     73  O   UNL A   1      32.366  36.610  28.829  1.00  0.00    -0.252 OA
BRANCH  72  74
ATOM     74  C   UNL A   1      33.570  36.159  30.871  1.00  0.00     0.114 C 
ATOM     75  C   UNL A   1      32.656  36.607  31.994  1.00  0.00     0.018 C 
ATOM     76  C   UNL A   1      34.431  34.999  31.340  1.00  0.00     0.117 C 
ATOM     77  C   UNL A   1      33.408  36.947  33.263  1.00  0.00     0.018 C 
ATOM     78  N   UNL A   1      35.248  35.417  32.531  1.00  0.00    -0.197 NA
ATOM     79  C   UNL A   1      34.387  35.862  33.668  1.00  0.00     0.102 C 
BRANCH  78  80
ATOM     80  S   UNL A   1      36.364  34.153  32.973  1.00  0.00     0.243 S 
ATOM     81  O   UNL A   1      37.137  34.657  34.088  1.00  0.00    -0.207 OA
ATOM     82  O   UNL A   1      35.563  32.950  33.114  1.00  0.00    -0.207 OA
BRANCH  80  83
ATOM     83  C   UNL A   1      37.397  33.985  31.546  1.00  0.00     0.083 A 
ATOM     84  C   UNL A   1      36.836  33.557  30.341  1.00  0.00     0.022 A 
ATOM     85  C   UNL A   1      38.755  34.299  31.620  1.00  0.00     0.037 A 
ATOM     86  C   UNL A   1      37.649  33.337  29.234  1.00  0.00     0.003 A 
ATOM     87  C   UNL A   1      39.547  34.142  30.483  1.00  0.00     0.019 A 
ATOM     88  C   UNL A   1      39.006  33.642  29.298  1.00  0.00     0.016 A 
ATOM     89  Br  UNL A   1      41.375  34.622  30.542  1.00  0.00    -0.051 Br
ENDBRANCH  80  83
ENDBRANCH  78  80
ENDBRANCH  72  74
ENDBRANCH  71  72
ENDBRANCH  70  71
ENDBRANCH   1  70
TORSDOF 16
ENDMDL
MODEL 3
REMARK VINA RESULT:     -11.7      1.384      1.650
REMARK SMILES O=C(OCCOC(=O)[C@H]1CCCN(S(=O)(=O)c2cccc(Br)c2)C1)c1ccc(-c2c3nc(c(-c4cccc(S(=O)(=O)[O-])c4F)c4ccc([nH]4)c(-c4cccc(S(=O)(=O)[O-])c4F)c4nc(c(-c5cccc(S(=O)(=O)[O-])c5F)c5ccc2[nH]5)C=C4)C=C3)cc1
REMARK SMILES IDX 4 1 3 2 2 3 1 4 25 5 26 6 87 7 27 8 86 9 28 10 29 11 30 12
REMARK SMILES IDX 80 13 31 14 85 15 79 16 81 17 32 18 84 19 78 20 77 21 33 23
REMARK SMILES IDX 65 24 45 25 64 26 46 27 49 28 63 29 82 30 47 31 48 32 62 34
REMARK SMILES IDX 83 35 50 36 34 37 35 38 43 39 36 40 38 41 44 42 37 43 39 44
REMARK SMILES IDX 40 45 41 46 42 47 66 48 67 49 75 50 68 51 70 52 76 53 69 54
REMARK SMILES IDX 71 55 72 56 73 57 74 58 51 59 52 60 60 61 53 62 55 63 61 64
REMARK SMILES IDX 54 65 56 66 57 67 58 68 59 69 5 70 6 71 7 72 8 73 9 74 10 75
REMARK SMILES IDX 24 76 11 77 13 78 12 79 14 80 15 81 16 82 17 83 18 84 23 85
REMARK SMILES IDX 19 86 21 87 20 88 22 89
REMARK H PARENT 81 22 49 33
REMARK Flexibility Score: inf
ROOT
ATOM      1  C   UNL A   1      31.765  30.780  26.115  1.00  0.00     0.275 C 
ENDROOT
BRANCH   1   2
ATOM      2  O   UNL A   1      32.661  30.792  27.234  1.00  0.00    -0.458 OA
BRANCH   2   3
ATOM      3  C   UNL A   1      33.691  31.626  27.512  1.00  0.00     0.338 C 
ATOM      4  O   UNL A   1      33.531  32.826  27.292  1.00  0.00    -0.246 OA
BRANCH   3   5
ATOM      5  C   UNL A   1      35.059  31.170  27.935  1.00  0.00     0.060 A 
ATOM      6  C   UNL A   1      36.227  31.940  27.986  1.00  0.00     0.016 A 
ATOM      7  C   UNL A   1      35.134  29.850  28.419  1.00  0.00     0.016 A 
ATOM      8  C   UNL A   1      37.386  31.470  28.614  1.00  0.00     0.010 A 
ATOM      9  C   UNL A   1      36.275  29.389  29.082  1.00  0.00     0.010 A 
ATOM     10  C   UNL A   1      37.405  30.209  29.203  1.00  0.00    -0.014 A 
BRANCH  10  11
ATOM     11  C   UNL A   1      38.646  29.676  29.807  1.00  0.00     0.031 A 
ATOM     12  C   UNL A   1      39.071  30.279  31.113  1.00  0.00     0.074 A 
ATOM     13  C   UNL A   1      39.371  28.702  29.216  1.00  0.00     0.049 A 
ATOM     14  N   UNL A   1      40.100  29.988  31.855  1.00  0.00    -0.248 NA
ATOM     15  C   UNL A   1      38.204  31.337  31.668  1.00  0.00     0.031 C 
ATOM     16  C   UNL A   1      39.009  27.981  27.995  1.00  0.00     0.029 A 
ATOM     17  N   UNL A   1      40.587  28.161  29.554  1.00  0.00    -0.354 N 
ATOM     18  C   UNL A   1      39.996  30.813  32.965  1.00  0.00     0.074 A 
ATOM     19  C   UNL A   1      38.857  31.675  32.765  1.00  0.00     0.031 C 
ATOM     20  C   UNL A   1      40.008  27.147  27.649  1.00  0.00     0.029 A 
ATOM     21  C   UNL A   1      41.075  27.257  28.633  1.00  0.00     0.049 A 
ATOM     22  H   UNL A   1      41.068  28.398  30.380  1.00  0.00     0.167 HD
ATOM     23  C   UNL A   1      40.750  30.812  34.085  1.00  0.00     0.034 A 
ATOM     24  C   UNL A   1      42.245  26.587  28.609  1.00  0.00     0.034 A 
ATOM     25  C   UNL A   1      41.882  29.954  34.266  1.00  0.00     0.049 A 
ATOM     26  C   UNL A   1      43.150  26.718  29.809  1.00  0.00     0.074 A 
ATOM     27  C   UNL A   1      42.709  29.839  35.364  1.00  0.00     0.029 A 
ATOM     28  N   UNL A   1      42.360  29.083  33.299  1.00  0.00    -0.354 N 
ATOM     29  N   UNL A   1      42.967  27.414  30.907  1.00  0.00    -0.248 NA
ATOM     30  C   UNL A   1      44.376  25.908  29.804  1.00  0.00     0.031 C 
ATOM     31  C   UNL A   1      43.722  28.930  35.041  1.00  0.00     0.029 A 
ATOM     32  C   UNL A   1      43.492  28.444  33.761  1.00  0.00     0.049 A 
ATOM     33  H   UNL A   1      41.953  28.941  32.414  1.00  0.00     0.167 HD
ATOM     34  C   UNL A   1      44.009  27.063  31.755  1.00  0.00     0.074 A 
ATOM     35  C   UNL A   1      44.830  26.110  31.033  1.00  0.00     0.031 C 
ATOM     36  C   UNL A   1      44.257  27.470  33.025  1.00  0.00     0.034 A 
BRANCH  23  37
ATOM     37  C   UNL A   1      40.346  31.766  35.171  1.00  0.00     0.023 A 
ATOM     38  C   UNL A   1      41.049  32.979  35.342  1.00  0.00     0.012 A 
ATOM     39  C   UNL A   1      39.302  31.440  36.054  1.00  0.00     0.148 A 
ATOM     40  C   UNL A   1      40.754  33.826  36.408  1.00  0.00     0.002 A 
ATOM     41  C   UNL A   1      38.982  32.312  37.085  1.00  0.00     0.091 A 
ATOM     42  F   UNL A   1      38.671  30.270  35.890  1.00  0.00    -0.205 F 
ATOM     43  C   UNL A   1      39.717  33.495  37.276  1.00  0.00     0.022 A 
BRANCH  41  44
ATOM     44  S   UNL A   1      37.628  32.006  38.222  1.00  0.00     0.127 S 
ATOM     45  O   UNL A   1      38.244  32.337  39.507  1.00  0.00    -0.237 OA
ATOM     46  O   UNL A   1      36.624  32.965  37.760  1.00  0.00    -0.237 OA
ATOM     47  O   UNL A   1      37.265  30.607  38.052  1.00  0.00    -0.744 OA
ENDBRANCH  41  44
ENDBRANCH  23  37
BRANCH  24  48
ATOM     48  C   UNL A   1      42.600  25.630  27.518  1.00  0.00     0.023 A 
ATOM     49  C   UNL A   1      43.224  26.129  26.358  1.00  0.00     0.012 A 
ATOM     50  C   UNL A   1      42.240  24.268  27.563  1.00  0.00     0.148 A 
ATOM     51  C   UNL A   1      43.459  25.301  25.257  1.00  0.00     0.002 A 
ATOM     52  C   UNL A   1      42.486  23.444  26.462  1.00  0.00     0.091 A 
ATOM     53  F   UNL A   1      41.652  23.803  28.675  1.00  0.00    -0.205 F 
ATOM     54  C   UNL A   1      43.090  23.961  25.309  1.00  0.00     0.022 A 
BRANCH  52  55
ATOM     55  S   UNL A   1      41.980  21.719  26.423  1.00  0.00     0.127 S 
ATOM     56  O   UNL A   1      42.380  21.226  27.741  1.00  0.00    -0.237 OA
ATOM     57  O   UNL A   1      40.537  21.837  26.235  1.00  0.00    -0.237 OA
ATOM     58  O   UNL A   1      42.740  21.143  25.321  1.00  0.00    -0.744 OA
ENDBRANCH  52  55
ENDBRANCH  24  48
BRANCH  36  59
ATOM     59  C   UNL A   1      45.423  26.847  33.741  1.00  0.00     0.023 A 
ATOM     60  C   UNL A   1      46.671  27.497  33.765  1.00  0.00     0.012 A 
ATOM     61  C   UNL A   1      45.237  25.666  34.486  1.00  0.00     0.148 A 
ATOM     62  C   UNL A   1      47.727  26.964  34.500  1.00  0.00     0.002 A 
ATOM     63  C   UNL A   1      46.274  25.176  35.266  1.00  0.00     0.091 A 
ATOM     64  F   UNL A   1      44.045  25.055  34.430  1.00  0.00    -0.205 F 
ATOM     65  C   UNL A   1      47.524  25.815  35.263  1.00  0.00     0.022 A 
BRANCH  63  66
ATOM     66  S   UNL A   1      46.062  23.780  36.375  1.00  0.00     0.127 S 
ATOM     67  O   UNL A   1      44.786  24.100  37.014  1.00  0.00    -0.237 OA
ATOM     68  O   UNL A   1      46.014  22.652  35.443  1.00  0.00    -0.237 OA
ATOM     69  O   UNL A   1      47.220  23.786  37.258  1.00  0.00    -0.744 OA
ENDBRANCH  63  66
ENDBRANCH  36  59
ENDBRANCH  10  11
ENDBRANCH   3   5
ENDBRANCH   2   3
ENDBRANCH   1   2
BRANCH   1  70
ATOM     70  C   UNL A   1      31.728  29.459  25.339  1.00  0.00     0.274 C 
BRANCH  70  71
ATOM     71  O   UNL A   1      30.818  29.448  24.223  1.00  0.00    -0.462 OA
BRANCH  71  72
ATOM     72  C   UNL A   1      30.424  28.215  23.789  1.00  0.00     0.310 C 
ATOM     73  O   UNL A   1      29.554  28.031  22.945  1.00  0.00    -0.252 OA
BRANCH  72  74
ATOM     74  C   UNL A   1      31.129  27.077  24.506  1.00  0.00     0.114 C 
ATOM     75  C   UNL A   1      30.201  26.290  25.410  1.00  0.00     0.018 C 
ATOM     76  C   UNL A   1      31.783  26.144  23.502  1.00  0.00     0.117 C 
ATOM     77  C   UNL A   1      30.893  25.129  26.093  1.00  0.00     0.018 C 
ATOM     78  N   UNL A   1      32.555  25.075  24.224  1.00  0.00    -0.197 NA
ATOM     79  C   UNL A   1      31.678  24.267  25.125  1.00  0.00     0.102 C 
BRANCH  78  80
ATOM     80  S   UNL A   1      33.449  24.101  23.088  1.00  0.00     0.243 S 
ATOM     81  O   UNL A   1      32.503  23.175  22.503  1.00  0.00    -0.207 OA
ATOM     82  O   UNL A   1      34.178  25.039  22.251  1.00  0.00    -0.207 OA
BRANCH  80  83
ATOM     83  C   UNL A   1      34.606  23.227  24.102  1.00  0.00     0.083 A 
ATOM     84  C   UNL A   1      34.480  21.845  24.252  1.00  0.00     0.022 A 
ATOM     85  C   UNL A   1      35.649  23.912  24.728  1.00  0.00     0.037 A 
ATOM     86  C   UNL A   1      35.329  21.157  25.114  1.00  0.00     0.003 A 
ATOM     87  C   UNL A   1      36.537  23.199  25.533  1.00  0.00     0.019 A 
ATOM     88  C   UNL A   1      36.369  21.832  25.747  1.00  0.00     0.016 A 
ATOM     89  Br  UNL A   1      37.996  24.095  26.339  1.00  0.00    -0.051 Br
ENDBRANCH  80  83
ENDBRANCH  78  80
ENDBRANCH  72  74
ENDBRANCH  71  72
ENDBRANCH  70  71
ENDBRANCH   1  70
TORSDOF 16
ENDMDL
