MODEL 1
REMARK VINA RESULT:     -13.0      0.000      0.000
REMARK SMILES O=C(OCCOC(=O)c1ccc(-c2c3nc(c(-c4cccc(S(=O)(=O)[O-])c4F)c4ccc([nH]4)c(-c4cccc(S(=O)(=O)[O-])c4F)c4nc(c(-c5cccc(S(=O)(=O)[O-])c5F)c5ccc2[nH]5)C=C4)C=C3)cc1)C1=Cc2c(ccc(Cl)c2-c2ccccc2)O[C@H]1C(F)(F)F
REMARK SMILES IDX 5 1 4 2 3 3 2 4 1 5 72 6 73 7 88 8 74 9 87 10 75 11 80 12
REMARK SMILES IDX 76 13 78 14 77 15 79 16 89 17 90 18 91 19 92 20 81 21 82 22
REMARK SMILES IDX 86 23 83 24 85 25 84 26 6 27 7 28 8 29 9 30 10 31 71 32
REMARK SMILES IDX 11 33 70 34 12 35 13 36 14 37 64 38 15 39 69 40 63 41 65 42
REMARK SMILES IDX 16 43 68 44 62 45 61 46 17 48 49 49 29 50 48 51 30 52 33 53
REMARK SMILES IDX 47 54 66 55 31 56 32 57 46 59 67 60 34 61 18 62 19 63 27 64
REMARK SMILES IDX 20 65 22 66 28 67 21 68 23 69 24 70 25 71 26 72 50 73 51 74
REMARK SMILES IDX 59 75 52 76 54 77 60 78 53 79 55 80 56 81 57 82 58 83 35 84
REMARK SMILES IDX 36 85 44 86 37 87 39 88 45 89 38 90 40 91 41 92 42 93 43 94
REMARK H PARENT 65 47 33 58
REMARK Flexibility Score: inf
ROOT
ATOM      1  C   UNL A   1      38.338  19.610  25.034  1.00  0.00     0.275 C 
ENDROOT
BRANCH   1   2
ATOM      2  C   UNL A   1      37.310  20.686  24.663  1.00  0.00     0.275 C 
BRANCH   2   3
ATOM      3  O   UNL A   1      36.599  21.136  25.834  1.00  0.00    -0.459 OA
BRANCH   3   4
ATOM      4  C   UNL A   1      35.887  22.289  25.872  1.00  0.00     0.338 C 
ATOM      5  O   UNL A   1      36.407  23.320  26.286  1.00  0.00    -0.246 OA
BRANCH   4   6
ATOM      6  C   UNL A   1      34.460  22.310  25.463  1.00  0.00     0.087 C 
ATOM      7  C   UNL A   1      33.593  21.288  25.534  1.00  0.00     0.028 C 
ATOM      8  C   UNL A   1      33.953  23.604  24.886  1.00  0.00     0.316 C 
ATOM      9  C   UNL A   1      33.045  20.953  24.214  1.00  0.00     0.027 A 
ATOM     10  O   UNL A   1      32.877  23.379  23.902  1.00  0.00    -0.475 OA
ATOM     11  C   UNL A   1      32.683  22.086  23.455  1.00  0.00     0.128 A 
ATOM     12  C   UNL A   1      32.873  19.611  23.750  1.00  0.00     0.011 A 
ATOM     13  C   UNL A   1      32.077  21.902  22.226  1.00  0.00     0.049 A 
ATOM     14  C   UNL A   1      32.248  19.475  22.501  1.00  0.00     0.049 A 
ATOM     15  C   UNL A   1      31.855  20.602  21.757  1.00  0.00     0.025 A 
ATOM     16  Cl  UNL A   1      31.929  17.918  21.812  1.00  0.00    -0.084 Cl
BRANCH   8  17
ATOM     17  C   UNL A   1      33.501  24.507  26.059  1.00  0.00     0.430 C 
ATOM     18  F   UNL A   1      34.297  25.601  26.180  1.00  0.00    -0.167 F 
ATOM     19  F   UNL A   1      32.236  24.939  25.908  1.00  0.00    -0.167 F 
ATOM     20  F   UNL A   1      33.588  23.844  27.238  1.00  0.00    -0.167 F 
ENDBRANCH   8  17
BRANCH  12  21
ATOM     21  C   UNL A   1      33.417  18.419  24.476  1.00  0.00    -0.016 A 
ATOM     22  C   UNL A   1      32.571  17.658  25.310  1.00  0.00     0.009 A 
ATOM     23  C   UNL A   1      34.731  17.950  24.305  1.00  0.00     0.009 A 
ATOM     24  C   UNL A   1      32.958  16.401  25.805  1.00  0.00     0.001 A 
ATOM     25  C   UNL A   1      35.122  16.690  24.803  1.00  0.00     0.001 A 
ATOM     26  C   UNL A   1      34.220  15.898  25.512  1.00  0.00     0.000 A 
ENDBRANCH  12  21
ENDBRANCH   4   6
ENDBRANCH   3   4
ENDBRANCH   2   3
ENDBRANCH   1   2
BRANCH   1  27
ATOM     27  O   UNL A   1      38.924  19.833  26.315  1.00  0.00    -0.458 OA
BRANCH  27  28
ATOM     28  C   UNL A   1      40.226  20.170  26.247  1.00  0.00     0.338 C 
ATOM     29  O   UNL A   1      41.074  19.447  25.741  1.00  0.00    -0.246 OA
BRANCH  28  30
ATOM     30  C   UNL A   1      40.506  21.511  26.798  1.00  0.00     0.060 A 
ATOM     31  C   UNL A   1      39.798  22.580  26.255  1.00  0.00     0.016 A 
ATOM     32  C   UNL A   1      41.408  21.696  27.863  1.00  0.00     0.016 A 
ATOM     33  C   UNL A   1      40.098  23.861  26.677  1.00  0.00     0.010 A 
ATOM     34  C   UNL A   1      41.648  22.975  28.339  1.00  0.00     0.010 A 
ATOM     35  C   UNL A   1      41.072  24.058  27.665  1.00  0.00    -0.014 A 
BRANCH  35  36
ATOM     36  C   UNL A   1      41.675  25.395  27.782  1.00  0.00     0.031 A 
ATOM     37  C   UNL A   1      40.883  26.460  28.493  1.00  0.00     0.074 A 
ATOM     38  C   UNL A   1      42.924  25.607  27.338  1.00  0.00     0.049 A 
ATOM     39  N   UNL A   1      41.231  27.679  28.797  1.00  0.00    -0.248 NA
ATOM     40  C   UNL A   1      39.516  26.108  28.927  1.00  0.00     0.031 C 
ATOM     41  C   UNL A   1      43.753  24.619  26.645  1.00  0.00     0.029 A 
ATOM     42  N   UNL A   1      43.707  26.725  27.400  1.00  0.00    -0.354 N 
ATOM     43  C   UNL A   1      40.125  28.241  29.422  1.00  0.00     0.074 A 
ATOM     44  C   UNL A   1      39.082  27.247  29.440  1.00  0.00     0.031 C 
ATOM     45  C   UNL A   1      44.926  25.187  26.322  1.00  0.00     0.029 A 
ATOM     46  C   UNL A   1      44.917  26.576  26.766  1.00  0.00     0.049 A 
ATOM     47  H   UNL A   1      43.432  27.553  27.854  1.00  0.00     0.167 HD
ATOM     48  C   UNL A   1      40.004  29.477  29.953  1.00  0.00     0.034 A 
ATOM     49  C   UNL A   1      45.887  27.484  26.554  1.00  0.00     0.034 A 
ATOM     50  C   UNL A   1      41.069  30.436  29.952  1.00  0.00     0.049 A 
ATOM     51  C   UNL A   1      45.711  28.859  27.142  1.00  0.00     0.074 A 
ATOM     52  C   UNL A   1      41.092  31.694  30.520  1.00  0.00     0.029 A 
ATOM     53  N   UNL A   1      42.292  30.245  29.329  1.00  0.00    -0.354 N 
ATOM     54  N   UNL A   1      44.722  29.327  27.868  1.00  0.00    -0.248 NA
ATOM     55  C   UNL A   1      46.797  29.821  26.917  1.00  0.00     0.031 C 
ATOM     56  C   UNL A   1      42.313  32.287  30.191  1.00  0.00     0.029 A 
ATOM     57  C   UNL A   1      43.067  31.380  29.462  1.00  0.00     0.049 A 
ATOM     58  H   UNL A   1      42.567  29.424  28.861  1.00  0.00     0.167 HD
ATOM     59  C   UNL A   1      45.080  30.624  28.208  1.00  0.00     0.074 A 
ATOM     60  C   UNL A   1      46.390  30.857  27.637  1.00  0.00     0.031 C 
ATOM     61  C   UNL A   1      44.387  31.553  28.915  1.00  0.00     0.034 A 
BRANCH  48  62
ATOM     62  C   UNL A   1      38.687  29.861  30.569  1.00  0.00     0.023 A 
ATOM     63  C   UNL A   1      38.395  29.513  31.902  1.00  0.00     0.012 A 
ATOM     64  C   UNL A   1      37.763  30.627  29.833  1.00  0.00     0.148 A 
ATOM     65  C   UNL A   1      37.193  29.908  32.490  1.00  0.00     0.002 A 
ATOM     66  C   UNL A   1      36.590  31.057  30.438  1.00  0.00     0.091 A 
ATOM     67  F   UNL A   1      38.052  30.921  28.558  1.00  0.00    -0.205 F 
ATOM     68  C   UNL A   1      36.298  30.690  31.762  1.00  0.00     0.022 A 
BRANCH  66  69
ATOM     69  S   UNL A   1      35.408  32.126  29.612  1.00  0.00     0.127 S 
ATOM     70  O   UNL A   1      36.259  33.239  29.192  1.00  0.00    -0.237 OA
ATOM     71  O   UNL A   1      34.938  31.272  28.521  1.00  0.00    -0.237 OA
ATOM     72  O   UNL A   1      34.400  32.463  30.607  1.00  0.00    -0.744 OA
ENDBRANCH  66  69
ENDBRANCH  48  62
BRANCH  49  73
ATOM     73  C   UNL A   1      47.093  27.128  25.756  1.00  0.00     0.023 A 
ATOM     74  C   UNL A   1      48.148  26.411  26.352  1.00  0.00     0.012 A 
ATOM     75  C   UNL A   1      47.204  27.517  24.406  1.00  0.00     0.148 A 
ATOM     76  C   UNL A   1      49.314  26.138  25.636  1.00  0.00     0.002 A 
ATOM     77  C   UNL A   1      48.345  27.195  23.682  1.00  0.00     0.091 A 
ATOM     78  F   UNL A   1      46.193  28.205  23.857  1.00  0.00    -0.205 F 
ATOM     79  C   UNL A   1      49.411  26.525  24.301  1.00  0.00     0.022 A 
BRANCH  77  80
ATOM     80  S   UNL A   1      48.508  27.559  21.931  1.00  0.00     0.127 S 
ATOM     81  O   UNL A   1      49.677  28.434  21.915  1.00  0.00    -0.237 OA
ATOM     82  O   UNL A   1      48.728  26.227  21.364  1.00  0.00    -0.237 OA
ATOM     83  O   UNL A   1      47.248  28.177  21.538  1.00  0.00    -0.744 OA
ENDBRANCH  77  80
ENDBRANCH  49  73
BRANCH  61  84
ATOM     84  C   UNL A   1      45.039  32.889  29.128  1.00  0.00     0.023 A 
ATOM     85  C   UNL A   1      45.830  33.106  30.273  1.00  0.00     0.012 A 
ATOM     86  C   UNL A   1      44.950  33.890  28.141  1.00  0.00     0.148 A 
ATOM     87  C   UNL A   1      46.501  34.314  30.447  1.00  0.00     0.002 A 
ATOM     88  C   UNL A   1      45.668  35.067  28.293  1.00  0.00     0.091 A 
ATOM     89  F   UNL A   1      44.182  33.659  27.066  1.00  0.00    -0.205 F 
ATOM     90  C   UNL A   1      46.432  35.287  29.451  1.00  0.00     0.022 A 
BRANCH  88  91
ATOM     91  S   UNL A   1      45.730  36.328  27.018  1.00  0.00     0.127 S 
ATOM     92  O   UNL A   1      44.381  36.885  27.085  1.00  0.00    -0.237 OA
ATOM     93  O   UNL A   1      46.784  37.215  27.514  1.00  0.00    -0.237 OA
ATOM     94  O   UNL A   1      46.053  35.636  25.777  1.00  0.00    -0.744 OA
ENDBRANCH  88  91
ENDBRANCH  61  84
ENDBRANCH  35  36
ENDBRANCH  28  30
ENDBRANCH  27  28
ENDBRANCH   1  27
TORSDOF 16
ENDMDL
MODEL 2
REMARK VINA RESULT:     -12.8      5.993      8.929
REMARK SMILES O=C(OCCOC(=O)c1ccc(-c2c3nc(c(-c4cccc(S(=O)(=O)[O-])c4F)c4ccc([nH]4)c(-c4cccc(S(=O)(=O)[O-])c4F)c4nc(c(-c5cccc(S(=O)(=O)[O-])c5F)c5ccc2[nH]5)C=C4)C=C3)cc1)C1=Cc2c(ccc(Cl)c2-c2ccccc2)O[C@H]1C(F)(F)F
REMARK SMILES IDX 5 1 4 2 3 3 2 4 1 5 72 6 73 7 88 8 74 9 87 10 75 11 80 12
REMARK SMILES IDX 76 13 78 14 77 15 79 16 89 17 90 18 91 19 92 20 81 21 82 22
REMARK SMILES IDX 86 23 83 24 85 25 84 26 6 27 7 28 8 29 9 30 10 31 71 32
REMARK SMILES IDX 11 33 70 34 12 35 13 36 14 37 64 38 15 39 69 40 63 41 65 42
REMARK SMILES IDX 16 43 68 44 62 45 61 46 17 48 49 49 29 50 48 51 30 52 33 53
REMARK SMILES IDX 47 54 66 55 31 56 32 57 46 59 67 60 34 61 18 62 19 63 27 64
REMARK SMILES IDX 20 65 22 66 28 67 21 68 23 69 24 70 25 71 26 72 50 73 51 74
REMARK SMILES IDX 59 75 52 76 54 77 60 78 53 79 55 80 56 81 57 82 58 83 35 84
REMARK SMILES IDX 36 85 44 86 37 87 39 88 45 89 38 90 40 91 41 92 42 93 43 94
REMARK H PARENT 65 47 33 58
REMARK Flexibility Score: inf
ROOT
ATOM      1  C   UNL A   1      31.875  31.222  26.460  1.00  0.00     0.275 C 
ENDROOT
BRANCH   1   2
ATOM      2  C   UNL A   1      31.892  29.872  25.735  1.00  0.00     0.275 C 
BRANCH   2   3
ATOM      3  O   UNL A   1      32.926  29.846  24.731  1.00  0.00    -0.459 OA
BRANCH   3   4
ATOM      4  C   UNL A   1      33.374  28.702  24.155  1.00  0.00     0.338 C 
ATOM      5  O   UNL A   1      34.573  28.445  24.153  1.00  0.00    -0.246 OA
BRANCH   4   6
ATOM      6  C   UNL A   1      32.431  27.776  23.480  1.00  0.00     0.087 C 
ATOM      7  C   UNL A   1      31.438  28.115  22.644  1.00  0.00     0.028 C 
ATOM      8  C   UNL A   1      32.596  26.313  23.795  1.00  0.00     0.316 C 
ATOM      9  C   UNL A   1      30.134  27.660  23.143  1.00  0.00     0.027 A 
ATOM     10  O   UNL A   1      31.314  25.590  23.718  1.00  0.00    -0.475 OA
ATOM     11  C   UNL A   1      30.158  26.345  23.653  1.00  0.00     0.128 A 
ATOM     12  C   UNL A   1      28.950  28.461  23.094  1.00  0.00     0.011 A 
ATOM     13  C   UNL A   1      28.975  25.770  24.077  1.00  0.00     0.049 A 
ATOM     14  C   UNL A   1      27.773  27.832  23.529  1.00  0.00     0.049 A 
ATOM     15  C   UNL A   1      27.788  26.509  24.007  1.00  0.00     0.025 A 
ATOM     16  Cl  UNL A   1      26.246  28.648  23.499  1.00  0.00    -0.084 Cl
BRANCH   8  17
ATOM     17  C   UNL A   1      33.660  25.733  22.832  1.00  0.00     0.430 C 
ATOM     18  F   UNL A   1      34.783  25.360  23.499  1.00  0.00    -0.167 F 
ATOM     19  F   UNL A   1      33.207  24.658  22.164  1.00  0.00    -0.167 F 
ATOM     20  F   UNL A   1      34.050  26.666  21.927  1.00  0.00    -0.167 F 
ENDBRANCH   8  17
BRANCH  12  21
ATOM     21  C   UNL A   1      28.958  29.911  22.719  1.00  0.00    -0.016 A 
ATOM     22  C   UNL A   1      28.689  30.293  21.388  1.00  0.00     0.009 A 
ATOM     23  C   UNL A   1      29.136  30.945  23.655  1.00  0.00     0.009 A 
ATOM     24  C   UNL A   1      28.435  31.631  21.041  1.00  0.00     0.001 A 
ATOM     25  C   UNL A   1      28.883  32.288  23.307  1.00  0.00     0.001 A 
ATOM     26  C   UNL A   1      28.488  32.623  22.013  1.00  0.00     0.000 A 
ENDBRANCH  12  21
ENDBRANCH   4   6
ENDBRANCH   3   4
ENDBRANCH   2   3
ENDBRANCH   1   2
BRANCH   1  27
ATOM     27  O   UNL A   1      32.635  31.205  27.666  1.00  0.00    -0.458 OA
BRANCH  27  28
ATOM     28  C   UNL A   1      33.540  32.201  27.734  1.00  0.00     0.338 C 
ATOM     29  O   UNL A   1      33.236  33.382  27.621  1.00  0.00    -0.246 OA
BRANCH  28  30
ATOM     30  C   UNL A   1      34.910  31.722  28.004  1.00  0.00     0.060 A 
ATOM     31  C   UNL A   1      35.104  30.345  28.042  1.00  0.00     0.016 A 
ATOM     32  C   UNL A   1      35.984  32.618  28.162  1.00  0.00     0.016 A 
ATOM     33  C   UNL A   1      36.351  29.856  28.384  1.00  0.00     0.010 A 
ATOM     34  C   UNL A   1      37.251  32.123  28.427  1.00  0.00     0.010 A 
ATOM     35  C   UNL A   1      37.400  30.748  28.645  1.00  0.00    -0.014 A 
BRANCH  35  36
ATOM     36  C   UNL A   1      38.553  30.251  29.411  1.00  0.00     0.031 A 
ATOM     37  C   UNL A   1      38.670  30.672  30.852  1.00  0.00     0.074 A 
ATOM     38  C   UNL A   1      39.408  29.384  28.846  1.00  0.00     0.049 A 
ATOM     39  N   UNL A   1      39.539  30.300  31.749  1.00  0.00    -0.248 NA
ATOM     40  C   UNL A   1      37.673  31.638  31.356  1.00  0.00     0.031 C 
ATOM     41  C   UNL A   1      39.352  28.927  27.456  1.00  0.00     0.029 A 
ATOM     42  N   UNL A   1      40.492  28.741  29.373  1.00  0.00    -0.354 N 
ATOM     43  C   UNL A   1      39.215  31.005  32.902  1.00  0.00     0.074 A 
ATOM     44  C   UNL A   1      38.085  31.845  32.596  1.00  0.00     0.031 C 
ATOM     45  C   UNL A   1      40.379  28.092  27.232  1.00  0.00     0.029 A 
ATOM     46  C   UNL A   1      41.169  27.976  28.454  1.00  0.00     0.049 A 
ATOM     47  H   UNL A   1      40.762  28.818  30.315  1.00  0.00     0.167 HD
ATOM     48  C   UNL A   1      39.801  30.936  34.116  1.00  0.00     0.034 A 
ATOM     49  C   UNL A   1      42.316  27.287  28.594  1.00  0.00     0.034 A 
ATOM     50  C   UNL A   1      40.903  30.067  34.404  1.00  0.00     0.049 A 
ATOM     51  C   UNL A   1      42.955  27.248  29.957  1.00  0.00     0.074 A 
ATOM     52  C   UNL A   1      41.538  29.855  35.612  1.00  0.00     0.029 A 
ATOM     53  N   UNL A   1      41.547  29.282  33.460  1.00  0.00    -0.354 N 
ATOM     54  N   UNL A   1      42.546  27.796  31.078  1.00  0.00    -0.248 NA
ATOM     55  C   UNL A   1      44.192  26.467  30.088  1.00  0.00     0.031 C 
ATOM     56  C   UNL A   1      42.604  28.983  35.385  1.00  0.00     0.029 A 
ATOM     57  C   UNL A   1      42.601  28.614  34.048  1.00  0.00     0.049 A 
ATOM     58  H   UNL A   1      41.292  29.213  32.512  1.00  0.00     0.167 HD
ATOM     59  C   UNL A   1      43.457  27.404  32.049  1.00  0.00     0.074 A 
ATOM     60  C   UNL A   1      44.421  26.546  31.391  1.00  0.00     0.031 C 
ATOM     61  C   UNL A   1      43.510  27.731  33.365  1.00  0.00     0.034 A 
BRANCH  48  62
ATOM     62  C   UNL A   1      39.272  31.819  35.213  1.00  0.00     0.023 A 
ATOM     63  C   UNL A   1      38.304  31.334  36.114  1.00  0.00     0.012 A 
ATOM     64  C   UNL A   1      39.792  33.116  35.384  1.00  0.00     0.148 A 
ATOM     65  C   UNL A   1      37.846  32.136  37.160  1.00  0.00     0.002 A 
ATOM     66  C   UNL A   1      39.366  33.892  36.454  1.00  0.00     0.091 A 
ATOM     67  F   UNL A   1      40.691  33.565  34.498  1.00  0.00    -0.205 F 
ATOM     68  C   UNL A   1      38.386  33.408  37.337  1.00  0.00     0.022 A 
BRANCH  66  69
ATOM     69  S   UNL A   1      40.052  35.512  36.811  1.00  0.00     0.127 S 
ATOM     70  O   UNL A   1      39.571  36.294  35.673  1.00  0.00    -0.237 OA
ATOM     71  O   UNL A   1      39.414  35.836  38.088  1.00  0.00    -0.237 OA
ATOM     72  O   UNL A   1      41.496  35.337  36.872  1.00  0.00    -0.744 OA
ENDBRANCH  66  69
ENDBRANCH  48  62
BRANCH  49  73
ATOM     73  C   UNL A   1      42.927  26.591  27.428  1.00  0.00     0.023 A 
ATOM     74  C   UNL A   1      43.796  27.287  26.566  1.00  0.00     0.012 A 
ATOM     75  C   UNL A   1      42.632  25.239  27.161  1.00  0.00     0.148 A 
ATOM     76  C   UNL A   1      44.314  26.666  25.429  1.00  0.00     0.002 A 
ATOM     77  C   UNL A   1      43.195  24.611  26.057  1.00  0.00     0.091 A 
ATOM     78  F   UNL A   1      41.798  24.594  27.989  1.00  0.00    -0.205 F 
ATOM     79  C   UNL A   1      44.018  25.328  25.177  1.00  0.00     0.022 A 
BRANCH  77  80
ATOM     80  S   UNL A   1      42.955  22.863  25.719  1.00  0.00     0.127 S 
ATOM     81  O   UNL A   1      43.412  22.761  24.336  1.00  0.00    -0.237 OA
ATOM     82  O   UNL A   1      43.837  22.239  26.707  1.00  0.00    -0.237 OA
ATOM     83  O   UNL A   1      41.537  22.611  25.938  1.00  0.00    -0.744 OA
ENDBRANCH  77  80
ENDBRANCH  49  73
BRANCH  61  84
ATOM     84  C   UNL A   1      44.628  27.144  34.180  1.00  0.00     0.023 A 
ATOM     85  C   UNL A   1      45.852  27.832  34.284  1.00  0.00     0.012 A 
ATOM     86  C   UNL A   1      44.423  25.967  34.924  1.00  0.00     0.148 A 
ATOM     87  C   UNL A   1      46.871  27.338  35.095  1.00  0.00     0.002 A 
ATOM     88  C   UNL A   1      45.420  25.512  35.775  1.00  0.00     0.091 A 
ATOM     89  F   UNL A   1      43.251  25.328  34.798  1.00  0.00    -0.205 F 
ATOM     90  C   UNL A   1      46.649  26.188  35.851  1.00  0.00     0.022 A 
BRANCH  88  91
ATOM     91  S   UNL A   1      45.187  24.108  36.868  1.00  0.00     0.127 S 
ATOM     92  O   UNL A   1      46.555  23.849  37.314  1.00  0.00    -0.237 OA
ATOM     93  O   UNL A   1      44.303  24.662  37.895  1.00  0.00    -0.237 OA
ATOM     94  O   UNL A   1      44.591  23.056  36.057  1.00  0.00    -0.744 OA
ENDBRANCH  88  91
ENDBRANCH  61  84
ENDBRANCH  35  36
ENDBRANCH  28  30
ENDBRANCH  27  28
ENDBRANCH   1  27
TORSDOF 16
ENDMDL
MODEL 3
REMARK VINA RESULT:     -12.8      2.545      8.260
REMARK SMILES O=C(OCCOC(=O)c1ccc(-c2c3nc(c(-c4cccc(S(=O)(=O)[O-])c4F)c4ccc([nH]4)c(-c4cccc(S(=O)(=O)[O-])c4F)c4nc(c(-c5cccc(S(=O)(=O)[O-])c5F)c5ccc2[nH]5)C=C4)C=C3)cc1)C1=Cc2c(ccc(Cl)c2-c2ccccc2)O[C@H]1C(F)(F)F
REMARK SMILES IDX 5 1 4 2 3 3 2 4 1 5 72 6 73 7 88 8 74 9 87 10 75 11 80 12
REMARK SMILES IDX 76 13 78 14 77 15 79 16 89 17 90 18 91 19 92 20 81 21 82 22
REMARK SMILES IDX 86 23 83 24 85 25 84 26 6 27 7 28 8 29 9 30 10 31 71 32
REMARK SMILES IDX 11 33 70 34 12 35 13 36 14 37 64 38 15 39 69 40 63 41 65 42
REMARK SMILES IDX 16 43 68 44 62 45 61 46 17 48 49 49 29 50 48 51 30 52 33 53
REMARK SMILES IDX 47 54 66 55 31 56 32 57 46 59 67 60 34 61 18 62 19 63 27 64
REMARK SMILES IDX 20 65 22 66 28 67 21 68 23 69 24 70 25 71 26 72 50 73 51 74
REMARK SMILES IDX 59 75 52 76 54 77 60 78 53 79 55 80 56 81 57 82 58 83 35 84
REMARK SMILES IDX 36 85 44 86 37 87 39 88 45 89 38 90 40 91 41 92 42 93 43 94
REMARK H PARENT 65 47 33 58
REMARK Flexibility Score: inf
ROOT
ATOM      1  C   UNL A   1      38.046  19.803  24.891  1.00  0.00     0.275 C 
ENDROOT
BRANCH   1   2
ATOM      2  C   UNL A   1      36.535  19.542  24.886  1.00  0.00     0.275 C 
BRANCH   2   3
ATOM      3  O   UNL A   1      35.812  20.731  25.262  1.00  0.00    -0.459 OA
BRANCH   3   4
ATOM      4  C   UNL A   1      35.146  21.509  24.372  1.00  0.00     0.338 C 
ATOM      5  O   UNL A   1      35.768  22.245  23.614  1.00  0.00    -0.246 OA
BRANCH   4   6
ATOM      6  C   UNL A   1      33.663  21.517  24.338  1.00  0.00     0.087 C 
ATOM      7  C   UNL A   1      32.881  22.448  23.771  1.00  0.00     0.028 C 
ATOM      8  C   UNL A   1      32.975  20.375  25.037  1.00  0.00     0.316 C 
ATOM      9  C   UNL A   1      31.975  23.062  24.750  1.00  0.00     0.027 A 
ATOM     10  O   UNL A   1      31.663  20.776  25.577  1.00  0.00    -0.475 OA
ATOM     11  C   UNL A   1      31.377  22.127  25.621  1.00  0.00     0.128 A 
ATOM     12  C   UNL A   1      31.708  24.466  24.802  1.00  0.00     0.011 A 
ATOM     13  C   UNL A   1      30.440  22.569  26.535  1.00  0.00     0.049 A 
ATOM     14  C   UNL A   1      30.745  24.866  25.742  1.00  0.00     0.049 A 
ATOM     15  C   UNL A   1      30.121  23.932  26.589  1.00  0.00     0.025 A 
ATOM     16  Cl  UNL A   1      30.275  26.524  25.908  1.00  0.00    -0.084 Cl
BRANCH   8  17
ATOM     17  C   UNL A   1      32.868  19.197  24.039  1.00  0.00     0.430 C 
ATOM     18  F   UNL A   1      32.383  19.605  22.838  1.00  0.00    -0.167 F 
ATOM     19  F   UNL A   1      34.057  18.608  23.820  1.00  0.00    -0.167 F 
ATOM     20  F   UNL A   1      32.004  18.256  24.496  1.00  0.00    -0.167 F 
ENDBRANCH   8  17
BRANCH  12  21
ATOM     21  C   UNL A   1      32.471  25.475  24.001  1.00  0.00    -0.016 A 
ATOM     22  C   UNL A   1      32.140  25.693  22.647  1.00  0.00     0.009 A 
ATOM     23  C   UNL A   1      33.466  26.301  24.554  1.00  0.00     0.009 A 
ATOM     24  C   UNL A   1      32.645  26.791  21.931  1.00  0.00     0.001 A 
ATOM     25  C   UNL A   1      33.975  27.402  23.836  1.00  0.00     0.001 A 
ATOM     26  C   UNL A   1      33.529  27.673  22.543  1.00  0.00     0.000 A 
ENDBRANCH  12  21
ENDBRANCH   4   6
ENDBRANCH   3   4
ENDBRANCH   2   3
ENDBRANCH   1   2
BRANCH   1  27
ATOM     27  O   UNL A   1      38.386  21.030  25.533  1.00  0.00    -0.458 OA
BRANCH  27  28
ATOM     28  C   UNL A   1      39.621  21.018  26.071  1.00  0.00     0.338 C 
ATOM     29  O   UNL A   1      40.395  20.080  25.936  1.00  0.00    -0.246 OA
BRANCH  28  30
ATOM     30  C   UNL A   1      39.952  22.265  26.789  1.00  0.00     0.060 A 
ATOM     31  C   UNL A   1      39.252  23.412  26.424  1.00  0.00     0.016 A 
ATOM     32  C   UNL A   1      40.894  22.285  27.835  1.00  0.00     0.016 A 
ATOM     33  C   UNL A   1      39.596  24.617  27.006  1.00  0.00     0.010 A 
ATOM     34  C   UNL A   1      41.181  23.481  28.472  1.00  0.00     0.010 A 
ATOM     35  C   UNL A   1      40.608  24.658  27.975  1.00  0.00    -0.014 A 
BRANCH  35  36
ATOM     36  C   UNL A   1      41.246  25.954  28.251  1.00  0.00     0.031 A 
ATOM     37  C   UNL A   1      42.638  26.175  27.720  1.00  0.00     0.074 A 
ATOM     38  C   UNL A   1      40.558  26.919  28.880  1.00  0.00     0.049 A 
ATOM     39  N   UNL A   1      43.370  27.253  27.756  1.00  0.00    -0.248 NA
ATOM     40  C   UNL A   1      43.296  25.034  27.052  1.00  0.00     0.031 C 
ATOM     41  C   UNL A   1      39.203  26.776  29.417  1.00  0.00     0.029 A 
ATOM     42  N   UNL A   1      40.908  28.205  29.178  1.00  0.00    -0.354 N 
ATOM     43  C   UNL A   1      44.574  26.911  27.152  1.00  0.00     0.074 A 
ATOM     44  C   UNL A   1      44.492  25.523  26.773  1.00  0.00     0.031 C 
ATOM     45  C   UNL A   1      38.845  27.929  30.004  1.00  0.00     0.029 A 
ATOM     46  C   UNL A   1      39.952  28.875  29.902  1.00  0.00     0.049 A 
ATOM     47  H   UNL A   1      41.761  28.611  28.903  1.00  0.00     0.167 HD
ATOM     48  C   UNL A   1      45.644  27.699  26.916  1.00  0.00     0.034 A 
ATOM     49  C   UNL A   1      39.994  30.108  30.438  1.00  0.00     0.034 A 
ATOM     50  C   UNL A   1      45.686  29.087  27.272  1.00  0.00     0.049 A 
ATOM     51  C   UNL A   1      41.211  30.953  30.174  1.00  0.00     0.074 A 
ATOM     52  C   UNL A   1      46.685  30.007  27.024  1.00  0.00     0.029 A 
ATOM     53  N   UNL A   1      44.690  29.744  27.976  1.00  0.00    -0.354 N 
ATOM     54  N   UNL A   1      42.278  30.667  29.464  1.00  0.00    -0.248 NA
ATOM     55  C   UNL A   1      41.219  32.304  30.750  1.00  0.00     0.031 C 
ATOM     56  C   UNL A   1      46.316  31.210  27.629  1.00  0.00     0.029 A 
ATOM     57  C   UNL A   1      45.066  31.051  28.210  1.00  0.00     0.049 A 
ATOM     58  H   UNL A   1      43.842  29.339  28.268  1.00  0.00     0.167 HD
ATOM     59  C   UNL A   1      43.068  31.809  29.485  1.00  0.00     0.074 A 
ATOM     60  C   UNL A   1      42.342  32.801  30.250  1.00  0.00     0.031 C 
ATOM     61  C   UNL A   1      44.291  32.021  28.938  1.00  0.00     0.034 A 
BRANCH  48  62
ATOM     62  C   UNL A   1      46.847  27.087  26.252  1.00  0.00     0.023 A 
ATOM     63  C   UNL A   1      46.996  27.145  24.853  1.00  0.00     0.012 A 
ATOM     64  C   UNL A   1      47.863  26.508  27.036  1.00  0.00     0.148 A 
ATOM     65  C   UNL A   1      48.133  26.618  24.240  1.00  0.00     0.002 A 
ATOM     66  C   UNL A   1      49.013  26.027  26.423  1.00  0.00     0.091 A 
ATOM     67  F   UNL A   1      47.685  26.439  28.362  1.00  0.00    -0.205 F 
ATOM     68  C   UNL A   1      49.146  26.072  25.026  1.00  0.00     0.022 A 
BRANCH  66  69
ATOM     69  S   UNL A   1      50.404  25.372  27.351  1.00  0.00     0.127 S 
ATOM     70  O   UNL A   1      49.805  24.203  27.994  1.00  0.00    -0.237 OA
ATOM     71  O   UNL A   1      51.358  25.061  26.286  1.00  0.00    -0.237 OA
ATOM     72  O   UNL A   1      50.820  26.430  28.261  1.00  0.00    -0.744 OA
ENDBRANCH  66  69
ENDBRANCH  48  62
BRANCH  49  73
ATOM     73  C   UNL A   1      38.865  30.609  31.270  1.00  0.00     0.023 A 
ATOM     74  C   UNL A   1      38.876  30.418  32.665  1.00  0.00     0.012 A 
ATOM     75  C   UNL A   1      37.766  31.261  30.675  1.00  0.00     0.148 A 
ATOM     76  C   UNL A   1      37.789  30.816  33.445  1.00  0.00     0.002 A 
ATOM     77  C   UNL A   1      36.711  31.704  31.465  1.00  0.00     0.091 A 
ATOM     78  F   UNL A   1      37.768  31.428  29.346  1.00  0.00    -0.205 F 
ATOM     79  C   UNL A   1      36.710  31.462  32.846  1.00  0.00     0.022 A 
BRANCH  77  80
ATOM     80  S   UNL A   1      35.334  32.640  30.791  1.00  0.00     0.127 S 
ATOM     81  O   UNL A   1      34.953  31.826  29.641  1.00  0.00    -0.237 OA
ATOM     82  O   UNL A   1      34.382  32.621  31.903  1.00  0.00    -0.237 OA
ATOM     83  O   UNL A   1      35.869  33.960  30.483  1.00  0.00    -0.744 OA
ENDBRANCH  77  80
ENDBRANCH  49  73
BRANCH  61  84
ATOM     84  C   UNL A   1      44.908  33.378  29.127  1.00  0.00     0.023 A 
ATOM     85  C   UNL A   1      45.678  33.642  30.276  1.00  0.00     0.012 A 
ATOM     86  C   UNL A   1      44.809  34.352  28.115  1.00  0.00     0.148 A 
ATOM     87  C   UNL A   1      46.316  34.870  30.430  1.00  0.00     0.002 A 
ATOM     88  C   UNL A   1      45.495  35.550  28.247  1.00  0.00     0.091 A 
ATOM     89  F   UNL A   1      44.061  34.077  27.036  1.00  0.00    -0.205 F 
ATOM     90  C   UNL A   1      46.237  35.817  29.410  1.00  0.00     0.022 A 
BRANCH  88  91
ATOM     91  S   UNL A   1      45.544  36.782  26.943  1.00  0.00     0.127 S 
ATOM     92  O   UNL A   1      46.132  36.023  25.841  1.00  0.00    -0.237 OA
ATOM     93  O   UNL A   1      44.128  37.107  26.774  1.00  0.00    -0.237 OA
ATOM     94  O   UNL A   1      46.363  37.876  27.448  1.00  0.00    -0.744 OA
ENDBRANCH  88  91
ENDBRANCH  61  84
ENDBRANCH  35  36
ENDBRANCH  28  30
ENDBRANCH  27  28
ENDBRANCH   1  27
TORSDOF 16
ENDMDL
