MODEL 1
REMARK VINA RESULT:     -12.3      0.000      0.000
REMARK SMILES O=C(OCCOC(=O)c1ccc([S@@](=O)[C@H]2CCOC3(CCCC3)C2)cc1)c1ccc(-c2c3nc(c(-c4cccc(S(=O)(=O)[O-])c4F)c4ccc([nH]4)c(-c4cccc(S(=O)(=O)[O-])c4F)c4nc(c(-c5cccc(S(=O)(=O)[O-])c5F)c5ccc2[nH]5)C=C4)C=C3)cc1
REMARK SMILES IDX 4 1 3 2 2 3 1 4 27 5 28 6 89 7 29 8 88 9 30 10 31 11 32 12
REMARK SMILES IDX 82 13 33 14 87 15 81 16 83 17 34 18 86 19 80 20 79 21 35 23
REMARK SMILES IDX 67 24 47 25 66 26 48 27 51 28 65 29 84 30 49 31 50 32 64 34
REMARK SMILES IDX 85 35 52 36 36 37 37 38 45 39 38 40 40 41 46 42 39 43 41 44
REMARK SMILES IDX 42 45 43 46 44 47 68 48 69 49 77 50 70 51 72 52 78 53 71 54
REMARK SMILES IDX 73 55 74 56 75 57 76 58 53 59 54 60 62 61 55 62 57 63 63 64
REMARK SMILES IDX 56 65 58 66 59 67 60 68 61 69 5 70 6 71 7 72 8 73 9 74 10 75
REMARK SMILES IDX 26 76 11 77 25 78 12 79 13 80 14 81 15 82 16 83 24 84 17 85
REMARK SMILES IDX 19 86 18 87 20 88 23 89 21 90 22 91
REMARK H PARENT 83 22 51 33
REMARK Flexibility Score: inf
ROOT
ATOM      1  C   UNL A   1      37.503  19.963  24.584  1.00  0.00     0.275 C 
ENDROOT
BRANCH   1   2
ATOM      2  O   UNL A   1      37.967  21.048  25.408  1.00  0.00    -0.458 OA
BRANCH   2   3
ATOM      3  C   UNL A   1      39.149  21.229  26.044  1.00  0.00     0.338 C 
ATOM      4  O   UNL A   1      39.846  20.240  26.274  1.00  0.00    -0.246 OA
BRANCH   3   5
ATOM      5  C   UNL A   1      39.615  22.541  26.593  1.00  0.00     0.060 A 
ATOM      6  C   UNL A   1      39.159  23.801  26.203  1.00  0.00     0.016 A 
ATOM      7  C   UNL A   1      40.638  22.484  27.562  1.00  0.00     0.016 A 
ATOM      8  C   UNL A   1      39.666  24.963  26.790  1.00  0.00     0.010 A 
ATOM      9  C   UNL A   1      41.142  23.642  28.161  1.00  0.00     0.010 A 
ATOM     10  C   UNL A   1      40.668  24.893  27.759  1.00  0.00    -0.014 A 
BRANCH  10  11
ATOM     11  C   UNL A   1      41.323  26.143  28.198  1.00  0.00     0.031 A 
ATOM     12  C   UNL A   1      42.744  26.383  27.785  1.00  0.00     0.074 A 
ATOM     13  C   UNL A   1      40.637  27.075  28.886  1.00  0.00     0.049 A 
ATOM     14  N   UNL A   1      43.459  27.469  27.893  1.00  0.00    -0.248 NA
ATOM     15  C   UNL A   1      43.446  25.259  27.139  1.00  0.00     0.031 C 
ATOM     16  C   UNL A   1      39.246  26.948  29.314  1.00  0.00     0.029 A 
ATOM     17  N   UNL A   1      41.015  28.308  29.347  1.00  0.00    -0.354 N 
ATOM     18  C   UNL A   1      44.688  27.166  27.320  1.00  0.00     0.074 A 
ATOM     19  C   UNL A   1      44.637  25.785  26.900  1.00  0.00     0.031 C 
ATOM     20  C   UNL A   1      38.894  28.043  30.010  1.00  0.00     0.029 A 
ATOM     21  C   UNL A   1      40.027  28.961  30.048  1.00  0.00     0.049 A 
ATOM     22  H   UNL A   1      41.907  28.693  29.190  1.00  0.00     0.167 HD
ATOM     23  C   UNL A   1      45.752  27.980  27.134  1.00  0.00     0.034 A 
ATOM     24  C   UNL A   1      40.035  30.176  30.630  1.00  0.00     0.034 A 
ATOM     25  C   UNL A   1      45.792  29.347  27.568  1.00  0.00     0.049 A 
ATOM     26  C   UNL A   1      41.251  31.048  30.444  1.00  0.00     0.074 A 
ATOM     27  C   UNL A   1      46.809  30.270  27.420  1.00  0.00     0.029 A 
ATOM     28  N   UNL A   1      44.767  29.981  28.257  1.00  0.00    -0.354 N 
ATOM     29  N   UNL A   1      42.346  30.801  29.763  1.00  0.00    -0.248 NA
ATOM     30  C   UNL A   1      41.210  32.386  31.049  1.00  0.00     0.031 C 
ATOM     31  C   UNL A   1      46.408  31.458  28.042  1.00  0.00     0.029 A 
ATOM     32  C   UNL A   1      45.131  31.281  28.554  1.00  0.00     0.049 A 
ATOM     33  H   UNL A   1      43.908  29.566  28.498  1.00  0.00     0.167 HD
ATOM     34  C   UNL A   1      43.097  31.969  29.811  1.00  0.00     0.074 A 
ATOM     35  C   UNL A   1      42.329  32.925  30.583  1.00  0.00     0.031 C 
ATOM     36  C   UNL A   1      44.314  32.229  29.269  1.00  0.00     0.034 A 
BRANCH  23  37
ATOM     37  C   UNL A   1      46.935  27.398  26.415  1.00  0.00     0.023 A 
ATOM     38  C   UNL A   1      47.009  27.494  25.009  1.00  0.00     0.012 A 
ATOM     39  C   UNL A   1      47.964  26.746  27.119  1.00  0.00     0.148 A 
ATOM     40  C   UNL A   1      48.071  26.917  24.313  1.00  0.00     0.002 A 
ATOM     41  C   UNL A   1      49.037  26.205  26.421  1.00  0.00     0.091 A 
ATOM     42  F   UNL A   1      47.857  26.638  28.450  1.00  0.00    -0.205 F 
ATOM     43  C   UNL A   1      49.087  26.279  25.019  1.00  0.00     0.022 A 
BRANCH  41  44
ATOM     44  S   UNL A   1      50.417  25.405  27.245  1.00  0.00     0.127 S 
ATOM     45  O   UNL A   1      50.870  26.459  28.151  1.00  0.00    -0.237 OA
ATOM     46  O   UNL A   1      49.767  24.272  27.906  1.00  0.00    -0.237 OA
ATOM     47  O   UNL A   1      51.352  25.036  26.193  1.00  0.00    -0.744 OA
ENDBRANCH  41  44
ENDBRANCH  23  37
BRANCH  24  48
ATOM     48  C   UNL A   1      38.821  30.689  31.333  1.00  0.00     0.023 A 
ATOM     49  C   UNL A   1      38.730  30.556  32.733  1.00  0.00     0.012 A 
ATOM     50  C   UNL A   1      37.767  31.311  30.633  1.00  0.00     0.148 A 
ATOM     51  C   UNL A   1      37.599  30.999  33.420  1.00  0.00     0.002 A 
ATOM     52  C   UNL A   1      36.659  31.786  31.330  1.00  0.00     0.091 A 
ATOM     53  F   UNL A   1      37.868  31.420  29.301  1.00  0.00    -0.205 F 
ATOM     54  C   UNL A   1      36.568  31.619  32.720  1.00  0.00     0.022 A 
BRANCH  52  55
ATOM     55  S   UNL A   1      35.308  32.670  30.541  1.00  0.00     0.127 S 
ATOM     56  O   UNL A   1      34.322  32.728  31.618  1.00  0.00    -0.237 OA
ATOM     57  O   UNL A   1      35.939  33.952  30.218  1.00  0.00    -0.237 OA
ATOM     58  O   UNL A   1      34.927  31.872  29.387  1.00  0.00    -0.744 OA
ENDBRANCH  52  55
ENDBRANCH  24  48
BRANCH  36  59
ATOM     59  C   UNL A   1      44.874  33.614  29.449  1.00  0.00     0.023 A 
ATOM     60  C   UNL A   1      45.561  33.945  30.632  1.00  0.00     0.012 A 
ATOM     61  C   UNL A   1      44.799  34.554  28.404  1.00  0.00     0.148 A 
ATOM     62  C   UNL A   1      46.142  35.203  30.784  1.00  0.00     0.002 A 
ATOM     63  C   UNL A   1      45.422  35.788  28.541  1.00  0.00     0.091 A 
ATOM     64  F   UNL A   1      44.119  34.228  27.293  1.00  0.00    -0.205 F 
ATOM     65  C   UNL A   1      46.086  36.118  29.735  1.00  0.00     0.022 A 
BRANCH  63  66
ATOM     66  S   UNL A   1      45.487  36.975  27.195  1.00  0.00     0.127 S 
ATOM     67  O   UNL A   1      44.077  37.330  27.042  1.00  0.00    -0.237 OA
ATOM     68  O   UNL A   1      46.327  38.037  27.750  1.00  0.00    -0.237 OA
ATOM     69  O   UNL A   1      46.084  36.265  26.072  1.00  0.00    -0.744 OA
ENDBRANCH  63  66
ENDBRANCH  36  59
ENDBRANCH  10  11
ENDBRANCH   3   5
ENDBRANCH   2   3
ENDBRANCH   1   2
BRANCH   1  70
ATOM     70  C   UNL A   1      36.113  19.431  24.937  1.00  0.00     0.275 C 
BRANCH  70  71
ATOM     71  O   UNL A   1      35.196  20.457  25.334  1.00  0.00    -0.458 OA
BRANCH  71  72
ATOM     72  C   UNL A   1      34.075  20.544  24.571  1.00  0.00     0.338 C 
ATOM     73  O   UNL A   1      33.207  19.695  24.444  1.00  0.00    -0.246 OA
BRANCH  72  74
ATOM     74  C   UNL A   1      33.971  21.901  24.006  1.00  0.00     0.060 A 
ATOM     75  C   UNL A   1      32.839  22.209  23.242  1.00  0.00     0.017 A 
ATOM     76  C   UNL A   1      34.955  22.864  24.230  1.00  0.00     0.017 A 
ATOM     77  C   UNL A   1      32.670  23.499  22.736  1.00  0.00     0.018 A 
ATOM     78  C   UNL A   1      34.805  24.138  23.675  1.00  0.00     0.018 A 
ATOM     79  C   UNL A   1      33.665  24.465  22.929  1.00  0.00     0.039 A 
BRANCH  79  80
ATOM     80  S   UNL A   1      33.520  26.109  22.184  1.00  0.00     0.056 S 
ATOM     81  O   UNL A   1      33.031  25.872  20.789  1.00  0.00    -0.254 OA
BRANCH  80  82
ATOM     82  C   UNL A   1      32.108  26.750  23.153  1.00  0.00     0.089 C 
ATOM     83  C   UNL A   1      32.506  26.944  24.615  1.00  0.00     0.046 C 
ATOM     84  C   UNL A   1      31.566  28.078  22.630  1.00  0.00     0.053 C 
ATOM     85  C   UNL A   1      31.319  27.465  25.415  1.00  0.00     0.162 C 
ATOM     86  C   UNL A   1      30.344  28.500  23.449  1.00  0.00     0.069 C 
ATOM     87  O   UNL A   1      30.701  28.615  24.833  1.00  0.00    -0.375 OA
ATOM     88  C   UNL A   1      29.832  29.884  22.979  1.00  0.00     0.035 C 
ATOM     89  C   UNL A   1      29.140  27.547  23.251  1.00  0.00     0.035 C 
ATOM     90  C   UNL A   1      28.481  29.627  22.324  1.00  0.00     0.003 C 
ATOM     91  C   UNL A   1      27.929  28.457  23.113  1.00  0.00     0.003 C 
ENDBRANCH  80  82
ENDBRANCH  79  80
ENDBRANCH  72  74
ENDBRANCH  71  72
ENDBRANCH  70  71
ENDBRANCH   1  70
TORSDOF 16
ENDMDL
MODEL 2
REMARK VINA RESULT:     -12.3      1.793      2.361
REMARK SMILES O=C(OCCOC(=O)c1ccc([S@@](=O)[C@H]2CCOC3(CCCC3)C2)cc1)c1ccc(-c2c3nc(c(-c4cccc(S(=O)(=O)[O-])c4F)c4ccc([nH]4)c(-c4cccc(S(=O)(=O)[O-])c4F)c4nc(c(-c5cccc(S(=O)(=O)[O-])c5F)c5ccc2[nH]5)C=C4)C=C3)cc1
REMARK SMILES IDX 4 1 3 2 2 3 1 4 27 5 28 6 89 7 29 8 88 9 30 10 31 11 32 12
REMARK SMILES IDX 82 13 33 14 87 15 81 16 83 17 34 18 86 19 80 20 79 21 35 23
REMARK SMILES IDX 67 24 47 25 66 26 48 27 51 28 65 29 84 30 49 31 50 32 64 34
REMARK SMILES IDX 85 35 52 36 36 37 37 38 45 39 38 40 40 41 46 42 39 43 41 44
REMARK SMILES IDX 42 45 43 46 44 47 68 48 69 49 77 50 70 51 72 52 78 53 71 54
REMARK SMILES IDX 73 55 74 56 75 57 76 58 53 59 54 60 62 61 55 62 57 63 63 64
REMARK SMILES IDX 56 65 58 66 59 67 60 68 61 69 5 70 6 71 7 72 8 73 9 74 10 75
REMARK SMILES IDX 26 76 11 77 25 78 12 79 13 80 14 81 15 82 16 83 24 84 17 85
REMARK SMILES IDX 19 86 18 87 20 88 23 89 21 90 22 91
REMARK H PARENT 83 22 51 33
REMARK Flexibility Score: inf
ROOT
ATOM      1  C   UNL A   1      36.620  20.260  25.000  1.00  0.00     0.275 C 
ENDROOT
BRANCH   1   2
ATOM      2  O   UNL A   1      37.572  21.336  25.084  1.00  0.00    -0.458 OA
BRANCH   2   3
ATOM      3  C   UNL A   1      38.719  21.446  25.796  1.00  0.00     0.338 C 
ATOM      4  O   UNL A   1      39.341  20.417  26.064  1.00  0.00    -0.246 OA
BRANCH   3   5
ATOM      5  C   UNL A   1      39.225  22.727  26.382  1.00  0.00     0.060 A 
ATOM      6  C   UNL A   1      38.719  24.002  26.123  1.00  0.00     0.016 A 
ATOM      7  C   UNL A   1      40.340  22.625  27.239  1.00  0.00     0.016 A 
ATOM      8  C   UNL A   1      39.271  25.132  26.732  1.00  0.00     0.010 A 
ATOM      9  C   UNL A   1      40.890  23.749  27.861  1.00  0.00     0.010 A 
ATOM     10  C   UNL A   1      40.366  25.015  27.591  1.00  0.00    -0.014 A 
BRANCH  10  11
ATOM     11  C   UNL A   1      41.049  26.245  28.045  1.00  0.00     0.031 A 
ATOM     12  C   UNL A   1      42.480  26.450  27.648  1.00  0.00     0.074 A 
ATOM     13  C   UNL A   1      40.381  27.190  28.732  1.00  0.00     0.049 A 
ATOM     14  N   UNL A   1      43.222  27.516  27.770  1.00  0.00    -0.248 NA
ATOM     15  C   UNL A   1      43.158  25.312  27.001  1.00  0.00     0.031 C 
ATOM     16  C   UNL A   1      38.983  27.096  29.146  1.00  0.00     0.029 A 
ATOM     17  N   UNL A   1      40.786  28.410  29.205  1.00  0.00    -0.354 N 
ATOM     18  C   UNL A   1      44.448  27.185  27.207  1.00  0.00     0.074 A 
ATOM     19  C   UNL A   1      44.365  25.809  26.776  1.00  0.00     0.031 C 
ATOM     20  C   UNL A   1      38.653  28.196  29.846  1.00  0.00     0.029 A 
ATOM     21  C   UNL A   1      39.809  29.084  29.902  1.00  0.00     0.049 A 
ATOM     22  H   UNL A   1      41.690  28.772  29.060  1.00  0.00     0.167 HD
ATOM     23  C   UNL A   1      45.535  27.972  27.036  1.00  0.00     0.034 A 
ATOM     24  C   UNL A   1      39.842  30.295  30.492  1.00  0.00     0.034 A 
ATOM     25  C   UNL A   1      45.606  29.334  27.480  1.00  0.00     0.049 A 
ATOM     26  C   UNL A   1      41.083  31.135  30.323  1.00  0.00     0.074 A 
ATOM     27  C   UNL A   1      46.649  30.231  27.349  1.00  0.00     0.029 A 
ATOM     28  N   UNL A   1      44.592  29.991  28.163  1.00  0.00    -0.354 N 
ATOM     29  N   UNL A   1      42.178  30.864  29.652  1.00  0.00    -0.248 NA
ATOM     30  C   UNL A   1      41.071  32.469  30.937  1.00  0.00     0.031 C 
ATOM     31  C   UNL A   1      46.272  31.425  27.974  1.00  0.00     0.029 A 
ATOM     32  C   UNL A   1      44.987  31.278  28.473  1.00  0.00     0.049 A 
ATOM     33  H   UNL A   1      43.720  29.597  28.393  1.00  0.00     0.167 HD
ATOM     34  C   UNL A   1      42.959  32.011  29.714  1.00  0.00     0.074 A 
ATOM     35  C   UNL A   1      42.208  32.982  30.486  1.00  0.00     0.031 C 
ATOM     36  C   UNL A   1      44.188  32.243  29.187  1.00  0.00     0.034 A 
BRANCH  23  37
ATOM     37  C   UNL A   1      46.709  27.364  26.325  1.00  0.00     0.023 A 
ATOM     38  C   UNL A   1      47.551  26.466  27.016  1.00  0.00     0.012 A 
ATOM     39  C   UNL A   1      46.992  27.686  24.985  1.00  0.00     0.148 A 
ATOM     40  C   UNL A   1      48.678  25.929  26.394  1.00  0.00     0.002 A 
ATOM     41  C   UNL A   1      48.097  27.118  24.362  1.00  0.00     0.091 A 
ATOM     42  F   UNL A   1      46.199  28.565  24.358  1.00  0.00    -0.205 F 
ATOM     43  C   UNL A   1      48.946  26.249  25.067  1.00  0.00     0.022 A 
BRANCH  41  44
ATOM     44  S   UNL A   1      48.499  27.432  22.640  1.00  0.00     0.127 S 
ATOM     45  O   UNL A   1      47.336  28.205  22.203  1.00  0.00    -0.237 OA
ATOM     46  O   UNL A   1      49.737  28.204  22.748  1.00  0.00    -0.237 OA
ATOM     47  O   UNL A   1      48.652  26.125  22.019  1.00  0.00    -0.744 OA
ENDBRANCH  41  44
ENDBRANCH  23  37
BRANCH  24  48
ATOM     48  C   UNL A   1      38.636  30.834  31.186  1.00  0.00     0.023 A 
ATOM     49  C   UNL A   1      38.532  30.705  32.585  1.00  0.00     0.012 A 
ATOM     50  C   UNL A   1      37.601  31.479  30.479  1.00  0.00     0.148 A 
ATOM     51  C   UNL A   1      37.406  31.173  33.265  1.00  0.00     0.002 A 
ATOM     52  C   UNL A   1      36.499  31.979  31.168  1.00  0.00     0.091 A 
ATOM     53  F   UNL A   1      37.713  31.586  29.148  1.00  0.00    -0.205 F 
ATOM     54  C   UNL A   1      36.395  31.814  32.558  1.00  0.00     0.022 A 
BRANCH  52  55
ATOM     55  S   UNL A   1      35.173  32.893  30.370  1.00  0.00     0.127 S 
ATOM     56  O   UNL A   1      34.226  33.065  31.470  1.00  0.00    -0.237 OA
ATOM     57  O   UNL A   1      35.862  34.117  29.957  1.00  0.00    -0.237 OA
ATOM     58  O   UNL A   1      34.712  32.055  29.275  1.00  0.00    -0.744 OA
ENDBRANCH  52  55
ENDBRANCH  24  48
BRANCH  36  59
ATOM     59  C   UNL A   1      44.782  33.611  29.381  1.00  0.00     0.023 A 
ATOM     60  C   UNL A   1      45.547  33.887  30.531  1.00  0.00     0.012 A 
ATOM     61  C   UNL A   1      44.659  34.591  28.378  1.00  0.00     0.148 A 
ATOM     62  C   UNL A   1      46.158  35.130  30.692  1.00  0.00     0.002 A 
ATOM     63  C   UNL A   1      45.311  35.809  28.521  1.00  0.00     0.091 A 
ATOM     64  F   UNL A   1      43.906  34.317  27.301  1.00  0.00    -0.205 F 
ATOM     65  C   UNL A   1      46.053  36.084  29.682  1.00  0.00     0.022 A 
BRANCH  63  66
ATOM     66  S   UNL A   1      45.313  37.044  27.217  1.00  0.00     0.127 S 
ATOM     67  O   UNL A   1      46.055  38.138  27.842  1.00  0.00    -0.237 OA
ATOM     68  O   UNL A   1      46.027  36.362  26.136  1.00  0.00    -0.237 OA
ATOM     69  O   UNL A   1      43.911  37.316  26.930  1.00  0.00    -0.744 OA
ENDBRANCH  63  66
ENDBRANCH  36  59
ENDBRANCH  10  11
ENDBRANCH   3   5
ENDBRANCH   2   3
ENDBRANCH   1   2
BRANCH   1  70
ATOM     70  C   UNL A   1      35.175  20.647  25.318  1.00  0.00     0.275 C 
BRANCH  70  71
ATOM     71  O   UNL A   1      34.234  20.179  24.345  1.00  0.00    -0.458 OA
BRANCH  71  72
ATOM     72  C   UNL A   1      32.944  20.153  24.769  1.00  0.00     0.338 C 
ATOM     73  O   UNL A   1      32.389  19.248  25.371  1.00  0.00    -0.246 OA
BRANCH  72  74
ATOM     74  C   UNL A   1      32.318  21.464  24.521  1.00  0.00     0.060 A 
ATOM     75  C   UNL A   1      31.589  22.051  25.561  1.00  0.00     0.017 A 
ATOM     76  C   UNL A   1      32.454  22.119  23.297  1.00  0.00     0.017 A 
ATOM     77  C   UNL A   1      31.029  23.319  25.390  1.00  0.00     0.018 A 
ATOM     78  C   UNL A   1      31.846  23.363  23.114  1.00  0.00     0.018 A 
ATOM     79  C   UNL A   1      31.133  23.971  24.156  1.00  0.00     0.039 A 
BRANCH  79  80
ATOM     80  S   UNL A   1      30.316  25.564  23.876  1.00  0.00     0.056 S 
ATOM     81  O   UNL A   1      29.406  25.755  25.049  1.00  0.00    -0.254 OA
BRANCH  80  82
ATOM     82  C   UNL A   1      31.747  26.676  24.112  1.00  0.00     0.089 C 
ATOM     83  C   UNL A   1      32.313  27.116  22.763  1.00  0.00     0.046 C 
ATOM     84  C   UNL A   1      31.414  27.931  24.916  1.00  0.00     0.053 C 
ATOM     85  C   UNL A   1      33.512  28.032  22.971  1.00  0.00     0.162 C 
ATOM     86  C   UNL A   1      32.681  28.764  25.129  1.00  0.00     0.069 C 
ATOM     87  O   UNL A   1      33.250  29.117  23.863  1.00  0.00    -0.375 OA
ATOM     88  C   UNL A   1      32.342  30.077  25.876  1.00  0.00     0.035 C 
ATOM     89  C   UNL A   1      33.713  28.050  26.037  1.00  0.00     0.035 C 
ATOM     90  C   UNL A   1      32.987  29.953  27.251  1.00  0.00     0.003 C 
ATOM     91  C   UNL A   1      34.228  29.127  26.979  1.00  0.00     0.003 C 
ENDBRANCH  80  82
ENDBRANCH  79  80
ENDBRANCH  72  74
ENDBRANCH  71  72
ENDBRANCH  70  71
ENDBRANCH   1  70
TORSDOF 16
ENDMDL
MODEL 3
REMARK VINA RESULT:     -12.3      5.018     10.454
REMARK SMILES O=C(OCCOC(=O)c1ccc([S@@](=O)[C@H]2CCOC3(CCCC3)C2)cc1)c1ccc(-c2c3nc(c(-c4cccc(S(=O)(=O)[O-])c4F)c4ccc([nH]4)c(-c4cccc(S(=O)(=O)[O-])c4F)c4nc(c(-c5cccc(S(=O)(=O)[O-])c5F)c5ccc2[nH]5)C=C4)C=C3)cc1
REMARK SMILES IDX 4 1 3 2 2 3 1 4 27 5 28 6 89 7 29 8 88 9 30 10 31 11 32 12
REMARK SMILES IDX 82 13 33 14 87 15 81 16 83 17 34 18 86 19 80 20 79 21 35 23
REMARK SMILES IDX 67 24 47 25 66 26 48 27 51 28 65 29 84 30 49 31 50 32 64 34
REMARK SMILES IDX 85 35 52 36 36 37 37 38 45 39 38 40 40 41 46 42 39 43 41 44
REMARK SMILES IDX 42 45 43 46 44 47 68 48 69 49 77 50 70 51 72 52 78 53 71 54
REMARK SMILES IDX 73 55 74 56 75 57 76 58 53 59 54 60 62 61 55 62 57 63 63 64
REMARK SMILES IDX 56 65 58 66 59 67 60 68 61 69 5 70 6 71 7 72 8 73 9 74 10 75
REMARK SMILES IDX 26 76 11 77 25 78 12 79 13 80 14 81 15 82 16 83 24 84 17 85
REMARK SMILES IDX 19 86 18 87 20 88 23 89 21 90 22 91
REMARK H PARENT 83 22 51 33
REMARK Flexibility Score: inf
ROOT
ATOM      1  C   UNL A   1      31.413  31.711  26.576  1.00  0.00     0.275 C 
ENDROOT
BRANCH   1   2
ATOM      2  O   UNL A   1      32.673  31.292  27.132  1.00  0.00    -0.458 OA
BRANCH   2   3
ATOM      3  C   UNL A   1      33.688  32.016  27.660  1.00  0.00     0.338 C 
ATOM      4  O   UNL A   1      33.579  33.243  27.687  1.00  0.00    -0.246 OA
BRANCH   3   5
ATOM      5  C   UNL A   1      34.990  31.432  28.111  1.00  0.00     0.060 A 
ATOM      6  C   UNL A   1      35.226  30.090  28.412  1.00  0.00     0.016 A 
ATOM      7  C   UNL A   1      36.056  32.340  28.283  1.00  0.00     0.016 A 
ATOM      8  C   UNL A   1      36.489  29.655  28.822  1.00  0.00     0.010 A 
ATOM      9  C   UNL A   1      37.324  31.911  28.682  1.00  0.00     0.010 A 
ATOM     10  C   UNL A   1      37.540  30.562  28.974  1.00  0.00    -0.014 A 
BRANCH  10  11
ATOM     11  C   UNL A   1      38.792  30.100  29.609  1.00  0.00     0.031 A 
ATOM     12  C   UNL A   1      39.145  30.645  30.960  1.00  0.00     0.074 A 
ATOM     13  C   UNL A   1      39.555  29.160  29.023  1.00  0.00     0.049 A 
ATOM     14  N   UNL A   1      40.082  30.259  31.783  1.00  0.00    -0.248 NA
ATOM     15  C   UNL A   1      38.315  31.753  31.467  1.00  0.00     0.031 C 
ATOM     16  C   UNL A   1      39.286  28.551  27.722  1.00  0.00     0.029 A 
ATOM     17  N   UNL A   1      40.711  28.554  29.440  1.00  0.00    -0.354 N 
ATOM     18  C   UNL A   1      39.949  31.066  32.906  1.00  0.00     0.074 A 
ATOM     19  C   UNL A   1      38.867  31.987  32.647  1.00  0.00     0.031 C 
ATOM     20  C   UNL A   1      40.270  27.683  27.426  1.00  0.00     0.029 A 
ATOM     21  C   UNL A   1      41.221  27.654  28.533  1.00  0.00     0.049 A 
ATOM     22  H   UNL A   1      41.136  28.743  30.307  1.00  0.00     0.167 HD
ATOM     23  C   UNL A   1      40.648  31.019  34.062  1.00  0.00     0.034 A 
ATOM     24  C   UNL A   1      42.318  26.876  28.605  1.00  0.00     0.034 A 
ATOM     25  C   UNL A   1      41.729  30.105  34.300  1.00  0.00     0.049 A 
ATOM     26  C   UNL A   1      43.106  26.874  29.890  1.00  0.00     0.074 A 
ATOM     27  C   UNL A   1      42.499  29.957  35.437  1.00  0.00     0.029 A 
ATOM     28  N   UNL A   1      42.205  29.194  33.367  1.00  0.00    -0.354 N 
ATOM     29  N   UNL A   1      42.872  27.531  31.002  1.00  0.00    -0.248 NA
ATOM     30  C   UNL A   1      44.269  25.979  29.957  1.00  0.00     0.031 C 
ATOM     31  C   UNL A   1      43.458  28.970  35.183  1.00  0.00     0.029 A 
ATOM     32  C   UNL A   1      43.268  28.487  33.897  1.00  0.00     0.049 A 
ATOM     33  H   UNL A   1      41.839  29.070  32.462  1.00  0.00     0.167 HD
ATOM     34  C   UNL A   1      43.821  27.089  31.915  1.00  0.00     0.074 A 
ATOM     35  C   UNL A   1      44.631  26.103  31.227  1.00  0.00     0.031 C 
ATOM     36  C   UNL A   1      44.012  27.464  33.205  1.00  0.00     0.034 A 
BRANCH  23  37
ATOM     37  C   UNL A   1      40.237  31.975  35.145  1.00  0.00     0.023 A 
ATOM     38  C   UNL A   1      40.919  33.202  35.283  1.00  0.00     0.012 A 
ATOM     39  C   UNL A   1      39.193  31.660  36.034  1.00  0.00     0.148 A 
ATOM     40  C   UNL A   1      40.591  34.085  36.312  1.00  0.00     0.002 A 
ATOM     41  C   UNL A   1      38.849  32.560  37.034  1.00  0.00     0.091 A 
ATOM     42  F   UNL A   1      38.581  30.475  35.905  1.00  0.00    -0.205 F 
ATOM     43  C   UNL A   1      39.553  33.767  37.183  1.00  0.00     0.022 A 
BRANCH  41  44
ATOM     44  S   UNL A   1      37.495  32.261  38.175  1.00  0.00     0.127 S 
ATOM     45  O   UNL A   1      36.406  33.002  37.541  1.00  0.00    -0.237 OA
ATOM     46  O   UNL A   1      37.356  30.805  38.115  1.00  0.00    -0.237 OA
ATOM     47  O   UNL A   1      37.936  32.774  39.464  1.00  0.00    -0.744 OA
ENDBRANCH  41  44
ENDBRANCH  23  37
BRANCH  24  48
ATOM     48  C   UNL A   1      42.668  25.951  27.486  1.00  0.00     0.023 A 
ATOM     49  C   UNL A   1      43.506  26.410  26.451  1.00  0.00     0.012 A 
ATOM     50  C   UNL A   1      42.189  24.625  27.443  1.00  0.00     0.148 A 
ATOM     51  C   UNL A   1      43.833  25.582  25.376  1.00  0.00     0.002 A 
ATOM     52  C   UNL A   1      42.550  23.792  26.388  1.00  0.00     0.091 A 
ATOM     53  F   UNL A   1      41.386  24.210  28.432  1.00  0.00    -0.205 F 
ATOM     54  C   UNL A   1      43.360  24.274  25.348  1.00  0.00     0.022 A 
BRANCH  52  55
ATOM     55  S   UNL A   1      42.065  22.065  26.289  1.00  0.00     0.127 S 
ATOM     56  O   UNL A   1      40.623  22.173  26.075  1.00  0.00    -0.237 OA
ATOM     57  O   UNL A   1      42.825  21.609  25.124  1.00  0.00    -0.237 OA
ATOM     58  O   UNL A   1      42.466  21.463  27.551  1.00  0.00    -0.744 OA
ENDBRANCH  52  55
ENDBRANCH  24  48
BRANCH  36  59
ATOM     59  C   UNL A   1      45.106  26.777  33.976  1.00  0.00     0.023 A 
ATOM     60  C   UNL A   1      46.411  27.304  33.963  1.00  0.00     0.012 A 
ATOM     61  C   UNL A   1      44.815  25.664  34.787  1.00  0.00     0.148 A 
ATOM     62  C   UNL A   1      47.419  26.716  34.725  1.00  0.00     0.002 A 
ATOM     63  C   UNL A   1      45.812  25.113  35.583  1.00  0.00     0.091 A 
ATOM     64  F   UNL A   1      43.571  25.162  34.768  1.00  0.00    -0.205 F 
ATOM     65  C   UNL A   1      47.117  25.631  35.545  1.00  0.00     0.022 A 
BRANCH  63  66
ATOM     66  S   UNL A   1      45.474  23.785  36.745  1.00  0.00     0.127 S 
ATOM     67  O   UNL A   1      46.803  23.520  37.291  1.00  0.00    -0.237 OA
ATOM     68  O   UNL A   1      44.543  24.416  37.683  1.00  0.00    -0.237 OA
ATOM     69  O   UNL A   1      44.889  22.710  35.956  1.00  0.00    -0.744 OA
ENDBRANCH  63  66
ENDBRANCH  36  59
ENDBRANCH  10  11
ENDBRANCH   3   5
ENDBRANCH   2   3
ENDBRANCH   1   2
BRANCH   1  70
ATOM     70  C   UNL A   1      30.971  30.949  25.327  1.00  0.00     0.275 C 
BRANCH  70  71
ATOM     71  O   UNL A   1      31.810  29.830  25.016  1.00  0.00    -0.458 OA
BRANCH  71  72
ATOM     72  C   UNL A   1      31.217  28.867  24.264  1.00  0.00     0.338 C 
ATOM     73  O   UNL A   1      30.728  29.001  23.154  1.00  0.00    -0.246 OA
BRANCH  72  74
ATOM     74  C   UNL A   1      31.372  27.560  24.928  1.00  0.00     0.060 A 
ATOM     75  C   UNL A   1      32.535  27.336  25.673  1.00  0.00     0.017 A 
ATOM     76  C   UNL A   1      30.390  26.573  24.838  1.00  0.00     0.017 A 
ATOM     77  C   UNL A   1      32.698  26.135  26.367  1.00  0.00     0.018 A 
ATOM     78  C   UNL A   1      30.584  25.353  25.491  1.00  0.00     0.018 A 
ATOM     79  C   UNL A   1      31.734  25.126  26.259  1.00  0.00     0.039 A 
BRANCH  79  80
ATOM     80  S   UNL A   1      31.979  23.519  27.057  1.00  0.00     0.056 S 
ATOM     81  O   UNL A   1      30.603  22.975  27.287  1.00  0.00    -0.254 OA
BRANCH  80  82
ATOM     82  C   UNL A   1      32.699  22.597  25.652  1.00  0.00     0.089 C 
ATOM     83  C   UNL A   1      34.111  23.095  25.352  1.00  0.00     0.046 C 
ATOM     84  C   UNL A   1      32.770  21.090  25.888  1.00  0.00     0.053 C 
ATOM     85  C   UNL A   1      34.697  22.330  24.172  1.00  0.00     0.162 C 
ATOM     86  C   UNL A   1      33.312  20.393  24.638  1.00  0.00     0.069 C 
ATOM     87  O   UNL A   1      34.609  20.910  24.315  1.00  0.00    -0.375 OA
ATOM     88  C   UNL A   1      33.462  18.873  24.891  1.00  0.00     0.035 C 
ATOM     89  C   UNL A   1      32.343  20.498  23.434  1.00  0.00     0.035 C 
ATOM     90  C   UNL A   1      32.418  18.199  24.009  1.00  0.00     0.003 C 
ATOM     91  C   UNL A   1      32.339  19.114  22.804  1.00  0.00     0.003 C 
ENDBRANCH  80  82
ENDBRANCH  79  80
ENDBRANCH  72  74
ENDBRANCH  71  72
ENDBRANCH  70  71
ENDBRANCH   1  70
TORSDOF 16
ENDMDL
