MODEL 1
REMARK VINA RESULT:     -12.0      0.000      0.000
REMARK SMILES COc1cc(C(=O)N[C@H](C(=O)OCCOC(=O)c2ccc(-c3c4nc(c(-c5cccc(S(=O)(=O)[O-])c5F)c5ccc([nH]5)c(-c5cccc(S(=O)(=O)[O-])c5F)c5nc(c(-c6cccc(S(=O)(=O)[O-])c6F)c6ccc3[nH]6)C=C5)C=C4)cc2)C2=C(C)N=N[C@H]2C)ccc1C
REMARK SMILES IDX 13 1 12 2 10 3 11 4 9 5 8 6 6 7 7 8 5 10 3 11 4 12 90 13
REMARK SMILES IDX 89 14 91 15 88 16 2 17 1 18 81 19 82 20 86 21 83 22 84 23
REMARK SMILES IDX 85 24 87 25 14 26 15 27 16 28 17 29 18 30 19 31 80 32 20 33
REMARK SMILES IDX 79 34 21 35 22 36 23 37 73 38 24 39 78 40 72 41 74 42 25 43
REMARK SMILES IDX 77 44 71 45 70 46 26 48 58 49 38 50 57 51 39 52 42 53 56 54
REMARK SMILES IDX 75 55 40 56 41 57 55 59 76 60 43 61 27 62 28 63 36 64 29 65
REMARK SMILES IDX 31 66 37 67 30 68 32 69 33 70 34 71 35 72 59 73 60 74 68 75
REMARK SMILES IDX 61 76 63 77 69 78 62 79 64 80 65 81 66 82 67 83 44 84 45 85
REMARK SMILES IDX 53 86 46 87 48 88 54 89 47 90 49 91 50 92 51 93 52 94
REMARK H PARENT 8 9 74 47 42 58
REMARK Flexibility Score: inf
ROOT
ATOM      1  C   UNL A   1      33.093  29.498  26.841  1.00  0.00     0.274 C 
ENDROOT
BRANCH   1   2
ATOM      2  O   UNL A   1      32.272  28.691  26.021  1.00  0.00    -0.460 OA
BRANCH   2   3
ATOM      3  C   UNL A   1      31.678  27.663  26.680  1.00  0.00     0.333 C 
ATOM      4  O   UNL A   1      31.062  27.793  27.731  1.00  0.00    -0.249 OA
BRANCH   3   5
ATOM      5  C   UNL A   1      31.995  26.352  25.949  1.00  0.00     0.223 C 
BRANCH   5   6
ATOM      6  N   UNL A   1      31.266  25.278  26.661  1.00  0.00    -0.335 N 
ATOM      7  C   UNL A   1      31.491  23.900  26.791  1.00  0.00     0.252 C 
ATOM      8  O   UNL A   1      30.672  23.258  27.457  1.00  0.00    -0.269 OA
ATOM      9  H   UNL A   1      30.465  25.594  27.138  1.00  0.00     0.165 HD
BRANCH   7  10
ATOM     10  C   UNL A   1      32.692  23.120  26.315  1.00  0.00     0.043 A 
ATOM     11  C   UNL A   1      33.760  21.188  25.214  1.00  0.00     0.122 A 
ATOM     12  C   UNL A   1      32.609  21.830  25.756  1.00  0.00     0.060 A 
ATOM     13  C   UNL A   1      35.043  21.681  25.477  1.00  0.00    -0.009 A 
ATOM     14  C   UNL A   1      35.135  22.860  26.240  1.00  0.00     0.008 A 
ATOM     15  C   UNL A   1      36.289  20.972  25.020  1.00  0.00     0.048 C 
ATOM     16  C   UNL A   1      33.980  23.590  26.614  1.00  0.00     0.014 A 
BRANCH  11  17
ATOM     17  O   UNL A   1      33.586  20.088  24.399  1.00  0.00    -0.496 OA
ATOM     18  C   UNL A   1      32.896  18.996  25.041  1.00  0.00     0.278 C 
ENDBRANCH  11  17
ENDBRANCH   7  10
ENDBRANCH   5   6
BRANCH   5  19
ATOM     19  C   UNL A   1      31.770  26.449  24.448  1.00  0.00     0.012 C 
ATOM     20  C   UNL A   1      30.669  26.680  23.695  1.00  0.00     0.064 C 
ATOM     21  C   UNL A   1      32.886  26.496  23.439  1.00  0.00     0.156 C 
ATOM     22  C   UNL A   1      29.225  26.888  24.027  1.00  0.00     0.069 C 
ATOM     23  N   UNL A   1      30.950  26.802  22.356  1.00  0.00    -0.160 NA
ATOM     24  N   UNL A   1      32.178  26.688  22.148  1.00  0.00    -0.181 NA
ATOM     25  C   UNL A   1      33.878  27.644  23.564  1.00  0.00     0.040 C 
ENDBRANCH   5  19
ENDBRANCH   3   5
ENDBRANCH   2   3
ENDBRANCH   1   2
BRANCH   1  26
ATOM     26  C   UNL A   1      34.348  28.707  27.217  1.00  0.00     0.275 C 
BRANCH  26  27
ATOM     27  O   UNL A   1      35.523  29.477  27.723  1.00  0.00    -0.458 OA
BRANCH  27  28
ATOM     28  C   UNL A   1      36.497  29.486  28.707  1.00  0.00     0.338 C 
ATOM     29  O   UNL A   1      36.268  29.608  29.864  1.00  0.00    -0.246 OA
BRANCH  28  30
ATOM     30  C   UNL A   1      37.831  29.108  28.293  1.00  0.00     0.060 A 
ATOM     31  C   UNL A   1      38.423  29.535  27.098  1.00  0.00     0.016 A 
ATOM     32  C   UNL A   1      38.548  28.494  29.265  1.00  0.00     0.016 A 
ATOM     33  C   UNL A   1      39.780  29.302  26.949  1.00  0.00     0.010 A 
ATOM     34  C   UNL A   1      39.839  28.832  29.338  1.00  0.00     0.010 A 
ATOM     35  C   UNL A   1      40.454  28.925  28.106  1.00  0.00    -0.014 A 
BRANCH  35  36
ATOM     36  C   UNL A   1      41.723  28.244  28.251  1.00  0.00     0.031 A 
ATOM     37  C   UNL A   1      41.608  26.813  27.984  1.00  0.00     0.074 A 
ATOM     38  C   UNL A   1      42.773  29.107  28.220  1.00  0.00     0.049 A 
ATOM     39  N   UNL A   1      41.295  25.913  28.862  1.00  0.00    -0.248 NA
ATOM     40  C   UNL A   1      41.531  26.363  26.582  1.00  0.00     0.031 C 
ATOM     41  C   UNL A   1      44.190  28.901  28.013  1.00  0.00     0.029 A 
ATOM     42  N   UNL A   1      42.724  30.509  28.387  1.00  0.00    -0.354 N 
ATOM     43  C   UNL A   1      41.374  24.728  28.150  1.00  0.00     0.074 A 
ATOM     44  C   UNL A   1      41.129  25.103  26.758  1.00  0.00     0.031 C 
ATOM     45  C   UNL A   1      44.837  29.988  28.498  1.00  0.00     0.029 A 
ATOM     46  C   UNL A   1      43.852  30.912  29.071  1.00  0.00     0.049 A 
ATOM     47  H   UNL A   1      42.004  31.099  28.069  1.00  0.00     0.167 HD
ATOM     48  C   UNL A   1      42.414  23.864  28.378  1.00  0.00     0.034 A 
ATOM     49  C   UNL A   1      43.700  31.256  30.388  1.00  0.00     0.034 A 
ATOM     50  C   UNL A   1      43.553  24.592  28.955  1.00  0.00     0.049 A 
ATOM     51  C   UNL A   1      44.107  30.087  31.270  1.00  0.00     0.074 A 
ATOM     52  C   UNL A   1      44.639  25.220  28.360  1.00  0.00     0.029 A 
ATOM     53  N   UNL A   1      43.477  25.104  30.244  1.00  0.00    -0.354 N 
ATOM     54  N   UNL A   1      44.216  28.855  30.851  1.00  0.00    -0.248 NA
ATOM     55  C   UNL A   1      44.454  30.232  32.677  1.00  0.00     0.031 C 
ATOM     56  C   UNL A   1      45.201  26.126  29.298  1.00  0.00     0.029 A 
ATOM     57  C   UNL A   1      44.453  26.073  30.460  1.00  0.00     0.049 A 
ATOM     58  H   UNL A   1      42.817  24.820  30.917  1.00  0.00     0.167 HD
ATOM     59  C   UNL A   1      44.564  28.040  31.889  1.00  0.00     0.074 A 
ATOM     60  C   UNL A   1      44.779  28.965  32.993  1.00  0.00     0.031 C 
ATOM     61  C   UNL A   1      44.598  26.677  31.783  1.00  0.00     0.034 A 
BRANCH  48  62
ATOM     62  C   UNL A   1      42.505  22.652  27.473  1.00  0.00     0.023 A 
ATOM     63  C   UNL A   1      41.707  21.527  27.740  1.00  0.00     0.012 A 
ATOM     64  C   UNL A   1      43.420  22.566  26.387  1.00  0.00     0.148 A 
ATOM     65  C   UNL A   1      41.864  20.336  27.027  1.00  0.00     0.002 A 
ATOM     66  C   UNL A   1      43.586  21.369  25.686  1.00  0.00     0.091 A 
ATOM     67  F   UNL A   1      44.157  23.643  26.072  1.00  0.00    -0.205 F 
ATOM     68  C   UNL A   1      42.813  20.249  26.016  1.00  0.00     0.022 A 
BRANCH  66  69
ATOM     69  S   UNL A   1      44.846  21.140  24.418  1.00  0.00     0.127 S 
ATOM     70  O   UNL A   1      44.580  19.774  23.958  1.00  0.00    -0.237 OA
ATOM     71  O   UNL A   1      44.511  22.180  23.449  1.00  0.00    -0.237 OA
ATOM     72  O   UNL A   1      46.126  21.288  25.099  1.00  0.00    -0.744 OA
ENDBRANCH  66  69
ENDBRANCH  48  62
BRANCH  49  73
ATOM     73  C   UNL A   1      42.553  32.197  30.692  1.00  0.00     0.023 A 
ATOM     74  C   UNL A   1      42.592  33.486  30.098  1.00  0.00     0.012 A 
ATOM     75  C   UNL A   1      41.361  31.817  31.347  1.00  0.00     0.148 A 
ATOM     76  C   UNL A   1      41.477  34.333  30.087  1.00  0.00     0.002 A 
ATOM     77  C   UNL A   1      40.248  32.671  31.335  1.00  0.00     0.091 A 
ATOM     78  F   UNL A   1      41.311  30.617  31.935  1.00  0.00    -0.205 F 
ATOM     79  C   UNL A   1      40.298  33.915  30.686  1.00  0.00     0.022 A 
BRANCH  77  80
ATOM     80  S   UNL A   1      38.663  32.261  32.091  1.00  0.00     0.127 S 
ATOM     81  O   UNL A   1      37.739  33.041  31.269  1.00  0.00    -0.237 OA
ATOM     82  O   UNL A   1      38.598  30.818  31.879  1.00  0.00    -0.237 OA
ATOM     83  O   UNL A   1      38.772  32.680  33.479  1.00  0.00    -0.744 OA
ENDBRANCH  77  80
ENDBRANCH  49  73
BRANCH  61  84
ATOM     84  C   UNL A   1      44.750  25.744  32.960  1.00  0.00     0.023 A 
ATOM     85  C   UNL A   1      45.906  24.971  33.155  1.00  0.00     0.012 A 
ATOM     86  C   UNL A   1      43.811  25.784  34.019  1.00  0.00     0.148 A 
ATOM     87  C   UNL A   1      46.099  24.228  34.320  1.00  0.00     0.002 A 
ATOM     88  C   UNL A   1      44.091  25.180  35.235  1.00  0.00     0.091 A 
ATOM     89  F   UNL A   1      42.636  26.414  33.858  1.00  0.00    -0.205 F 
ATOM     90  C   UNL A   1      45.211  24.363  35.377  1.00  0.00     0.022 A 
BRANCH  88  91
ATOM     91  S   UNL A   1      43.148  25.638  36.695  1.00  0.00     0.127 S 
ATOM     92  O   UNL A   1      41.883  24.943  36.476  1.00  0.00    -0.237 OA
ATOM     93  O   UNL A   1      43.965  25.096  37.782  1.00  0.00    -0.237 OA
ATOM     94  O   UNL A   1      43.104  27.096  36.654  1.00  0.00    -0.744 OA
ENDBRANCH  88  91
ENDBRANCH  61  84
ENDBRANCH  35  36
ENDBRANCH  28  30
ENDBRANCH  27  28
ENDBRANCH  26  27
ENDBRANCH   1  26
TORSDOF 18
ENDMDL
MODEL 2
REMARK VINA RESULT:     -11.8      1.438      2.167
REMARK SMILES COc1cc(C(=O)N[C@H](C(=O)OCCOC(=O)c2ccc(-c3c4nc(c(-c5cccc(S(=O)(=O)[O-])c5F)c5ccc([nH]5)c(-c5cccc(S(=O)(=O)[O-])c5F)c5nc(c(-c6cccc(S(=O)(=O)[O-])c6F)c6ccc3[nH]6)C=C5)C=C4)cc2)C2=C(C)N=N[C@H]2C)ccc1C
REMARK SMILES IDX 13 1 12 2 10 3 11 4 9 5 8 6 6 7 7 8 5 10 3 11 4 12 90 13
REMARK SMILES IDX 89 14 91 15 88 16 2 17 1 18 81 19 82 20 86 21 83 22 84 23
REMARK SMILES IDX 85 24 87 25 14 26 15 27 16 28 17 29 18 30 19 31 80 32 20 33
REMARK SMILES IDX 79 34 21 35 22 36 23 37 73 38 24 39 78 40 72 41 74 42 25 43
REMARK SMILES IDX 77 44 71 45 70 46 26 48 58 49 38 50 57 51 39 52 42 53 56 54
REMARK SMILES IDX 75 55 40 56 41 57 55 59 76 60 43 61 27 62 28 63 36 64 29 65
REMARK SMILES IDX 31 66 37 67 30 68 32 69 33 70 34 71 35 72 59 73 60 74 68 75
REMARK SMILES IDX 61 76 63 77 69 78 62 79 64 80 65 81 66 82 67 83 44 84 45 85
REMARK SMILES IDX 53 86 46 87 48 88 54 89 47 90 49 91 50 92 51 93 52 94
REMARK H PARENT 8 9 74 47 42 58
REMARK Flexibility Score: inf
ROOT
ATOM      1  C   UNL A   1      33.057  29.452  26.798  1.00  0.00     0.274 C 
ENDROOT
BRANCH   1   2
ATOM      2  O   UNL A   1      31.977  28.795  26.164  1.00  0.00    -0.460 OA
BRANCH   2   3
ATOM      3  C   UNL A   1      31.491  27.736  26.862  1.00  0.00     0.333 C 
ATOM      4  O   UNL A   1      31.028  27.821  27.993  1.00  0.00    -0.249 OA
BRANCH   3   5
ATOM      5  C   UNL A   1      31.715  26.456  26.048  1.00  0.00     0.223 C 
BRANCH   5   6
ATOM      6  N   UNL A   1      30.843  25.416  26.636  1.00  0.00    -0.335 N 
ATOM      7  C   UNL A   1      30.928  24.016  26.679  1.00  0.00     0.252 C 
ATOM      8  O   UNL A   1      30.010  23.416  27.249  1.00  0.00    -0.269 OA
ATOM      9  H   UNL A   1      30.047  25.777  27.088  1.00  0.00     0.165 HD
BRANCH   7  10
ATOM     10  C   UNL A   1      32.077  23.154  26.218  1.00  0.00     0.043 A 
ATOM     11  C   UNL A   1      33.048  21.320  24.885  1.00  0.00     0.122 A 
ATOM     12  C   UNL A   1      31.918  22.027  25.388  1.00  0.00     0.060 A 
ATOM     13  C   UNL A   1      34.322  21.533  25.425  1.00  0.00    -0.009 A 
ATOM     14  C   UNL A   1      34.439  22.511  26.429  1.00  0.00     0.008 A 
ATOM     15  C   UNL A   1      35.522  20.728  25.003  1.00  0.00     0.048 C 
ATOM     16  C   UNL A   1      33.345  23.337  26.787  1.00  0.00     0.014 A 
BRANCH  11  17
ATOM     17  O   UNL A   1      32.870  20.441  23.836  1.00  0.00    -0.496 OA
ATOM     18  C   UNL A   1      32.153  21.009  22.721  1.00  0.00     0.278 C 
ENDBRANCH  11  17
ENDBRANCH   7  10
ENDBRANCH   5   6
BRANCH   5  19
ATOM     19  C   UNL A   1      31.587  26.685  24.549  1.00  0.00     0.012 C 
ATOM     20  C   UNL A   1      32.353  26.322  23.494  1.00  0.00     0.064 C 
ATOM     21  C   UNL A   1      30.356  27.253  23.895  1.00  0.00     0.156 C 
ATOM     22  C   UNL A   1      33.653  25.593  23.373  1.00  0.00     0.069 C 
ATOM     23  N   UNL A   1      31.787  26.646  22.284  1.00  0.00    -0.160 NA
ATOM     24  N   UNL A   1      30.672  27.188  22.445  1.00  0.00    -0.181 NA
ATOM     25  C   UNL A   1      29.056  26.484  24.089  1.00  0.00     0.040 C 
ENDBRANCH   5  19
ENDBRANCH   3   5
ENDBRANCH   2   3
ENDBRANCH   1   2
BRANCH   1  26
ATOM     26  C   UNL A   1      34.370  28.905  26.234  1.00  0.00     0.275 C 
BRANCH  26  27
ATOM     27  O   UNL A   1      35.589  29.021  27.087  1.00  0.00    -0.458 OA
BRANCH  27  28
ATOM     28  C   UNL A   1      36.213  29.832  28.020  1.00  0.00     0.338 C 
ATOM     29  O   UNL A   1      35.685  30.747  28.560  1.00  0.00    -0.246 OA
BRANCH  28  30
ATOM     30  C   UNL A   1      37.502  29.384  28.501  1.00  0.00     0.060 A 
ATOM     31  C   UNL A   1      37.669  28.577  29.633  1.00  0.00     0.016 A 
ATOM     32  C   UNL A   1      38.517  29.617  27.633  1.00  0.00     0.016 A 
ATOM     33  C   UNL A   1      38.924  28.025  29.831  1.00  0.00     0.010 A 
ATOM     34  C   UNL A   1      39.431  28.648  27.532  1.00  0.00     0.010 A 
ATOM     35  C   UNL A   1      39.793  28.104  28.748  1.00  0.00    -0.014 A 
BRANCH  35  36
ATOM     36  C   UNL A   1      41.236  28.005  28.716  1.00  0.00     0.031 A 
ATOM     37  C   UNL A   1      41.684  26.764  28.092  1.00  0.00     0.074 A 
ATOM     38  C   UNL A   1      41.836  29.211  28.908  1.00  0.00     0.049 A 
ATOM     39  N   UNL A   1      41.859  25.639  28.710  1.00  0.00    -0.248 NA
ATOM     40  C   UNL A   1      41.649  26.663  26.621  1.00  0.00     0.031 C 
ATOM     41  C   UNL A   1      43.183  29.673  28.657  1.00  0.00     0.029 A 
ATOM     42  N   UNL A   1      41.239  30.381  29.428  1.00  0.00    -0.354 N 
ATOM     43  C   UNL A   1      42.337  24.798  27.718  1.00  0.00     0.074 A 
ATOM     44  C   UNL A   1      41.815  25.348  26.469  1.00  0.00     0.031 C 
ATOM     45  C   UNL A   1      43.380  30.786  29.404  1.00  0.00     0.029 A 
ATOM     46  C   UNL A   1      42.172  31.050  30.193  1.00  0.00     0.049 A 
ATOM     47  H   UNL A   1      40.312  30.671  29.271  1.00  0.00     0.167 HD
ATOM     48  C   UNL A   1      43.656  24.424  27.719  1.00  0.00     0.034 A 
ATOM     49  C   UNL A   1      42.035  30.981  31.555  1.00  0.00     0.034 A 
ATOM     50  C   UNL A   1      44.456  25.407  28.465  1.00  0.00     0.049 A 
ATOM     51  C   UNL A   1      42.972  29.921  32.109  1.00  0.00     0.074 A 
ATOM     52  C   UNL A   1      45.123  26.552  28.051  1.00  0.00     0.029 A 
ATOM     53  N   UNL A   1      44.315  25.524  29.842  1.00  0.00    -0.354 N 
ATOM     54  N   UNL A   1      43.527  28.984  31.389  1.00  0.00    -0.248 NA
ATOM     55  C   UNL A   1      43.378  29.866  33.507  1.00  0.00     0.031 C 
ATOM     56  C   UNL A   1      45.364  27.365  29.190  1.00  0.00     0.029 A 
ATOM     57  C   UNL A   1      44.830  26.734  30.299  1.00  0.00     0.049 A 
ATOM     58  H   UNL A   1      43.903  24.841  30.419  1.00  0.00     0.167 HD
ATOM     59  C   UNL A   1      44.284  28.173  32.184  1.00  0.00     0.074 A 
ATOM     60  C   UNL A   1      44.221  28.818  33.488  1.00  0.00     0.031 C 
ATOM     61  C   UNL A   1      44.858  27.016  31.733  1.00  0.00     0.034 A 
BRANCH  48  62
ATOM     62  C   UNL A   1      44.135  23.609  26.534  1.00  0.00     0.023 A 
ATOM     63  C   UNL A   1      44.742  24.259  25.447  1.00  0.00     0.012 A 
ATOM     64  C   UNL A   1      43.937  22.204  26.434  1.00  0.00     0.148 A 
ATOM     65  C   UNL A   1      45.061  23.573  24.273  1.00  0.00     0.002 A 
ATOM     66  C   UNL A   1      44.243  21.523  25.252  1.00  0.00     0.091 A 
ATOM     67  F   UNL A   1      43.410  21.546  27.478  1.00  0.00    -0.205 F 
ATOM     68  C   UNL A   1      44.796  22.214  24.167  1.00  0.00     0.022 A 
BRANCH  66  69
ATOM     69  S   UNL A   1      43.858  19.781  24.995  1.00  0.00     0.127 S 
ATOM     70  O   UNL A   1      42.434  19.722  25.337  1.00  0.00    -0.237 OA
ATOM     71  O   UNL A   1      44.147  19.601  23.575  1.00  0.00    -0.237 OA
ATOM     72  O   UNL A   1      44.711  19.047  25.920  1.00  0.00    -0.744 OA
ENDBRANCH  66  69
ENDBRANCH  48  62
BRANCH  49  73
ATOM     73  C   UNL A   1      40.643  31.254  32.088  1.00  0.00     0.023 A 
ATOM     74  C   UNL A   1      39.928  30.157  32.636  1.00  0.00     0.012 A 
ATOM     75  C   UNL A   1      40.094  32.543  32.262  1.00  0.00     0.148 A 
ATOM     76  C   UNL A   1      38.761  30.333  33.390  1.00  0.00     0.002 A 
ATOM     77  C   UNL A   1      38.923  32.713  33.017  1.00  0.00     0.091 A 
ATOM     78  F   UNL A   1      40.738  33.587  31.732  1.00  0.00    -0.205 F 
ATOM     79  C   UNL A   1      38.272  31.613  33.599  1.00  0.00     0.022 A 
BRANCH  77  80
ATOM     80  S   UNL A   1      38.171  34.317  33.349  1.00  0.00     0.127 S 
ATOM     81  O   UNL A   1      37.923  34.808  31.993  1.00  0.00    -0.237 OA
ATOM     82  O   UNL A   1      36.971  33.935  34.087  1.00  0.00    -0.237 OA
ATOM     83  O   UNL A   1      39.159  35.062  34.112  1.00  0.00    -0.744 OA
ENDBRANCH  77  80
ENDBRANCH  49  73
BRANCH  61  84
ATOM     84  C   UNL A   1      45.499  25.988  32.632  1.00  0.00     0.023 A 
ATOM     85  C   UNL A   1      46.894  25.844  32.726  1.00  0.00     0.012 A 
ATOM     86  C   UNL A   1      44.711  25.280  33.571  1.00  0.00     0.148 A 
ATOM     87  C   UNL A   1      47.478  24.997  33.667  1.00  0.00     0.002 A 
ATOM     88  C   UNL A   1      45.306  24.576  34.607  1.00  0.00     0.091 A 
ATOM     89  F   UNL A   1      43.372  25.286  33.473  1.00  0.00    -0.205 F 
ATOM     90  C   UNL A   1      46.688  24.393  34.634  1.00  0.00     0.022 A 
BRANCH  88  91
ATOM     91  S   UNL A   1      44.331  24.105  36.041  1.00  0.00     0.127 S 
ATOM     92  O   UNL A   1      45.315  23.419  36.872  1.00  0.00    -0.237 OA
ATOM     93  O   UNL A   1      43.886  25.400  36.560  1.00  0.00    -0.237 OA
ATOM     94  O   UNL A   1      43.257  23.284  35.493  1.00  0.00    -0.744 OA
ENDBRANCH  88  91
ENDBRANCH  61  84
ENDBRANCH  35  36
ENDBRANCH  28  30
ENDBRANCH  27  28
ENDBRANCH  26  27
ENDBRANCH   1  26
TORSDOF 18
ENDMDL
MODEL 3
REMARK VINA RESULT:     -11.7      1.537      2.095
REMARK SMILES COc1cc(C(=O)N[C@H](C(=O)OCCOC(=O)c2ccc(-c3c4nc(c(-c5cccc(S(=O)(=O)[O-])c5F)c5ccc([nH]5)c(-c5cccc(S(=O)(=O)[O-])c5F)c5nc(c(-c6cccc(S(=O)(=O)[O-])c6F)c6ccc3[nH]6)C=C5)C=C4)cc2)C2=C(C)N=N[C@H]2C)ccc1C
REMARK SMILES IDX 13 1 12 2 10 3 11 4 9 5 8 6 6 7 7 8 5 10 3 11 4 12 90 13
REMARK SMILES IDX 89 14 91 15 88 16 2 17 1 18 81 19 82 20 86 21 83 22 84 23
REMARK SMILES IDX 85 24 87 25 14 26 15 27 16 28 17 29 18 30 19 31 80 32 20 33
REMARK SMILES IDX 79 34 21 35 22 36 23 37 73 38 24 39 78 40 72 41 74 42 25 43
REMARK SMILES IDX 77 44 71 45 70 46 26 48 58 49 38 50 57 51 39 52 42 53 56 54
REMARK SMILES IDX 75 55 40 56 41 57 55 59 76 60 43 61 27 62 28 63 36 64 29 65
REMARK SMILES IDX 31 66 37 67 30 68 32 69 33 70 34 71 35 72 59 73 60 74 68 75
REMARK SMILES IDX 61 76 63 77 69 78 62 79 64 80 65 81 66 82 67 83 44 84 45 85
REMARK SMILES IDX 53 86 46 87 48 88 54 89 47 90 49 91 50 92 51 93 52 94
REMARK H PARENT 8 9 74 47 42 58
REMARK Flexibility Score: inf
ROOT
ATOM      1  C   UNL A   1      33.362  29.782  26.817  1.00  0.00     0.274 C 
ENDROOT
BRANCH   1   2
ATOM      2  O   UNL A   1      32.201  29.247  26.210  1.00  0.00    -0.460 OA
BRANCH   2   3
ATOM      3  C   UNL A   1      31.730  28.127  26.816  1.00  0.00     0.333 C 
ATOM      4  O   UNL A   1      31.343  28.093  27.979  1.00  0.00    -0.249 OA
BRANCH   3   5
ATOM      5  C   UNL A   1      31.863  26.943  25.850  1.00  0.00     0.223 C 
BRANCH   5   6
ATOM      6  N   UNL A   1      31.147  25.804  26.467  1.00  0.00    -0.335 N 
ATOM      7  C   UNL A   1      31.410  24.428  26.512  1.00  0.00     0.252 C 
ATOM      8  O   UNL A   1      30.592  23.720  27.110  1.00  0.00    -0.269 OA
ATOM      9  H   UNL A   1      30.325  26.065  26.941  1.00  0.00     0.165 HD
BRANCH   7  10
ATOM     10  C   UNL A   1      32.646  23.714  26.021  1.00  0.00     0.043 A 
ATOM     11  C   UNL A   1      33.987  21.689  25.592  1.00  0.00     0.122 A 
ATOM     12  C   UNL A   1      32.859  22.331  26.180  1.00  0.00     0.060 A 
ATOM     13  C   UNL A   1      35.058  22.441  25.096  1.00  0.00    -0.009 A 
ATOM     14  C   UNL A   1      34.939  23.842  25.148  1.00  0.00     0.008 A 
ATOM     15  C   UNL A   1      36.316  21.804  24.570  1.00  0.00     0.048 C 
ATOM     16  C   UNL A   1      33.737  24.466  25.562  1.00  0.00     0.014 A 
BRANCH  11  17
ATOM     17  O   UNL A   1      33.993  20.313  25.494  1.00  0.00    -0.496 OA
ATOM     18  C   UNL A   1      33.054  19.798  24.527  1.00  0.00     0.278 C 
ENDBRANCH  11  17
ENDBRANCH   7  10
ENDBRANCH   5   6
BRANCH   5  19
ATOM     19  C   UNL A   1      31.472  27.303  24.425  1.00  0.00     0.012 C 
ATOM     20  C   UNL A   1      32.168  27.356  23.265  1.00  0.00     0.064 C 
ATOM     21  C   UNL A   1      30.049  27.501  23.976  1.00  0.00     0.156 C 
ATOM     22  C   UNL A   1      33.605  27.129  22.920  1.00  0.00     0.069 C 
ATOM     23  N   UNL A   1      31.374  27.620  22.175  1.00  0.00    -0.160 NA
ATOM     24  N   UNL A   1      30.175  27.730  22.514  1.00  0.00    -0.181 NA
ATOM     25  C   UNL A   1      29.102  26.321  24.148  1.00  0.00     0.040 C 
ENDBRANCH   5  19
ENDBRANCH   3   5
ENDBRANCH   2   3
ENDBRANCH   1   2
BRANCH   1  26
ATOM     26  C   UNL A   1      34.487  28.748  26.728  1.00  0.00     0.275 C 
BRANCH  26  27
ATOM     27  O   UNL A   1      35.703  28.980  27.562  1.00  0.00    -0.458 OA
BRANCH  27  28
ATOM     28  C   UNL A   1      36.738  29.873  27.783  1.00  0.00     0.338 C 
ATOM     29  O   UNL A   1      36.600  31.051  27.817  1.00  0.00    -0.246 OA
BRANCH  28  30
ATOM     30  C   UNL A   1      37.999  29.303  28.206  1.00  0.00     0.060 A 
ATOM     31  C   UNL A   1      38.116  28.348  29.223  1.00  0.00     0.016 A 
ATOM     32  C   UNL A   1      39.033  29.598  27.381  1.00  0.00     0.016 A 
ATOM     33  C   UNL A   1      39.340  27.713  29.352  1.00  0.00     0.010 A 
ATOM     34  C   UNL A   1      39.900  28.607  27.157  1.00  0.00     0.010 A 
ATOM     35  C   UNL A   1      40.223  27.891  28.292  1.00  0.00    -0.014 A 
BRANCH  35  36
ATOM     36  C   UNL A   1      41.660  27.727  28.254  1.00  0.00     0.031 A 
ATOM     37  C   UNL A   1      42.047  26.435  27.694  1.00  0.00     0.074 A 
ATOM     38  C   UNL A   1      42.314  28.913  28.374  1.00  0.00     0.049 A 
ATOM     39  N   UNL A   1      42.178  25.338  28.371  1.00  0.00    -0.248 NA
ATOM     40  C   UNL A   1      41.991  26.256  26.231  1.00  0.00     0.031 C 
ATOM     41  C   UNL A   1      43.678  29.301  28.087  1.00  0.00     0.029 A 
ATOM     42  N   UNL A   1      41.775  30.135  28.835  1.00  0.00    -0.354 N 
ATOM     43  C   UNL A   1      42.608  24.425  27.423  1.00  0.00     0.074 A 
ATOM     44  C   UNL A   1      42.097  24.929  26.150  1.00  0.00     0.031 C 
ATOM     45  C   UNL A   1      43.932  30.443  28.771  1.00  0.00     0.029 A 
ATOM     46  C   UNL A   1      42.745  30.802  29.555  1.00  0.00     0.049 A 
ATOM     47  H   UNL A   1      40.860  30.457  28.670  1.00  0.00     0.167 HD
ATOM     48  C   UNL A   1      43.910  23.993  27.433  1.00  0.00     0.034 A 
ATOM     49  C   UNL A   1      42.620  30.813  30.919  1.00  0.00     0.034 A 
ATOM     50  C   UNL A   1      44.760  24.978  28.118  1.00  0.00     0.049 A 
ATOM     51  C   UNL A   1      43.515  29.744  31.522  1.00  0.00     0.074 A 
ATOM     52  C   UNL A   1      45.472  26.068  27.636  1.00  0.00     0.029 A 
ATOM     53  N   UNL A   1      44.639  25.176  29.487  1.00  0.00    -0.354 N 
ATOM     54  N   UNL A   1      44.021  28.746  30.849  1.00  0.00    -0.248 NA
ATOM     55  C   UNL A   1      43.934  29.747  32.917  1.00  0.00     0.031 C 
ATOM     56  C   UNL A   1      45.761  26.930  28.727  1.00  0.00     0.029 A 
ATOM     57  C   UNL A   1      45.212  26.384  29.873  1.00  0.00     0.049 A 
ATOM     58  H   UNL A   1      44.204  24.544  30.104  1.00  0.00     0.167 HD
ATOM     59  C   UNL A   1      44.750  27.947  31.681  1.00  0.00     0.074 A 
ATOM     60  C   UNL A   1      44.730  28.664  32.949  1.00  0.00     0.031 C 
ATOM     61  C   UNL A   1      45.268  26.742  31.289  1.00  0.00     0.034 A 
BRANCH  48  62
ATOM     62  C   UNL A   1      44.339  23.095  26.290  1.00  0.00     0.023 A 
ATOM     63  C   UNL A   1      45.004  23.651  25.185  1.00  0.00     0.012 A 
ATOM     64  C   UNL A   1      44.039  21.704  26.247  1.00  0.00     0.148 A 
ATOM     65  C   UNL A   1      45.284  22.893  24.045  1.00  0.00     0.002 A 
ATOM     66  C   UNL A   1      44.306  20.953  25.100  1.00  0.00     0.091 A 
ATOM     67  F   UNL A   1      43.454  21.133  27.311  1.00  0.00    -0.205 F 
ATOM     68  C   UNL A   1      44.920  21.553  23.994  1.00  0.00     0.022 A 
BRANCH  66  69
ATOM     69  S   UNL A   1      43.797  19.234  24.912  1.00  0.00     0.127 S 
ATOM     70  O   UNL A   1      44.593  18.559  25.941  1.00  0.00    -0.237 OA
ATOM     71  O   UNL A   1      42.367  19.296  25.199  1.00  0.00    -0.237 OA
ATOM     72  O   UNL A   1      44.161  18.859  23.552  1.00  0.00    -0.744 OA
ENDBRANCH  66  69
ENDBRANCH  48  62
BRANCH  49  73
ATOM     73  C   UNL A   1      41.247  31.176  31.448  1.00  0.00     0.023 A 
ATOM     74  C   UNL A   1      40.702  32.423  31.043  1.00  0.00     0.012 A 
ATOM     75  C   UNL A   1      40.396  30.286  32.139  1.00  0.00     0.148 A 
ATOM     76  C   UNL A   1      39.353  32.745  31.245  1.00  0.00     0.002 A 
ATOM     77  C   UNL A   1      39.047  30.615  32.340  1.00  0.00     0.091 A 
ATOM     78  F   UNL A   1      40.897  29.117  32.551  1.00  0.00    -0.205 F 
ATOM     79  C   UNL A   1      38.522  31.830  31.874  1.00  0.00     0.022 A 
BRANCH  77  80
ATOM     80  S   UNL A   1      37.864  29.528  33.158  1.00  0.00     0.127 S 
ATOM     81  O   UNL A   1      36.606  29.956  32.547  1.00  0.00    -0.237 OA
ATOM     82  O   UNL A   1      38.329  28.210  32.735  1.00  0.00    -0.237 OA
ATOM     83  O   UNL A   1      37.995  29.806  34.579  1.00  0.00    -0.744 OA
ENDBRANCH  77  80
ENDBRANCH  49  73
BRANCH  61  84
ATOM     84  C   UNL A   1      45.873  25.737  32.238  1.00  0.00     0.023 A 
ATOM     85  C   UNL A   1      47.212  25.815  32.653  1.00  0.00     0.012 A 
ATOM     86  C   UNL A   1      45.042  24.804  32.905  1.00  0.00     0.148 A 
ATOM     87  C   UNL A   1      47.720  24.973  33.643  1.00  0.00     0.002 A 
ATOM     88  C   UNL A   1      45.512  24.093  33.998  1.00  0.00     0.091 A 
ATOM     89  F   UNL A   1      43.782  24.601  32.487  1.00  0.00    -0.205 F 
ATOM     90  C   UNL A   1      46.861  24.139  34.343  1.00  0.00     0.022 A 
BRANCH  88  91
ATOM     91  S   UNL A   1      44.346  23.305  35.116  1.00  0.00     0.127 S 
ATOM     92  O   UNL A   1      44.214  21.973  34.534  1.00  0.00    -0.237 OA
ATOM     93  O   UNL A   1      45.056  23.346  36.395  1.00  0.00    -0.237 OA
ATOM     94  O   UNL A   1      43.163  24.156  35.064  1.00  0.00    -0.744 OA
ENDBRANCH  88  91
ENDBRANCH  61  84
ENDBRANCH  35  36
ENDBRANCH  28  30
ENDBRANCH  27  28
ENDBRANCH  26  27
ENDBRANCH   1  26
TORSDOF 18
ENDMDL
