MODEL 1
REMARK VINA RESULT:     -11.3      0.000      0.000
REMARK SMILES COC(=O)c1ccc(C[N@@H+](CC(=O)OCCOC(=O)c2ccc(-c3c4nc(c(-c5cccc(S(=O)(=O)[O-])c5F)c5ccc([nH]5)c(-c5cccc(S(=O)(=O)[O-])c5F)c5nc(c(-c6cccc(S(=O)(=O)[O-])c6F)c6ccc3[nH]6)C=C5)C=C4)cc2)C(C)(C)C)cc1
REMARK SMILES IDX 15 1 14 2 12 3 13 4 11 5 10 6 9 8 8 9 5 10 6 11 88 12 7 13
REMARK SMILES IDX 87 14 3 15 4 16 2 17 1 18 83 19 84 20 85 21 86 22 16 23
REMARK SMILES IDX 17 24 18 25 19 26 20 27 21 28 82 29 22 30 81 31 23 32 24 33
REMARK SMILES IDX 25 34 75 35 26 36 80 37 74 38 76 39 27 40 79 41 73 42 72 43
REMARK SMILES IDX 28 45 60 46 40 47 59 48 41 49 44 50 58 51 77 52 42 53 43 54
REMARK SMILES IDX 57 56 78 57 45 58 29 59 30 60 38 61 31 62 33 63 39 64 32 65
REMARK SMILES IDX 34 66 35 67 36 68 37 69 61 70 62 71 70 72 63 73 65 74 71 75
REMARK SMILES IDX 64 76 66 77 67 78 68 79 69 80 46 81 47 82 55 83 48 84 50 85
REMARK SMILES IDX 56 86 49 87 51 88 52 89 53 90 54 91
REMARK H PARENT 10 7 76 44 44 55
REMARK Flexibility Score: inf
ROOT
ATOM      1  C   UNL A   1      35.886  20.892  24.871  1.00  0.00     0.274 C 
ENDROOT
BRANCH   1   2
ATOM      2  O   UNL A   1      35.948  22.339  24.754  1.00  0.00    -0.458 OA
BRANCH   2   3
ATOM      3  C   UNL A   1      35.718  22.873  23.527  1.00  0.00     0.361 C 
ATOM      4  O   UNL A   1      36.628  23.170  22.752  1.00  0.00    -0.245 OA
BRANCH   3   5
ATOM      5  C   UNL A   1      34.256  23.144  23.139  1.00  0.00     0.387 C 
BRANCH   5   6
ATOM      6  N   UNL A   1      33.153  23.052  24.132  1.00  0.00    -0.318 N 
ATOM      7  H   UNL A   1      33.525  22.557  24.942  1.00  0.00     0.349 HD
BRANCH   6   8
ATOM      8  C   UNL A   1      32.076  22.190  23.630  1.00  0.00     0.299 C 
BRANCH   8   9
ATOM      9  C   UNL A   1      32.259  20.713  23.864  1.00  0.00     0.006 A 
ATOM     10  C   UNL A   1      32.868  18.021  24.303  1.00  0.00     0.060 A 
ATOM     11  C   UNL A   1      32.531  18.459  23.017  1.00  0.00     0.016 A 
ATOM     12  C   UNL A   1      32.864  18.921  25.375  1.00  0.00     0.016 A 
ATOM     13  C   UNL A   1      32.202  19.797  22.802  1.00  0.00     0.010 A 
ATOM     14  C   UNL A   1      32.559  20.261  25.156  1.00  0.00     0.010 A 
BRANCH  10  15
ATOM     15  C   UNL A   1      33.269  16.604  24.488  1.00  0.00     0.337 C 
ATOM     16  O   UNL A   1      33.820  15.934  23.645  1.00  0.00    -0.246 OA
BRANCH  15  17
ATOM     17  O   UNL A   1      32.882  16.192  25.726  1.00  0.00    -0.465 OA
ATOM     18  C   UNL A   1      32.299  14.892  25.755  1.00  0.00     0.282 C 
ENDBRANCH  15  17
ENDBRANCH  10  15
ENDBRANCH   8   9
ENDBRANCH   6   8
BRANCH   6  19
ATOM     19  C   UNL A   1      32.847  24.228  25.008  1.00  0.00     0.090 C 
ATOM     20  C   UNL A   1      31.371  24.702  24.980  1.00  0.00     0.078 C 
ATOM     21  C   UNL A   1      33.156  23.894  26.498  1.00  0.00     0.078 C 
ATOM     22  C   UNL A   1      33.797  25.430  24.758  1.00  0.00     0.078 C 
ENDBRANCH   6  19
ENDBRANCH   5   6
ENDBRANCH   3   5
ENDBRANCH   2   3
ENDBRANCH   1   2
BRANCH   1  23
ATOM     23  C   UNL A   1      37.237  20.291  25.296  1.00  0.00     0.275 C 
BRANCH  23  24
ATOM     24  O   UNL A   1      38.319  21.238  25.136  1.00  0.00    -0.458 OA
BRANCH  24  25
ATOM     25  C   UNL A   1      39.223  21.124  26.126  1.00  0.00     0.338 C 
ATOM     26  O   UNL A   1      39.726  20.081  26.497  1.00  0.00    -0.246 OA
BRANCH  25  27
ATOM     27  C   UNL A   1      39.660  22.353  26.770  1.00  0.00     0.060 A 
ATOM     28  C   UNL A   1      39.221  23.553  26.204  1.00  0.00     0.016 A 
ATOM     29  C   UNL A   1      40.781  22.315  27.599  1.00  0.00     0.016 A 
ATOM     30  C   UNL A   1      39.943  24.718  26.428  1.00  0.00     0.010 A 
ATOM     31  C   UNL A   1      41.451  23.503  27.893  1.00  0.00     0.010 A 
ATOM     32  C   UNL A   1      41.039  24.710  27.306  1.00  0.00    -0.014 A 
BRANCH  32  33
ATOM     33  C   UNL A   1      41.636  25.998  27.731  1.00  0.00     0.031 A 
ATOM     34  C   UNL A   1      40.867  27.022  28.512  1.00  0.00     0.074 A 
ATOM     35  C   UNL A   1      42.902  26.236  27.336  1.00  0.00     0.049 A 
ATOM     36  N   UNL A   1      41.227  28.235  28.843  1.00  0.00    -0.248 NA
ATOM     37  C   UNL A   1      39.523  26.648  28.977  1.00  0.00     0.031 C 
ATOM     38  C   UNL A   1      43.724  25.303  26.557  1.00  0.00     0.029 A 
ATOM     39  N   UNL A   1      43.716  27.321  27.516  1.00  0.00    -0.354 N 
ATOM     40  C   UNL A   1      40.144  28.790  29.514  1.00  0.00     0.074 A 
ATOM     41  C   UNL A   1      39.113  27.772  29.555  1.00  0.00     0.031 C 
ATOM     42  C   UNL A   1      44.927  25.845  26.343  1.00  0.00     0.029 A 
ATOM     43  C   UNL A   1      44.935  27.192  26.894  1.00  0.00     0.049 A 
ATOM     44  H   UNL A   1      43.455  28.115  28.037  1.00  0.00     0.167 HD
ATOM     45  C   UNL A   1      40.031  30.032  30.045  1.00  0.00     0.034 A 
ATOM     46  C   UNL A   1      45.938  28.073  26.742  1.00  0.00     0.034 A 
ATOM     47  C   UNL A   1      41.085  31.016  30.014  1.00  0.00     0.049 A 
ATOM     48  C   UNL A   1      45.785  29.435  27.343  1.00  0.00     0.074 A 
ATOM     49  C   UNL A   1      41.088  32.294  30.548  1.00  0.00     0.029 A 
ATOM     50  N   UNL A   1      42.325  30.834  29.417  1.00  0.00    -0.354 N 
ATOM     51  N   UNL A   1      44.778  29.919  28.030  1.00  0.00    -0.248 NA
ATOM     52  C   UNL A   1      46.904  30.365  27.165  1.00  0.00     0.031 C 
ATOM     53  C   UNL A   1      42.322  32.887  30.260  1.00  0.00     0.029 A 
ATOM     54  C   UNL A   1      43.099  31.973  29.565  1.00  0.00     0.049 A 
ATOM     55  H   UNL A   1      42.613  30.013  28.956  1.00  0.00     0.167 HD
ATOM     56  C   UNL A   1      45.149  31.207  28.385  1.00  0.00     0.074 A 
ATOM     57  C   UNL A   1      46.485  31.415  27.861  1.00  0.00     0.031 C 
ATOM     58  C   UNL A   1      44.441  32.141  29.066  1.00  0.00     0.034 A 
BRANCH  45  59
ATOM     59  C   UNL A   1      38.737  30.401  30.728  1.00  0.00     0.023 A 
ATOM     60  C   UNL A   1      38.562  30.109  32.095  1.00  0.00     0.012 A 
ATOM     61  C   UNL A   1      37.728  31.108  30.041  1.00  0.00     0.148 A 
ATOM     62  C   UNL A   1      37.396  30.491  32.762  1.00  0.00     0.002 A 
ATOM     63  C   UNL A   1      36.584  31.516  30.721  1.00  0.00     0.091 A 
ATOM     64  F   UNL A   1      37.901  31.363  28.737  1.00  0.00    -0.205 F 
ATOM     65  C   UNL A   1      36.413  31.202  32.079  1.00  0.00     0.022 A 
BRANCH  63  66
ATOM     66  S   UNL A   1      35.292  32.498  29.946  1.00  0.00     0.127 S 
ATOM     67  O   UNL A   1      34.373  32.710  31.063  1.00  0.00    -0.237 OA
ATOM     68  O   UNL A   1      36.022  33.694  29.523  1.00  0.00    -0.237 OA
ATOM     69  O   UNL A   1      34.774  31.688  28.853  1.00  0.00    -0.744 OA
ENDBRANCH  63  66
ENDBRANCH  45  59
BRANCH  46  70
ATOM     70  C   UNL A   1      47.169  27.658  26.014  1.00  0.00     0.023 A 
ATOM     71  C   UNL A   1      48.138  26.892  26.685  1.00  0.00     0.012 A 
ATOM     72  C   UNL A   1      47.333  27.931  24.641  1.00  0.00     0.148 A 
ATOM     73  C   UNL A   1      49.259  26.415  26.005  1.00  0.00     0.002 A 
ATOM     74  C   UNL A   1      48.418  27.399  23.955  1.00  0.00     0.091 A 
ATOM     75  F   UNL A   1      46.403  28.672  24.023  1.00  0.00    -0.205 F 
ATOM     76  C   UNL A   1      49.390  26.653  24.639  1.00  0.00     0.022 A 
BRANCH  74  77
ATOM     77  S   UNL A   1      48.573  27.523  22.169  1.00  0.00     0.127 S 
ATOM     78  O   UNL A   1      48.652  26.118  21.778  1.00  0.00    -0.237 OA
ATOM     79  O   UNL A   1      47.328  28.197  21.799  1.00  0.00    -0.237 OA
ATOM     80  O   UNL A   1      49.771  28.318  21.938  1.00  0.00    -0.744 OA
ENDBRANCH  74  77
ENDBRANCH  46  70
BRANCH  58  81
ATOM     81  C   UNL A   1      45.114  33.467  29.295  1.00  0.00     0.023 A 
ATOM     82  C   UNL A   1      45.880  33.665  30.460  1.00  0.00     0.012 A 
ATOM     83  C   UNL A   1      45.022  34.494  28.339  1.00  0.00     0.148 A 
ATOM     84  C   UNL A   1      46.519  34.883  30.686  1.00  0.00     0.002 A 
ATOM     85  C   UNL A   1      45.700  35.689  28.548  1.00  0.00     0.091 A 
ATOM     86  F   UNL A   1      44.267  34.291  27.250  1.00  0.00    -0.205 F 
ATOM     87  C   UNL A   1      46.439  35.889  29.727  1.00  0.00     0.022 A 
BRANCH  85  88
ATOM     88  S   UNL A   1      45.722  37.005  27.328  1.00  0.00     0.127 S 
ATOM     89  O   UNL A   1      46.561  38.006  27.984  1.00  0.00    -0.237 OA
ATOM     90  O   UNL A   1      46.341  36.351  26.175  1.00  0.00    -0.237 OA
ATOM     91  O   UNL A   1      44.331  37.387  27.128  1.00  0.00    -0.744 OA
ENDBRANCH  85  88
ENDBRANCH  58  81
ENDBRANCH  32  33
ENDBRANCH  25  27
ENDBRANCH  24  25
ENDBRANCH  23  24
ENDBRANCH   1  23
TORSDOF 20
ENDMDL
MODEL 2
REMARK VINA RESULT:     -10.8      1.751      3.955
REMARK SMILES COC(=O)c1ccc(C[N@@H+](CC(=O)OCCOC(=O)c2ccc(-c3c4nc(c(-c5cccc(S(=O)(=O)[O-])c5F)c5ccc([nH]5)c(-c5cccc(S(=O)(=O)[O-])c5F)c5nc(c(-c6cccc(S(=O)(=O)[O-])c6F)c6ccc3[nH]6)C=C5)C=C4)cc2)C(C)(C)C)cc1
REMARK SMILES IDX 15 1 14 2 12 3 13 4 11 5 10 6 9 8 8 9 5 10 6 11 88 12 7 13
REMARK SMILES IDX 87 14 3 15 4 16 2 17 1 18 83 19 84 20 85 21 86 22 16 23
REMARK SMILES IDX 17 24 18 25 19 26 20 27 21 28 82 29 22 30 81 31 23 32 24 33
REMARK SMILES IDX 25 34 75 35 26 36 80 37 74 38 76 39 27 40 79 41 73 42 72 43
REMARK SMILES IDX 28 45 60 46 40 47 59 48 41 49 44 50 58 51 77 52 42 53 43 54
REMARK SMILES IDX 57 56 78 57 45 58 29 59 30 60 38 61 31 62 33 63 39 64 32 65
REMARK SMILES IDX 34 66 35 67 36 68 37 69 61 70 62 71 70 72 63 73 65 74 71 75
REMARK SMILES IDX 64 76 66 77 67 78 68 79 69 80 46 81 47 82 55 83 48 84 50 85
REMARK SMILES IDX 56 86 49 87 51 88 52 89 53 90 54 91
REMARK H PARENT 10 7 76 44 44 55
REMARK Flexibility Score: inf
ROOT
ATOM      1  C   UNL A   1      35.993  20.725  24.996  1.00  0.00     0.274 C 
ENDROOT
BRANCH   1   2
ATOM      2  O   UNL A   1      35.362  21.877  25.617  1.00  0.00    -0.458 OA
BRANCH   2   3
ATOM      3  C   UNL A   1      34.216  21.658  26.311  1.00  0.00     0.361 C 
ATOM      4  O   UNL A   1      34.211  21.356  27.505  1.00  0.00    -0.245 OA
BRANCH   3   5
ATOM      5  C   UNL A   1      32.893  21.756  25.535  1.00  0.00     0.387 C 
BRANCH   5   6
ATOM      6  N   UNL A   1      32.459  23.020  24.882  1.00  0.00    -0.318 N 
ATOM      7  H   UNL A   1      33.305  23.553  24.681  1.00  0.00     0.349 HD
BRANCH   6   8
ATOM      8  C   UNL A   1      31.706  23.856  25.824  1.00  0.00     0.299 C 
BRANCH   8   9
ATOM      9  C   UNL A   1      32.189  25.275  25.969  1.00  0.00     0.006 A 
ATOM     10  C   UNL A   1      33.199  27.831  26.477  1.00  0.00     0.060 A 
ATOM     11  C   UNL A   1      31.845  27.558  26.705  1.00  0.00     0.016 A 
ATOM     12  C   UNL A   1      34.038  26.838  25.960  1.00  0.00     0.016 A 
ATOM     13  C   UNL A   1      31.336  26.290  26.428  1.00  0.00     0.010 A 
ATOM     14  C   UNL A   1      33.534  25.566  25.706  1.00  0.00     0.010 A 
BRANCH  10  15
ATOM     15  C   UNL A   1      33.723  29.172  26.836  1.00  0.00     0.337 C 
ATOM     16  O   UNL A   1      33.349  30.209  26.337  1.00  0.00    -0.246 OA
BRANCH  15  17
ATOM     17  O   UNL A   1      34.700  29.029  27.773  1.00  0.00    -0.465 OA
ATOM     18  C   UNL A   1      35.947  29.618  27.413  1.00  0.00     0.282 C 
ENDBRANCH  15  17
ENDBRANCH  10  15
ENDBRANCH   8   9
ENDBRANCH   6   8
BRANCH   6  19
ATOM     19  C   UNL A   1      32.127  23.021  23.422  1.00  0.00     0.090 C 
ATOM     20  C   UNL A   1      32.056  21.619  22.763  1.00  0.00     0.078 C 
ATOM     21  C   UNL A   1      30.733  23.673  23.179  1.00  0.00     0.078 C 
ATOM     22  C   UNL A   1      33.052  23.952  22.592  1.00  0.00     0.078 C 
ENDBRANCH   6  19
ENDBRANCH   5   6
ENDBRANCH   3   5
ENDBRANCH   2   3
ENDBRANCH   1   2
BRANCH   1  23
ATOM     23  C   UNL A   1      37.526  20.778  25.109  1.00  0.00     0.275 C 
BRANCH  23  24
ATOM     24  O   UNL A   1      37.958  21.740  26.098  1.00  0.00    -0.458 OA
BRANCH  24  25
ATOM     25  C   UNL A   1      39.279  21.647  26.332  1.00  0.00     0.338 C 
ATOM     26  O   UNL A   1      39.921  20.614  26.317  1.00  0.00    -0.246 OA
BRANCH  25  27
ATOM     27  C   UNL A   1      39.999  22.888  26.577  1.00  0.00     0.060 A 
ATOM     28  C   UNL A   1      40.858  22.911  27.680  1.00  0.00     0.016 A 
ATOM     29  C   UNL A   1      39.513  24.069  26.017  1.00  0.00     0.016 A 
ATOM     30  C   UNL A   1      41.192  24.128  28.259  1.00  0.00     0.010 A 
ATOM     31  C   UNL A   1      39.922  25.293  26.547  1.00  0.00     0.010 A 
ATOM     32  C   UNL A   1      40.759  25.330  27.673  1.00  0.00    -0.014 A 
BRANCH  32  33
ATOM     33  C   UNL A   1      41.329  26.613  28.147  1.00  0.00     0.031 A 
ATOM     34  C   UNL A   1      40.506  27.644  28.862  1.00  0.00     0.074 A 
ATOM     35  C   UNL A   1      42.625  26.841  27.859  1.00  0.00     0.049 A 
ATOM     36  N   UNL A   1      40.846  28.854  29.222  1.00  0.00    -0.248 NA
ATOM     37  C   UNL A   1      39.125  27.280  29.212  1.00  0.00     0.031 C 
ATOM     38  C   UNL A   1      43.502  25.901  27.151  1.00  0.00     0.029 A 
ATOM     39  N   UNL A   1      43.430  27.919  28.106  1.00  0.00    -0.354 N 
ATOM     40  C   UNL A   1      39.716  29.417  29.800  1.00  0.00     0.074 A 
ATOM     41  C   UNL A   1      38.677  28.407  29.755  1.00  0.00     0.031 C 
ATOM     42  C   UNL A   1      44.723  26.433  27.038  1.00  0.00     0.029 A 
ATOM     43  C   UNL A   1      44.696  27.780  27.588  1.00  0.00     0.049 A 
ATOM     44  H   UNL A   1      43.133  28.716  28.604  1.00  0.00     0.167 HD
ATOM     45  C   UNL A   1      39.569  30.661  30.321  1.00  0.00     0.034 A 
ATOM     46  C   UNL A   1      45.715  28.654  27.521  1.00  0.00     0.034 A 
ATOM     47  C   UNL A   1      40.629  31.636  30.379  1.00  0.00     0.049 A 
ATOM     48  C   UNL A   1      45.523  30.016  28.108  1.00  0.00     0.074 A 
ATOM     49  C   UNL A   1      40.598  32.914  30.911  1.00  0.00     0.029 A 
ATOM     50  N   UNL A   1      41.914  31.444  29.887  1.00  0.00    -0.354 N 
ATOM     51  N   UNL A   1      44.467  30.509  28.709  1.00  0.00    -0.248 NA
ATOM     52  C   UNL A   1      46.661  30.938  28.025  1.00  0.00     0.031 C 
ATOM     53  C   UNL A   1      41.857  33.497  30.727  1.00  0.00     0.029 A 
ATOM     54  C   UNL A   1      42.681  32.577  30.099  1.00  0.00     0.049 A 
ATOM     55  H   UNL A   1      42.232  30.620  29.451  1.00  0.00     0.167 HD
ATOM     56  C   UNL A   1      44.816  31.794  29.094  1.00  0.00     0.074 A 
ATOM     57  C   UNL A   1      46.193  31.991  28.683  1.00  0.00     0.031 C 
ATOM     58  C   UNL A   1      44.062  32.734  29.714  1.00  0.00     0.034 A 
BRANCH  45  59
ATOM     59  C   UNL A   1      38.225  31.039  30.894  1.00  0.00     0.023 A 
ATOM     60  C   UNL A   1      37.928  30.736  32.237  1.00  0.00     0.012 A 
ATOM     61  C   UNL A   1      37.289  31.768  30.130  1.00  0.00     0.148 A 
ATOM     62  C   UNL A   1      36.715  31.127  32.806  1.00  0.00     0.002 A 
ATOM     63  C   UNL A   1      36.095  32.184  30.714  1.00  0.00     0.091 A 
ATOM     64  F   UNL A   1      37.577  32.034  28.849  1.00  0.00    -0.205 F 
ATOM     65  C   UNL A   1      35.804  31.858  32.048  1.00  0.00     0.022 A 
BRANCH  63  66
ATOM     66  S   UNL A   1      34.888  33.192  29.841  1.00  0.00     0.127 S 
ATOM     67  O   UNL A   1      35.743  34.203  29.220  1.00  0.00    -0.237 OA
ATOM     68  O   UNL A   1      34.302  32.233  28.905  1.00  0.00    -0.237 OA
ATOM     69  O   UNL A   1      33.970  33.687  30.857  1.00  0.00    -0.744 OA
ENDBRANCH  63  66
ENDBRANCH  45  59
BRANCH  46  70
ATOM     70  C   UNL A   1      46.999  28.229  26.899  1.00  0.00     0.023 A 
ATOM     71  C   UNL A   1      48.026  27.725  27.717  1.00  0.00     0.012 A 
ATOM     72  C   UNL A   1      47.167  28.226  25.499  1.00  0.00     0.148 A 
ATOM     73  C   UNL A   1      49.205  27.237  27.153  1.00  0.00     0.002 A 
ATOM     74  C   UNL A   1      48.317  27.680  24.942  1.00  0.00     0.091 A 
ATOM     75  F   UNL A   1      46.181  28.721  24.738  1.00  0.00    -0.205 F 
ATOM     76  C   UNL A   1      49.344  27.199  25.768  1.00  0.00     0.022 A 
BRANCH  74  77
ATOM     77  S   UNL A   1      48.500  27.446  23.170  1.00  0.00     0.127 S 
ATOM     78  O   UNL A   1      49.846  27.962  22.938  1.00  0.00    -0.237 OA
ATOM     79  O   UNL A   1      48.363  25.996  23.035  1.00  0.00    -0.237 OA
ATOM     80  O   UNL A   1      47.414  28.205  22.563  1.00  0.00    -0.744 OA
ENDBRANCH  74  77
ENDBRANCH  46  70
BRANCH  58  81
ATOM     81  C   UNL A   1      44.724  34.054  29.999  1.00  0.00     0.023 A 
ATOM     82  C   UNL A   1      45.439  34.228  31.200  1.00  0.00     0.012 A 
ATOM     83  C   UNL A   1      44.672  35.101  29.061  1.00  0.00     0.148 A 
ATOM     84  C   UNL A   1      46.068  35.441  31.478  1.00  0.00     0.002 A 
ATOM     85  C   UNL A   1      45.341  36.291  29.324  1.00  0.00     0.091 A 
ATOM     86  F   UNL A   1      43.965  34.921  27.937  1.00  0.00    -0.205 F 
ATOM     87  C   UNL A   1      46.028  36.466  30.537  1.00  0.00     0.022 A 
BRANCH  85  88
ATOM     88  S   UNL A   1      45.414  37.632  28.133  1.00  0.00     0.127 S 
ATOM     89  O   UNL A   1      46.214  38.623  28.850  1.00  0.00    -0.237 OA
ATOM     90  O   UNL A   1      46.094  37.005  26.999  1.00  0.00    -0.237 OA
ATOM     91  O   UNL A   1      44.032  38.010  27.872  1.00  0.00    -0.744 OA
ENDBRANCH  85  88
ENDBRANCH  58  81
ENDBRANCH  32  33
ENDBRANCH  25  27
ENDBRANCH  24  25
ENDBRANCH  23  24
ENDBRANCH   1  23
TORSDOF 20
ENDMDL
MODEL 3
REMARK VINA RESULT:     -10.7      1.706      2.234
REMARK SMILES COC(=O)c1ccc(C[N@@H+](CC(=O)OCCOC(=O)c2ccc(-c3c4nc(c(-c5cccc(S(=O)(=O)[O-])c5F)c5ccc([nH]5)c(-c5cccc(S(=O)(=O)[O-])c5F)c5nc(c(-c6cccc(S(=O)(=O)[O-])c6F)c6ccc3[nH]6)C=C5)C=C4)cc2)C(C)(C)C)cc1
REMARK SMILES IDX 15 1 14 2 12 3 13 4 11 5 10 6 9 8 8 9 5 10 6 11 88 12 7 13
REMARK SMILES IDX 87 14 3 15 4 16 2 17 1 18 83 19 84 20 85 21 86 22 16 23
REMARK SMILES IDX 17 24 18 25 19 26 20 27 21 28 82 29 22 30 81 31 23 32 24 33
REMARK SMILES IDX 25 34 75 35 26 36 80 37 74 38 76 39 27 40 79 41 73 42 72 43
REMARK SMILES IDX 28 45 60 46 40 47 59 48 41 49 44 50 58 51 77 52 42 53 43 54
REMARK SMILES IDX 57 56 78 57 45 58 29 59 30 60 38 61 31 62 33 63 39 64 32 65
REMARK SMILES IDX 34 66 35 67 36 68 37 69 61 70 62 71 70 72 63 73 65 74 71 75
REMARK SMILES IDX 64 76 66 77 67 78 68 79 69 80 46 81 47 82 55 83 48 84 50 85
REMARK SMILES IDX 56 86 49 87 51 88 52 89 53 90 54 91
REMARK H PARENT 10 7 76 44 44 55
REMARK Flexibility Score: inf
ROOT
ATOM      1  C   UNL A   1      35.543  22.282  24.029  1.00  0.00     0.274 C 
ENDROOT
BRANCH   1   2
ATOM      2  O   UNL A   1      35.388  23.502  23.255  1.00  0.00    -0.458 OA
BRANCH   2   3
ATOM      3  C   UNL A   1      34.728  24.531  23.845  1.00  0.00     0.361 C 
ATOM      4  O   UNL A   1      35.074  25.009  24.926  1.00  0.00    -0.245 OA
BRANCH   3   5
ATOM      5  C   UNL A   1      33.477  25.067  23.131  1.00  0.00     0.387 C 
BRANCH   5   6
ATOM      6  N   UNL A   1      32.137  25.043  23.776  1.00  0.00    -0.318 N 
ATOM      7  H   UNL A   1      32.286  24.810  24.758  1.00  0.00     0.349 HD
BRANCH   6   8
ATOM      8  C   UNL A   1      31.329  23.938  23.248  1.00  0.00     0.299 C 
BRANCH   8   9
ATOM      9  C   UNL A   1      31.810  22.553  23.596  1.00  0.00     0.006 A 
ATOM     10  C   UNL A   1      32.447  19.897  24.189  1.00  0.00     0.060 A 
ATOM     11  C   UNL A   1      32.231  20.811  25.227  1.00  0.00     0.016 A 
ATOM     12  C   UNL A   1      32.381  20.320  22.856  1.00  0.00     0.016 A 
ATOM     13  C   UNL A   1      31.939  22.142  24.931  1.00  0.00     0.010 A 
ATOM     14  C   UNL A   1      32.065  21.643  22.562  1.00  0.00     0.010 A 
BRANCH  10  15
ATOM     15  C   UNL A   1      32.699  18.476  24.535  1.00  0.00     0.337 C 
ATOM     16  O   UNL A   1      31.912  17.764  25.114  1.00  0.00    -0.246 OA
BRANCH  15  17
ATOM     17  O   UNL A   1      33.954  18.138  24.131  1.00  0.00    -0.465 OA
ATOM     18  C   UNL A   1      34.001  17.034  23.231  1.00  0.00     0.282 C 
ENDBRANCH  15  17
ENDBRANCH  10  15
ENDBRANCH   8   9
ENDBRANCH   6   8
BRANCH   6  19
ATOM     19  C   UNL A   1      31.495  26.331  24.192  1.00  0.00     0.090 C 
ATOM     20  C   UNL A   1      31.658  26.692  25.691  1.00  0.00     0.078 C 
ATOM     21  C   UNL A   1      32.104  27.526  23.401  1.00  0.00     0.078 C 
ATOM     22  C   UNL A   1      29.999  26.421  23.783  1.00  0.00     0.078 C 
ENDBRANCH   6  19
ENDBRANCH   5   6
ENDBRANCH   3   5
ENDBRANCH   2   3
ENDBRANCH   1   2
BRANCH   1  23
ATOM     23  C   UNL A   1      37.023  21.930  24.256  1.00  0.00     0.275 C 
BRANCH  23  24
ATOM     24  O   UNL A   1      37.256  21.430  25.593  1.00  0.00    -0.458 OA
BRANCH  24  25
ATOM     25  C   UNL A   1      38.568  21.420  25.894  1.00  0.00     0.338 C 
ATOM     26  O   UNL A   1      39.352  20.545  25.578  1.00  0.00    -0.246 OA
BRANCH  25  27
ATOM     27  C   UNL A   1      39.092  22.570  26.615  1.00  0.00     0.060 A 
ATOM     28  C   UNL A   1      38.700  23.832  26.160  1.00  0.00     0.016 A 
ATOM     29  C   UNL A   1      40.235  22.409  27.397  1.00  0.00     0.016 A 
ATOM     30  C   UNL A   1      39.490  24.937  26.448  1.00  0.00     0.010 A 
ATOM     31  C   UNL A   1      40.977  23.534  27.758  1.00  0.00     0.010 A 
ATOM     32  C   UNL A   1      40.613  24.803  27.282  1.00  0.00    -0.014 A 
BRANCH  32  33
ATOM     33  C   UNL A   1      41.292  26.020  27.784  1.00  0.00     0.031 A 
ATOM     34  C   UNL A   1      40.578  27.066  28.589  1.00  0.00     0.074 A 
ATOM     35  C   UNL A   1      42.585  26.176  27.439  1.00  0.00     0.049 A 
ATOM     36  N   UNL A   1      41.018  28.232  28.986  1.00  0.00    -0.248 NA
ATOM     37  C   UNL A   1      39.194  26.778  28.995  1.00  0.00     0.031 C 
ATOM     38  C   UNL A   1      43.358  25.217  26.642  1.00  0.00     0.029 A 
ATOM     39  N   UNL A   1      43.472  27.186  27.693  1.00  0.00    -0.354 N 
ATOM     40  C   UNL A   1      39.958  28.839  29.649  1.00  0.00     0.074 A 
ATOM     41  C   UNL A   1      38.852  27.903  29.612  1.00  0.00     0.031 C 
ATOM     42  C   UNL A   1      44.606  25.673  26.490  1.00  0.00     0.029 A 
ATOM     43  C   UNL A   1      44.698  26.989  27.103  1.00  0.00     0.049 A 
ATOM     44  H   UNL A   1      43.255  27.974  28.243  1.00  0.00     0.167 HD
ATOM     45  C   UNL A   1      39.923  30.062  30.234  1.00  0.00     0.034 A 
ATOM     46  C   UNL A   1      45.770  27.796  27.022  1.00  0.00     0.034 A 
ATOM     47  C   UNL A   1      41.049  30.961  30.281  1.00  0.00     0.049 A 
ATOM     48  C   UNL A   1      45.701  29.138  27.681  1.00  0.00     0.074 A 
ATOM     49  C   UNL A   1      41.132  32.210  30.873  1.00  0.00     0.029 A 
ATOM     50  N   UNL A   1      42.291  30.709  29.713  1.00  0.00    -0.354 N 
ATOM     51  N   UNL A   1      44.712  29.668  28.359  1.00  0.00    -0.248 NA
ATOM     52  C   UNL A   1      46.894  29.984  27.580  1.00  0.00     0.031 C 
ATOM     53  C   UNL A   1      42.417  32.717  30.650  1.00  0.00     0.029 A 
ATOM     54  C   UNL A   1      43.144  31.777  29.936  1.00  0.00     0.049 A 
ATOM     55  H   UNL A   1      42.531  29.889  29.224  1.00  0.00     0.167 HD
ATOM     56  C   UNL A   1      45.168  30.906  28.785  1.00  0.00     0.074 A 
ATOM     57  C   UNL A   1      46.533  31.032  28.311  1.00  0.00     0.031 C 
ATOM     58  C   UNL A   1      44.512  31.862  29.487  1.00  0.00     0.034 A 
BRANCH  45  59
ATOM     59  C   UNL A   1      38.638  30.499  30.894  1.00  0.00     0.023 A 
ATOM     60  C   UNL A   1      38.453  30.281  32.273  1.00  0.00     0.012 A 
ATOM     61  C   UNL A   1      37.651  31.200  30.170  1.00  0.00     0.148 A 
ATOM     62  C   UNL A   1      37.298  30.728  32.918  1.00  0.00     0.002 A 
ATOM     63  C   UNL A   1      36.518  31.673  30.826  1.00  0.00     0.091 A 
ATOM     64  F   UNL A   1      37.833  31.386  28.855  1.00  0.00    -0.205 F 
ATOM     65  C   UNL A   1      36.336  31.431  32.197  1.00  0.00     0.022 A 
BRANCH  63  66
ATOM     66  S   UNL A   1      35.256  32.652  29.999  1.00  0.00     0.127 S 
ATOM     67  O   UNL A   1      36.023  33.820  29.570  1.00  0.00    -0.237 OA
ATOM     68  O   UNL A   1      34.838  31.766  28.912  1.00  0.00    -0.237 OA
ATOM     69  O   UNL A   1      34.229  32.909  30.999  1.00  0.00    -0.744 OA
ENDBRANCH  63  66
ENDBRANCH  45  59
BRANCH  46  70
ATOM     70  C   UNL A   1      46.990  27.319  26.313  1.00  0.00     0.023 A 
ATOM     71  C   UNL A   1      47.196  27.691  24.973  1.00  0.00     0.012 A 
ATOM     72  C   UNL A   1      47.989  26.589  26.989  1.00  0.00     0.148 A 
ATOM     73  C   UNL A   1      48.370  27.332  24.311  1.00  0.00     0.002 A 
ATOM     74  C   UNL A   1      49.183  26.291  26.344  1.00  0.00     0.091 A 
ATOM     75  F   UNL A   1      47.769  26.235  28.263  1.00  0.00    -0.205 F 
ATOM     76  C   UNL A   1      49.369  26.649  25.000  1.00  0.00     0.022 A 
BRANCH  74  77
ATOM     77  S   UNL A   1      50.578  25.560  27.208  1.00  0.00     0.127 S 
ATOM     78  O   UNL A   1      51.590  25.515  26.157  1.00  0.00    -0.237 OA
ATOM     79  O   UNL A   1      50.831  26.538  28.267  1.00  0.00    -0.237 OA
ATOM     80  O   UNL A   1      50.103  24.270  27.691  1.00  0.00    -0.744 OA
ENDBRANCH  74  77
ENDBRANCH  46  70
BRANCH  58  81
ATOM     81  C   UNL A   1      45.276  33.120  29.797  1.00  0.00     0.023 A 
ATOM     82  C   UNL A   1      46.033  33.199  30.983  1.00  0.00     0.012 A 
ATOM     83  C   UNL A   1      45.277  34.200  28.897  1.00  0.00     0.148 A 
ATOM     84  C   UNL A   1      46.756  34.352  31.283  1.00  0.00     0.002 A 
ATOM     85  C   UNL A   1      46.037  35.328  29.180  1.00  0.00     0.091 A 
ATOM     86  F   UNL A   1      44.530  34.112  27.787  1.00  0.00    -0.205 F 
ATOM     87  C   UNL A   1      46.767  35.410  30.379  1.00  0.00     0.022 A 
BRANCH  85  88
ATOM     88  S   UNL A   1      46.179  36.703  28.034  1.00  0.00     0.127 S 
ATOM     89  O   UNL A   1      44.800  37.184  27.974  1.00  0.00    -0.237 OA
ATOM     90  O   UNL A   1      47.107  37.594  28.729  1.00  0.00    -0.237 OA
ATOM     91  O   UNL A   1      46.700  36.137  26.797  1.00  0.00    -0.744 OA
ENDBRANCH  85  88
ENDBRANCH  58  81
ENDBRANCH  32  33
ENDBRANCH  25  27
ENDBRANCH  24  25
ENDBRANCH  23  24
ENDBRANCH   1  23
TORSDOF 20
ENDMDL
