MODEL 1
REMARK VINA RESULT:     -13.7      0.000      0.000
REMARK SMILES CCc1ccc(-c2cc(Cl)cc3c2O[C@H](C(F)(F)F)C(C(=O)OCCOC(=O)c2ccc(-c4c5nc(c(-c6cccc(S(=O)(=O)[O-])c6F)c6ccc([nH]6)c(-c6cccc(S(=O)(=O)[O-])c6F)c6nc(c(-c7cccc(S(=O)(=O)[O-])c7F)c7ccc4[nH]7)C=C6)C=C5)cc2)=C3)cc1
REMARK SMILES IDX 25 1 24 2 23 3 21 4 22 5 20 6 7 7 8 8 13 9 9 10 12 11 14 12
REMARK SMILES IDX 10 13 11 14 92 15 15 16 6 17 3 18 4 19 94 20 5 21 93 22 2 23
REMARK SMILES IDX 1 24 16 25 17 26 18 27 19 28 26 29 27 30 28 31 29 32 30 33
REMARK SMILES IDX 91 34 31 35 90 36 32 37 33 38 34 39 84 40 35 41 89 42 83 43
REMARK SMILES IDX 85 44 36 45 88 46 82 47 81 48 37 50 69 51 49 52 68 53 50 54
REMARK SMILES IDX 53 55 67 56 86 57 51 58 52 59 66 61 87 62 54 63 38 64 39 65
REMARK SMILES IDX 47 66 40 67 42 68 48 69 41 70 43 71 44 72 45 73 46 74 70 75
REMARK SMILES IDX 71 76 79 77 72 78 74 79 80 80 73 81 75 82 76 83 77 84 78 85
REMARK SMILES IDX 55 86 56 87 64 88 57 89 59 90 65 91 58 92 60 93 61 94 62 95
REMARK SMILES IDX 63 96
REMARK H PARENT 85 49 53 60
REMARK Flexibility Score: inf
ROOT
ATOM      1  C   UNL A   1      31.602  29.822  25.140  1.00  0.00     0.275 C 
ENDROOT
BRANCH   1   2
ATOM      2  C   UNL A   1      31.642  28.642  24.165  1.00  0.00     0.275 C 
BRANCH   2   3
ATOM      3  O   UNL A   1      32.966  28.082  23.999  1.00  0.00    -0.459 OA
BRANCH   3   4
ATOM      4  C   UNL A   1      33.141  26.950  24.731  1.00  0.00     0.338 C 
ATOM      5  O   UNL A   1      33.992  26.817  25.603  1.00  0.00    -0.246 OA
BRANCH   4   6
ATOM      6  C   UNL A   1      32.144  25.890  24.449  1.00  0.00     0.087 C 
ATOM      7  C   UNL A   1      33.145  21.946  24.370  1.00  0.00     0.026 A 
ATOM      8  C   UNL A   1      34.523  22.015  24.052  1.00  0.00     0.033 A 
ATOM      9  C   UNL A   1      32.475  23.162  24.237  1.00  0.00     0.135 A 
ATOM     10  C   UNL A   1      35.140  23.135  23.482  1.00  0.00     0.042 A 
ATOM     11  C   UNL A   1      33.036  24.179  23.422  1.00  0.00     0.019 A 
ATOM     12  O   UNL A   1      31.384  23.545  25.009  1.00  0.00    -0.475 OA
ATOM     13  Cl  UNL A   1      36.836  23.312  23.298  1.00  0.00    -0.084 Cl
ATOM     14  C   UNL A   1      34.367  24.180  23.055  1.00  0.00     0.032 A 
ATOM     15  C   UNL A   1      32.258  25.411  23.201  1.00  0.00     0.027 C 
ATOM     16  C   UNL A   1      31.529  24.969  25.490  1.00  0.00     0.316 C 
BRANCH   7  17
ATOM     17  C   UNL A   1      32.604  20.555  24.537  1.00  0.00    -0.015 A 
ATOM     18  C   UNL A   1      32.739  17.674  24.583  1.00  0.00    -0.048 A 
ATOM     19  C   UNL A   1      32.759  18.420  25.765  1.00  0.00     0.004 A 
ATOM     20  C   UNL A   1      32.525  18.370  23.391  1.00  0.00     0.004 A 
ATOM     21  C   UNL A   1      32.646  19.834  25.741  1.00  0.00     0.009 A 
ATOM     22  C   UNL A   1      32.463  19.777  23.370  1.00  0.00     0.009 A 
BRANCH  18  23
ATOM     23  C   UNL A   1      33.149  16.215  24.543  1.00  0.00     0.032 C 
ATOM     24  C   UNL A   1      34.535  15.830  25.036  1.00  0.00     0.009 C 
ENDBRANCH  18  23
ENDBRANCH   7  17
BRANCH  16  25
ATOM     25  C   UNL A   1      30.160  25.576  25.810  1.00  0.00     0.430 C 
ATOM     26  F   UNL A   1      30.271  26.726  26.519  1.00  0.00    -0.167 F 
ATOM     27  F   UNL A   1      29.438  25.843  24.702  1.00  0.00    -0.167 F 
ATOM     28  F   UNL A   1      29.417  24.724  26.567  1.00  0.00    -0.167 F 
ENDBRANCH  16  25
ENDBRANCH   4   6
ENDBRANCH   3   4
ENDBRANCH   2   3
ENDBRANCH   1   2
BRANCH   1  29
ATOM     29  O   UNL A   1      32.913  30.142  25.645  1.00  0.00    -0.458 OA
BRANCH  29  30
ATOM     30  C   UNL A   1      32.910  30.988  26.703  1.00  0.00     0.338 C 
ATOM     31  O   UNL A   1      31.933  31.614  27.106  1.00  0.00    -0.246 OA
BRANCH  30  32
ATOM     32  C   UNL A   1      34.212  30.997  27.422  1.00  0.00     0.060 A 
ATOM     33  C   UNL A   1      34.688  29.763  27.853  1.00  0.00     0.016 A 
ATOM     34  C   UNL A   1      34.979  32.140  27.695  1.00  0.00     0.016 A 
ATOM     35  C   UNL A   1      35.932  29.675  28.482  1.00  0.00     0.010 A 
ATOM     36  C   UNL A   1      36.256  32.031  28.313  1.00  0.00     0.010 A 
ATOM     37  C   UNL A   1      36.779  30.784  28.673  1.00  0.00    -0.014 A 
BRANCH  37  38
ATOM     38  C   UNL A   1      38.133  30.512  29.297  1.00  0.00     0.031 A 
ATOM     39  C   UNL A   1      38.324  30.880  30.739  1.00  0.00     0.074 A 
ATOM     40  C   UNL A   1      39.120  29.774  28.731  1.00  0.00     0.049 A 
ATOM     41  N   UNL A   1      39.206  30.441  31.598  1.00  0.00    -0.248 NA
ATOM     42  C   UNL A   1      37.379  31.867  31.278  1.00  0.00     0.031 C 
ATOM     43  C   UNL A   1      39.138  29.312  27.360  1.00  0.00     0.029 A 
ATOM     44  N   UNL A   1      40.250  29.174  29.270  1.00  0.00    -0.354 N 
ATOM     45  C   UNL A   1      38.946  31.120  32.775  1.00  0.00     0.074 A 
ATOM     46  C   UNL A   1      37.787  31.959  32.533  1.00  0.00     0.031 C 
ATOM     47  C   UNL A   1      40.041  28.329  27.216  1.00  0.00     0.029 A 
ATOM     48  C   UNL A   1      40.813  28.209  28.447  1.00  0.00     0.049 A 
ATOM     49  H   UNL A   1      40.617  29.412  30.152  1.00  0.00     0.167 HD
ATOM     50  C   UNL A   1      39.623  31.088  33.945  1.00  0.00     0.034 A 
ATOM     51  C   UNL A   1      41.821  27.323  28.640  1.00  0.00     0.034 A 
ATOM     52  C   UNL A   1      40.820  30.335  34.199  1.00  0.00     0.049 A 
ATOM     53  C   UNL A   1      42.621  27.359  29.919  1.00  0.00     0.074 A 
ATOM     54  C   UNL A   1      41.539  30.262  35.378  1.00  0.00     0.029 A 
ATOM     55  N   UNL A   1      41.509  29.575  33.267  1.00  0.00    -0.354 N 
ATOM     56  N   UNL A   1      42.434  28.094  30.986  1.00  0.00    -0.248 NA
ATOM     57  C   UNL A   1      43.761  26.431  30.033  1.00  0.00     0.031 C 
ATOM     58  C   UNL A   1      42.687  29.495  35.149  1.00  0.00     0.029 A 
ATOM     59  C   UNL A   1      42.634  29.011  33.853  1.00  0.00     0.049 A 
ATOM     60  H   UNL A   1      41.240  29.453  32.328  1.00  0.00     0.167 HD
ATOM     61  C   UNL A   1      43.372  27.669  31.920  1.00  0.00     0.074 A 
ATOM     62  C   UNL A   1      44.162  26.640  31.280  1.00  0.00     0.031 C 
ATOM     63  C   UNL A   1      43.513  28.064  33.209  1.00  0.00     0.034 A 
BRANCH  50  64
ATOM     64  C   UNL A   1      39.104  31.996  35.022  1.00  0.00     0.023 A 
ATOM     65  C   UNL A   1      39.303  33.388  34.940  1.00  0.00     0.012 A 
ATOM     66  C   UNL A   1      38.462  31.444  36.145  1.00  0.00     0.148 A 
ATOM     67  C   UNL A   1      38.913  34.216  35.991  1.00  0.00     0.002 A 
ATOM     68  C   UNL A   1      38.036  32.280  37.166  1.00  0.00     0.091 A 
ATOM     69  F   UNL A   1      38.324  30.113  36.215  1.00  0.00    -0.205 F 
ATOM     70  C   UNL A   1      38.274  33.662  37.099  1.00  0.00     0.022 A 
BRANCH  68  71
ATOM     71  S   UNL A   1      37.155  31.655  38.597  1.00  0.00     0.127 S 
ATOM     72  O   UNL A   1      38.111  31.923  39.671  1.00  0.00    -0.237 OA
ATOM     73  O   UNL A   1      35.961  32.500  38.618  1.00  0.00    -0.237 OA
ATOM     74  O   UNL A   1      36.895  30.249  38.322  1.00  0.00    -0.744 OA
ENDBRANCH  68  71
ENDBRANCH  50  64
BRANCH  51  75
ATOM     75  C   UNL A   1      42.101  26.245  27.631  1.00  0.00     0.023 A 
ATOM     76  C   UNL A   1      43.056  26.475  26.616  1.00  0.00     0.012 A 
ATOM     77  C   UNL A   1      41.446  25.000  27.661  1.00  0.00     0.148 A 
ATOM     78  C   UNL A   1      43.341  25.502  25.653  1.00  0.00     0.002 A 
ATOM     79  C   UNL A   1      41.789  24.007  26.748  1.00  0.00     0.091 A 
ATOM     80  F   UNL A   1      40.496  24.804  28.586  1.00  0.00    -0.205 F 
ATOM     81  C   UNL A   1      42.722  24.260  25.732  1.00  0.00     0.022 A 
BRANCH  79  82
ATOM     82  S   UNL A   1      41.159  22.331  26.891  1.00  0.00     0.127 S 
ATOM     83  O   UNL A   1      41.757  21.891  28.148  1.00  0.00    -0.237 OA
ATOM     84  O   UNL A   1      39.712  22.550  26.940  1.00  0.00    -0.237 OA
ATOM     85  O   UNL A   1      41.616  21.645  25.690  1.00  0.00    -0.744 OA
ENDBRANCH  79  82
ENDBRANCH  51  75
BRANCH  63  86
ATOM     86  C   UNL A   1      44.605  27.420  34.034  1.00  0.00     0.023 A 
ATOM     87  C   UNL A   1      45.859  28.048  34.175  1.00  0.00     0.012 A 
ATOM     88  C   UNL A   1      44.367  26.208  34.715  1.00  0.00     0.148 A 
ATOM     89  C   UNL A   1      46.867  27.463  34.945  1.00  0.00     0.002 A 
ATOM     90  C   UNL A   1      45.354  25.663  35.531  1.00  0.00     0.091 A 
ATOM     91  F   UNL A   1      43.182  25.603  34.550  1.00  0.00    -0.205 F 
ATOM     92  C   UNL A   1      46.610  26.279  35.632  1.00  0.00     0.022 A 
BRANCH  90  93
ATOM     93  S   UNL A   1      45.078  24.201  36.537  1.00  0.00     0.127 S 
ATOM     94  O   UNL A   1      44.297  23.359  35.631  1.00  0.00    -0.237 OA
ATOM     95  O   UNL A   1      46.443  23.733  36.779  1.00  0.00    -0.237 OA
ATOM     96  O   UNL A   1      44.372  24.656  37.727  1.00  0.00    -0.744 OA
ENDBRANCH  90  93
ENDBRANCH  63  86
ENDBRANCH  37  38
ENDBRANCH  30  32
ENDBRANCH  29  30
ENDBRANCH   1  29
TORSDOF 17
ENDMDL
MODEL 2
REMARK VINA RESULT:     -13.6      5.202     10.179
REMARK SMILES CCc1ccc(-c2cc(Cl)cc3c2O[C@H](C(F)(F)F)C(C(=O)OCCOC(=O)c2ccc(-c4c5nc(c(-c6cccc(S(=O)(=O)[O-])c6F)c6ccc([nH]6)c(-c6cccc(S(=O)(=O)[O-])c6F)c6nc(c(-c7cccc(S(=O)(=O)[O-])c7F)c7ccc4[nH]7)C=C6)C=C5)cc2)=C3)cc1
REMARK SMILES IDX 25 1 24 2 23 3 21 4 22 5 20 6 7 7 8 8 13 9 9 10 12 11 14 12
REMARK SMILES IDX 10 13 11 14 92 15 15 16 6 17 3 18 4 19 94 20 5 21 93 22 2 23
REMARK SMILES IDX 1 24 16 25 17 26 18 27 19 28 26 29 27 30 28 31 29 32 30 33
REMARK SMILES IDX 91 34 31 35 90 36 32 37 33 38 34 39 84 40 35 41 89 42 83 43
REMARK SMILES IDX 85 44 36 45 88 46 82 47 81 48 37 50 69 51 49 52 68 53 50 54
REMARK SMILES IDX 53 55 67 56 86 57 51 58 52 59 66 61 87 62 54 63 38 64 39 65
REMARK SMILES IDX 47 66 40 67 42 68 48 69 41 70 43 71 44 72 45 73 46 74 70 75
REMARK SMILES IDX 71 76 79 77 72 78 74 79 80 80 73 81 75 82 76 83 77 84 78 85
REMARK SMILES IDX 55 86 56 87 64 88 57 89 59 90 65 91 58 92 60 93 61 94 62 95
REMARK SMILES IDX 63 96
REMARK H PARENT 85 49 53 60
REMARK Flexibility Score: inf
ROOT
ATOM      1  C   UNL A   1      36.858  21.132  24.792  1.00  0.00     0.275 C 
ENDROOT
BRANCH   1   2
ATOM      2  C   UNL A   1      35.337  21.307  24.843  1.00  0.00     0.275 C 
BRANCH   2   3
ATOM      3  O   UNL A   1      34.826  22.179  23.807  1.00  0.00    -0.459 OA
BRANCH   3   4
ATOM      4  C   UNL A   1      33.478  22.331  23.881  1.00  0.00     0.338 C 
ATOM      5  O   UNL A   1      32.668  21.566  23.370  1.00  0.00    -0.246 OA
BRANCH   4   6
ATOM      6  C   UNL A   1      33.045  23.472  24.723  1.00  0.00     0.087 C 
ATOM      7  C   UNL A   1      30.866  26.564  23.219  1.00  0.00     0.026 A 
ATOM      8  C   UNL A   1      31.228  26.519  21.850  1.00  0.00     0.033 A 
ATOM      9  C   UNL A   1      31.649  25.747  24.035  1.00  0.00     0.135 A 
ATOM     10  C   UNL A   1      32.370  25.873  21.363  1.00  0.00     0.042 A 
ATOM     11  C   UNL A   1      32.928  25.332  23.581  1.00  0.00     0.019 A 
ATOM     12  O   UNL A   1      31.194  25.128  25.193  1.00  0.00    -0.475 OA
ATOM     13  Cl  UNL A   1      32.701  25.623  19.698  1.00  0.00    -0.084 Cl
ATOM     14  C   UNL A   1      33.288  25.377  22.249  1.00  0.00     0.032 A 
ATOM     15  C   UNL A   1      33.787  24.568  24.503  1.00  0.00     0.027 C 
ATOM     16  C   UNL A   1      31.636  23.686  25.251  1.00  0.00     0.316 C 
BRANCH   7  17
ATOM     17  C   UNL A   1      29.898  27.652  23.580  1.00  0.00    -0.015 A 
ATOM     18  C   UNL A   1      28.324  30.026  23.121  1.00  0.00    -0.048 A 
ATOM     19  C   UNL A   1      27.751  28.753  23.065  1.00  0.00     0.004 A 
ATOM     20  C   UNL A   1      29.657  30.109  23.532  1.00  0.00     0.004 A 
ATOM     21  C   UNL A   1      28.517  27.591  23.336  1.00  0.00     0.009 A 
ATOM     22  C   UNL A   1      30.425  28.949  23.752  1.00  0.00     0.009 A 
BRANCH  18  23
ATOM     23  C   UNL A   1      27.631  31.250  22.556  1.00  0.00     0.032 C 
ATOM     24  C   UNL A   1      28.450  32.256  21.763  1.00  0.00     0.009 C 
ENDBRANCH  18  23
ENDBRANCH   7  17
BRANCH  16  25
ATOM     25  C   UNL A   1      31.665  23.184  26.698  1.00  0.00     0.430 C 
ATOM     26  F   UNL A   1      32.376  24.009  27.504  1.00  0.00    -0.167 F 
ATOM     27  F   UNL A   1      30.431  23.052  27.226  1.00  0.00    -0.167 F 
ATOM     28  F   UNL A   1      32.257  21.961  26.774  1.00  0.00    -0.167 F 
ENDBRANCH  16  25
ENDBRANCH   4   6
ENDBRANCH   3   4
ENDBRANCH   2   3
ENDBRANCH   1   2
BRANCH   1  29
ATOM     29  O   UNL A   1      37.535  22.119  25.593  1.00  0.00    -0.458 OA
BRANCH  29  30
ATOM     30  C   UNL A   1      38.757  21.734  26.034  1.00  0.00     0.338 C 
ATOM     31  O   UNL A   1      39.258  20.626  25.854  1.00  0.00    -0.246 OA
BRANCH  30  32
ATOM     32  C   UNL A   1      39.504  22.849  26.674  1.00  0.00     0.060 A 
ATOM     33  C   UNL A   1      39.144  24.136  26.287  1.00  0.00     0.016 A 
ATOM     34  C   UNL A   1      40.529  22.700  27.621  1.00  0.00     0.016 A 
ATOM     35  C   UNL A   1      39.753  25.242  26.885  1.00  0.00     0.010 A 
ATOM     36  C   UNL A   1      41.122  23.836  28.240  1.00  0.00     0.010 A 
ATOM     37  C   UNL A   1      40.705  25.133  27.916  1.00  0.00    -0.014 A 
BRANCH  37  38
ATOM     38  C   UNL A   1      41.213  26.427  28.520  1.00  0.00     0.031 A 
ATOM     39  C   UNL A   1      42.577  26.901  28.111  1.00  0.00     0.074 A 
ATOM     40  C   UNL A   1      40.463  27.304  29.232  1.00  0.00     0.049 A 
ATOM     41  N   UNL A   1      43.090  28.101  28.170  1.00  0.00    -0.248 NA
ATOM     42  C   UNL A   1      43.468  25.876  27.550  1.00  0.00     0.031 C 
ATOM     43  C   UNL A   1      39.125  27.054  29.724  1.00  0.00     0.029 A 
ATOM     44  N   UNL A   1      40.667  28.635  29.568  1.00  0.00    -0.354 N 
ATOM     45  C   UNL A   1      44.379  27.975  27.682  1.00  0.00     0.074 A 
ATOM     46  C   UNL A   1      44.548  26.591  27.281  1.00  0.00     0.031 C 
ATOM     47  C   UNL A   1      38.533  28.210  30.061  1.00  0.00     0.029 A 
ATOM     48  C   UNL A   1      39.516  29.286  29.988  1.00  0.00     0.049 A 
ATOM     49  H   UNL A   1      41.546  29.076  29.512  1.00  0.00     0.167 HD
ATOM     50  C   UNL A   1      45.356  28.907  27.605  1.00  0.00     0.034 A 
ATOM     51  C   UNL A   1      39.258  30.585  30.280  1.00  0.00     0.034 A 
ATOM     52  C   UNL A   1      45.256  30.264  28.066  1.00  0.00     0.049 A 
ATOM     53  C   UNL A   1      40.379  31.595  30.271  1.00  0.00     0.074 A 
ATOM     54  C   UNL A   1      46.221  31.254  27.999  1.00  0.00     0.029 A 
ATOM     55  N   UNL A   1      44.168  30.816  28.723  1.00  0.00    -0.354 N 
ATOM     56  N   UNL A   1      41.629  31.434  29.918  1.00  0.00    -0.248 NA
ATOM     57  C   UNL A   1      40.054  32.972  30.683  1.00  0.00     0.031 C 
ATOM     58  C   UNL A   1      45.734  32.390  28.655  1.00  0.00     0.029 A 
ATOM     59  C   UNL A   1      44.430  32.140  29.048  1.00  0.00     0.049 A 
ATOM     60  H   UNL A   1      43.332  30.338  28.930  1.00  0.00     0.167 HD
ATOM     61  C   UNL A   1      42.217  32.692  29.987  1.00  0.00     0.074 A 
ATOM     62  C   UNL A   1      41.199  33.604  30.462  1.00  0.00     0.031 C 
ATOM     63  C   UNL A   1      43.474  33.053  29.627  1.00  0.00     0.034 A 
BRANCH  50  64
ATOM     64  C   UNL A   1      46.673  28.427  27.068  1.00  0.00     0.023 A 
ATOM     65  C   UNL A   1      47.780  28.269  27.926  1.00  0.00     0.012 A 
ATOM     66  C   UNL A   1      46.814  28.185  25.690  1.00  0.00     0.148 A 
ATOM     67  C   UNL A   1      49.026  27.925  27.407  1.00  0.00     0.002 A 
ATOM     68  C   UNL A   1      48.047  27.797  25.188  1.00  0.00     0.091 A 
ATOM     69  F   UNL A   1      45.756  28.382  24.893  1.00  0.00    -0.205 F 
ATOM     70  C   UNL A   1      49.157  27.683  26.041  1.00  0.00     0.022 A 
BRANCH  68  71
ATOM     71  S   UNL A   1      48.286  27.410  23.454  1.00  0.00     0.127 S 
ATOM     72  O   UNL A   1      49.679  27.806  23.254  1.00  0.00    -0.237 OA
ATOM     73  O   UNL A   1      48.051  25.966  23.425  1.00  0.00    -0.237 OA
ATOM     74  O   UNL A   1      47.298  28.197  22.730  1.00  0.00    -0.744 OA
ENDBRANCH  68  71
ENDBRANCH  50  64
BRANCH  51  75
ATOM     75  C   UNL A   1      37.852  31.053  30.528  1.00  0.00     0.023 A 
ATOM     76  C   UNL A   1      37.371  31.131  31.855  1.00  0.00     0.012 A 
ATOM     77  C   UNL A   1      36.988  31.424  29.483  1.00  0.00     0.148 A 
ATOM     78  C   UNL A   1      36.068  31.554  32.130  1.00  0.00     0.002 A 
ATOM     79  C   UNL A   1      35.718  31.919  29.766  1.00  0.00     0.091 A 
ATOM     80  F   UNL A   1      37.423  31.291  28.222  1.00  0.00    -0.205 F 
ATOM     81  C   UNL A   1      35.247  31.968  31.087  1.00  0.00     0.022 A 
BRANCH  79  82
ATOM     82  S   UNL A   1      34.670  32.627  28.490  1.00  0.00     0.127 S 
ATOM     83  O   UNL A   1      34.090  31.433  27.882  1.00  0.00    -0.237 OA
ATOM     84  O   UNL A   1      33.735  33.436  29.274  1.00  0.00    -0.237 OA
ATOM     85  O   UNL A   1      35.567  33.404  27.646  1.00  0.00    -0.744 OA
ENDBRANCH  79  82
ENDBRANCH  51  75
BRANCH  63  86
ATOM     86  C   UNL A   1      43.864  34.507  29.774  1.00  0.00     0.023 A 
ATOM     87  C   UNL A   1      44.406  34.983  30.984  1.00  0.00     0.012 A 
ATOM     88  C   UNL A   1      43.740  35.395  28.685  1.00  0.00     0.148 A 
ATOM     89  C   UNL A   1      44.779  36.322  31.121  1.00  0.00     0.002 A 
ATOM     90  C   UNL A   1      44.171  36.712  28.808  1.00  0.00     0.091 A 
ATOM     91  F   UNL A   1      43.196  34.940  27.547  1.00  0.00    -0.205 F 
ATOM     92  C   UNL A   1      44.674  37.181  30.031  1.00  0.00     0.022 A 
BRANCH  90  93
ATOM     93  S   UNL A   1      44.175  37.861  27.428  1.00  0.00     0.127 S 
ATOM     94  O   UNL A   1      45.323  37.394  26.654  1.00  0.00    -0.237 OA
ATOM     95  O   UNL A   1      42.875  37.601  26.809  1.00  0.00    -0.237 OA
ATOM     96  O   UNL A   1      44.315  39.190  28.009  1.00  0.00    -0.744 OA
ENDBRANCH  90  93
ENDBRANCH  63  86
ENDBRANCH  37  38
ENDBRANCH  30  32
ENDBRANCH  29  30
ENDBRANCH   1  29
TORSDOF 17
ENDMDL
MODEL 3
REMARK VINA RESULT:     -13.5      5.308     10.212
REMARK SMILES CCc1ccc(-c2cc(Cl)cc3c2O[C@H](C(F)(F)F)C(C(=O)OCCOC(=O)c2ccc(-c4c5nc(c(-c6cccc(S(=O)(=O)[O-])c6F)c6ccc([nH]6)c(-c6cccc(S(=O)(=O)[O-])c6F)c6nc(c(-c7cccc(S(=O)(=O)[O-])c7F)c7ccc4[nH]7)C=C6)C=C5)cc2)=C3)cc1
REMARK SMILES IDX 25 1 24 2 23 3 21 4 22 5 20 6 7 7 8 8 13 9 9 10 12 11 14 12
REMARK SMILES IDX 10 13 11 14 92 15 15 16 6 17 3 18 4 19 94 20 5 21 93 22 2 23
REMARK SMILES IDX 1 24 16 25 17 26 18 27 19 28 26 29 27 30 28 31 29 32 30 33
REMARK SMILES IDX 91 34 31 35 90 36 32 37 33 38 34 39 84 40 35 41 89 42 83 43
REMARK SMILES IDX 85 44 36 45 88 46 82 47 81 48 37 50 69 51 49 52 68 53 50 54
REMARK SMILES IDX 53 55 67 56 86 57 51 58 52 59 66 61 87 62 54 63 38 64 39 65
REMARK SMILES IDX 47 66 40 67 42 68 48 69 41 70 43 71 44 72 45 73 46 74 70 75
REMARK SMILES IDX 71 76 79 77 72 78 74 79 80 80 73 81 75 82 76 83 77 84 78 85
REMARK SMILES IDX 55 86 56 87 64 88 57 89 59 90 65 91 58 92 60 93 61 94 62 95
REMARK SMILES IDX 63 96
REMARK H PARENT 85 49 53 60
REMARK Flexibility Score: inf
ROOT
ATOM      1  C   UNL A   1      35.885  21.240  25.464  1.00  0.00     0.275 C 
ENDROOT
BRANCH   1   2
ATOM      2  C   UNL A   1      35.140  21.994  26.569  1.00  0.00     0.275 C 
BRANCH   2   3
ATOM      3  O   UNL A   1      33.795  22.377  26.193  1.00  0.00    -0.459 OA
BRANCH   3   4
ATOM      4  C   UNL A   1      33.749  23.616  25.637  1.00  0.00     0.338 C 
ATOM      5  O   UNL A   1      34.536  24.519  25.897  1.00  0.00    -0.246 OA
BRANCH   4   6
ATOM      6  C   UNL A   1      32.702  23.773  24.600  1.00  0.00     0.087 C 
ATOM      7  C   UNL A   1      30.811  27.319  23.954  1.00  0.00     0.026 A 
ATOM      8  C   UNL A   1      30.950  27.942  25.218  1.00  0.00     0.033 A 
ATOM      9  C   UNL A   1      31.174  25.972  23.948  1.00  0.00     0.135 A 
ATOM     10  C   UNL A   1      31.242  27.255  26.402  1.00  0.00     0.042 A 
ATOM     11  C   UNL A   1      31.199  25.254  25.172  1.00  0.00     0.019 A 
ATOM     12  O   UNL A   1      31.715  25.310  22.853  1.00  0.00    -0.475 OA
ATOM     13  Cl  UNL A   1      31.630  28.018  27.889  1.00  0.00    -0.084 Cl
ATOM     14  C   UNL A   1      31.250  25.886  26.397  1.00  0.00     0.032 A 
ATOM     15  C   UNL A   1      31.470  23.806  25.130  1.00  0.00     0.027 C 
ATOM     16  C   UNL A   1      32.895  24.460  23.258  1.00  0.00     0.316 C 
BRANCH   7  17
ATOM     17  C   UNL A   1      30.070  28.128  22.930  1.00  0.00    -0.015 A 
ATOM     18  C   UNL A   1      28.588  30.401  21.949  1.00  0.00    -0.048 A 
ATOM     19  C   UNL A   1      29.951  30.249  21.674  1.00  0.00     0.004 A 
ATOM     20  C   UNL A   1      27.948  29.348  22.606  1.00  0.00     0.004 A 
ATOM     21  C   UNL A   1      30.665  29.108  22.119  1.00  0.00     0.009 A 
ATOM     22  C   UNL A   1      28.674  28.241  23.088  1.00  0.00     0.009 A 
BRANCH  18  23
ATOM     23  C   UNL A   1      27.867  31.720  21.755  1.00  0.00     0.032 C 
ATOM     24  C   UNL A   1      27.850  32.349  20.370  1.00  0.00     0.009 C 
ENDBRANCH  18  23
ENDBRANCH   7  17
BRANCH  16  25
ATOM     25  C   UNL A   1      33.119  23.326  22.251  1.00  0.00     0.430 C 
ATOM     26  F   UNL A   1      34.347  22.770  22.384  1.00  0.00    -0.167 F 
ATOM     27  F   UNL A   1      32.204  22.342  22.367  1.00  0.00    -0.167 F 
ATOM     28  F   UNL A   1      33.037  23.789  20.975  1.00  0.00    -0.167 F 
ENDBRANCH  16  25
ENDBRANCH   4   6
ENDBRANCH   3   4
ENDBRANCH   2   3
ENDBRANCH   1   2
BRANCH   1  29
ATOM     29  O   UNL A   1      37.099  21.916  25.082  1.00  0.00    -0.458 OA
BRANCH  29  30
ATOM     30  C   UNL A   1      38.225  21.379  25.612  1.00  0.00     0.338 C 
ATOM     31  O   UNL A   1      38.559  20.200  25.519  1.00  0.00    -0.246 OA
BRANCH  30  32
ATOM     32  C   UNL A   1      39.102  22.407  26.234  1.00  0.00     0.060 A 
ATOM     33  C   UNL A   1      38.824  23.732  25.913  1.00  0.00     0.016 A 
ATOM     34  C   UNL A   1      40.171  22.141  27.102  1.00  0.00     0.016 A 
ATOM     35  C   UNL A   1      39.559  24.763  26.502  1.00  0.00     0.010 A 
ATOM     36  C   UNL A   1      40.895  23.203  27.714  1.00  0.00     0.010 A 
ATOM     37  C   UNL A   1      40.566  24.540  27.462  1.00  0.00    -0.014 A 
BRANCH  37  38
ATOM     38  C   UNL A   1      41.217  25.766  28.070  1.00  0.00     0.031 A 
ATOM     39  C   UNL A   1      42.554  26.185  27.533  1.00  0.00     0.074 A 
ATOM     40  C   UNL A   1      40.606  26.641  28.906  1.00  0.00     0.049 A 
ATOM     41  N   UNL A   1      43.145  27.349  27.594  1.00  0.00    -0.248 NA
ATOM     42  C   UNL A   1      43.312  25.146  26.822  1.00  0.00     0.031 C 
ATOM     43  C   UNL A   1      39.318  26.438  29.535  1.00  0.00     0.029 A 
ATOM     44  N   UNL A   1      40.929  27.936  29.285  1.00  0.00    -0.354 N 
ATOM     45  C   UNL A   1      44.361  27.180  26.957  1.00  0.00     0.074 A 
ATOM     46  C   UNL A   1      44.398  25.815  26.469  1.00  0.00     0.031 C 
ATOM     47  C   UNL A   1      38.841  27.604  29.996  1.00  0.00     0.029 A 
ATOM     48  C   UNL A   1      39.875  28.625  29.867  1.00  0.00     0.049 A 
ATOM     49  H   UNL A   1      41.822  28.329  29.153  1.00  0.00     0.167 HD
ATOM     50  C   UNL A   1      45.380  28.058  26.818  1.00  0.00     0.034 A 
ATOM     51  C   UNL A   1      39.732  29.918  30.253  1.00  0.00     0.034 A 
ATOM     52  C   UNL A   1      45.417  29.390  27.357  1.00  0.00     0.049 A 
ATOM     53  C   UNL A   1      40.907  30.862  30.169  1.00  0.00     0.074 A 
ATOM     54  C   UNL A   1      46.428  30.326  27.231  1.00  0.00     0.029 A 
ATOM     55  N   UNL A   1      44.444  29.962  28.161  1.00  0.00    -0.354 N 
ATOM     56  N   UNL A   1      42.097  30.652  29.667  1.00  0.00    -0.248 NA
ATOM     57  C   UNL A   1      40.715  32.229  30.686  1.00  0.00     0.031 C 
ATOM     58  C   UNL A   1      46.088  31.448  27.996  1.00  0.00     0.029 A 
ATOM     59  C   UNL A   1      44.823  31.249  28.521  1.00  0.00     0.049 A 
ATOM     60  H   UNL A   1      43.609  29.522  28.437  1.00  0.00     0.167 HD
ATOM     61  C   UNL A   1      42.767  31.868  29.733  1.00  0.00     0.074 A 
ATOM     62  C   UNL A   1      41.866  32.807  30.368  1.00  0.00     0.031 C 
ATOM     63  C   UNL A   1      43.995  32.179  29.252  1.00  0.00     0.034 A 
BRANCH  50  64
ATOM     64  C   UNL A   1      46.597  27.537  26.110  1.00  0.00     0.023 A 
ATOM     65  C   UNL A   1      46.703  27.633  24.708  1.00  0.00     0.012 A 
ATOM     66  C   UNL A   1      47.611  26.901  26.848  1.00  0.00     0.148 A 
ATOM     67  C   UNL A   1      47.784  27.054  24.046  1.00  0.00     0.002 A 
ATOM     68  C   UNL A   1      48.706  26.369  26.185  1.00  0.00     0.091 A 
ATOM     69  F   UNL A   1      47.462  26.789  28.175  1.00  0.00    -0.205 F 
ATOM     70  C   UNL A   1      48.787  26.430  24.785  1.00  0.00     0.022 A 
BRANCH  68  71
ATOM     71  S   UNL A   1      50.066  25.602  27.066  1.00  0.00     0.127 S 
ATOM     72  O   UNL A   1      50.376  26.618  28.071  1.00  0.00    -0.237 OA
ATOM     73  O   UNL A   1      49.445  24.388  27.596  1.00  0.00    -0.237 OA
ATOM     74  O   UNL A   1      51.102  25.365  26.070  1.00  0.00    -0.744 OA
ENDBRANCH  68  71
ENDBRANCH  50  64
BRANCH  51  75
ATOM     75  C   UNL A   1      38.394  30.448  30.684  1.00  0.00     0.023 A 
ATOM     76  C   UNL A   1      38.034  30.396  32.049  1.00  0.00     0.012 A 
ATOM     77  C   UNL A   1      37.478  31.005  29.774  1.00  0.00     0.148 A 
ATOM     78  C   UNL A   1      36.797  30.872  32.492  1.00  0.00     0.002 A 
ATOM     79  C   UNL A   1      36.280  31.549  30.230  1.00  0.00     0.091 A 
ATOM     80  F   UNL A   1      37.794  30.999  28.471  1.00  0.00    -0.205 F 
ATOM     81  C   UNL A   1      35.928  31.467  31.585  1.00  0.00     0.022 A 
BRANCH  79  82
ATOM     82  S   UNL A   1      35.190  32.480  29.148  1.00  0.00     0.127 S 
ATOM     83  O   UNL A   1      34.198  32.993  30.089  1.00  0.00    -0.237 OA
ATOM     84  O   UNL A   1      36.095  33.490  28.595  1.00  0.00    -0.237 OA
ATOM     85  O   UNL A   1      34.706  31.516  28.170  1.00  0.00    -0.744 OA
ENDBRANCH  79  82
ENDBRANCH  51  75
BRANCH  63  86
ATOM     86  C   UNL A   1      44.489  33.597  29.428  1.00  0.00     0.023 A 
ATOM     87  C   UNL A   1      45.165  33.978  30.605  1.00  0.00     0.012 A 
ATOM     88  C   UNL A   1      44.328  34.545  28.396  1.00  0.00     0.148 A 
ATOM     89  C   UNL A   1      45.633  35.284  30.768  1.00  0.00     0.002 A 
ATOM     90  C   UNL A   1      44.852  35.825  28.539  1.00  0.00     0.091 A 
ATOM     91  F   UNL A   1      43.659  34.182  27.293  1.00  0.00    -0.205 F 
ATOM     92  C   UNL A   1      45.489  36.202  29.731  1.00  0.00     0.022 A 
BRANCH  90  93
ATOM     93  S   UNL A   1      44.809  37.041  27.217  1.00  0.00     0.127 S 
ATOM     94  O   UNL A   1      43.431  36.920  26.746  1.00  0.00    -0.237 OA
ATOM     95  O   UNL A   1      45.101  38.283  27.934  1.00  0.00    -0.237 OA
ATOM     96  O   UNL A   1      45.832  36.637  26.262  1.00  0.00    -0.744 OA
ENDBRANCH  90  93
ENDBRANCH  63  86
ENDBRANCH  37  38
ENDBRANCH  30  32
ENDBRANCH  29  30
ENDBRANCH   1  29
TORSDOF 17
ENDMDL
