MODEL 1
REMARK VINA RESULT:     -13.8      0.000      0.000
REMARK SMILES Cc1ccc(C[C@@H](Cc2cc(F)cc(Br)c2)C(=O)OCCOC(=O)c2ccc(-c3c4nc(c(-c5cccc(S(=O)(=O)[O-])c5F)c5ccc([nH]5)c(-c5cccc(S(=O)(=O)[O-])c5F)c5nc(c(-c6cccc(S(=O)(=O)[O-])c6F)c6ccc3[nH]6)C=C5)C=C4)cc2)cc1
REMARK SMILES IDX 21 1 20 2 19 3 17 4 18 5 7 6 6 7 5 8 1 9 2 10 3 11 89 12
REMARK SMILES IDX 4 13 88 14 8 15 9 16 10 17 16 18 11 19 14 20 12 21 13 22
REMARK SMILES IDX 15 23 22 24 23 25 24 26 25 27 26 28 87 29 27 30 86 31 28 32
REMARK SMILES IDX 29 33 30 34 80 35 31 36 85 37 79 38 81 39 32 40 84 41 78 42
REMARK SMILES IDX 77 43 33 45 65 46 45 47 64 48 46 49 49 50 63 51 82 52 47 53
REMARK SMILES IDX 48 54 62 56 83 57 50 58 34 59 35 60 43 61 36 62 38 63 44 64
REMARK SMILES IDX 37 65 39 66 40 67 41 68 42 69 66 70 67 71 75 72 68 73 70 74
REMARK SMILES IDX 76 75 69 76 71 77 72 78 73 79 74 80 51 81 52 82 60 83 53 84
REMARK SMILES IDX 55 85 61 86 54 87 56 88 57 89 58 90 59 91
REMARK H PARENT 81 44 49 55
REMARK Flexibility Score: inf
ROOT
ATOM      1  C   UNL A   1      33.705  31.170  27.650  1.00  0.00     0.275 C 
ENDROOT
BRANCH   1   2
ATOM      2  C   UNL A   1      32.536  30.468  26.955  1.00  0.00     0.274 C 
BRANCH   2   3
ATOM      3  O   UNL A   1      32.725  29.080  27.098  1.00  0.00    -0.462 OA
BRANCH   3   4
ATOM      4  C   UNL A   1      32.612  28.275  25.885  1.00  0.00     0.309 C 
ATOM      5  O   UNL A   1      33.651  28.581  25.223  1.00  0.00    -0.252 OA
BRANCH   4   6
ATOM      6  C   UNL A   1      30.905  26.972  25.477  1.00  0.00     0.108 C 
BRANCH   6   7
ATOM      7  C   UNL A   1      29.843  26.762  24.041  1.00  0.00     0.051 C 
BRANCH   7   8
ATOM      8  C   UNL A   1      29.407  27.976  23.187  1.00  0.00    -0.047 A 
ATOM      9  C   UNL A   1      28.055  31.608  21.181  1.00  0.00     0.044 C 
ATOM     10  C   UNL A   1      28.511  30.356  21.874  1.00  0.00    -0.051 A 
ATOM     11  C   UNL A   1      29.851  29.972  21.821  1.00  0.00     0.004 A 
ATOM     12  C   UNL A   1      27.620  29.543  22.577  1.00  0.00     0.004 A 
ATOM     13  C   UNL A   1      30.295  28.814  22.484  1.00  0.00     0.004 A 
ATOM     14  C   UNL A   1      28.060  28.369  23.213  1.00  0.00     0.004 A 
ENDBRANCH   7   8
ENDBRANCH   6   7
BRANCH   6  15
ATOM     15  C   UNL A   1      30.820  25.176  25.760  1.00  0.00     0.051 C 
BRANCH  15  16
ATOM     16  C   UNL A   1      31.936  24.252  25.322  1.00  0.00    -0.043 A 
ATOM     17  C   UNL A   1      31.364  22.540  25.259  1.00  0.00     0.043 A 
ATOM     18  C   UNL A   1      33.780  24.596  25.524  1.00  0.00     0.019 A 
ATOM     19  C   UNL A   1      32.538  21.221  25.365  1.00  0.00     0.124 A 
ATOM     20  C   UNL A   1      34.942  23.237  25.533  1.00  0.00     0.021 A 
ATOM     21  F   UNL A   1      32.068  19.985  25.168  1.00  0.00    -0.207 F 
ATOM     22  C   UNL A   1      34.315  21.560  25.434  1.00  0.00     0.055 A 
ATOM     23  Br  UNL A   1      36.765  23.653  25.848  1.00  0.00    -0.051 Br
ENDBRANCH  15  16
ENDBRANCH   6  15
ENDBRANCH   4   6
ENDBRANCH   3   4
ENDBRANCH   2   3
ENDBRANCH   1   2
BRANCH   1  24
ATOM     24  O   UNL A   1      33.787  32.656  27.685  1.00  0.00    -0.458 OA
BRANCH  24  25
ATOM     25  C   UNL A   1      33.628  33.674  28.601  1.00  0.00     0.338 C 
ATOM     26  O   UNL A   1      32.603  34.345  28.608  1.00  0.00    -0.246 OA
BRANCH  25  27
ATOM     27  C   UNL A   1      34.742  34.051  29.554  1.00  0.00     0.060 A 
ATOM     28  C   UNL A   1      36.261  34.572  28.758  1.00  0.00     0.016 A 
ATOM     29  C   UNL A   1      34.783  32.943  30.914  1.00  0.00     0.016 A 
ATOM     30  C   UNL A   1      37.831  33.732  29.145  1.00  0.00     0.010 A 
ATOM     31  C   UNL A   1      36.319  32.197  31.401  1.00  0.00     0.010 A 
ATOM     32  C   UNL A   1      37.860  32.421  30.374  1.00  0.00    -0.014 A 
BRANCH  32  33
ATOM     33  C   UNL A   1      39.333  31.503  30.692  1.00  0.00     0.031 A 
ATOM     34  C   UNL A   1      39.654  29.559  29.821  1.00  0.00     0.074 A 
ATOM     35  C   UNL A   1      40.084  32.557  31.380  1.00  0.00     0.049 A 
ATOM     36  N   UNL A   1      40.293  28.443  30.243  1.00  0.00    -0.248 NA
ATOM     37  C   UNL A   1      39.051  28.877  28.371  1.00  0.00     0.031 C 
ATOM     38  C   UNL A   1      41.570  32.847  31.466  1.00  0.00     0.029 A 
ATOM     39  N   UNL A   1      39.693  33.094  32.642  1.00  0.00    -0.354 N 
ATOM     40  C   UNL A   1      40.624  27.575  29.238  1.00  0.00     0.074 A 
ATOM     41  C   UNL A   1      39.627  27.701  28.242  1.00  0.00     0.031 C 
ATOM     42  C   UNL A   1      41.972  33.044  32.723  1.00  0.00     0.029 A 
ATOM     43  C   UNL A   1      40.802  33.043  33.530  1.00  0.00     0.049 A 
ATOM     44  H   UNL A   1      38.800  33.443  32.861  1.00  0.00     0.167 HD
ATOM     45  C   UNL A   1      41.876  27.040  29.224  1.00  0.00     0.034 A 
ATOM     46  C   UNL A   1      40.809  32.691  34.837  1.00  0.00     0.034 A 
ATOM     47  C   UNL A   1      42.710  27.563  30.357  1.00  0.00     0.049 A 
ATOM     48  C   UNL A   1      41.578  31.380  35.064  1.00  0.00     0.074 A 
ATOM     49  C   UNL A   1      43.790  28.438  30.406  1.00  0.00     0.029 A 
ATOM     50  N   UNL A   1      42.284  27.449  31.692  1.00  0.00    -0.354 N 
ATOM     51  N   UNL A   1      42.133  30.625  34.130  1.00  0.00    -0.248 NA
ATOM     52  C   UNL A   1      41.823  30.849  36.406  1.00  0.00     0.031 C 
ATOM     53  C   UNL A   1      43.997  28.852  31.759  1.00  0.00     0.029 A 
ATOM     54  C   UNL A   1      43.031  28.264  32.560  1.00  0.00     0.049 A 
ATOM     55  H   UNL A   1      41.547  26.866  31.985  1.00  0.00     0.167 HD
ATOM     56  C   UNL A   1      42.537  29.419  34.695  1.00  0.00     0.074 A 
ATOM     57  C   UNL A   1      42.464  29.701  36.126  1.00  0.00     0.031 C 
ATOM     58  C   UNL A   1      42.819  28.239  34.020  1.00  0.00     0.034 A 
BRANCH  45  59
ATOM     59  C   UNL A   1      42.445  26.366  27.967  1.00  0.00     0.023 A 
ATOM     60  C   UNL A   1      41.795  25.204  27.514  1.00  0.00     0.012 A 
ATOM     61  C   UNL A   1      43.572  26.766  27.192  1.00  0.00     0.148 A 
ATOM     62  C   UNL A   1      42.268  24.443  26.436  1.00  0.00     0.002 A 
ATOM     63  C   UNL A   1      44.095  25.969  26.167  1.00  0.00     0.091 A 
ATOM     64  F   UNL A   1      44.092  27.988  27.330  1.00  0.00    -0.205 F 
ATOM     65  C   UNL A   1      43.437  24.804  25.783  1.00  0.00     0.022 A 
BRANCH  63  66
ATOM     66  S   UNL A   1      45.634  26.370  25.310  1.00  0.00     0.127 S 
ATOM     67  O   UNL A   1      46.579  26.522  26.419  1.00  0.00    -0.237 OA
ATOM     68  O   UNL A   1      45.853  25.184  24.487  1.00  0.00    -0.237 OA
ATOM     69  O   UNL A   1      45.383  27.608  24.580  1.00  0.00    -0.744 OA
ENDBRANCH  63  66
ENDBRANCH  45  59
BRANCH  46  70
ATOM     70  C   UNL A   1      39.626  33.300  35.515  1.00  0.00     0.023 A 
ATOM     71  C   UNL A   1      38.546  32.388  35.725  1.00  0.00     0.012 A 
ATOM     72  C   UNL A   1      39.800  34.347  36.423  1.00  0.00     0.148 A 
ATOM     73  C   UNL A   1      37.908  32.320  36.964  1.00  0.00     0.002 A 
ATOM     74  C   UNL A   1      39.100  34.316  37.632  1.00  0.00     0.091 A 
ATOM     75  F   UNL A   1      40.715  35.284  36.153  1.00  0.00    -0.205 F 
ATOM     76  C   UNL A   1      38.232  33.253  37.942  1.00  0.00     0.022 A 
BRANCH  74  77
ATOM     77  S   UNL A   1      39.437  35.568  38.877  1.00  0.00     0.127 S 
ATOM     78  O   UNL A   1      38.493  35.199  39.927  1.00  0.00    -0.237 OA
ATOM     79  O   UNL A   1      40.842  35.337  39.213  1.00  0.00    -0.237 OA
ATOM     80  O   UNL A   1      39.191  36.829  38.190  1.00  0.00    -0.744 OA
ENDBRANCH  74  77
ENDBRANCH  46  70
BRANCH  58  81
ATOM     81  C   UNL A   1      42.969  26.867  34.711  1.00  0.00     0.023 A 
ATOM     82  C   UNL A   1      41.871  26.100  35.151  1.00  0.00     0.012 A 
ATOM     83  C   UNL A   1      44.241  26.242  34.843  1.00  0.00     0.148 A 
ATOM     84  C   UNL A   1      42.027  24.874  35.810  1.00  0.00     0.002 A 
ATOM     85  C   UNL A   1      44.374  24.950  35.342  1.00  0.00     0.091 A 
ATOM     86  F   UNL A   1      45.359  26.908  34.528  1.00  0.00    -0.205 F 
ATOM     87  C   UNL A   1      43.279  24.286  35.888  1.00  0.00     0.022 A 
BRANCH  85  88
ATOM     88  S   UNL A   1      45.909  24.029  35.170  1.00  0.00     0.127 S 
ATOM     89  O   UNL A   1      46.192  24.181  33.744  1.00  0.00    -0.237 OA
ATOM     90  O   UNL A   1      46.812  24.770  36.053  1.00  0.00    -0.237 OA
ATOM     91  O   UNL A   1      45.610  22.678  35.624  1.00  0.00    -0.744 OA
ENDBRANCH  85  88
ENDBRANCH  58  81
ENDBRANCH  32  33
ENDBRANCH  25  27
ENDBRANCH  24  25
ENDBRANCH   1  24
TORSDOF 18
ENDMDL
MODEL 2
REMARK VINA RESULT:     -12.8      4.711     10.315
REMARK SMILES Cc1ccc(C[C@@H](Cc2cc(F)cc(Br)c2)C(=O)OCCOC(=O)c2ccc(-c3c4nc(c(-c5cccc(S(=O)(=O)[O-])c5F)c5ccc([nH]5)c(-c5cccc(S(=O)(=O)[O-])c5F)c5nc(c(-c6cccc(S(=O)(=O)[O-])c6F)c6ccc3[nH]6)C=C5)C=C4)cc2)cc1
REMARK SMILES IDX 21 1 20 2 19 3 17 4 18 5 7 6 6 7 5 8 1 9 2 10 3 11 89 12
REMARK SMILES IDX 4 13 88 14 8 15 9 16 10 17 16 18 11 19 14 20 12 21 13 22
REMARK SMILES IDX 15 23 22 24 23 25 24 26 25 27 26 28 87 29 27 30 86 31 28 32
REMARK SMILES IDX 29 33 30 34 80 35 31 36 85 37 79 38 81 39 32 40 84 41 78 42
REMARK SMILES IDX 77 43 33 45 65 46 45 47 64 48 46 49 49 50 63 51 82 52 47 53
REMARK SMILES IDX 48 54 62 56 83 57 50 58 34 59 35 60 43 61 36 62 38 63 44 64
REMARK SMILES IDX 37 65 39 66 40 67 41 68 42 69 66 70 67 71 75 72 68 73 70 74
REMARK SMILES IDX 76 75 69 76 71 77 72 78 73 79 74 80 51 81 52 82 60 83 53 84
REMARK SMILES IDX 55 85 61 86 54 87 56 88 57 89 58 90 59 91
REMARK H PARENT 81 44 49 55
REMARK Flexibility Score: inf
ROOT
ATOM      1  C   UNL A   1      34.399  29.273  27.247  1.00  0.00     0.275 C 
ENDROOT
BRANCH   1   2
ATOM      2  C   UNL A   1      33.655  28.251  26.384  1.00  0.00     0.274 C 
BRANCH   2   3
ATOM      3  O   UNL A   1      32.308  28.656  26.308  1.00  0.00    -0.462 OA
BRANCH   3   4
ATOM      4  C   UNL A   1      31.303  27.660  26.664  1.00  0.00     0.309 C 
ATOM      5  O   UNL A   1      31.136  27.832  27.911  1.00  0.00    -0.252 OA
BRANCH   4   6
ATOM      6  C   UNL A   1      30.477  26.237  25.225  1.00  0.00     0.108 C 
BRANCH   6   7
ATOM      7  C   UNL A   1      29.314  26.409  23.864  1.00  0.00     0.051 C 
BRANCH   7   8
ATOM      8  C   UNL A   1      29.101  27.773  23.165  1.00  0.00    -0.047 A 
ATOM      9  C   UNL A   1      28.417  31.798  21.622  1.00  0.00     0.044 C 
ATOM     10  C   UNL A   1      28.643  30.412  22.156  1.00  0.00    -0.051 A 
ATOM     11  C   UNL A   1      29.892  29.804  22.027  1.00  0.00     0.004 A 
ATOM     12  C   UNL A   1      27.622  29.694  22.782  1.00  0.00     0.004 A 
ATOM     13  C   UNL A   1      30.123  28.516  22.542  1.00  0.00     0.004 A 
ATOM     14  C   UNL A   1      27.847  28.394  23.269  1.00  0.00     0.004 A 
ENDBRANCH   7   8
ENDBRANCH   6   7
BRANCH   6  15
ATOM     15  C   UNL A   1      31.414  25.037  24.227  1.00  0.00     0.051 C 
BRANCH  15  16
ATOM     16  C   UNL A   1      32.278  23.975  24.871  1.00  0.00    -0.043 A 
ATOM     17  C   UNL A   1      33.908  24.637  25.284  1.00  0.00     0.043 A 
ATOM     18  C   UNL A   1      32.078  22.114  24.635  1.00  0.00     0.019 A 
ATOM     19  C   UNL A   1      35.276  23.533  25.481  1.00  0.00     0.124 A 
ATOM     20  C   UNL A   1      33.464  21.026  24.934  1.00  0.00     0.021 A 
ATOM     21  F   UNL A   1      36.417  24.069  25.926  1.00  0.00    -0.207 F 
ATOM     22  C   UNL A   1      35.049  21.741  25.375  1.00  0.00     0.055 A 
ATOM     23  Br  UNL A   1      33.215  19.181  24.573  1.00  0.00    -0.051 Br
ENDBRANCH  15  16
ENDBRANCH   6  15
ENDBRANCH   4   6
ENDBRANCH   3   4
ENDBRANCH   2   3
ENDBRANCH   1   2
BRANCH   1  24
ATOM     24  O   UNL A   1      35.881  29.395  27.172  1.00  0.00    -0.458 OA
BRANCH  24  25
ATOM     25  C   UNL A   1      36.913  29.884  27.944  1.00  0.00     0.338 C 
ATOM     26  O   UNL A   1      38.078  29.666  27.630  1.00  0.00    -0.246 OA
BRANCH  25  27
ATOM     27  C   UNL A   1      36.643  30.616  29.240  1.00  0.00     0.060 A 
ATOM     28  C   UNL A   1      36.917  32.386  29.171  1.00  0.00     0.016 A 
ATOM     29  C   UNL A   1      37.224  29.677  30.604  1.00  0.00     0.016 A 
ATOM     30  C   UNL A   1      38.058  33.181  30.348  1.00  0.00     0.010 A 
ATOM     31  C   UNL A   1      38.239  30.448  31.841  1.00  0.00     0.010 A 
ATOM     32  C   UNL A   1      38.857  32.193  31.619  1.00  0.00    -0.014 A 
BRANCH  32  33
ATOM     33  C   UNL A   1      40.057  32.902  32.702  1.00  0.00     0.031 A 
ATOM     34  C   UNL A   1      39.477  33.904  34.518  1.00  0.00     0.074 A 
ATOM     35  C   UNL A   1      41.256  32.350  32.064  1.00  0.00     0.049 A 
ATOM     36  N   UNL A   1      39.986  34.952  35.208  1.00  0.00    -0.248 NA
ATOM     37  C   UNL A   1      38.100  33.694  35.514  1.00  0.00     0.031 C 
ATOM     38  C   UNL A   1      42.608  31.955  32.626  1.00  0.00     0.029 A 
ATOM     39  N   UNL A   1      41.674  32.711  30.750  1.00  0.00    -0.354 N 
ATOM     40  C   UNL A   1      39.576  35.014  36.512  1.00  0.00     0.074 A 
ATOM     41  C   UNL A   1      38.268  34.477  36.557  1.00  0.00     0.031 C 
ATOM     42  C   UNL A   1      43.616  32.471  31.921  1.00  0.00     0.029 A 
ATOM     43  C   UNL A   1      43.037  33.109  30.790  1.00  0.00     0.049 A 
ATOM     44  H   UNL A   1      41.108  32.687  29.945  1.00  0.00     0.167 HD
ATOM     45  C   UNL A   1      40.506  35.254  37.478  1.00  0.00     0.034 A 
ATOM     46  C   UNL A   1      43.622  34.151  30.153  1.00  0.00     0.034 A 
ATOM     47  C   UNL A   1      41.884  35.375  36.895  1.00  0.00     0.049 A 
ATOM     48  C   UNL A   1      44.102  35.221  31.145  1.00  0.00     0.074 A 
ATOM     49  C   UNL A   1      43.001  34.548  36.940  1.00  0.00     0.029 A 
ATOM     50  N   UNL A   1      42.170  36.305  35.880  1.00  0.00    -0.354 N 
ATOM     51  N   UNL A   1      43.939  35.202  32.458  1.00  0.00    -0.248 NA
ATOM     52  C   UNL A   1      44.866  36.392  30.711  1.00  0.00     0.031 C 
ATOM     53  C   UNL A   1      43.940  34.975  35.949  1.00  0.00     0.029 A 
ATOM     54  C   UNL A   1      43.405  36.050  35.258  1.00  0.00     0.049 A 
ATOM     55  H   UNL A   1      41.574  37.048  35.632  1.00  0.00     0.167 HD
ATOM     56  C   UNL A   1      44.304  36.439  32.984  1.00  0.00     0.074 A 
ATOM     57  C   UNL A   1      45.019  37.056  31.869  1.00  0.00     0.031 C 
ATOM     58  C   UNL A   1      43.952  36.950  34.225  1.00  0.00     0.034 A 
BRANCH  45  59
ATOM     59  C   UNL A   1      40.211  34.980  38.960  1.00  0.00     0.023 A 
ATOM     60  C   UNL A   1      39.997  36.098  39.787  1.00  0.00     0.012 A 
ATOM     61  C   UNL A   1      40.135  33.719  39.620  1.00  0.00     0.148 A 
ATOM     62  C   UNL A   1      39.811  35.991  41.172  1.00  0.00     0.002 A 
ATOM     63  C   UNL A   1      40.031  33.611  41.012  1.00  0.00     0.091 A 
ATOM     64  F   UNL A   1      40.027  32.591  38.917  1.00  0.00    -0.205 F 
ATOM     65  C   UNL A   1      39.863  34.751  41.792  1.00  0.00     0.022 A 
BRANCH  63  66
ATOM     66  S   UNL A   1      40.131  32.026  41.874  1.00  0.00     0.127 S 
ATOM     67  O   UNL A   1      40.164  32.436  43.279  1.00  0.00    -0.237 OA
ATOM     68  O   UNL A   1      38.894  31.367  41.464  1.00  0.00    -0.237 OA
ATOM     69  O   UNL A   1      41.364  31.393  41.419  1.00  0.00    -0.744 OA
ENDBRANCH  63  66
ENDBRANCH  45  59
BRANCH  46  70
ATOM     70  C   UNL A   1      43.098  34.227  28.756  1.00  0.00     0.023 A 
ATOM     71  C   UNL A   1      42.415  35.448  28.462  1.00  0.00     0.012 A 
ATOM     72  C   UNL A   1      43.764  33.570  27.720  1.00  0.00     0.148 A 
ATOM     73  C   UNL A   1      42.689  36.146  27.284  1.00  0.00     0.002 A 
ATOM     74  C   UNL A   1      43.970  34.243  26.514  1.00  0.00     0.091 A 
ATOM     75  F   UNL A   1      44.280  32.358  27.958  1.00  0.00    -0.205 F 
ATOM     76  C   UNL A   1      43.519  35.564  26.334  1.00  0.00     0.022 A 
BRANCH  74  77
ATOM     77  S   UNL A   1      44.966  33.471  25.232  1.00  0.00     0.127 S 
ATOM     78  O   UNL A   1      44.029  33.434  24.114  1.00  0.00    -0.237 OA
ATOM     79  O   UNL A   1      46.078  34.407  25.063  1.00  0.00    -0.237 OA
ATOM     80  O   UNL A   1      45.352  32.188  25.805  1.00  0.00    -0.744 OA
ENDBRANCH  74  77
ENDBRANCH  46  70
BRANCH  58  81
ATOM     81  C   UNL A   1      44.131  38.429  34.629  1.00  0.00     0.023 A 
ATOM     82  C   UNL A   1      44.895  38.839  35.740  1.00  0.00     0.012 A 
ATOM     83  C   UNL A   1      43.615  39.482  33.822  1.00  0.00     0.148 A 
ATOM     84  C   UNL A   1      45.016  40.184  36.114  1.00  0.00     0.002 A 
ATOM     85  C   UNL A   1      43.882  40.818  34.103  1.00  0.00     0.091 A 
ATOM     86  F   UNL A   1      42.811  39.211  32.785  1.00  0.00    -0.205 F 
ATOM     87  C   UNL A   1      44.527  41.178  35.283  1.00  0.00     0.022 A 
BRANCH  85  88
ATOM     88  S   UNL A   1      43.552  42.116  32.901  1.00  0.00     0.127 S 
ATOM     89  O   UNL A   1      42.091  42.127  32.865  1.00  0.00    -0.237 OA
ATOM     90  O   UNL A   1      44.155  43.287  33.541  1.00  0.00    -0.237 OA
ATOM     91  O   UNL A   1      44.221  41.697  31.677  1.00  0.00    -0.744 OA
ENDBRANCH  85  88
ENDBRANCH  58  81
ENDBRANCH  32  33
ENDBRANCH  25  27
ENDBRANCH  24  25
ENDBRANCH   1  24
TORSDOF 18
ENDMDL
MODEL 3
REMARK VINA RESULT:     -12.8      5.754      8.836
REMARK SMILES Cc1ccc(C[C@@H](Cc2cc(F)cc(Br)c2)C(=O)OCCOC(=O)c2ccc(-c3c4nc(c(-c5cccc(S(=O)(=O)[O-])c5F)c5ccc([nH]5)c(-c5cccc(S(=O)(=O)[O-])c5F)c5nc(c(-c6cccc(S(=O)(=O)[O-])c6F)c6ccc3[nH]6)C=C5)C=C4)cc2)cc1
REMARK SMILES IDX 21 1 20 2 19 3 17 4 18 5 7 6 6 7 5 8 1 9 2 10 3 11 89 12
REMARK SMILES IDX 4 13 88 14 8 15 9 16 10 17 16 18 11 19 14 20 12 21 13 22
REMARK SMILES IDX 15 23 22 24 23 25 24 26 25 27 26 28 87 29 27 30 86 31 28 32
REMARK SMILES IDX 29 33 30 34 80 35 31 36 85 37 79 38 81 39 32 40 84 41 78 42
REMARK SMILES IDX 77 43 33 45 65 46 45 47 64 48 46 49 49 50 63 51 82 52 47 53
REMARK SMILES IDX 48 54 62 56 83 57 50 58 34 59 35 60 43 61 36 62 38 63 44 64
REMARK SMILES IDX 37 65 39 66 40 67 41 68 42 69 66 70 67 71 75 72 68 73 70 74
REMARK SMILES IDX 76 75 69 76 71 77 72 78 73 79 74 80 51 81 52 82 60 83 53 84
REMARK SMILES IDX 55 85 61 86 54 87 56 88 57 89 58 90 59 91
REMARK H PARENT 81 44 49 55
REMARK Flexibility Score: inf
ROOT
ATOM      1  C   UNL A   1      37.617  23.823  25.817  1.00  0.00     0.275 C 
ENDROOT
BRANCH   1   2
ATOM      2  C   UNL A   1      37.657  22.300  25.676  1.00  0.00     0.274 C 
BRANCH   2   3
ATOM      3  O   UNL A   1      37.492  21.992  24.311  1.00  0.00    -0.462 OA
BRANCH   3   4
ATOM      4  C   UNL A   1      36.290  22.508  23.664  1.00  0.00     0.309 C 
ATOM      5  O   UNL A   1      36.739  23.222  22.716  1.00  0.00    -0.252 OA
BRANCH   4   6
ATOM      6  C   UNL A   1      34.273  22.083  24.393  1.00  0.00     0.108 C 
BRANCH   6   7
ATOM      7  C   UNL A   1      33.342  22.655  25.821  1.00  0.00     0.051 C 
BRANCH   7   8
ATOM      8  C   UNL A   1      33.111  24.165  26.070  1.00  0.00    -0.047 A 
ATOM      9  C   UNL A   1      32.514  28.481  26.306  1.00  0.00     0.044 C 
ATOM     10  C   UNL A   1      32.728  26.997  26.221  1.00  0.00    -0.051 A 
ATOM     11  C   UNL A   1      31.701  26.118  26.563  1.00  0.00     0.004 A 
ATOM     12  C   UNL A   1      33.950  26.457  25.814  1.00  0.00     0.004 A 
ATOM     13  C   UNL A   1      31.882  24.726  26.467  1.00  0.00     0.004 A 
ATOM     14  C   UNL A   1      34.139  25.065  25.748  1.00  0.00     0.004 A 
ENDBRANCH   7   8
ENDBRANCH   6   7
BRANCH   6  15
ATOM     15  C   UNL A   1      32.737  22.127  23.418  1.00  0.00     0.051 C 
BRANCH  15  16
ATOM     16  C   UNL A   1      32.152  23.432  22.920  1.00  0.00    -0.043 A 
ATOM     17  C   UNL A   1      33.458  24.546  22.356  1.00  0.00     0.043 A 
ATOM     18  C   UNL A   1      30.494  24.157  23.451  1.00  0.00     0.019 A 
ATOM     19  C   UNL A   1      33.153  26.287  22.289  1.00  0.00     0.124 A 
ATOM     20  C   UNL A   1      30.196  25.912  23.281  1.00  0.00     0.021 A 
ATOM     21  F   UNL A   1      34.106  27.039  21.729  1.00  0.00    -0.207 F 
ATOM     22  C   UNL A   1      31.520  26.962  22.682  1.00  0.00     0.055 A 
ATOM     23  Br  UNL A   1      28.546  26.581  23.935  1.00  0.00    -0.051 Br
ENDBRANCH  15  16
ENDBRANCH   6  15
ENDBRANCH   4   6
ENDBRANCH   3   4
ENDBRANCH   2   3
ENDBRANCH   1   2
BRANCH   1  24
ATOM     24  O   UNL A   1      38.093  24.483  27.064  1.00  0.00    -0.458 OA
BRANCH  24  25
ATOM     25  C   UNL A   1      39.279  24.940  27.598  1.00  0.00     0.338 C 
ATOM     26  O   UNL A   1      39.280  25.577  28.646  1.00  0.00    -0.246 OA
BRANCH  25  27
ATOM     27  C   UNL A   1      40.590  24.753  26.867  1.00  0.00     0.060 A 
ATOM     28  C   UNL A   1      41.638  23.459  27.531  1.00  0.00     0.016 A 
ATOM     29  C   UNL A   1      41.269  26.309  26.424  1.00  0.00     0.016 A 
ATOM     30  C   UNL A   1      43.347  23.836  28.039  1.00  0.00     0.010 A 
ATOM     31  C   UNL A   1      42.968  26.671  26.791  1.00  0.00     0.010 A 
ATOM     32  C   UNL A   1      43.997  25.496  27.812  1.00  0.00    -0.014 A 
BRANCH  32  33
ATOM     33  C   UNL A   1      45.604  25.933  28.398  1.00  0.00     0.031 A 
ATOM     34  C   UNL A   1      47.378  25.436  27.282  1.00  0.00     0.074 A 
ATOM     35  C   UNL A   1      45.187  26.790  29.512  1.00  0.00     0.049 A 
ATOM     36  N   UNL A   1      48.643  25.113  27.639  1.00  0.00    -0.248 NA
ATOM     37  C   UNL A   1      47.605  25.198  25.602  1.00  0.00     0.031 C 
ATOM     38  C   UNL A   1      45.839  27.999  30.154  1.00  0.00     0.029 A 
ATOM     39  N   UNL A   1      44.489  26.298  30.653  1.00  0.00    -0.354 N 
ATOM     40  C   UNL A   1      49.564  25.274  26.639  1.00  0.00     0.074 A 
ATOM     41  C   UNL A   1      48.895  25.016  25.419  1.00  0.00     0.031 C 
ATOM     42  C   UNL A   1      45.886  27.898  31.483  1.00  0.00     0.029 A 
ATOM     43  C   UNL A   1      45.168  26.721  31.828  1.00  0.00     0.049 A 
ATOM     44  H   UNL A   1      43.671  25.753  30.630  1.00  0.00     0.167 HD
ATOM     45  C   UNL A   1      50.741  25.895  26.930  1.00  0.00     0.034 A 
ATOM     46  C   UNL A   1      45.418  26.007  32.950  1.00  0.00     0.034 A 
ATOM     47  C   UNL A   1      50.788  26.339  28.363  1.00  0.00     0.049 A 
ATOM     48  C   UNL A   1      46.923  25.749  33.130  1.00  0.00     0.074 A 
ATOM     49  C   UNL A   1      50.729  27.592  28.963  1.00  0.00     0.029 A 
ATOM     50  N   UNL A   1      50.589  25.430  29.418  1.00  0.00    -0.354 N 
ATOM     51  N   UNL A   1      47.884  26.108  32.295  1.00  0.00    -0.248 NA
ATOM     52  C   UNL A   1      47.458  25.094  34.325  1.00  0.00     0.031 C 
ATOM     53  C   UNL A   1      50.483  27.430  30.363  1.00  0.00     0.029 A 
ATOM     54  C   UNL A   1      50.357  26.080  30.642  1.00  0.00     0.049 A 
ATOM     55  H   UNL A   1      50.609  24.452  29.310  1.00  0.00     0.167 HD
ATOM     56  C   UNL A   1      49.078  25.505  32.685  1.00  0.00     0.074 A 
ATOM     57  C   UNL A   1      48.769  25.036  34.032  1.00  0.00     0.031 C 
ATOM     58  C   UNL A   1      50.211  25.326  31.903  1.00  0.00     0.034 A 
BRANCH  45  59
ATOM     59  C   UNL A   1      51.655  26.440  25.823  1.00  0.00     0.023 A 
ATOM     60  C   UNL A   1      52.849  25.738  25.577  1.00  0.00     0.012 A 
ATOM     61  C   UNL A   1      51.452  27.588  25.004  1.00  0.00     0.148 A 
ATOM     62  C   UNL A   1      53.812  26.181  24.661  1.00  0.00     0.002 A 
ATOM     63  C   UNL A   1      52.444  28.079  24.147  1.00  0.00     0.091 A 
ATOM     64  F   UNL A   1      50.250  28.163  24.928  1.00  0.00    -0.205 F 
ATOM     65  C   UNL A   1      53.628  27.370  23.970  1.00  0.00     0.022 A 
BRANCH  63  66
ATOM     66  S   UNL A   1      52.273  29.640  23.254  1.00  0.00     0.127 S 
ATOM     67  O   UNL A   1      51.170  29.356  22.334  1.00  0.00    -0.237 OA
ATOM     68  O   UNL A   1      51.943  30.579  24.323  1.00  0.00    -0.237 OA
ATOM     69  O   UNL A   1      53.550  29.869  22.586  1.00  0.00    -0.744 OA
ENDBRANCH  63  66
ENDBRANCH  45  59
BRANCH  46  70
ATOM     70  C   UNL A   1      44.205  25.212  33.307  1.00  0.00     0.023 A 
ATOM     71  C   UNL A   1      44.404  23.797  33.250  1.00  0.00     0.012 A 
ATOM     72  C   UNL A   1      43.278  25.718  34.220  1.00  0.00     0.148 A 
ATOM     73  C   UNL A   1      43.966  22.979  34.292  1.00  0.00     0.002 A 
ATOM     74  C   UNL A   1      42.782  24.875  35.216  1.00  0.00     0.091 A 
ATOM     75  F   UNL A   1      42.984  27.022  34.177  1.00  0.00    -0.205 F 
ATOM     76  C   UNL A   1      43.201  23.535  35.311  1.00  0.00     0.022 A 
BRANCH  74  77
ATOM     77  S   UNL A   1      41.715  25.554  36.495  1.00  0.00     0.127 S 
ATOM     78  O   UNL A   1      41.121  26.695  35.806  1.00  0.00    -0.237 OA
ATOM     79  O   UNL A   1      40.785  24.459  36.771  1.00  0.00    -0.237 OA
ATOM     80  O   UNL A   1      42.622  25.853  37.594  1.00  0.00    -0.744 OA
ENDBRANCH  74  77
ENDBRANCH  46  70
BRANCH  58  81
ATOM     81  C   UNL A   1      51.382  24.396  32.285  1.00  0.00     0.023 A 
ATOM     82  C   UNL A   1      51.231  23.011  32.495  1.00  0.00     0.012 A 
ATOM     83  C   UNL A   1      52.720  24.879  32.337  1.00  0.00     0.148 A 
ATOM     84  C   UNL A   1      52.298  22.188  32.878  1.00  0.00     0.002 A 
ATOM     85  C   UNL A   1      53.798  24.025  32.549  1.00  0.00     0.091 A 
ATOM     86  F   UNL A   1      52.974  26.189  32.227  1.00  0.00    -0.205 F 
ATOM     87  C   UNL A   1      53.589  22.690  32.886  1.00  0.00     0.022 A 
BRANCH  85  88
ATOM     88  S   UNL A   1      55.491  24.557  32.252  1.00  0.00     0.127 S 
ATOM     89  O   UNL A   1      56.241  23.329  32.510  1.00  0.00    -0.237 OA
ATOM     90  O   UNL A   1      55.444  24.959  30.845  1.00  0.00    -0.237 OA
ATOM     91  O   UNL A   1      55.724  25.657  33.177  1.00  0.00    -0.744 OA
ENDBRANCH  85  88
ENDBRANCH  58  81
ENDBRANCH  32  33
ENDBRANCH  25  27
ENDBRANCH  24  25
ENDBRANCH   1  24
TORSDOF 18
ENDMDL
