MODEL 1
REMARK VINA RESULT:     -10.8      0.000      0.000
REMARK SMILES O=C(CC1(NS(=O)(=O)C[C@H]2CCCO2)CCC1)OCCOC(=O)c1ccc(-c2c3nc(c(-c4cccc(S(=O)(=O)[O-])c4F)c4ccc([nH]4)c(-c4cccc(S(=O)(=O)[O-])c4F)c4nc(c(-c5cccc(S(=O)(=O)[O-])c5F)c5ccc2[nH]5)C=C4)C=C3)cc1
REMARK SMILES IDX 19 1 18 2 2 3 1 4 3 5 4 6 15 7 17 8 16 9 5 10 6 12 7 13 8 14
REMARK SMILES IDX 9 15 10 16 11 17 14 18 12 19 13 20 20 21 21 22 22 23 23 24
REMARK SMILES IDX 24 25 25 26 86 27 26 28 85 29 27 30 28 31 29 32 79 33 30 34
REMARK SMILES IDX 84 35 78 36 80 37 31 38 83 39 77 40 76 41 32 43 64 44 44 45
REMARK SMILES IDX 63 46 45 47 48 48 62 49 81 50 46 51 47 52 61 54 82 55 49 56
REMARK SMILES IDX 33 57 34 58 42 59 35 60 37 61 43 62 36 63 38 64 39 65 40 66
REMARK SMILES IDX 41 67 65 68 66 69 74 70 67 71 69 72 75 73 68 74 70 75 71 76
REMARK SMILES IDX 72 77 73 78 50 79 51 80 59 81 52 82 54 83 60 84 53 85 55 86
REMARK SMILES IDX 56 87 57 88 58 89
REMARK H PARENT 5 11 80 42 48 53
REMARK Flexibility Score: inf
ROOT
ATOM      1  C   UNL A   1      31.851  29.658  25.018  1.00  0.00     0.274 C 
ENDROOT
BRANCH   1   2
ATOM      2  O   UNL A   1      30.918  28.580  24.751  1.00  0.00    -0.462 OA
BRANCH   2   3
ATOM      3  C   UNL A   1      31.063  27.714  23.717  1.00  0.00     0.307 C 
ATOM      4  O   UNL A   1      30.810  28.055  22.566  1.00  0.00    -0.252 OA
BRANCH   3   5
ATOM      5  C   UNL A   1      31.345  26.295  24.075  1.00  0.00     0.146 C 
BRANCH   5   6
ATOM      6  C   UNL A   1      32.768  25.844  24.404  1.00  0.00     0.043 C 
ATOM      7  C   UNL A   1      33.917  26.895  24.409  1.00  0.00     0.024 C 
ATOM      8  C   UNL A   1      32.969  25.733  25.967  1.00  0.00     0.024 C 
ATOM      9  C   UNL A   1      33.930  26.918  25.940  1.00  0.00     0.004 C 
BRANCH   6  10
ATOM     10  N   UNL A   1      33.013  24.511  23.720  1.00  0.00    -0.208 NA
ATOM     11  H   UNL A   1      34.023  24.378  23.765  1.00  0.00     0.141 HD
BRANCH  10  12
ATOM     12  S   UNL A   1      32.366  23.014  24.121  1.00  0.00     0.214 S 
ATOM     13  O   UNL A   1      31.847  23.127  25.472  1.00  0.00    -0.212 OA
ATOM     14  O   UNL A   1      31.478  22.674  23.038  1.00  0.00    -0.212 OA
BRANCH  12  15
ATOM     15  C   UNL A   1      33.737  21.861  24.164  1.00  0.00     0.185 C 
BRANCH  15  16
ATOM     16  C   UNL A   1      34.844  22.145  25.164  1.00  0.00     0.134 C 
ATOM     17  C   UNL A   1      36.012  21.164  25.041  1.00  0.00     0.035 C 
ATOM     18  O   UNL A   1      35.401  23.455  25.010  1.00  0.00    -0.377 OA
ATOM     19  C   UNL A   1      37.036  21.958  24.270  1.00  0.00     0.031 C 
ATOM     20  C   UNL A   1      36.818  23.344  24.826  1.00  0.00     0.160 C 
ENDBRANCH  15  16
ENDBRANCH  12  15
ENDBRANCH  10  12
ENDBRANCH   6  10
ENDBRANCH   5   6
ENDBRANCH   3   5
ENDBRANCH   2   3
ENDBRANCH   1   2
BRANCH   1  21
ATOM     21  C   UNL A   1      31.724  30.221  26.444  1.00  0.00     0.275 C 
BRANCH  21  22
ATOM     22  O   UNL A   1      32.953  30.121  27.209  1.00  0.00    -0.458 OA
BRANCH  22  23
ATOM     23  C   UNL A   1      33.587  31.294  27.452  1.00  0.00     0.338 C 
ATOM     24  O   UNL A   1      33.048  32.377  27.620  1.00  0.00    -0.246 OA
BRANCH  23  25
ATOM     25  C   UNL A   1      35.027  31.095  27.734  1.00  0.00     0.060 A 
ATOM     26  C   UNL A   1      35.443  29.784  27.949  1.00  0.00     0.016 A 
ATOM     27  C   UNL A   1      35.915  32.134  27.979  1.00  0.00     0.016 A 
ATOM     28  C   UNL A   1      36.667  29.485  28.529  1.00  0.00     0.010 A 
ATOM     29  C   UNL A   1      37.191  31.833  28.490  1.00  0.00     0.010 A 
ATOM     30  C   UNL A   1      37.563  30.509  28.819  1.00  0.00    -0.014 A 
BRANCH  30  31
ATOM     31  C   UNL A   1      38.816  30.213  29.570  1.00  0.00     0.031 A 
ATOM     32  C   UNL A   1      39.801  29.240  28.984  1.00  0.00     0.074 A 
ATOM     33  C   UNL A   1      39.111  30.819  30.739  1.00  0.00     0.049 A 
ATOM     34  N   UNL A   1      40.789  28.607  29.558  1.00  0.00    -0.248 NA
ATOM     35  C   UNL A   1      39.642  28.933  27.553  1.00  0.00     0.031 C 
ATOM     36  C   UNL A   1      38.332  31.883  31.373  1.00  0.00     0.029 A 
ATOM     37  N   UNL A   1      40.150  30.606  31.617  1.00  0.00    -0.354 N 
ATOM     38  C   UNL A   1      41.294  27.744  28.593  1.00  0.00     0.074 A 
ATOM     39  C   UNL A   1      40.530  27.964  27.384  1.00  0.00     0.031 C 
ATOM     40  C   UNL A   1      38.910  32.224  32.534  1.00  0.00     0.029 A 
ATOM     41  C   UNL A   1      40.032  31.328  32.784  1.00  0.00     0.049 A 
ATOM     42  H   UNL A   1      40.902  29.999  31.430  1.00  0.00     0.167 HD
ATOM     43  C   UNL A   1      42.294  26.839  28.714  1.00  0.00     0.034 A 
ATOM     44  C   UNL A   1      40.692  31.225  33.954  1.00  0.00     0.034 A 
ATOM     45  C   UNL A   1      43.089  26.684  29.903  1.00  0.00     0.049 A 
ATOM     46  C   UNL A   1      41.767  30.184  34.093  1.00  0.00     0.074 A 
ATOM     47  C   UNL A   1      44.127  25.801  30.137  1.00  0.00     0.029 A 
ATOM     48  N   UNL A   1      42.937  27.441  31.055  1.00  0.00    -0.354 N 
ATOM     49  N   UNL A   1      42.209  29.331  33.198  1.00  0.00    -0.248 NA
ATOM     50  C   UNL A   1      42.440  30.088  35.396  1.00  0.00     0.031 C 
ATOM     51  C   UNL A   1      44.580  26.002  31.445  1.00  0.00     0.029 A 
ATOM     52  C   UNL A   1      43.857  27.042  32.008  1.00  0.00     0.049 A 
ATOM     53  H   UNL A   1      42.273  28.157  31.178  1.00  0.00     0.167 HD
ATOM     54  C   UNL A   1      43.232  28.624  33.816  1.00  0.00     0.074 A 
ATOM     55  C   UNL A   1      43.351  29.153  35.161  1.00  0.00     0.031 C 
ATOM     56  C   UNL A   1      43.998  27.621  33.320  1.00  0.00     0.034 A 
BRANCH  43  57
ATOM     57  C   UNL A   1      42.543  25.917  27.549  1.00  0.00     0.023 A 
ATOM     58  C   UNL A   1      43.350  26.322  26.468  1.00  0.00     0.012 A 
ATOM     59  C   UNL A   1      41.967  24.629  27.536  1.00  0.00     0.148 A 
ATOM     60  C   UNL A   1      43.536  25.480  25.369  1.00  0.00     0.002 A 
ATOM     61  C   UNL A   1      42.199  23.779  26.463  1.00  0.00     0.091 A 
ATOM     62  F   UNL A   1      41.183  24.269  28.563  1.00  0.00    -0.205 F 
ATOM     63  C   UNL A   1      42.969  24.208  25.370  1.00  0.00     0.022 A 
BRANCH  61  64
ATOM     64  S   UNL A   1      41.572  22.097  26.413  1.00  0.00     0.127 S 
ATOM     65  O   UNL A   1      42.287  21.550  25.261  1.00  0.00    -0.237 OA
ATOM     66  O   UNL A   1      42.004  21.568  27.707  1.00  0.00    -0.237 OA
ATOM     67  O   UNL A   1      40.128  22.211  26.258  1.00  0.00    -0.744 OA
ENDBRANCH  61  64
ENDBRANCH  43  57
BRANCH  44  68
ATOM     68  C   UNL A   1      40.316  32.107  35.098  1.00  0.00     0.023 A 
ATOM     69  C   UNL A   1      40.971  33.340  35.278  1.00  0.00     0.012 A 
ATOM     70  C   UNL A   1      39.279  31.746  35.984  1.00  0.00     0.148 A 
ATOM     71  C   UNL A   1      40.610  34.188  36.327  1.00  0.00     0.002 A 
ATOM     72  C   UNL A   1      38.883  32.623  36.986  1.00  0.00     0.091 A 
ATOM     73  F   UNL A   1      38.681  30.558  35.810  1.00  0.00    -0.205 F 
ATOM     74  C   UNL A   1      39.557  33.838  37.170  1.00  0.00     0.022 A 
BRANCH  72  75
ATOM     75  S   UNL A   1      37.450  32.315  38.026  1.00  0.00     0.127 S 
ATOM     76  O   UNL A   1      37.349  30.859  37.971  1.00  0.00    -0.237 OA
ATOM     77  O   UNL A   1      37.891  32.855  39.312  1.00  0.00    -0.237 OA
ATOM     78  O   UNL A   1      36.350  33.046  37.412  1.00  0.00    -0.744 OA
ENDBRANCH  72  75
ENDBRANCH  44  68
BRANCH  56  79
ATOM     79  C   UNL A   1      45.087  27.069  34.199  1.00  0.00     0.023 A 
ATOM     80  C   UNL A   1      46.351  27.687  34.241  1.00  0.00     0.012 A 
ATOM     81  C   UNL A   1      44.812  25.992  35.066  1.00  0.00     0.148 A 
ATOM     82  C   UNL A   1      47.333  27.226  35.117  1.00  0.00     0.002 A 
ATOM     83  C   UNL A   1      45.776  25.574  35.972  1.00  0.00     0.091 A 
ATOM     84  F   UNL A   1      43.607  25.407  34.993  1.00  0.00    -0.205 F 
ATOM     85  C   UNL A   1      47.041  26.182  35.991  1.00  0.00     0.022 A 
BRANCH  83  86
ATOM     86  S   UNL A   1      45.451  24.311  37.207  1.00  0.00     0.127 S 
ATOM     87  O   UNL A   1      44.316  24.885  37.928  1.00  0.00    -0.237 OA
ATOM     88  O   UNL A   1      45.126  23.148  36.381  1.00  0.00    -0.237 OA
ATOM     89  O   UNL A   1      46.678  24.180  37.983  1.00  0.00    -0.744 OA
ENDBRANCH  83  86
ENDBRANCH  56  79
ENDBRANCH  30  31
ENDBRANCH  23  25
ENDBRANCH  22  23
ENDBRANCH  21  22
ENDBRANCH   1  21
TORSDOF 19
ENDMDL
MODEL 2
REMARK VINA RESULT:     -10.7      1.858      2.341
REMARK SMILES O=C(CC1(NS(=O)(=O)C[C@H]2CCCO2)CCC1)OCCOC(=O)c1ccc(-c2c3nc(c(-c4cccc(S(=O)(=O)[O-])c4F)c4ccc([nH]4)c(-c4cccc(S(=O)(=O)[O-])c4F)c4nc(c(-c5cccc(S(=O)(=O)[O-])c5F)c5ccc2[nH]5)C=C4)C=C3)cc1
REMARK SMILES IDX 19 1 18 2 2 3 1 4 3 5 4 6 15 7 17 8 16 9 5 10 6 12 7 13 8 14
REMARK SMILES IDX 9 15 10 16 11 17 14 18 12 19 13 20 20 21 21 22 22 23 23 24
REMARK SMILES IDX 24 25 25 26 86 27 26 28 85 29 27 30 28 31 29 32 79 33 30 34
REMARK SMILES IDX 84 35 78 36 80 37 31 38 83 39 77 40 76 41 32 43 64 44 44 45
REMARK SMILES IDX 63 46 45 47 48 48 62 49 81 50 46 51 47 52 61 54 82 55 49 56
REMARK SMILES IDX 33 57 34 58 42 59 35 60 37 61 43 62 36 63 38 64 39 65 40 66
REMARK SMILES IDX 41 67 65 68 66 69 74 70 67 71 69 72 75 73 68 74 70 75 71 76
REMARK SMILES IDX 72 77 73 78 50 79 51 80 59 81 52 82 54 83 60 84 53 85 55 86
REMARK SMILES IDX 56 87 57 88 58 89
REMARK H PARENT 5 11 80 42 48 53
REMARK Flexibility Score: inf
ROOT
ATOM      1  C   UNL A   1      32.955  28.718  23.056  1.00  0.00     0.274 C 
ENDROOT
BRANCH   1   2
ATOM      2  O   UNL A   1      32.207  27.534  22.680  1.00  0.00    -0.462 OA
BRANCH   2   3
ATOM      3  C   UNL A   1      32.788  26.324  22.477  1.00  0.00     0.307 C 
ATOM      4  O   UNL A   1      33.651  26.174  21.620  1.00  0.00    -0.252 OA
BRANCH   3   5
ATOM      5  C   UNL A   1      32.183  25.169  23.200  1.00  0.00     0.146 C 
BRANCH   5   6
ATOM      6  C   UNL A   1      32.703  24.754  24.576  1.00  0.00     0.043 C 
ATOM      7  C   UNL A   1      34.022  25.383  25.111  1.00  0.00     0.024 C 
ATOM      8  C   UNL A   1      31.954  25.550  25.717  1.00  0.00     0.024 C 
ATOM      9  C   UNL A   1      33.238  26.298  26.055  1.00  0.00     0.004 C 
BRANCH   6  10
ATOM     10  N   UNL A   1      32.506  23.257  24.725  1.00  0.00    -0.208 NA
ATOM     11  H   UNL A   1      31.804  23.016  24.026  1.00  0.00     0.141 HD
BRANCH  10  12
ATOM     12  S   UNL A   1      33.667  22.049  24.597  1.00  0.00     0.214 S 
ATOM     13  O   UNL A   1      34.511  22.394  23.468  1.00  0.00    -0.212 OA
ATOM     14  O   UNL A   1      34.244  21.928  25.912  1.00  0.00    -0.212 OA
BRANCH  12  15
ATOM     15  C   UNL A   1      32.792  20.542  24.178  1.00  0.00     0.185 C 
BRANCH  15  16
ATOM     16  C   UNL A   1      33.223  19.275  24.893  1.00  0.00     0.134 C 
ATOM     17  C   UNL A   1      32.420  18.050  24.451  1.00  0.00     0.035 C 
ATOM     18  O   UNL A   1      34.600  18.957  24.666  1.00  0.00    -0.377 OA
ATOM     19  C   UNL A   1      33.359  17.363  23.491  1.00  0.00     0.031 C 
ATOM     20  C   UNL A   1      34.695  17.626  24.142  1.00  0.00     0.160 C 
ENDBRANCH  15  16
ENDBRANCH  12  15
ENDBRANCH  10  12
ENDBRANCH   6  10
ENDBRANCH   5   6
ENDBRANCH   3   5
ENDBRANCH   2   3
ENDBRANCH   1   2
BRANCH   1  21
ATOM     21  C   UNL A   1      32.481  29.331  24.384  1.00  0.00     0.275 C 
BRANCH  21  22
ATOM     22  O   UNL A   1      33.574  29.697  25.267  1.00  0.00    -0.458 OA
BRANCH  22  23
ATOM     23  C   UNL A   1      33.242  30.501  26.305  1.00  0.00     0.338 C 
ATOM     24  O   UNL A   1      32.179  31.086  26.446  1.00  0.00    -0.246 OA
BRANCH  23  25
ATOM     25  C   UNL A   1      34.232  30.422  27.404  1.00  0.00     0.060 A 
ATOM     26  C   UNL A   1      35.002  31.559  27.629  1.00  0.00     0.016 A 
ATOM     27  C   UNL A   1      34.553  29.246  28.067  1.00  0.00     0.016 A 
ATOM     28  C   UNL A   1      36.163  31.524  28.388  1.00  0.00     0.010 A 
ATOM     29  C   UNL A   1      35.683  29.224  28.907  1.00  0.00     0.010 A 
ATOM     30  C   UNL A   1      36.530  30.349  29.036  1.00  0.00    -0.014 A 
BRANCH  30  31
ATOM     31  C   UNL A   1      37.844  30.262  29.735  1.00  0.00     0.031 A 
ATOM     32  C   UNL A   1      38.955  29.477  29.096  1.00  0.00     0.074 A 
ATOM     33  C   UNL A   1      38.078  30.896  30.903  1.00  0.00     0.049 A 
ATOM     34  N   UNL A   1      40.057  29.014  29.622  1.00  0.00    -0.248 NA
ATOM     35  C   UNL A   1      38.794  29.162  27.667  1.00  0.00     0.031 C 
ATOM     36  C   UNL A   1      37.155  31.806  31.582  1.00  0.00     0.029 A 
ATOM     37  N   UNL A   1      39.171  30.853  31.737  1.00  0.00    -0.354 N 
ATOM     38  C   UNL A   1      40.663  28.259  28.624  1.00  0.00     0.074 A 
ATOM     39  C   UNL A   1      39.826  28.360  27.449  1.00  0.00     0.031 C 
ATOM     40  C   UNL A   1      37.713  32.228  32.727  1.00  0.00     0.029 A 
ATOM     41  C   UNL A   1      38.979  31.532  32.920  1.00  0.00     0.049 A 
ATOM     42  H   UNL A   1      40.007  30.384  31.512  1.00  0.00     0.167 HD
ATOM     43  C   UNL A   1      41.805  27.535  28.693  1.00  0.00     0.034 A 
ATOM     44  C   UNL A   1      39.692  31.530  34.064  1.00  0.00     0.034 A 
ATOM     45  C   UNL A   1      42.660  27.504  29.849  1.00  0.00     0.049 A 
ATOM     46  C   UNL A   1      40.932  30.684  34.144  1.00  0.00     0.074 A 
ATOM     47  C   UNL A   1      43.841  26.808  30.030  1.00  0.00     0.029 A 
ATOM     48  N   UNL A   1      42.429  28.212  31.019  1.00  0.00    -0.354 N 
ATOM     49  N   UNL A   1      41.476  29.929  33.220  1.00  0.00    -0.248 NA
ATOM     50  C   UNL A   1      41.662  30.690  35.421  1.00  0.00     0.031 C 
ATOM     51  C   UNL A   1      44.305  27.068  31.324  1.00  0.00     0.029 A 
ATOM     52  C   UNL A   1      43.439  27.965  31.930  1.00  0.00     0.049 A 
ATOM     53  H   UNL A   1      41.658  28.804  31.178  1.00  0.00     0.167 HD
ATOM     54  C   UNL A   1      42.627  29.398  33.788  1.00  0.00     0.074 A 
ATOM     55  C   UNL A   1      42.708  29.925  35.136  1.00  0.00     0.031 C 
ATOM     56  C   UNL A   1      43.532  28.545  33.246  1.00  0.00     0.034 A 
BRANCH  43  57
ATOM     57  C   UNL A   1      42.160  26.681  27.504  1.00  0.00     0.023 A 
ATOM     58  C   UNL A   1      42.829  27.232  26.394  1.00  0.00     0.012 A 
ATOM     59  C   UNL A   1      41.825  25.311  27.498  1.00  0.00     0.148 A 
ATOM     60  C   UNL A   1      43.111  26.446  25.275  1.00  0.00     0.002 A 
ATOM     61  C   UNL A   1      42.155  24.524  26.403  1.00  0.00     0.091 A 
ATOM     62  F   UNL A   1      41.169  24.808  28.553  1.00  0.00    -0.205 F 
ATOM     63  C   UNL A   1      42.782  25.092  25.283  1.00  0.00     0.022 A 
BRANCH  61  64
ATOM     64  S   UNL A   1      41.839  22.756  26.356  1.00  0.00     0.127 S 
ATOM     65  O   UNL A   1      42.498  22.372  25.108  1.00  0.00    -0.237 OA
ATOM     66  O   UNL A   1      42.511  22.290  27.569  1.00  0.00    -0.237 OA
ATOM     67  O   UNL A   1      40.391  22.607  26.370  1.00  0.00    -0.744 OA
ENDBRANCH  61  64
ENDBRANCH  43  57
BRANCH  44  68
ATOM     68  C   UNL A   1      39.218  32.323  35.236  1.00  0.00     0.023 A 
ATOM     69  C   UNL A   1      38.322  31.747  36.156  1.00  0.00     0.012 A 
ATOM     70  C   UNL A   1      39.688  33.633  35.466  1.00  0.00     0.148 A 
ATOM     71  C   UNL A   1      37.891  32.466  37.273  1.00  0.00     0.002 A 
ATOM     72  C   UNL A   1      39.306  34.318  36.613  1.00  0.00     0.091 A 
ATOM     73  F   UNL A   1      40.525  34.174  34.568  1.00  0.00    -0.205 F 
ATOM     74  C   UNL A   1      38.395  33.743  37.509  1.00  0.00     0.022 A 
BRANCH  72  75
ATOM     75  S   UNL A   1      40.011  35.908  37.065  1.00  0.00     0.127 S 
ATOM     76  O   UNL A   1      39.274  36.224  38.287  1.00  0.00    -0.237 OA
ATOM     77  O   UNL A   1      41.419  35.566  37.265  1.00  0.00    -0.237 OA
ATOM     78  O   UNL A   1      39.761  36.789  35.933  1.00  0.00    -0.744 OA
ENDBRANCH  72  75
ENDBRANCH  44  68
BRANCH  56  79
ATOM     79  C   UNL A   1      44.732  28.177  34.075  1.00  0.00     0.023 A 
ATOM     80  C   UNL A   1      45.892  28.973  34.044  1.00  0.00     0.012 A 
ATOM     81  C   UNL A   1      44.662  27.088  34.968  1.00  0.00     0.148 A 
ATOM     82  C   UNL A   1      46.973  28.679  34.874  1.00  0.00     0.002 A 
ATOM     83  C   UNL A   1      45.719  26.834  35.829  1.00  0.00     0.091 A 
ATOM     84  F   UNL A   1      43.553  26.331  34.965  1.00  0.00    -0.205 F 
ATOM     85  C   UNL A   1      46.881  27.621  35.775  1.00  0.00     0.022 A 
BRANCH  83  86
ATOM     86  S   UNL A   1      45.645  25.561  37.095  1.00  0.00     0.127 S 
ATOM     87  O   UNL A   1      46.944  25.717  37.748  1.00  0.00    -0.237 OA
ATOM     88  O   UNL A   1      44.502  25.992  37.899  1.00  0.00    -0.237 OA
ATOM     89  O   UNL A   1      45.451  24.301  36.390  1.00  0.00    -0.744 OA
ENDBRANCH  83  86
ENDBRANCH  56  79
ENDBRANCH  30  31
ENDBRANCH  23  25
ENDBRANCH  22  23
ENDBRANCH  21  22
ENDBRANCH   1  21
TORSDOF 19
ENDMDL
MODEL 3
REMARK VINA RESULT:     -10.5      2.119      2.712
REMARK SMILES O=C(CC1(NS(=O)(=O)C[C@H]2CCCO2)CCC1)OCCOC(=O)c1ccc(-c2c3nc(c(-c4cccc(S(=O)(=O)[O-])c4F)c4ccc([nH]4)c(-c4cccc(S(=O)(=O)[O-])c4F)c4nc(c(-c5cccc(S(=O)(=O)[O-])c5F)c5ccc2[nH]5)C=C4)C=C3)cc1
REMARK SMILES IDX 19 1 18 2 2 3 1 4 3 5 4 6 15 7 17 8 16 9 5 10 6 12 7 13 8 14
REMARK SMILES IDX 9 15 10 16 11 17 14 18 12 19 13 20 20 21 21 22 22 23 23 24
REMARK SMILES IDX 24 25 25 26 86 27 26 28 85 29 27 30 28 31 29 32 79 33 30 34
REMARK SMILES IDX 84 35 78 36 80 37 31 38 83 39 77 40 76 41 32 43 64 44 44 45
REMARK SMILES IDX 63 46 45 47 48 48 62 49 81 50 46 51 47 52 61 54 82 55 49 56
REMARK SMILES IDX 33 57 34 58 42 59 35 60 37 61 43 62 36 63 38 64 39 65 40 66
REMARK SMILES IDX 41 67 65 68 66 69 74 70 67 71 69 72 75 73 68 74 70 75 71 76
REMARK SMILES IDX 72 77 73 78 50 79 51 80 59 81 52 82 54 83 60 84 53 85 55 86
REMARK SMILES IDX 56 87 57 88 58 89
REMARK H PARENT 5 11 80 42 48 53
REMARK Flexibility Score: inf
ROOT
ATOM      1  C   UNL A   1      31.950  27.500  26.106  1.00  0.00     0.274 C 
ENDROOT
BRANCH   1   2
ATOM      2  O   UNL A   1      31.308  26.407  26.811  1.00  0.00    -0.462 OA
BRANCH   2   3
ATOM      3  C   UNL A   1      31.615  25.103  26.593  1.00  0.00     0.307 C 
ATOM      4  O   UNL A   1      31.092  24.212  27.252  1.00  0.00    -0.252 OA
BRANCH   3   5
ATOM      5  C   UNL A   1      32.752  24.836  25.666  1.00  0.00     0.146 C 
BRANCH   5   6
ATOM      6  C   UNL A   1      32.525  24.090  24.351  1.00  0.00     0.043 C 
ATOM      7  C   UNL A   1      31.115  24.123  23.692  1.00  0.00     0.024 C 
ATOM      8  C   UNL A   1      33.030  24.953  23.128  1.00  0.00     0.024 C 
ATOM      9  C   UNL A   1      31.594  25.134  22.647  1.00  0.00     0.004 C 
BRANCH   6  10
ATOM     10  N   UNL A   1      33.254  22.761  24.428  1.00  0.00    -0.208 NA
ATOM     11  H   UNL A   1      34.215  23.004  24.667  1.00  0.00     0.141 HD
BRANCH  10  12
ATOM     12  S   UNL A   1      32.892  21.445  25.407  1.00  0.00     0.214 S 
ATOM     13  O   UNL A   1      33.615  21.633  26.652  1.00  0.00    -0.212 OA
ATOM     14  O   UNL A   1      31.453  21.359  25.421  1.00  0.00    -0.212 OA
BRANCH  12  15
ATOM     15  C   UNL A   1      33.577  20.001  24.596  1.00  0.00     0.185 C 
BRANCH  15  16
ATOM     16  C   UNL A   1      32.630  18.844  24.336  1.00  0.00     0.134 C 
ATOM     17  C   UNL A   1      33.269  17.741  23.490  1.00  0.00     0.035 C 
ATOM     18  O   UNL A   1      32.181  18.218  25.542  1.00  0.00    -0.377 OA
ATOM     19  C   UNL A   1      33.636  16.701  24.519  1.00  0.00     0.031 C 
ATOM     20  C   UNL A   1      32.480  16.817  25.483  1.00  0.00     0.160 C 
ENDBRANCH  15  16
ENDBRANCH  12  15
ENDBRANCH  10  12
ENDBRANCH   6  10
ENDBRANCH   5   6
ENDBRANCH   3   5
ENDBRANCH   2   3
ENDBRANCH   1   2
BRANCH   1  21
ATOM     21  C   UNL A   1      32.271  28.695  27.019  1.00  0.00     0.275 C 
BRANCH  21  22
ATOM     22  O   UNL A   1      33.020  29.741  26.348  1.00  0.00    -0.458 OA
BRANCH  22  23
ATOM     23  C   UNL A   1      33.387  30.789  27.125  1.00  0.00     0.338 C 
ATOM     24  O   UNL A   1      32.627  31.561  27.690  1.00  0.00    -0.246 OA
BRANCH  23  25
ATOM     25  C   UNL A   1      34.837  30.774  27.424  1.00  0.00     0.060 A 
ATOM     26  C   UNL A   1      35.430  29.522  27.563  1.00  0.00     0.016 A 
ATOM     27  C   UNL A   1      35.566  31.908  27.756  1.00  0.00     0.016 A 
ATOM     28  C   UNL A   1      36.676  29.359  28.149  1.00  0.00     0.010 A 
ATOM     29  C   UNL A   1      36.866  31.754  28.274  1.00  0.00     0.010 A 
ATOM     30  C   UNL A   1      37.415  30.475  28.525  1.00  0.00    -0.014 A 
BRANCH  30  31
ATOM     31  C   UNL A   1      38.688  30.307  29.282  1.00  0.00     0.031 A 
ATOM     32  C   UNL A   1      39.733  29.368  28.746  1.00  0.00     0.074 A 
ATOM     33  C   UNL A   1      38.948  31.000  30.411  1.00  0.00     0.049 A 
ATOM     34  N   UNL A   1      40.762  28.836  29.349  1.00  0.00    -0.248 NA
ATOM     35  C   UNL A   1      39.589  28.966  27.337  1.00  0.00     0.031 C 
ATOM     36  C   UNL A   1      38.103  32.046  30.986  1.00  0.00     0.029 A 
ATOM     37  N   UNL A   1      40.002  30.908  31.291  1.00  0.00    -0.354 N 
ATOM     38  C   UNL A   1      41.319  27.952  28.432  1.00  0.00     0.074 A 
ATOM     39  C   UNL A   1      40.538  28.049  27.219  1.00  0.00     0.031 C 
ATOM     40  C   UNL A   1      38.662  32.494  32.120  1.00  0.00     0.029 A 
ATOM     41  C   UNL A   1      39.842  31.688  32.414  1.00  0.00     0.049 A 
ATOM     42  H   UNL A   1      40.791  30.341  31.134  1.00  0.00     0.167 HD
ATOM     43  C   UNL A   1      42.376  27.122  28.599  1.00  0.00     0.034 A 
ATOM     44  C   UNL A   1      40.512  31.699  33.583  1.00  0.00     0.034 A 
ATOM     45  C   UNL A   1      43.185  27.091  29.789  1.00  0.00     0.049 A 
ATOM     46  C   UNL A   1      41.653  30.740  33.774  1.00  0.00     0.074 A 
ATOM     47  C   UNL A   1      44.279  26.293  30.067  1.00  0.00     0.029 A 
ATOM     48  N   UNL A   1      42.989  27.903  30.896  1.00  0.00    -0.354 N 
ATOM     49  N   UNL A   1      42.146  29.867  32.929  1.00  0.00    -0.248 NA
ATOM     50  C   UNL A   1      42.336  30.766  35.076  1.00  0.00     0.031 C 
ATOM     51  C   UNL A   1      44.724  26.601  31.357  1.00  0.00     0.029 A 
ATOM     52  C   UNL A   1      43.936  27.623  31.863  1.00  0.00     0.049 A 
ATOM     53  H   UNL A   1      42.279  28.580  30.981  1.00  0.00     0.167 HD
ATOM     54  C   UNL A   1      43.216  29.265  33.579  1.00  0.00     0.074 A 
ATOM     55  C   UNL A   1      43.306  29.880  34.890  1.00  0.00     0.031 C 
ATOM     56  C   UNL A   1      44.044  28.287  33.137  1.00  0.00     0.034 A 
BRANCH  43  57
ATOM     57  C   UNL A   1      42.681  26.151  27.489  1.00  0.00     0.023 A 
ATOM     58  C   UNL A   1      43.491  26.529  26.401  1.00  0.00     0.012 A 
ATOM     59  C   UNL A   1      42.154  24.843  27.535  1.00  0.00     0.148 A 
ATOM     60  C   UNL A   1      43.729  25.639  25.351  1.00  0.00     0.002 A 
ATOM     61  C   UNL A   1      42.437  23.947  26.513  1.00  0.00     0.091 A 
ATOM     62  F   UNL A   1      41.366  24.507  28.567  1.00  0.00    -0.205 F 
ATOM     63  C   UNL A   1      43.209  24.348  25.411  1.00  0.00     0.022 A 
BRANCH  61  64
ATOM     64  S   UNL A   1      41.874  22.242  26.542  1.00  0.00     0.127 S 
ATOM     65  O   UNL A   1      40.422  22.410  26.518  1.00  0.00    -0.237 OA
ATOM     66  O   UNL A   1      42.446  21.707  25.306  1.00  0.00    -0.237 OA
ATOM     67  O   UNL A   1      42.417  21.660  27.762  1.00  0.00    -0.744 OA
ENDBRANCH  61  64
ENDBRANCH  43  57
BRANCH  44  68
ATOM     68  C   UNL A   1      40.084  32.621  34.676  1.00  0.00     0.023 A 
ATOM     69  C   UNL A   1      40.539  33.953  34.689  1.00  0.00     0.012 A 
ATOM     70  C   UNL A   1      39.190  32.192  35.679  1.00  0.00     0.148 A 
ATOM     71  C   UNL A   1      40.124  34.835  35.689  1.00  0.00     0.002 A 
ATOM     72  C   UNL A   1      38.731  33.093  36.633  1.00  0.00     0.091 A 
ATOM     73  F   UNL A   1      38.783  30.914  35.664  1.00  0.00    -0.205 F 
ATOM     74  C   UNL A   1      39.209  34.410  36.650  1.00  0.00     0.022 A 
BRANCH  72  75
ATOM     75  S   UNL A   1      37.451  32.670  37.821  1.00  0.00     0.127 S 
ATOM     76  O   UNL A   1      37.903  33.381  39.014  1.00  0.00    -0.237 OA
ATOM     77  O   UNL A   1      36.256  33.227  37.187  1.00  0.00    -0.237 OA
ATOM     78  O   UNL A   1      37.460  31.216  37.913  1.00  0.00    -0.744 OA
ENDBRANCH  72  75
ENDBRANCH  44  68
BRANCH  56  79
ATOM     79  C   UNL A   1      45.171  27.861  34.039  1.00  0.00     0.023 A 
ATOM     80  C   UNL A   1      45.005  26.779  34.924  1.00  0.00     0.012 A 
ATOM     81  C   UNL A   1      46.434  28.477  33.925  1.00  0.00     0.148 A 
ATOM     82  C   UNL A   1      46.074  26.331  35.699  1.00  0.00     0.002 A 
ATOM     83  C   UNL A   1      47.506  27.991  34.659  1.00  0.00     0.091 A 
ATOM     84  F   UNL A   1      46.562  29.519  33.088  1.00  0.00    -0.205 F 
ATOM     85  C   UNL A   1      47.326  26.927  35.556  1.00  0.00     0.022 A 
BRANCH  83  86
ATOM     86  S   UNL A   1      49.175  28.624  34.458  1.00  0.00     0.127 S 
ATOM     87  O   UNL A   1      49.952  27.668  35.245  1.00  0.00    -0.237 OA
ATOM     88  O   UNL A   1      49.370  28.527  33.012  1.00  0.00    -0.237 OA
ATOM     89  O   UNL A   1      49.156  29.986  34.977  1.00  0.00    -0.744 OA
ENDBRANCH  83  86
ENDBRANCH  56  79
ENDBRANCH  30  31
ENDBRANCH  23  25
ENDBRANCH  22  23
ENDBRANCH  21  22
ENDBRANCH   1  21
TORSDOF 19
ENDMDL
