MODEL 1
REMARK VINA RESULT:     -12.1      0.000      0.000
REMARK SMILES COc1ccc(C2=NN(C(=O)CCC(=O)OCCOC(=O)c3ccc(-c4c5nc(c(-c6cccc(S(=O)(=O)[O-])c6F)c6ccc([nH]6)c(-c6cccc(S(=O)(=O)[O-])c6F)c6nc(c(-c7cccc(S(=O)(=O)[O-])c7F)c7ccc4[nH]7)C=C6)C=C5)cc3)[C@H](c3ccc(Cl)cc3Cl)C2)cc1
REMARK SMILES IDX 17 1 16 2 14 3 15 4 13 5 12 6 10 7 11 8 9 9 7 10 8 11 94 12
REMARK SMILES IDX 85 13 6 14 3 15 4 16 96 17 5 18 95 19 2 20 1 21 86 22 87 23
REMARK SMILES IDX 92 24 88 25 91 26 93 27 89 28 90 29 18 30 19 31 20 32 21 33
REMARK SMILES IDX 22 34 23 35 84 36 24 37 83 38 25 39 26 40 27 41 77 42 28 43
REMARK SMILES IDX 82 44 76 45 78 46 29 47 81 48 75 49 74 50 30 52 62 53 42 54
REMARK SMILES IDX 61 55 43 56 46 57 60 58 79 59 44 60 45 61 59 63 80 64 47 65
REMARK SMILES IDX 31 66 32 67 40 68 33 69 35 70 41 71 34 72 36 73 37 74 38 75
REMARK SMILES IDX 39 76 63 77 64 78 72 79 65 80 67 81 73 82 66 83 68 84 69 85
REMARK SMILES IDX 70 86 71 87 48 88 49 89 57 90 50 91 52 92 58 93 51 94 53 95
REMARK SMILES IDX 54 96 55 97 56 98
REMARK H PARENT 78 51 46 62
REMARK Flexibility Score: inf
ROOT
ATOM      1  C   UNL A   1      36.832  20.161  24.873  1.00  0.00     0.274 C 
ENDROOT
BRANCH   1   2
ATOM      2  O   UNL A   1      36.228  21.433  25.194  1.00  0.00    -0.462 OA
BRANCH   2   3
ATOM      3  C   UNL A   1      36.443  22.438  24.302  1.00  0.00     0.306 C 
ATOM      4  O   UNL A   1      36.726  22.271  23.123  1.00  0.00    -0.252 OA
BRANCH   3   5
ATOM      5  C   UNL A   1      36.356  23.800  24.943  1.00  0.00     0.132 C 
BRANCH   5   6
ATOM      6  C   UNL A   1      35.416  23.866  26.144  1.00  0.00     0.114 C 
BRANCH   6   7
ATOM      7  C   UNL A   1      34.129  24.577  25.770  1.00  0.00     0.243 C 
ATOM      8  O   UNL A   1      34.005  25.765  26.098  1.00  0.00    -0.273 OA
BRANCH   7   9
ATOM      9  N   UNL A   1      33.104  23.847  25.168  1.00  0.00    -0.225 N 
ATOM     10  C   UNL A   1      32.510  21.856  24.583  1.00  0.00     0.071 C 
ATOM     11  N   UNL A   1      33.075  22.502  25.545  1.00  0.00    -0.174 NA
ATOM     12  C   UNL A   1      31.903  22.670  23.502  1.00  0.00     0.091 C 
ATOM     13  C   UNL A   1      32.467  24.046  23.848  1.00  0.00     0.149 C 
BRANCH  10  14
ATOM     14  C   UNL A   1      32.489  20.405  24.456  1.00  0.00    -0.002 A 
ATOM     15  C   UNL A   1      32.753  17.653  24.221  1.00  0.00     0.118 A 
ATOM     16  C   UNL A   1      32.474  18.435  23.094  1.00  0.00     0.047 A 
ATOM     17  C   UNL A   1      32.913  18.258  25.469  1.00  0.00     0.047 A 
ATOM     18  C   UNL A   1      32.335  19.818  23.206  1.00  0.00     0.014 A 
ATOM     19  C   UNL A   1      32.776  19.641  25.591  1.00  0.00     0.014 A 
BRANCH  15  20
ATOM     20  O   UNL A   1      32.893  16.313  23.978  1.00  0.00    -0.497 OA
ATOM     21  C   UNL A   1      33.146  15.511  25.126  1.00  0.00     0.278 C 
ENDBRANCH  15  20
ENDBRANCH  10  14
BRANCH  13  22
ATOM     22  C   UNL A   1      31.446  25.148  23.536  1.00  0.00    -0.004 A 
ATOM     23  C   UNL A   1      31.623  25.796  22.277  1.00  0.00     0.009 A 
ATOM     24  C   UNL A   1      30.520  25.735  24.410  1.00  0.00     0.047 A 
ATOM     25  C   UNL A   1      30.997  27.001  21.954  1.00  0.00     0.021 A 
ATOM     26  C   UNL A   1      29.917  26.970  24.098  1.00  0.00     0.041 A 
ATOM     27  Cl  UNL A   1      30.006  25.019  25.890  1.00  0.00    -0.084 Cl
ATOM     28  C   UNL A   1      30.177  27.605  22.889  1.00  0.00     0.042 A 
ATOM     29  Cl  UNL A   1      29.493  29.146  22.551  1.00  0.00    -0.084 Cl
ENDBRANCH  13  22
ENDBRANCH   7   9
ENDBRANCH   6   7
ENDBRANCH   5   6
ENDBRANCH   3   5
ENDBRANCH   2   3
ENDBRANCH   1   2
BRANCH   1  30
ATOM     30  C   UNL A   1      38.299  20.053  25.312  1.00  0.00     0.275 C 
BRANCH  30  31
ATOM     31  O   UNL A   1      38.934  21.334  25.490  1.00  0.00    -0.458 OA
BRANCH  31  32
ATOM     32  C   UNL A   1      39.793  21.376  26.526  1.00  0.00     0.338 C 
ATOM     33  O   UNL A   1      40.274  20.416  27.096  1.00  0.00    -0.246 OA
BRANCH  32  34
ATOM     34  C   UNL A   1      40.208  22.717  26.905  1.00  0.00     0.060 A 
ATOM     35  C   UNL A   1      41.169  22.828  27.915  1.00  0.00     0.016 A 
ATOM     36  C   UNL A   1      39.552  23.836  26.395  1.00  0.00     0.016 A 
ATOM     37  C   UNL A   1      41.524  24.082  28.383  1.00  0.00     0.010 A 
ATOM     38  C   UNL A   1      39.922  25.099  26.856  1.00  0.00     0.010 A 
ATOM     39  C   UNL A   1      40.927  25.225  27.830  1.00  0.00    -0.014 A 
BRANCH  39  40
ATOM     40  C   UNL A   1      41.508  26.546  28.132  1.00  0.00     0.031 A 
ATOM     41  C   UNL A   1      42.908  26.897  27.749  1.00  0.00     0.074 A 
ATOM     42  C   UNL A   1      40.721  27.414  28.795  1.00  0.00     0.049 A 
ATOM     43  N   UNL A   1      43.535  28.030  27.914  1.00  0.00    -0.248 NA
ATOM     44  C   UNL A   1      43.712  25.846  27.108  1.00  0.00     0.031 C 
ATOM     45  C   UNL A   1      39.357  27.125  29.249  1.00  0.00     0.029 A 
ATOM     46  N   UNL A   1      40.946  28.697  29.208  1.00  0.00    -0.354 N 
ATOM     47  C   UNL A   1      44.817  27.831  27.420  1.00  0.00     0.074 A 
ATOM     48  C   UNL A   1      44.879  26.461  26.953  1.00  0.00     0.031 C 
ATOM     49  C   UNL A   1      38.864  28.203  29.875  1.00  0.00     0.029 A 
ATOM     50  C   UNL A   1      39.882  29.246  29.884  1.00  0.00     0.049 A 
ATOM     51  H   UNL A   1      41.786  29.181  29.039  1.00  0.00     0.167 HD
ATOM     52  C   UNL A   1      45.836  28.721  27.356  1.00  0.00     0.034 A 
ATOM     53  C   UNL A   1      39.744  30.459  30.449  1.00  0.00     0.034 A 
ATOM     54  C   UNL A   1      45.742  30.082  27.817  1.00  0.00     0.049 A 
ATOM     55  C   UNL A   1      40.874  31.435  30.316  1.00  0.00     0.074 A 
ATOM     56  C   UNL A   1      46.695  31.084  27.753  1.00  0.00     0.029 A 
ATOM     57  N   UNL A   1      44.629  30.633  28.439  1.00  0.00    -0.354 N 
ATOM     58  N   UNL A   1      42.030  31.278  29.717  1.00  0.00    -0.248 NA
ATOM     59  C   UNL A   1      40.671  32.765  30.902  1.00  0.00     0.031 C 
ATOM     60  C   UNL A   1      46.162  32.235  28.347  1.00  0.00     0.029 A 
ATOM     61  C   UNL A   1      44.873  31.955  28.773  1.00  0.00     0.049 A 
ATOM     62  H   UNL A   1      43.789  30.152  28.618  1.00  0.00     0.167 HD
ATOM     63  C   UNL A   1      42.692  32.489  29.843  1.00  0.00     0.074 A 
ATOM     64  C   UNL A   1      41.787  33.384  30.542  1.00  0.00     0.031 C 
ATOM     65  C   UNL A   1      43.943  32.829  29.445  1.00  0.00     0.034 A 
BRANCH  52  66
ATOM     66  C   UNL A   1      47.126  28.263  26.727  1.00  0.00     0.023 A 
ATOM     67  C   UNL A   1      48.227  27.959  27.552  1.00  0.00     0.012 A 
ATOM     68  C   UNL A   1      47.235  28.078  25.335  1.00  0.00     0.148 A 
ATOM     69  C   UNL A   1      49.424  27.502  27.002  1.00  0.00     0.002 A 
ATOM     70  C   UNL A   1      48.421  27.591  24.796  1.00  0.00     0.091 A 
ATOM     71  F   UNL A   1      46.187  28.396  24.563  1.00  0.00    -0.205 F 
ATOM     72  C   UNL A   1      49.518  27.308  25.626  1.00  0.00     0.022 A 
BRANCH  70  73
ATOM     73  S   UNL A   1      48.618  27.251  23.042  1.00  0.00     0.127 S 
ATOM     74  O   UNL A   1      48.253  25.837  22.972  1.00  0.00    -0.237 OA
ATOM     75  O   UNL A   1      47.644  28.161  22.436  1.00  0.00    -0.237 OA
ATOM     76  O   UNL A   1      50.006  27.558  22.730  1.00  0.00    -0.744 OA
ENDBRANCH  70  73
ENDBRANCH  52  66
BRANCH  53  77
ATOM     77  C   UNL A   1      38.458  30.817  31.106  1.00  0.00     0.023 A 
ATOM     78  C   UNL A   1      38.308  30.609  32.489  1.00  0.00     0.012 A 
ATOM     79  C   UNL A   1      37.418  31.442  30.388  1.00  0.00     0.148 A 
ATOM     80  C   UNL A   1      37.141  31.002  33.144  1.00  0.00     0.002 A 
ATOM     81  C   UNL A   1      36.282  31.883  31.057  1.00  0.00     0.091 A 
ATOM     82  F   UNL A   1      37.571  31.618  29.068  1.00  0.00    -0.205 F 
ATOM     83  C   UNL A   1      36.135  31.651  32.432  1.00  0.00     0.022 A 
BRANCH  81  84
ATOM     84  S   UNL A   1      35.019  32.861  30.233  1.00  0.00     0.127 S 
ATOM     85  O   UNL A   1      34.515  31.921  29.235  1.00  0.00    -0.237 OA
ATOM     86  O   UNL A   1      34.090  33.155  31.325  1.00  0.00    -0.237 OA
ATOM     87  O   UNL A   1      35.717  34.031  29.717  1.00  0.00    -0.744 OA
ENDBRANCH  81  84
ENDBRANCH  53  77
BRANCH  65  88
ATOM     88  C   UNL A   1      44.402  34.222  29.777  1.00  0.00     0.023 A 
ATOM     89  C   UNL A   1      45.155  34.437  30.949  1.00  0.00     0.012 A 
ATOM     90  C   UNL A   1      44.122  35.305  28.925  1.00  0.00     0.148 A 
ATOM     91  C   UNL A   1      45.590  35.717  31.287  1.00  0.00     0.002 A 
ATOM     92  C   UNL A   1      44.596  36.572  29.246  1.00  0.00     0.091 A 
ATOM     93  F   UNL A   1      43.382  35.088  27.828  1.00  0.00    -0.205 F 
ATOM     94  C   UNL A   1      45.319  36.781  30.431  1.00  0.00     0.022 A 
BRANCH  92  95
ATOM     95  S   UNL A   1      44.358  37.976  28.152  1.00  0.00     0.127 S 
ATOM     96  O   UNL A   1      42.901  38.073  28.099  1.00  0.00    -0.237 OA
ATOM     97  O   UNL A   1      45.015  39.062  28.879  1.00  0.00    -0.237 OA
ATOM     98  O   UNL A   1      45.017  37.610  26.904  1.00  0.00    -0.744 OA
ENDBRANCH  92  95
ENDBRANCH  65  88
ENDBRANCH  39  40
ENDBRANCH  32  34
ENDBRANCH  31  32
ENDBRANCH  30  31
ENDBRANCH   1  30
TORSDOF 20
ENDMDL
MODEL 2
REMARK VINA RESULT:     -12.1      1.948      8.409
REMARK SMILES COc1ccc(C2=NN(C(=O)CCC(=O)OCCOC(=O)c3ccc(-c4c5nc(c(-c6cccc(S(=O)(=O)[O-])c6F)c6ccc([nH]6)c(-c6cccc(S(=O)(=O)[O-])c6F)c6nc(c(-c7cccc(S(=O)(=O)[O-])c7F)c7ccc4[nH]7)C=C6)C=C5)cc3)[C@H](c3ccc(Cl)cc3Cl)C2)cc1
REMARK SMILES IDX 17 1 16 2 14 3 15 4 13 5 12 6 10 7 11 8 9 9 7 10 8 11 94 12
REMARK SMILES IDX 85 13 6 14 3 15 4 16 96 17 5 18 95 19 2 20 1 21 86 22 87 23
REMARK SMILES IDX 92 24 88 25 91 26 93 27 89 28 90 29 18 30 19 31 20 32 21 33
REMARK SMILES IDX 22 34 23 35 84 36 24 37 83 38 25 39 26 40 27 41 77 42 28 43
REMARK SMILES IDX 82 44 76 45 78 46 29 47 81 48 75 49 74 50 30 52 62 53 42 54
REMARK SMILES IDX 61 55 43 56 46 57 60 58 79 59 44 60 45 61 59 63 80 64 47 65
REMARK SMILES IDX 31 66 32 67 40 68 33 69 35 70 41 71 34 72 36 73 37 74 38 75
REMARK SMILES IDX 39 76 63 77 64 78 72 79 65 80 67 81 73 82 66 83 68 84 69 85
REMARK SMILES IDX 70 86 71 87 48 88 49 89 57 90 50 91 52 92 58 93 51 94 53 95
REMARK SMILES IDX 54 96 55 97 56 98
REMARK H PARENT 78 51 46 62
REMARK Flexibility Score: inf
ROOT
ATOM      1  C   UNL A   1      36.134  20.528  24.993  1.00  0.00     0.274 C 
ENDROOT
BRANCH   1   2
ATOM      2  O   UNL A   1      36.044  21.936  25.300  1.00  0.00    -0.462 OA
BRANCH   2   3
ATOM      3  C   UNL A   1      35.924  22.773  24.234  1.00  0.00     0.306 C 
ATOM      4  O   UNL A   1      35.965  22.417  23.064  1.00  0.00    -0.252 OA
BRANCH   3   5
ATOM      5  C   UNL A   1      35.798  24.216  24.652  1.00  0.00     0.132 C 
BRANCH   5   6
ATOM      6  C   UNL A   1      34.967  24.431  25.914  1.00  0.00     0.114 C 
BRANCH   6   7
ATOM      7  C   UNL A   1      33.900  25.481  25.673  1.00  0.00     0.243 C 
ATOM      8  O   UNL A   1      33.899  26.485  26.397  1.00  0.00    -0.273 OA
BRANCH   7   9
ATOM      9  N   UNL A   1      32.909  25.232  24.722  1.00  0.00    -0.225 N 
ATOM     10  C   UNL A   1      31.197  26.100  23.737  1.00  0.00     0.071 C 
ATOM     11  N   UNL A   1      32.389  26.388  24.135  1.00  0.00    -0.174 NA
ATOM     12  C   UNL A   1      30.794  24.675  23.817  1.00  0.00     0.091 C 
ATOM     13  C   UNL A   1      31.943  24.115  24.652  1.00  0.00     0.149 C 
BRANCH  10  14
ATOM     14  C   UNL A   1      30.213  27.076  23.288  1.00  0.00    -0.002 A 
ATOM     15  C   UNL A   1      28.433  29.110  22.660  1.00  0.00     0.118 A 
ATOM     16  C   UNL A   1      27.993  27.973  23.348  1.00  0.00     0.047 A 
ATOM     17  C   UNL A   1      29.776  29.232  22.297  1.00  0.00     0.047 A 
ATOM     18  C   UNL A   1      28.881  26.945  23.662  1.00  0.00     0.014 A 
ATOM     19  C   UNL A   1      30.672  28.208  22.607  1.00  0.00     0.014 A 
BRANCH  15  20
ATOM     20  O   UNL A   1      27.474  30.060  22.435  1.00  0.00    -0.497 OA
ATOM     21  C   UNL A   1      27.596  31.244  23.215  1.00  0.00     0.278 C 
ENDBRANCH  15  20
ENDBRANCH  10  14
BRANCH  13  22
ATOM     22  C   UNL A   1      32.297  22.690  24.207  1.00  0.00    -0.004 A 
ATOM     23  C   UNL A   1      32.123  22.432  22.814  1.00  0.00     0.009 A 
ATOM     24  C   UNL A   1      32.549  21.573  25.016  1.00  0.00     0.047 A 
ATOM     25  C   UNL A   1      32.101  21.142  22.282  1.00  0.00     0.021 A 
ATOM     26  C   UNL A   1      32.490  20.269  24.485  1.00  0.00     0.041 A 
ATOM     27  Cl  UNL A   1      32.982  21.670  26.680  1.00  0.00    -0.084 Cl
ATOM     28  C   UNL A   1      32.243  20.061  23.133  1.00  0.00     0.042 A 
ATOM     29  Cl  UNL A   1      32.100  18.465  22.510  1.00  0.00    -0.084 Cl
ENDBRANCH  13  22
ENDBRANCH   7   9
ENDBRANCH   6   7
ENDBRANCH   5   6
ENDBRANCH   3   5
ENDBRANCH   2   3
ENDBRANCH   1   2
BRANCH   1  30
ATOM     30  C   UNL A   1      37.566  19.978  25.058  1.00  0.00     0.275 C 
BRANCH  30  31
ATOM     31  O   UNL A   1      38.570  21.012  25.065  1.00  0.00    -0.458 OA
BRANCH  31  32
ATOM     32  C   UNL A   1      39.324  21.030  26.181  1.00  0.00     0.338 C 
ATOM     33  O   UNL A   1      39.674  20.060  26.825  1.00  0.00    -0.246 OA
BRANCH  32  34
ATOM     34  C   UNL A   1      39.798  22.352  26.560  1.00  0.00     0.060 A 
ATOM     35  C   UNL A   1      40.831  22.414  27.501  1.00  0.00     0.016 A 
ATOM     36  C   UNL A   1      39.134  23.498  26.126  1.00  0.00     0.016 A 
ATOM     37  C   UNL A   1      41.250  23.648  27.972  1.00  0.00     0.010 A 
ATOM     38  C   UNL A   1      39.567  24.739  26.589  1.00  0.00     0.010 A 
ATOM     39  C   UNL A   1      40.642  24.818  27.490  1.00  0.00    -0.014 A 
BRANCH  39  40
ATOM     40  C   UNL A   1      41.276  26.117  27.780  1.00  0.00     0.031 A 
ATOM     41  C   UNL A   1      40.572  27.182  28.557  1.00  0.00     0.074 A 
ATOM     42  C   UNL A   1      42.514  26.310  27.287  1.00  0.00     0.049 A 
ATOM     43  N   UNL A   1      41.020  28.352  28.920  1.00  0.00    -0.248 NA
ATOM     44  C   UNL A   1      39.190  26.904  28.973  1.00  0.00     0.031 C 
ATOM     45  C   UNL A   1      43.248  25.335  26.472  1.00  0.00     0.029 A 
ATOM     46  N   UNL A   1      43.366  27.374  27.383  1.00  0.00    -0.354 N 
ATOM     47  C   UNL A   1      39.972  28.969  29.591  1.00  0.00     0.074 A 
ATOM     48  C   UNL A   1      38.860  28.040  29.578  1.00  0.00     0.031 C 
ATOM     49  C   UNL A   1      44.444  25.846  26.148  1.00  0.00     0.029 A 
ATOM     50  C   UNL A   1      44.550  27.186  26.711  1.00  0.00     0.049 A 
ATOM     51  H   UNL A   1      43.153  28.194  27.885  1.00  0.00     0.167 HD
ATOM     52  C   UNL A   1      39.955  30.193  30.170  1.00  0.00     0.034 A 
ATOM     53  C   UNL A   1      45.605  28.007  26.565  1.00  0.00     0.034 A 
ATOM     54  C   UNL A   1      41.081  31.092  30.179  1.00  0.00     0.049 A 
ATOM     55  C   UNL A   1      45.572  29.335  27.261  1.00  0.00     0.074 A 
ATOM     56  C   UNL A   1      41.190  32.333  30.781  1.00  0.00     0.029 A 
ATOM     57  N   UNL A   1      42.293  30.849  29.545  1.00  0.00    -0.354 N 
ATOM     58  N   UNL A   1      44.627  29.845  28.013  1.00  0.00    -0.248 NA
ATOM     59  C   UNL A   1      46.760  30.184  27.120  1.00  0.00     0.031 C 
ATOM     60  C   UNL A   1      42.464  32.845  30.501  1.00  0.00     0.029 A 
ATOM     61  C   UNL A   1      43.153  31.919  29.732  1.00  0.00     0.049 A 
ATOM     62  H   UNL A   1      42.509  30.034  29.036  1.00  0.00     0.167 HD
ATOM     63  C   UNL A   1      45.106  31.072  28.447  1.00  0.00     0.074 A 
ATOM     64  C   UNL A   1      46.445  31.208  27.903  1.00  0.00     0.031 C 
ATOM     65  C   UNL A   1      44.490  32.015  29.201  1.00  0.00     0.034 A 
BRANCH  52  66
ATOM     66  C   UNL A   1      38.695  30.613  30.880  1.00  0.00     0.023 A 
ATOM     67  C   UNL A   1      38.549  30.333  32.253  1.00  0.00     0.012 A 
ATOM     68  C   UNL A   1      37.684  31.330  30.210  1.00  0.00     0.148 A 
ATOM     69  C   UNL A   1      37.408  30.739  32.945  1.00  0.00     0.002 A 
ATOM     70  C   UNL A   1      36.563  31.760  30.914  1.00  0.00     0.091 A 
ATOM     71  F   UNL A   1      37.827  31.566  28.899  1.00  0.00    -0.205 F 
ATOM     72  C   UNL A   1      36.421  31.460  32.279  1.00  0.00     0.022 A 
BRANCH  70  73
ATOM     73  S   UNL A   1      35.266  32.748  30.157  1.00  0.00     0.127 S 
ATOM     74  O   UNL A   1      36.020  33.905  29.674  1.00  0.00    -0.237 OA
ATOM     75  O   UNL A   1      34.773  31.860  29.104  1.00  0.00    -0.237 OA
ATOM     76  O   UNL A   1      34.305  33.022  31.215  1.00  0.00    -0.744 OA
ENDBRANCH  70  73
ENDBRANCH  52  66
BRANCH  53  77
ATOM     77  C   UNL A   1      46.792  27.542  25.797  1.00  0.00     0.023 A 
ATOM     78  C   UNL A   1      46.879  27.826  24.422  1.00  0.00     0.012 A 
ATOM     79  C   UNL A   1      47.872  26.901  26.436  1.00  0.00     0.148 A 
ATOM     80  C   UNL A   1      48.013  27.466  23.693  1.00  0.00     0.002 A 
ATOM     81  C   UNL A   1      49.022  26.596  25.717  1.00  0.00     0.091 A 
ATOM     82  F   UNL A   1      47.766  26.623  27.744  1.00  0.00    -0.205 F 
ATOM     83  C   UNL A   1      49.089  26.865  24.342  1.00  0.00     0.022 A 
BRANCH  81  84
ATOM     84  S   UNL A   1      50.500  25.964  26.519  1.00  0.00     0.127 S 
ATOM     85  O   UNL A   1      50.808  27.031  27.467  1.00  0.00    -0.237 OA
ATOM     86  O   UNL A   1      50.019  24.722  27.126  1.00  0.00    -0.237 OA
ATOM     87  O   UNL A   1      51.463  25.763  25.444  1.00  0.00    -0.744 OA
ENDBRANCH  81  84
ENDBRANCH  53  77
BRANCH  65  88
ATOM     88  C   UNL A   1      45.261  33.280  29.461  1.00  0.00     0.023 A 
ATOM     89  C   UNL A   1      46.056  33.375  30.621  1.00  0.00     0.012 A 
ATOM     90  C   UNL A   1      45.229  34.353  28.552  1.00  0.00     0.148 A 
ATOM     91  C   UNL A   1      46.778  34.536  30.892  1.00  0.00     0.002 A 
ATOM     92  C   UNL A   1      45.986  35.491  28.808  1.00  0.00     0.091 A 
ATOM     93  F   UNL A   1      44.446  34.256  27.467  1.00  0.00    -0.205 F 
ATOM     94  C   UNL A   1      46.750  35.589  29.981  1.00  0.00     0.022 A 
BRANCH  92  95
ATOM     95  S   UNL A   1      46.065  36.855  27.641  1.00  0.00     0.127 S 
ATOM     96  O   UNL A   1      46.999  37.763  28.304  1.00  0.00    -0.237 OA
ATOM     97  O   UNL A   1      46.592  36.212  26.436  1.00  0.00    -0.237 OA
ATOM     98  O   UNL A   1      44.695  37.334  27.511  1.00  0.00    -0.744 OA
ENDBRANCH  92  95
ENDBRANCH  65  88
ENDBRANCH  39  40
ENDBRANCH  32  34
ENDBRANCH  31  32
ENDBRANCH  30  31
ENDBRANCH   1  30
TORSDOF 20
ENDMDL
MODEL 3
REMARK VINA RESULT:     -12.0      1.541      7.500
REMARK SMILES COc1ccc(C2=NN(C(=O)CCC(=O)OCCOC(=O)c3ccc(-c4c5nc(c(-c6cccc(S(=O)(=O)[O-])c6F)c6ccc([nH]6)c(-c6cccc(S(=O)(=O)[O-])c6F)c6nc(c(-c7cccc(S(=O)(=O)[O-])c7F)c7ccc4[nH]7)C=C6)C=C5)cc3)[C@H](c3ccc(Cl)cc3Cl)C2)cc1
REMARK SMILES IDX 17 1 16 2 14 3 15 4 13 5 12 6 10 7 11 8 9 9 7 10 8 11 94 12
REMARK SMILES IDX 85 13 6 14 3 15 4 16 96 17 5 18 95 19 2 20 1 21 86 22 87 23
REMARK SMILES IDX 92 24 88 25 91 26 93 27 89 28 90 29 18 30 19 31 20 32 21 33
REMARK SMILES IDX 22 34 23 35 84 36 24 37 83 38 25 39 26 40 27 41 77 42 28 43
REMARK SMILES IDX 82 44 76 45 78 46 29 47 81 48 75 49 74 50 30 52 62 53 42 54
REMARK SMILES IDX 61 55 43 56 46 57 60 58 79 59 44 60 45 61 59 63 80 64 47 65
REMARK SMILES IDX 31 66 32 67 40 68 33 69 35 70 41 71 34 72 36 73 37 74 38 75
REMARK SMILES IDX 39 76 63 77 64 78 72 79 65 80 67 81 73 82 66 83 68 84 69 85
REMARK SMILES IDX 70 86 71 87 48 88 49 89 57 90 50 91 52 92 58 93 51 94 53 95
REMARK SMILES IDX 54 96 55 97 56 98
REMARK H PARENT 78 51 46 62
REMARK Flexibility Score: inf
ROOT
ATOM      1  C   UNL A   1      38.444  19.348  25.007  1.00  0.00     0.274 C 
ENDROOT
BRANCH   1   2
ATOM      2  O   UNL A   1      37.366  20.306  25.074  1.00  0.00    -0.462 OA
BRANCH   2   3
ATOM      3  C   UNL A   1      37.734  21.614  25.133  1.00  0.00     0.306 C 
ATOM      4  O   UNL A   1      38.537  22.074  25.933  1.00  0.00    -0.252 OA
BRANCH   3   5
ATOM      5  C   UNL A   1      36.988  22.464  24.135  1.00  0.00     0.132 C 
BRANCH   5   6
ATOM      6  C   UNL A   1      36.352  23.716  24.732  1.00  0.00     0.114 C 
BRANCH   6   7
ATOM      7  C   UNL A   1      35.227  23.339  25.677  1.00  0.00     0.243 C 
ATOM      8  O   UNL A   1      35.326  23.682  26.863  1.00  0.00    -0.273 OA
BRANCH   7   9
ATOM      9  N   UNL A   1      34.185  22.542  25.203  1.00  0.00    -0.225 N 
ATOM     10  C   UNL A   1      33.574  20.496  24.892  1.00  0.00     0.071 C 
ATOM     11  N   UNL A   1      34.168  21.255  25.748  1.00  0.00    -0.174 NA
ATOM     12  C   UNL A   1      32.934  21.169  23.736  1.00  0.00     0.091 C 
ATOM     13  C   UNL A   1      33.508  22.576  23.889  1.00  0.00     0.149 C 
BRANCH  10  14
ATOM     14  C   UNL A   1      33.551  19.040  24.948  1.00  0.00    -0.002 A 
ATOM     15  C   UNL A   1      33.400  16.275  24.771  1.00  0.00     0.118 A 
ATOM     16  C   UNL A   1      32.411  16.995  25.452  1.00  0.00     0.047 A 
ATOM     17  C   UNL A   1      34.463  16.949  24.166  1.00  0.00     0.047 A 
ATOM     18  C   UNL A   1      32.483  18.384  25.549  1.00  0.00     0.014 A 
ATOM     19  C   UNL A   1      34.543  18.339  24.257  1.00  0.00     0.014 A 
BRANCH  15  20
ATOM     20  O   UNL A   1      33.203  14.922  24.722  1.00  0.00    -0.497 OA
ATOM     21  C   UNL A   1      32.467  14.375  25.809  1.00  0.00     0.278 C 
ENDBRANCH  15  20
ENDBRANCH  10  14
BRANCH  13  22
ATOM     22  C   UNL A   1      32.477  23.633  23.473  1.00  0.00    -0.004 A 
ATOM     23  C   UNL A   1      32.800  24.356  22.285  1.00  0.00     0.009 A 
ATOM     24  C   UNL A   1      31.394  24.120  24.218  1.00  0.00     0.047 A 
ATOM     25  C   UNL A   1      32.154  25.539  21.922  1.00  0.00     0.021 A 
ATOM     26  C   UNL A   1      30.768  25.333  23.872  1.00  0.00     0.041 A 
ATOM     27  Cl  UNL A   1      30.711  23.299  25.570  1.00  0.00    -0.084 Cl
ATOM     28  C   UNL A   1      31.165  26.045  22.746  1.00  0.00     0.042 A 
ATOM     29  Cl  UNL A   1      30.443  27.560  22.374  1.00  0.00    -0.084 Cl
ENDBRANCH  13  22
ENDBRANCH   7   9
ENDBRANCH   6   7
ENDBRANCH   5   6
ENDBRANCH   3   5
ENDBRANCH   2   3
ENDBRANCH   1   2
BRANCH   1  30
ATOM     30  C   UNL A   1      39.535  19.580  26.063  1.00  0.00     0.275 C 
BRANCH  30  31
ATOM     31  O   UNL A   1      40.864  19.317  25.573  1.00  0.00    -0.458 OA
BRANCH  31  32
ATOM     32  C   UNL A   1      41.838  19.607  26.458  1.00  0.00     0.338 C 
ATOM     33  O   UNL A   1      42.555  18.803  27.022  1.00  0.00    -0.246 OA
BRANCH  32  34
ATOM     34  C   UNL A   1      42.057  21.030  26.659  1.00  0.00     0.060 A 
ATOM     35  C   UNL A   1      42.123  21.485  27.980  1.00  0.00     0.016 A 
ATOM     36  C   UNL A   1      42.036  21.914  25.581  1.00  0.00     0.016 A 
ATOM     37  C   UNL A   1      42.229  22.845  28.228  1.00  0.00     0.010 A 
ATOM     38  C   UNL A   1      42.158  23.279  25.832  1.00  0.00     0.010 A 
ATOM     39  C   UNL A   1      42.282  23.744  27.152  1.00  0.00    -0.014 A 
BRANCH  39  40
ATOM     40  C   UNL A   1      42.674  25.141  27.415  1.00  0.00     0.031 A 
ATOM     41  C   UNL A   1      41.739  26.114  28.057  1.00  0.00     0.074 A 
ATOM     42  C   UNL A   1      43.908  25.507  27.022  1.00  0.00     0.049 A 
ATOM     43  N   UNL A   1      41.961  27.358  28.385  1.00  0.00    -0.248 NA
ATOM     44  C   UNL A   1      40.384  25.637  28.366  1.00  0.00     0.031 C 
ATOM     45  C   UNL A   1      44.862  24.626  26.339  1.00  0.00     0.029 A 
ATOM     46  N   UNL A   1      44.570  26.698  27.127  1.00  0.00    -0.354 N 
ATOM     47  C   UNL A   1      40.770  27.828  28.919  1.00  0.00     0.074 A 
ATOM     48  C   UNL A   1      39.823  26.733  28.866  1.00  0.00     0.031 C 
ATOM     49  C   UNL A   1      45.989  25.307  26.091  1.00  0.00     0.029 A 
ATOM     50  C   UNL A   1      45.829  26.672  26.575  1.00  0.00     0.049 A 
ATOM     51  H   UNL A   1      44.183  27.496  27.555  1.00  0.00     0.167 HD
ATOM     52  C   UNL A   1      40.505  29.060  29.416  1.00  0.00     0.034 A 
ATOM     53  C   UNL A   1      46.752  27.644  26.472  1.00  0.00     0.034 A 
ATOM     54  C   UNL A   1      41.470  30.128  29.468  1.00  0.00     0.049 A 
ATOM     55  C   UNL A   1      46.444  28.982  27.077  1.00  0.00     0.074 A 
ATOM     56  C   UNL A   1      41.325  31.398  29.998  1.00  0.00     0.029 A 
ATOM     57  N   UNL A   1      42.761  30.054  28.961  1.00  0.00    -0.354 N 
ATOM     58  N   UNL A   1      45.362  29.368  27.709  1.00  0.00    -0.248 NA
ATOM     59  C   UNL A   1      47.493  30.004  26.989  1.00  0.00     0.031 C 
ATOM     60  C   UNL A   1      42.524  32.095  29.800  1.00  0.00     0.029 A 
ATOM     61  C   UNL A   1      43.421  31.257  29.155  1.00  0.00     0.049 A 
ATOM     62  H   UNL A   1      43.150  29.262  28.525  1.00  0.00     0.167 HD
ATOM     63  C   UNL A   1      45.598  30.676  28.105  1.00  0.00     0.074 A 
ATOM     64  C   UNL A   1      46.946  31.000  27.675  1.00  0.00     0.031 C 
ATOM     65  C   UNL A   1      44.771  31.542  28.741  1.00  0.00     0.034 A 
BRANCH  52  66
ATOM     66  C   UNL A   1      39.131  29.305  29.983  1.00  0.00     0.023 A 
ATOM     67  C   UNL A   1      38.827  28.846  31.281  1.00  0.00     0.012 A 
ATOM     68  C   UNL A   1      38.163  30.032  29.264  1.00  0.00     0.148 A 
ATOM     69  C   UNL A   1      37.575  29.087  31.845  1.00  0.00     0.002 A 
ATOM     70  C   UNL A   1      36.927  30.297  29.846  1.00  0.00     0.091 A 
ATOM     71  F   UNL A   1      38.459  30.439  28.022  1.00  0.00    -0.205 F 
ATOM     72  C   UNL A   1      36.629  29.820  31.133  1.00  0.00     0.022 A 
BRANCH  70  73
ATOM     73  S   UNL A   1      35.666  31.284  29.031  1.00  0.00     0.127 S 
ATOM     74  O   UNL A   1      34.898  31.783  30.171  1.00  0.00    -0.237 OA
ATOM     75  O   UNL A   1      36.462  32.301  28.343  1.00  0.00    -0.237 OA
ATOM     76  O   UNL A   1      34.956  30.372  28.146  1.00  0.00    -0.744 OA
ENDBRANCH  70  73
ENDBRANCH  52  66
BRANCH  53  77
ATOM     77  C   UNL A   1      48.066  27.341  25.844  1.00  0.00     0.023 A 
ATOM     78  C   UNL A   1      49.069  26.717  26.608  1.00  0.00     0.012 A 
ATOM     79  C   UNL A   1      48.296  27.583  24.474  1.00  0.00     0.148 A 
ATOM     80  C   UNL A   1      50.284  26.356  26.026  1.00  0.00     0.002 A 
ATOM     81  C   UNL A   1      49.486  27.169  23.888  1.00  0.00     0.091 A 
ATOM     82  F   UNL A   1      47.335  28.192  23.764  1.00  0.00    -0.205 F 
ATOM     83  C   UNL A   1      50.487  26.568  24.664  1.00  0.00     0.022 A 
BRANCH  81  84
ATOM     84  S   UNL A   1      49.751  27.271  22.113  1.00  0.00     0.127 S 
ATOM     85  O   UNL A   1      48.690  26.408  21.600  1.00  0.00    -0.237 OA
ATOM     86  O   UNL A   1      49.564  28.699  21.851  1.00  0.00    -0.237 OA
ATOM     87  O   UNL A   1      51.115  26.804  21.902  1.00  0.00    -0.744 OA
ENDBRANCH  81  84
ENDBRANCH  53  77
BRANCH  65  88
ATOM     88  C   UNL A   1      45.306  32.926  28.987  1.00  0.00     0.023 A 
ATOM     89  C   UNL A   1      46.036  33.181  30.166  1.00  0.00     0.012 A 
ATOM     90  C   UNL A   1      45.120  33.958  28.050  1.00  0.00     0.148 A 
ATOM     91  C   UNL A   1      46.539  34.454  30.426  1.00  0.00     0.002 A 
ATOM     92  C   UNL A   1      45.662  35.214  28.296  1.00  0.00     0.091 A 
ATOM     93  F   UNL A   1      44.401  33.705  26.947  1.00  0.00    -0.205 F 
ATOM     94  C   UNL A   1      46.362  35.467  29.486  1.00  0.00     0.022 A 
BRANCH  92  95
ATOM     95  S   UNL A   1      45.545  36.545  27.095  1.00  0.00     0.127 S 
ATOM     96  O   UNL A   1      46.240  35.973  25.943  1.00  0.00    -0.237 OA
ATOM     97  O   UNL A   1      44.100  36.692  26.923  1.00  0.00    -0.237 OA
ATOM     98  O   UNL A   1      46.191  37.691  27.723  1.00  0.00    -0.744 OA
ENDBRANCH  92  95
ENDBRANCH  65  88
ENDBRANCH  39  40
ENDBRANCH  32  34
ENDBRANCH  31  32
ENDBRANCH  30  31
ENDBRANCH   1  30
TORSDOF 20
ENDMDL
