MODEL 1
REMARK VINA RESULT:     -13.4      0.000      0.000
REMARK SMILES O=C(OCCOC(=O)[C@H](c1c[nH]c2ccc(Cl)cc12)[NH+]1CCN(c2cccc(Cl)c2)CC1)c1ccc(-c2c3nc(c(-c4cccc(S(=O)(=O)[O-])c4F)c4ccc([nH]4)c(-c4cccc(S(=O)(=O)[O-])c4F)c4nc(c(-c5cccc(S(=O)(=O)[O-])c5F)c5ccc2[nH]5)C=C4)C=C3)cc1
REMARK SMILES IDX 4 1 3 2 2 3 1 4 33 5 34 6 95 7 35 8 94 9 36 10 37 11 38 12
REMARK SMILES IDX 88 13 39 14 93 15 87 16 89 17 40 18 92 19 86 20 85 21 41 23
REMARK SMILES IDX 73 24 53 25 72 26 54 27 57 28 71 29 90 30 55 31 56 32 70 34
REMARK SMILES IDX 91 35 58 36 42 37 43 38 51 39 44 40 46 41 52 42 45 43 47 44
REMARK SMILES IDX 48 45 49 46 50 47 74 48 75 49 83 50 76 51 78 52 84 53 77 54
REMARK SMILES IDX 79 55 80 56 81 57 82 58 59 59 60 60 68 61 61 62 63 63 69 64
REMARK SMILES IDX 62 65 64 66 65 67 66 68 67 69 5 70 6 71 7 72 8 73 9 74 20 75
REMARK SMILES IDX 21 76 32 77 22 79 31 80 23 81 24 82 25 83 30 84 26 85 28 86
REMARK SMILES IDX 27 87 29 88 10 89 11 90 19 91 12 92 13 93 18 94 14 96 16 97
REMARK SMILES IDX 15 98 17 99
REMARK H PARENT 89 22 57 33 20 78 12 95
REMARK Flexibility Score: inf
ROOT
ATOM      1  C   UNL A   1      31.775  30.096  26.694  1.00  0.00     0.275 C 
ENDROOT
BRANCH   1   2
ATOM      2  O   UNL A   1      32.996  30.850  26.549  1.00  0.00    -0.458 OA
BRANCH   2   3
ATOM      3  C   UNL A   1      33.753  31.529  27.444  1.00  0.00     0.338 C 
ATOM      4  O   UNL A   1      33.383  32.657  27.769  1.00  0.00    -0.246 OA
BRANCH   3   5
ATOM      5  C   UNL A   1      35.055  31.041  28.008  1.00  0.00     0.060 A 
ATOM      6  C   UNL A   1      35.341  29.733  28.396  1.00  0.00     0.016 A 
ATOM      7  C   UNL A   1      36.078  31.999  28.169  1.00  0.00     0.016 A 
ATOM      8  C   UNL A   1      36.636  29.368  28.794  1.00  0.00     0.010 A 
ATOM      9  C   UNL A   1      37.370  31.642  28.592  1.00  0.00     0.010 A 
ATOM     10  C   UNL A   1      37.676  30.309  28.854  1.00  0.00    -0.014 A 
BRANCH  10  11
ATOM     11  C   UNL A   1      38.980  29.887  29.427  1.00  0.00     0.031 A 
ATOM     12  C   UNL A   1      39.251  30.325  30.827  1.00  0.00     0.074 A 
ATOM     13  C   UNL A   1      39.861  29.089  28.788  1.00  0.00     0.049 A 
ATOM     14  N   UNL A   1      40.192  29.949  31.644  1.00  0.00    -0.248 NA
ATOM     15  C   UNL A   1      38.338  31.347  31.365  1.00  0.00     0.031 C 
ATOM     16  C   UNL A   1      39.779  28.697  27.392  1.00  0.00     0.029 A 
ATOM     17  N   UNL A   1      40.978  28.422  29.241  1.00  0.00    -0.354 N 
ATOM     18  C   UNL A   1      40.020  30.730  32.774  1.00  0.00     0.074 A 
ATOM     19  C   UNL A   1      38.859  31.563  32.559  1.00  0.00     0.031 C 
ATOM     20  C   UNL A   1      40.690  27.741  27.136  1.00  0.00     0.029 A 
ATOM     21  C   UNL A   1      41.507  27.530  28.325  1.00  0.00     0.049 A 
ATOM     22  H   UNL A   1      41.365  28.566  30.136  1.00  0.00     0.167 HD
ATOM     23  C   UNL A   1      40.794  30.787  33.879  1.00  0.00     0.034 A 
ATOM     24  C   UNL A   1      42.536  26.661  28.437  1.00  0.00     0.034 A 
ATOM     25  C   UNL A   1      41.994  30.024  34.051  1.00  0.00     0.049 A 
ATOM     26  C   UNL A   1      43.350  26.701  29.709  1.00  0.00     0.074 A 
ATOM     27  C   UNL A   1      42.884  30.051  35.106  1.00  0.00     0.029 A 
ATOM     28  N   UNL A   1      42.496  29.127  33.119  1.00  0.00    -0.354 N 
ATOM     29  N   UNL A   1      43.125  27.378  30.811  1.00  0.00    -0.248 NA
ATOM     30  C   UNL A   1      44.578  25.891  29.745  1.00  0.00     0.031 C 
ATOM     31  C   UNL A   1      43.944  29.194  34.797  1.00  0.00     0.029 A 
ATOM     32  C   UNL A   1      43.686  28.593  33.573  1.00  0.00     0.049 A 
ATOM     33  H   UNL A   1      42.067  28.904  32.261  1.00  0.00     0.167 HD
ATOM     34  C   UNL A   1      44.188  27.090  31.659  1.00  0.00     0.074 A 
ATOM     35  C   UNL A   1      45.023  26.127  30.972  1.00  0.00     0.031 C 
ATOM     36  C   UNL A   1      44.473  27.606  32.880  1.00  0.00     0.034 A 
BRANCH  23  37
ATOM     37  C   UNL A   1      40.381  31.782  34.920  1.00  0.00     0.023 A 
ATOM     38  C   UNL A   1      41.061  33.013  35.029  1.00  0.00     0.012 A 
ATOM     39  C   UNL A   1      39.371  31.458  35.844  1.00  0.00     0.148 A 
ATOM     40  C   UNL A   1      40.773  33.885  36.075  1.00  0.00     0.002 A 
ATOM     41  C   UNL A   1      39.055  32.356  36.852  1.00  0.00     0.091 A 
ATOM     42  F   UNL A   1      38.772  30.262  35.743  1.00  0.00    -0.205 F 
ATOM     43  C   UNL A   1      39.767  33.561  36.981  1.00  0.00     0.022 A 
BRANCH  41  44
ATOM     44  S   UNL A   1      37.733  32.059  38.028  1.00  0.00     0.127 S 
ATOM     45  O   UNL A   1      38.403  32.334  39.299  1.00  0.00    -0.237 OA
ATOM     46  O   UNL A   1      36.746  33.061  37.628  1.00  0.00    -0.237 OA
ATOM     47  O   UNL A   1      37.318  30.678  37.830  1.00  0.00    -0.744 OA
ENDBRANCH  41  44
ENDBRANCH  23  37
BRANCH  24  48
ATOM     48  C   UNL A   1      42.894  25.692  27.346  1.00  0.00     0.023 A 
ATOM     49  C   UNL A   1      43.778  26.093  26.318  1.00  0.00     0.012 A 
ATOM     50  C   UNL A   1      42.348  24.395  27.284  1.00  0.00     0.148 A 
ATOM     51  C   UNL A   1      44.076  25.246  25.246  1.00  0.00     0.002 A 
ATOM     52  C   UNL A   1      42.711  23.527  26.258  1.00  0.00     0.091 A 
ATOM     53  F   UNL A   1      41.463  24.033  28.224  1.00  0.00    -0.205 F 
ATOM     54  C   UNL A   1      43.554  23.957  25.223  1.00  0.00     0.022 A 
BRANCH  52  55
ATOM     55  S   UNL A   1      42.211  21.801  26.240  1.00  0.00     0.127 S 
ATOM     56  O   UNL A   1      42.534  21.379  27.601  1.00  0.00    -0.237 OA
ATOM     57  O   UNL A   1      40.779  21.904  25.951  1.00  0.00    -0.237 OA
ATOM     58  O   UNL A   1      42.990  21.179  25.179  1.00  0.00    -0.744 OA
ENDBRANCH  52  55
ENDBRANCH  24  48
BRANCH  36  59
ATOM     59  C   UNL A   1      45.723  27.126  33.567  1.00  0.00     0.023 A 
ATOM     60  C   UNL A   1      46.929  27.839  33.421  1.00  0.00     0.012 A 
ATOM     61  C   UNL A   1      45.666  26.025  34.443  1.00  0.00     0.148 A 
ATOM     62  C   UNL A   1      48.069  27.446  34.121  1.00  0.00     0.002 A 
ATOM     63  C   UNL A   1      46.790  25.675  35.178  1.00  0.00     0.091 A 
ATOM     64  F   UNL A   1      44.511  25.353  34.549  1.00  0.00    -0.205 F 
ATOM     65  C   UNL A   1      47.995  26.376  35.010  1.00  0.00     0.022 A 
BRANCH  63  66
ATOM     66  S   UNL A   1      46.754  24.382  36.424  1.00  0.00     0.127 S 
ATOM     67  O   UNL A   1      46.324  23.226  35.637  1.00  0.00    -0.237 OA
ATOM     68  O   UNL A   1      48.148  24.338  36.863  1.00  0.00    -0.237 OA
ATOM     69  O   UNL A   1      45.812  24.829  37.441  1.00  0.00    -0.744 OA
ENDBRANCH  63  66
ENDBRANCH  36  59
ENDBRANCH  10  11
ENDBRANCH   3   5
ENDBRANCH   2   3
ENDBRANCH   1   2
BRANCH   1  70
ATOM     70  C   UNL A   1      31.954  28.755  27.395  1.00  0.00     0.274 C 
BRANCH  70  71
ATOM     71  O   UNL A   1      32.450  27.756  26.495  1.00  0.00    -0.457 OA
BRANCH  71  72
ATOM     72  C   UNL A   1      31.550  26.852  26.002  1.00  0.00     0.370 C 
ATOM     73  O   UNL A   1      30.554  26.491  26.630  1.00  0.00    -0.245 OA
BRANCH  72  74
ATOM     74  C   UNL A   1      31.945  26.400  24.579  1.00  0.00     0.328 C 
BRANCH  74  75
ATOM     75  N   UNL A   1      31.386  25.094  24.126  1.00  0.00    -0.316 N 
ATOM     76  C   UNL A   1      32.010  24.460  22.960  1.00  0.00     0.284 C 
ATOM     77  C   UNL A   1      31.148  24.046  25.117  1.00  0.00     0.284 C 
ATOM     78  H   UNL A   1      30.481  25.482  23.860  1.00  0.00     0.349 HD
ATOM     79  C   UNL A   1      33.192  23.499  23.153  1.00  0.00     0.178 C 
ATOM     80  C   UNL A   1      32.432  23.367  25.598  1.00  0.00     0.178 C 
ATOM     81  N   UNL A   1      33.254  22.886  24.482  1.00  0.00    -0.360 N 
BRANCH  81  82
ATOM     82  C   UNL A   1      33.752  21.597  24.514  1.00  0.00     0.038 A 
ATOM     83  C   UNL A   1      35.098  21.358  24.814  1.00  0.00     0.026 A 
ATOM     84  C   UNL A   1      32.898  20.508  24.324  1.00  0.00     0.046 A 
ATOM     85  C   UNL A   1      35.590  20.060  24.906  1.00  0.00     0.004 A 
ATOM     86  C   UNL A   1      33.392  19.209  24.405  1.00  0.00     0.043 A 
ATOM     87  C   UNL A   1      34.736  18.981  24.695  1.00  0.00     0.020 A 
ATOM     88  Cl  UNL A   1      32.331  17.878  24.148  1.00  0.00    -0.084 Cl
ENDBRANCH  81  82
ENDBRANCH  74  75
BRANCH  74  89
ATOM     89  C   UNL A   1      31.653  27.447  23.509  1.00  0.00     0.046 A 
ATOM     90  C   UNL A   1      32.589  28.076  22.700  1.00  0.00     0.094 A 
ATOM     91  C   UNL A   1      30.385  28.046  23.168  1.00  0.00     0.011 A 
ATOM     92  N   UNL A   1      32.002  29.166  22.127  1.00  0.00    -0.361 N 
ATOM     93  C   UNL A   1      30.657  29.172  22.387  1.00  0.00     0.046 A 
ATOM     94  C   UNL A   1      29.034  27.791  23.483  1.00  0.00     0.031 A 
ATOM     95  H   UNL A   1      32.478  29.851  21.604  1.00  0.00     0.166 HD
ATOM     96  C   UNL A   1      29.679  30.100  22.006  1.00  0.00     0.028 A 
ATOM     97  C   UNL A   1      28.034  28.668  23.045  1.00  0.00     0.041 A 
ATOM     98  C   UNL A   1      28.353  29.825  22.348  1.00  0.00     0.022 A 
ATOM     99  Cl  UNL A   1      26.382  28.298  23.366  1.00  0.00    -0.084 Cl
ENDBRANCH  74  89
ENDBRANCH  72  74
ENDBRANCH  71  72
ENDBRANCH  70  71
ENDBRANCH   1  70
TORSDOF 17
ENDMDL
MODEL 2
REMARK VINA RESULT:     -13.3      4.807     10.193
REMARK SMILES O=C(OCCOC(=O)[C@H](c1c[nH]c2ccc(Cl)cc12)[NH+]1CCN(c2cccc(Cl)c2)CC1)c1ccc(-c2c3nc(c(-c4cccc(S(=O)(=O)[O-])c4F)c4ccc([nH]4)c(-c4cccc(S(=O)(=O)[O-])c4F)c4nc(c(-c5cccc(S(=O)(=O)[O-])c5F)c5ccc2[nH]5)C=C4)C=C3)cc1
REMARK SMILES IDX 4 1 3 2 2 3 1 4 33 5 34 6 95 7 35 8 94 9 36 10 37 11 38 12
REMARK SMILES IDX 88 13 39 14 93 15 87 16 89 17 40 18 92 19 86 20 85 21 41 23
REMARK SMILES IDX 73 24 53 25 72 26 54 27 57 28 71 29 90 30 55 31 56 32 70 34
REMARK SMILES IDX 91 35 58 36 42 37 43 38 51 39 44 40 46 41 52 42 45 43 47 44
REMARK SMILES IDX 48 45 49 46 50 47 74 48 75 49 83 50 76 51 78 52 84 53 77 54
REMARK SMILES IDX 79 55 80 56 81 57 82 58 59 59 60 60 68 61 61 62 63 63 69 64
REMARK SMILES IDX 62 65 64 66 65 67 66 68 67 69 5 70 6 71 7 72 8 73 9 74 20 75
REMARK SMILES IDX 21 76 32 77 22 79 31 80 23 81 24 82 25 83 30 84 26 85 28 86
REMARK SMILES IDX 27 87 29 88 10 89 11 90 19 91 12 92 13 93 18 94 14 96 16 97
REMARK SMILES IDX 15 98 17 99
REMARK H PARENT 89 22 57 33 20 78 12 95
REMARK Flexibility Score: inf
ROOT
ATOM      1  C   UNL A   1      37.248  20.962  24.492  1.00  0.00     0.275 C 
ENDROOT
BRANCH   1   2
ATOM      2  O   UNL A   1      37.889  20.926  25.784  1.00  0.00    -0.458 OA
BRANCH   2   3
ATOM      3  C   UNL A   1      39.185  21.061  26.155  1.00  0.00     0.338 C 
ATOM      4  O   UNL A   1      39.898  20.058  26.125  1.00  0.00    -0.246 OA
BRANCH   3   5
ATOM      5  C   UNL A   1      39.797  22.326  26.682  1.00  0.00     0.060 A 
ATOM      6  C   UNL A   1      40.826  22.411  27.619  1.00  0.00     0.016 A 
ATOM      7  C   UNL A   1      39.273  23.540  26.189  1.00  0.00     0.016 A 
ATOM      8  C   UNL A   1      41.403  23.647  27.943  1.00  0.00     0.010 A 
ATOM      9  C   UNL A   1      39.832  24.783  26.532  1.00  0.00     0.010 A 
ATOM     10  C   UNL A   1      40.942  24.843  27.370  1.00  0.00    -0.014 A 
BRANCH  10  11
ATOM     11  C   UNL A   1      41.496  26.127  27.872  1.00  0.00     0.031 A 
ATOM     12  C   UNL A   1      42.838  26.510  27.343  1.00  0.00     0.074 A 
ATOM     13  C   UNL A   1      40.831  26.965  28.693  1.00  0.00     0.049 A 
ATOM     14  N   UNL A   1      43.471  27.643  27.440  1.00  0.00    -0.248 NA
ATOM     15  C   UNL A   1      43.567  25.455  26.621  1.00  0.00     0.031 C 
ATOM     16  C   UNL A   1      39.585  26.660  29.373  1.00  0.00     0.029 A 
ATOM     17  N   UNL A   1      41.084  28.268  29.062  1.00  0.00    -0.354 N 
ATOM     18  C   UNL A   1      44.700  27.420  26.842  1.00  0.00     0.074 A 
ATOM     19  C   UNL A   1      44.704  26.064  26.341  1.00  0.00     0.031 C 
ATOM     20  C   UNL A   1      39.093  27.776  29.940  1.00  0.00     0.029 A 
ATOM     21  C   UNL A   1      40.050  28.861  29.765  1.00  0.00     0.049 A 
ATOM     22  H   UNL A   1      41.923  28.736  28.845  1.00  0.00     0.167 HD
ATOM     23  C   UNL A   1      45.756  28.257  26.759  1.00  0.00     0.034 A 
ATOM     24  C   UNL A   1      39.908  30.126  30.220  1.00  0.00     0.034 A 
ATOM     25  C   UNL A   1      45.780  29.568  27.335  1.00  0.00     0.049 A 
ATOM     26  C   UNL A   1      41.083  31.063  30.061  1.00  0.00     0.074 A 
ATOM     27  C   UNL A   1      46.822  30.474  27.361  1.00  0.00     0.029 A 
ATOM     28  N   UNL A   1      44.723  30.144  28.025  1.00  0.00    -0.354 N 
ATOM     29  N   UNL A   1      42.207  30.872  29.412  1.00  0.00    -0.248 NA
ATOM     30  C   UNL A   1      40.991  32.372  30.727  1.00  0.00     0.031 C 
ATOM     31  C   UNL A   1      46.406  31.586  28.099  1.00  0.00     0.029 A 
ATOM     32  C   UNL A   1      45.087  31.394  28.485  1.00  0.00     0.049 A 
ATOM     33  H   UNL A   1      43.845  29.722  28.167  1.00  0.00     0.167 HD
ATOM     34  C   UNL A   1      42.960  32.024  29.605  1.00  0.00     0.074 A 
ATOM     35  C   UNL A   1      42.140  32.935  30.376  1.00  0.00     0.031 C 
ATOM     36  C   UNL A   1      44.231  32.292  29.217  1.00  0.00     0.034 A 
BRANCH  23  37
ATOM     37  C   UNL A   1      46.982  27.705  26.096  1.00  0.00     0.023 A 
ATOM     38  C   UNL A   1      47.138  27.815  24.699  1.00  0.00     0.012 A 
ATOM     39  C   UNL A   1      47.937  27.004  26.853  1.00  0.00     0.148 A 
ATOM     40  C   UNL A   1      48.205  27.191  24.059  1.00  0.00     0.002 A 
ATOM     41  C   UNL A   1      49.025  26.429  26.214  1.00  0.00     0.091 A 
ATOM     42  F   UNL A   1      47.740  26.877  28.173  1.00  0.00    -0.205 F 
ATOM     43  C   UNL A   1      49.152  26.505  24.816  1.00  0.00     0.022 A 
BRANCH  41  44
ATOM     44  S   UNL A   1      50.330  25.580  27.106  1.00  0.00     0.127 S 
ATOM     45  O   UNL A   1      49.649  24.356  27.528  1.00  0.00    -0.237 OA
ATOM     46  O   UNL A   1      51.334  25.391  26.060  1.00  0.00    -0.237 OA
ATOM     47  O   UNL A   1      50.730  26.473  28.183  1.00  0.00    -0.744 OA
ENDBRANCH  41  44
ENDBRANCH  23  37
BRANCH  24  48
ATOM     48  C   UNL A   1      38.647  30.607  30.880  1.00  0.00     0.023 A 
ATOM     49  C   UNL A   1      38.462  30.398  32.267  1.00  0.00     0.012 A 
ATOM     50  C   UNL A   1      37.613  31.233  30.158  1.00  0.00     0.148 A 
ATOM     51  C   UNL A   1      37.271  30.765  32.902  1.00  0.00     0.002 A 
ATOM     52  C   UNL A   1      36.463  31.668  30.811  1.00  0.00     0.091 A 
ATOM     53  F   UNL A   1      37.760  31.378  28.834  1.00  0.00    -0.205 F 
ATOM     54  C   UNL A   1      36.277  31.414  32.178  1.00  0.00     0.022 A 
BRANCH  52  55
ATOM     55  S   UNL A   1      35.205  32.652  29.986  1.00  0.00     0.127 S 
ATOM     56  O   UNL A   1      34.756  31.746  28.933  1.00  0.00    -0.237 OA
ATOM     57  O   UNL A   1      34.238  32.871  31.064  1.00  0.00    -0.237 OA
ATOM     58  O   UNL A   1      35.884  33.860  29.540  1.00  0.00    -0.744 OA
ENDBRANCH  52  55
ENDBRANCH  24  48
BRANCH  36  59
ATOM     59  C   UNL A   1      44.810  33.629  29.594  1.00  0.00     0.023 A 
ATOM     60  C   UNL A   1      45.562  33.767  30.777  1.00  0.00     0.012 A 
ATOM     61  C   UNL A   1      44.693  34.721  28.713  1.00  0.00     0.148 A 
ATOM     62  C   UNL A   1      46.170  34.982  31.090  1.00  0.00     0.002 A 
ATOM     63  C   UNL A   1      45.347  35.910  29.003  1.00  0.00     0.091 A 
ATOM     64  F   UNL A   1      43.956  34.569  27.603  1.00  0.00    -0.205 F 
ATOM     65  C   UNL A   1      46.075  36.047  30.196  1.00  0.00     0.022 A 
BRANCH  63  66
ATOM     66  S   UNL A   1      45.369  37.293  27.858  1.00  0.00     0.127 S 
ATOM     67  O   UNL A   1      45.822  38.384  28.721  1.00  0.00    -0.237 OA
ATOM     68  O   UNL A   1      46.348  36.854  26.863  1.00  0.00    -0.237 OA
ATOM     69  O   UNL A   1      44.009  37.420  27.354  1.00  0.00    -0.744 OA
ENDBRANCH  63  66
ENDBRANCH  36  59
ENDBRANCH  10  11
ENDBRANCH   3   5
ENDBRANCH   2   3
ENDBRANCH   1   2
BRANCH   1  70
ATOM     70  C   UNL A   1      36.863  22.362  24.030  1.00  0.00     0.274 C 
BRANCH  70  71
ATOM     71  O   UNL A   1      35.441  22.506  23.921  1.00  0.00    -0.457 OA
BRANCH  71  72
ATOM     72  C   UNL A   1      34.854  23.511  24.639  1.00  0.00     0.370 C 
ATOM     73  O   UNL A   1      35.464  24.518  24.999  1.00  0.00    -0.245 OA
BRANCH  72  74
ATOM     74  C   UNL A   1      33.359  23.211  24.887  1.00  0.00     0.328 C 
BRANCH  74  75
ATOM     75  N   UNL A   1      32.442  23.451  23.737  1.00  0.00    -0.316 N 
ATOM     76  C   UNL A   1      31.017  23.631  24.035  1.00  0.00     0.284 C 
ATOM     77  C   UNL A   1      32.809  24.454  22.738  1.00  0.00     0.284 C 
ATOM     78  H   UNL A   1      32.590  22.531  23.323  1.00  0.00     0.349 HD
ATOM     79  C   UNL A   1      30.469  25.036  24.325  1.00  0.00     0.178 C 
ATOM     80  C   UNL A   1      32.623  25.890  23.229  1.00  0.00     0.178 C 
ATOM     81  N   UNL A   1      31.277  26.122  23.764  1.00  0.00    -0.360 N 
BRANCH  81  82
ATOM     82  C   UNL A   1      30.567  27.234  23.355  1.00  0.00     0.038 A 
ATOM     83  C   UNL A   1      31.204  28.280  22.677  1.00  0.00     0.026 A 
ATOM     84  C   UNL A   1      29.183  27.294  23.543  1.00  0.00     0.046 A 
ATOM     85  C   UNL A   1      30.482  29.375  22.211  1.00  0.00     0.004 A 
ATOM     86  C   UNL A   1      28.462  28.394  23.087  1.00  0.00     0.043 A 
ATOM     87  C   UNL A   1      29.107  29.435  22.422  1.00  0.00     0.020 A 
ATOM     88  Cl  UNL A   1      26.761  28.463  23.344  1.00  0.00    -0.084 Cl
ENDBRANCH  81  82
ENDBRANCH  74  75
BRANCH  74  89
ATOM     89  C   UNL A   1      33.105  21.805  25.422  1.00  0.00     0.046 A 
ATOM     90  C   UNL A   1      33.144  21.415  26.753  1.00  0.00     0.094 A 
ATOM     91  C   UNL A   1      32.850  20.598  24.675  1.00  0.00     0.011 A 
ATOM     92  N   UNL A   1      33.205  20.054  26.803  1.00  0.00    -0.361 N 
ATOM     93  C   UNL A   1      33.019  19.524  25.553  1.00  0.00     0.046 A 
ATOM     94  C   UNL A   1      32.547  20.290  23.332  1.00  0.00     0.031 A 
ATOM     95  H   UNL A   1      33.360  19.527  27.620  1.00  0.00     0.166 HD
ATOM     96  C   UNL A   1      33.013  18.185  25.142  1.00  0.00     0.028 A 
ATOM     97  C   UNL A   1      32.461  18.955  22.920  1.00  0.00     0.041 A 
ATOM     98  C   UNL A   1      32.727  17.916  23.803  1.00  0.00     0.022 A 
ATOM     99  Cl  UNL A   1      32.009  18.595  21.297  1.00  0.00    -0.084 Cl
ENDBRANCH  74  89
ENDBRANCH  72  74
ENDBRANCH  71  72
ENDBRANCH  70  71
ENDBRANCH   1  70
TORSDOF 17
ENDMDL
MODEL 3
REMARK VINA RESULT:     -13.0      5.112      9.396
REMARK SMILES O=C(OCCOC(=O)[C@H](c1c[nH]c2ccc(Cl)cc12)[NH+]1CCN(c2cccc(Cl)c2)CC1)c1ccc(-c2c3nc(c(-c4cccc(S(=O)(=O)[O-])c4F)c4ccc([nH]4)c(-c4cccc(S(=O)(=O)[O-])c4F)c4nc(c(-c5cccc(S(=O)(=O)[O-])c5F)c5ccc2[nH]5)C=C4)C=C3)cc1
REMARK SMILES IDX 4 1 3 2 2 3 1 4 33 5 34 6 95 7 35 8 94 9 36 10 37 11 38 12
REMARK SMILES IDX 88 13 39 14 93 15 87 16 89 17 40 18 92 19 86 20 85 21 41 23
REMARK SMILES IDX 73 24 53 25 72 26 54 27 57 28 71 29 90 30 55 31 56 32 70 34
REMARK SMILES IDX 91 35 58 36 42 37 43 38 51 39 44 40 46 41 52 42 45 43 47 44
REMARK SMILES IDX 48 45 49 46 50 47 74 48 75 49 83 50 76 51 78 52 84 53 77 54
REMARK SMILES IDX 79 55 80 56 81 57 82 58 59 59 60 60 68 61 61 62 63 63 69 64
REMARK SMILES IDX 62 65 64 66 65 67 66 68 67 69 5 70 6 71 7 72 8 73 9 74 20 75
REMARK SMILES IDX 21 76 32 77 22 79 31 80 23 81 24 82 25 83 30 84 26 85 28 86
REMARK SMILES IDX 27 87 29 88 10 89 11 90 19 91 12 92 13 93 18 94 14 96 16 97
REMARK SMILES IDX 15 98 17 99
REMARK H PARENT 89 22 57 33 20 78 12 95
REMARK Flexibility Score: inf
ROOT
ATOM      1  C   UNL A   1      35.422  21.831  26.386  1.00  0.00     0.275 C 
ENDROOT
BRANCH   1   2
ATOM      2  O   UNL A   1      36.519  21.470  25.521  1.00  0.00    -0.458 OA
BRANCH   2   3
ATOM      3  C   UNL A   1      37.861  21.501  25.701  1.00  0.00     0.338 C 
ATOM      4  O   UNL A   1      38.501  20.487  25.424  1.00  0.00    -0.246 OA
BRANCH   3   5
ATOM      5  C   UNL A   1      38.619  22.654  26.291  1.00  0.00     0.060 A 
ATOM      6  C   UNL A   1      39.656  22.565  27.219  1.00  0.00     0.016 A 
ATOM      7  C   UNL A   1      38.237  23.947  25.874  1.00  0.00     0.016 A 
ATOM      8  C   UNL A   1      40.375  23.705  27.606  1.00  0.00     0.010 A 
ATOM      9  C   UNL A   1      38.940  25.095  26.280  1.00  0.00     0.010 A 
ATOM     10  C   UNL A   1      40.054  24.977  27.106  1.00  0.00    -0.014 A 
BRANCH  10  11
ATOM     11  C   UNL A   1      40.757  26.157  27.674  1.00  0.00     0.031 A 
ATOM     12  C   UNL A   1      42.138  26.401  27.166  1.00  0.00     0.074 A 
ATOM     13  C   UNL A   1      40.193  27.027  28.537  1.00  0.00     0.049 A 
ATOM     14  N   UNL A   1      42.904  27.442  27.320  1.00  0.00    -0.248 NA
ATOM     15  C   UNL A   1      42.738  25.303  26.391  1.00  0.00     0.031 C 
ATOM     16  C   UNL A   1      38.914  26.841  29.200  1.00  0.00     0.029 A 
ATOM     17  N   UNL A   1      40.600  28.269  28.972  1.00  0.00    -0.354 N 
ATOM     18  C   UNL A   1      44.100  27.102  26.712  1.00  0.00     0.074 A 
ATOM     19  C   UNL A   1      43.943  25.783  26.142  1.00  0.00     0.031 C 
ATOM     20  C   UNL A   1      38.557  27.979  29.824  1.00  0.00     0.029 A 
ATOM     21  C   UNL A   1      39.641  28.947  29.705  1.00  0.00     0.049 A 
ATOM     22  H   UNL A   1      41.491  28.642  28.780  1.00  0.00     0.167 HD
ATOM     23  C   UNL A   1      45.251  27.807  26.673  1.00  0.00     0.034 A 
ATOM     24  C   UNL A   1      39.650  30.195  30.224  1.00  0.00     0.034 A 
ATOM     25  C   UNL A   1      45.430  29.075  27.315  1.00  0.00     0.049 A 
ATOM     26  C   UNL A   1      40.931  30.989  30.113  1.00  0.00     0.074 A 
ATOM     27  C   UNL A   1      46.574  29.845  27.387  1.00  0.00     0.029 A 
ATOM     28  N   UNL A   1      44.446  29.739  28.033  1.00  0.00    -0.354 N 
ATOM     29  N   UNL A   1      42.028  30.696  29.455  1.00  0.00    -0.248 NA
ATOM     30  C   UNL A   1      40.995  32.264  30.845  1.00  0.00     0.031 C 
ATOM     31  C   UNL A   1      46.291  30.961  28.181  1.00  0.00     0.029 A 
ATOM     32  C   UNL A   1      44.956  30.911  28.557  1.00  0.00     0.049 A 
ATOM     33  H   UNL A   1      43.522  29.421  28.153  1.00  0.00     0.167 HD
ATOM     34  C   UNL A   1      42.914  31.737  29.707  1.00  0.00     0.074 A 
ATOM     35  C   UNL A   1      42.206  32.700  30.524  1.00  0.00     0.031 C 
ATOM     36  C   UNL A   1      44.211  31.868  29.334  1.00  0.00     0.034 A 
BRANCH  23  37
ATOM     37  C   UNL A   1      46.404  27.145  25.982  1.00  0.00     0.023 A 
ATOM     38  C   UNL A   1      47.152  26.154  26.650  1.00  0.00     0.012 A 
ATOM     39  C   UNL A   1      46.795  27.570  24.699  1.00  0.00     0.148 A 
ATOM     40  C   UNL A   1      48.303  25.629  26.067  1.00  0.00     0.002 A 
ATOM     41  C   UNL A   1      47.912  27.005  24.105  1.00  0.00     0.091 A 
ATOM     42  F   UNL A   1      46.091  28.546  24.107  1.00  0.00    -0.205 F 
ATOM     43  C   UNL A   1      48.679  26.049  24.794  1.00  0.00     0.022 A 
BRANCH  41  44
ATOM     44  S   UNL A   1      48.441  27.432  22.445  1.00  0.00     0.127 S 
ATOM     45  O   UNL A   1      47.307  28.224  21.969  1.00  0.00    -0.237 OA
ATOM     46  O   UNL A   1      49.657  28.201  22.706  1.00  0.00    -0.237 OA
ATOM     47  O   UNL A   1      48.654  26.170  21.751  1.00  0.00    -0.744 OA
ENDBRANCH  41  44
ENDBRANCH  23  37
BRANCH  24  48
ATOM     48  C   UNL A   1      38.453  30.792  30.908  1.00  0.00     0.023 A 
ATOM     49  C   UNL A   1      38.333  30.697  32.313  1.00  0.00     0.012 A 
ATOM     50  C   UNL A   1      37.414  31.417  30.193  1.00  0.00     0.148 A 
ATOM     51  C   UNL A   1      37.199  31.173  32.978  1.00  0.00     0.002 A 
ATOM     52  C   UNL A   1      36.324  31.962  30.867  1.00  0.00     0.091 A 
ATOM     53  F   UNL A   1      37.496  31.456  28.856  1.00  0.00    -0.205 F 
ATOM     54  C   UNL A   1      36.201  31.820  32.257  1.00  0.00     0.022 A 
BRANCH  52  55
ATOM     55  S   UNL A   1      35.075  32.949  30.033  1.00  0.00     0.127 S 
ATOM     56  O   UNL A   1      34.489  31.978  29.113  1.00  0.00    -0.237 OA
ATOM     57  O   UNL A   1      34.209  33.342  31.147  1.00  0.00    -0.237 OA
ATOM     58  O   UNL A   1      35.796  34.054  29.419  1.00  0.00    -0.744 OA
ENDBRANCH  52  55
ENDBRANCH  24  48
BRANCH  36  59
ATOM     59  C   UNL A   1      44.945  33.104  29.779  1.00  0.00     0.023 A 
ATOM     60  C   UNL A   1      45.702  33.088  30.966  1.00  0.00     0.012 A 
ATOM     61  C   UNL A   1      44.965  34.245  28.956  1.00  0.00     0.148 A 
ATOM     62  C   UNL A   1      46.451  34.203  31.341  1.00  0.00     0.002 A 
ATOM     63  C   UNL A   1      45.757  35.330  29.306  1.00  0.00     0.091 A 
ATOM     64  F   UNL A   1      44.221  34.242  27.841  1.00  0.00    -0.205 F 
ATOM     65  C   UNL A   1      46.490  35.316  30.504  1.00  0.00     0.022 A 
BRANCH  63  66
ATOM     66  S   UNL A   1      45.952  36.758  28.235  1.00  0.00     0.127 S 
ATOM     67  O   UNL A   1      44.620  37.359  28.298  1.00  0.00    -0.237 OA
ATOM     68  O   UNL A   1      46.998  37.517  28.920  1.00  0.00    -0.237 OA
ATOM     69  O   UNL A   1      46.339  36.234  26.933  1.00  0.00    -0.744 OA
ENDBRANCH  63  66
ENDBRANCH  36  59
ENDBRANCH  10  11
ENDBRANCH   3   5
ENDBRANCH   2   3
ENDBRANCH   1   2
BRANCH   1  70
ATOM     70  C   UNL A   1      34.878  23.234  26.143  1.00  0.00     0.274 C 
BRANCH  70  71
ATOM     71  O   UNL A   1      33.987  23.640  27.190  1.00  0.00    -0.457 OA
BRANCH  71  72
ATOM     72  C   UNL A   1      32.676  23.842  26.855  1.00  0.00     0.370 C 
ATOM     73  O   UNL A   1      31.746  23.601  27.626  1.00  0.00    -0.245 OA
BRANCH  72  74
ATOM     74  C   UNL A   1      32.554  24.428  25.431  1.00  0.00     0.328 C 
BRANCH  74  75
ATOM     75  N   UNL A   1      31.844  23.580  24.432  1.00  0.00    -0.316 N 
ATOM     76  C   UNL A   1      32.602  23.149  23.252  1.00  0.00     0.284 C 
ATOM     77  C   UNL A   1      31.075  22.428  24.901  1.00  0.00     0.284 C 
ATOM     78  H   UNL A   1      31.182  24.308  24.164  1.00  0.00     0.349 HD
ATOM     79  C   UNL A   1      33.399  21.837  23.294  1.00  0.00     0.178 C 
ATOM     80  C   UNL A   1      31.952  21.250  25.327  1.00  0.00     0.178 C 
ATOM     81  N   UNL A   1      32.917  20.874  24.287  1.00  0.00    -0.360 N 
BRANCH  81  82
ATOM     82  C   UNL A   1      33.047  19.545  23.932  1.00  0.00     0.038 A 
ATOM     83  C   UNL A   1      32.353  19.026  22.833  1.00  0.00     0.026 A 
ATOM     84  C   UNL A   1      33.938  18.717  24.621  1.00  0.00     0.046 A 
ATOM     85  C   UNL A   1      32.527  17.704  22.437  1.00  0.00     0.004 A 
ATOM     86  C   UNL A   1      34.104  17.391  24.232  1.00  0.00     0.043 A 
ATOM     87  C   UNL A   1      33.401  16.881  23.142  1.00  0.00     0.020 A 
ATOM     88  Cl  UNL A   1      35.190  16.379  25.103  1.00  0.00    -0.084 Cl
ENDBRANCH  81  82
ENDBRANCH  74  75
BRANCH  74  89
ATOM     89  C   UNL A   1      31.940  25.824  25.403  1.00  0.00     0.046 A 
ATOM     90  C   UNL A   1      30.687  26.159  24.910  1.00  0.00     0.094 A 
ATOM     91  C   UNL A   1      32.542  27.073  25.803  1.00  0.00     0.011 A 
ATOM     92  N   UNL A   1      30.634  27.511  24.744  1.00  0.00    -0.361 N 
ATOM     93  C   UNL A   1      31.747  28.099  25.287  1.00  0.00     0.046 A 
ATOM     94  C   UNL A   1      33.708  27.450  26.501  1.00  0.00     0.031 A 
ATOM     95  H   UNL A   1      29.903  27.995  24.298  1.00  0.00     0.166 HD
ATOM     96  C   UNL A   1      32.109  29.452  25.334  1.00  0.00     0.028 A 
ATOM     97  C   UNL A   1      34.045  28.803  26.624  1.00  0.00     0.041 A 
ATOM     98  C   UNL A   1      33.278  29.789  26.018  1.00  0.00     0.022 A 
ATOM     99  Cl  UNL A   1      35.427  29.252  27.550  1.00  0.00    -0.084 Cl
ENDBRANCH  74  89
ENDBRANCH  72  74
ENDBRANCH  71  72
ENDBRANCH  70  71
ENDBRANCH   1  70
TORSDOF 17
ENDMDL
