MODEL 1
REMARK VINA RESULT:     -12.1      0.000      0.000
REMARK SMILES Cc1ccc(Nc2c(C)cccc2Cl)c(CC(=O)OCCOC(=O)c2ccc(-c3c4nc(c(-c5cccc(S(=O)(=O)[O-])c5F)c5ccc([nH]5)c(-c5cccc(S(=O)(=O)[O-])c5F)c5nc(c(-c6cccc(S(=O)(=O)[O-])c6F)c6ccc3[nH]6)C=C5)C=C4)cc2)c1
REMARK SMILES IDX 20 1 19 2 17 3 18 4 16 5 15 6 1 7 2 8 3 9 88 10 4 11 5 12
REMARK SMILES IDX 6 13 7 15 8 16 13 17 9 18 10 19 12 20 14 21 11 22 21 23
REMARK SMILES IDX 22 24 23 25 24 26 25 27 26 28 87 29 27 30 86 31 28 32 29 33
REMARK SMILES IDX 30 34 80 35 31 36 85 37 79 38 81 39 32 40 84 41 78 42 77 43
REMARK SMILES IDX 33 45 65 46 45 47 64 48 46 49 49 50 63 51 82 52 47 53 48 54
REMARK SMILES IDX 62 56 83 57 50 58 34 59 35 60 43 61 36 62 38 63 44 64 37 65
REMARK SMILES IDX 39 66 40 67 41 68 42 69 66 70 67 71 75 72 68 73 70 74 76 75
REMARK SMILES IDX 69 76 71 77 72 78 73 79 74 80 51 81 52 82 60 83 53 84 55 85
REMARK SMILES IDX 61 86 54 87 56 88 57 89 58 90 59 91
REMARK H PARENT 6 14 81 44 49 55
REMARK Flexibility Score: inf
ROOT
ATOM      1  C   UNL A   1      33.869  27.970  26.356  1.00  0.00     0.274 C 
ENDROOT
BRANCH   1   2
ATOM      2  O   UNL A   1      32.585  27.383  26.472  1.00  0.00    -0.462 OA
BRANCH   2   3
ATOM      3  C   UNL A   1      32.483  26.056  26.217  1.00  0.00     0.310 C 
ATOM      4  O   UNL A   1      31.450  25.432  26.316  1.00  0.00    -0.252 OA
BRANCH   3   5
ATOM      5  C   UNL A   1      33.840  25.592  25.737  1.00  0.00     0.160 C 
BRANCH   5   6
ATOM      6  C   UNL A   1      33.848  24.842  24.435  1.00  0.00    -0.013 A 
ATOM      7  C   UNL A   1      32.491  26.002  21.115  1.00  0.00     0.044 C 
ATOM      8  C   UNL A   1      33.051  25.094  22.163  1.00  0.00    -0.051 A 
ATOM      9  C   UNL A   1      32.917  23.709  22.101  1.00  0.00     0.005 A 
ATOM     10  C   UNL A   1      33.553  25.651  23.326  1.00  0.00     0.009 A 
ATOM     11  C   UNL A   1      33.403  22.901  23.139  1.00  0.00     0.026 A 
ATOM     12  C   UNL A   1      33.980  23.446  24.288  1.00  0.00     0.042 A 
BRANCH  12  13
ATOM     13  N   UNL A   1      34.519  22.613  25.292  1.00  0.00    -0.354 N 
ATOM     14  H   UNL A   1      34.035  22.646  26.150  1.00  0.00     0.167 HD
BRANCH  13  15
ATOM     15  C   UNL A   1      35.642  21.733  25.279  1.00  0.00     0.060 A 
ATOM     16  C   UNL A   1      35.522  20.357  24.973  1.00  0.00    -0.026 A 
ATOM     17  C   UNL A   1      36.955  22.258  25.372  1.00  0.00     0.064 A 
ATOM     18  C   UNL A   1      34.201  19.673  24.744  1.00  0.00     0.046 C 
ATOM     19  C   UNL A   1      36.680  19.550  24.896  1.00  0.00     0.005 A 
ATOM     20  C   UNL A   1      38.091  21.461  25.185  1.00  0.00     0.023 A 
ATOM     21  Cl  UNL A   1      37.279  23.882  25.853  1.00  0.00    -0.082 Cl
ATOM     22  C   UNL A   1      37.954  20.099  24.979  1.00  0.00     0.002 A 
ENDBRANCH  13  15
ENDBRANCH  12  13
ENDBRANCH   5   6
ENDBRANCH   3   5
ENDBRANCH   2   3
ENDBRANCH   1   2
BRANCH   1  23
ATOM     23  C   UNL A   1      33.937  29.498  26.593  1.00  0.00     0.275 C 
BRANCH  23  24
ATOM     24  O   UNL A   1      34.743  30.130  27.667  1.00  0.00    -0.458 OA
BRANCH  24  25
ATOM     25  C   UNL A   1      35.937  30.766  27.850  1.00  0.00     0.338 C 
ATOM     26  O   UNL A   1      36.033  31.978  27.730  1.00  0.00    -0.246 OA
BRANCH  25  27
ATOM     27  C   UNL A   1      37.058  29.992  28.377  1.00  0.00     0.060 A 
ATOM     28  C   UNL A   1      37.047  29.221  29.554  1.00  0.00     0.016 A 
ATOM     29  C   UNL A   1      38.122  29.917  27.533  1.00  0.00     0.016 A 
ATOM     30  C   UNL A   1      38.125  28.356  29.798  1.00  0.00     0.010 A 
ATOM     31  C   UNL A   1      38.821  28.758  27.530  1.00  0.00     0.010 A 
ATOM     32  C   UNL A   1      39.025  28.160  28.759  1.00  0.00    -0.014 A 
BRANCH  32  33
ATOM     33  C   UNL A   1      40.392  27.667  28.806  1.00  0.00     0.031 A 
ATOM     34  C   UNL A   1      40.741  26.370  28.245  1.00  0.00     0.074 A 
ATOM     35  C   UNL A   1      41.286  28.634  29.152  1.00  0.00     0.049 A 
ATOM     36  N   UNL A   1      41.630  25.603  28.761  1.00  0.00    -0.248 NA
ATOM     37  C   UNL A   1      40.117  25.829  27.039  1.00  0.00     0.031 C 
ATOM     38  C   UNL A   1      42.715  28.777  28.967  1.00  0.00     0.029 A 
ATOM     39  N   UNL A   1      40.946  29.846  29.787  1.00  0.00    -0.354 N 
ATOM     40  C   UNL A   1      41.950  24.690  27.781  1.00  0.00     0.074 A 
ATOM     41  C   UNL A   1      40.869  24.742  26.822  1.00  0.00     0.031 C 
ATOM     42  C   UNL A   1      43.145  29.804  29.740  1.00  0.00     0.029 A 
ATOM     43  C   UNL A   1      42.015  30.267  30.548  1.00  0.00     0.049 A 
ATOM     44  H   UNL A   1      40.086  30.316  29.699  1.00  0.00     0.167 HD
ATOM     45  C   UNL A   1      43.227  24.225  27.706  1.00  0.00     0.034 A 
ATOM     46  C   UNL A   1      41.824  30.202  31.899  1.00  0.00     0.034 A 
ATOM     47  C   UNL A   1      44.086  24.990  28.630  1.00  0.00     0.049 A 
ATOM     48  C   UNL A   1      42.689  29.121  32.485  1.00  0.00     0.074 A 
ATOM     49  C   UNL A   1      44.914  26.082  28.415  1.00  0.00     0.029 A 
ATOM     50  N   UNL A   1      43.881  24.923  30.003  1.00  0.00    -0.354 N 
ATOM     51  N   UNL A   1      43.293  28.215  31.771  1.00  0.00    -0.248 NA
ATOM     52  C   UNL A   1      42.937  28.973  33.909  1.00  0.00     0.031 C 
ATOM     53  C   UNL A   1      45.159  26.705  29.669  1.00  0.00     0.029 A 
ATOM     54  C   UNL A   1      44.485  25.996  30.648  1.00  0.00     0.049 A 
ATOM     55  H   UNL A   1      43.375  24.211  30.458  1.00  0.00     0.167 HD
ATOM     56  C   UNL A   1      43.877  27.300  32.588  1.00  0.00     0.074 A 
ATOM     57  C   UNL A   1      43.706  27.871  33.916  1.00  0.00     0.031 C 
ATOM     58  C   UNL A   1      44.385  26.129  32.101  1.00  0.00     0.034 A 
BRANCH  45  59
ATOM     59  C   UNL A   1      43.782  23.403  26.561  1.00  0.00     0.023 A 
ATOM     60  C   UNL A   1      44.534  24.084  25.577  1.00  0.00     0.012 A 
ATOM     61  C   UNL A   1      43.655  22.002  26.395  1.00  0.00     0.148 A 
ATOM     62  C   UNL A   1      45.073  23.446  24.459  1.00  0.00     0.002 A 
ATOM     63  C   UNL A   1      44.165  21.366  25.255  1.00  0.00     0.091 A 
ATOM     64  F   UNL A   1      43.084  21.275  27.366  1.00  0.00    -0.205 F 
ATOM     65  C   UNL A   1      44.872  22.088  24.287  1.00  0.00     0.022 A 
BRANCH  63  66
ATOM     66  S   UNL A   1      43.916  19.615  24.908  1.00  0.00     0.127 S 
ATOM     67  O   UNL A   1      44.319  19.518  23.503  1.00  0.00    -0.237 OA
ATOM     68  O   UNL A   1      44.835  18.974  25.846  1.00  0.00    -0.237 OA
ATOM     69  O   UNL A   1      42.499  19.358  25.136  1.00  0.00    -0.744 OA
ENDBRANCH  63  66
ENDBRANCH  45  59
BRANCH  46  70
ATOM     70  C   UNL A   1      40.390  30.479  32.327  1.00  0.00     0.023 A 
ATOM     71  C   UNL A   1      39.671  29.437  32.973  1.00  0.00     0.012 A 
ATOM     72  C   UNL A   1      39.843  31.777  32.384  1.00  0.00     0.148 A 
ATOM     73  C   UNL A   1      38.515  29.695  33.723  1.00  0.00     0.002 A 
ATOM     74  C   UNL A   1      38.663  32.020  33.101  1.00  0.00     0.091 A 
ATOM     75  F   UNL A   1      40.494  32.788  31.791  1.00  0.00    -0.205 F 
ATOM     76  C   UNL A   1      38.019  30.991  33.801  1.00  0.00     0.022 A 
BRANCH  74  77
ATOM     77  S   UNL A   1      37.930  33.665  33.100  1.00  0.00     0.127 S 
ATOM     78  O   UNL A   1      37.749  33.952  31.675  1.00  0.00    -0.237 OA
ATOM     79  O   UNL A   1      36.685  33.493  33.836  1.00  0.00    -0.237 OA
ATOM     80  O   UNL A   1      38.965  34.470  33.739  1.00  0.00    -0.744 OA
ENDBRANCH  74  77
ENDBRANCH  46  70
BRANCH  58  81
ATOM     81  C   UNL A   1      44.836  24.981  32.964  1.00  0.00     0.023 A 
ATOM     82  C   UNL A   1      44.082  23.803  33.103  1.00  0.00     0.012 A 
ATOM     83  C   UNL A   1      46.120  24.998  33.562  1.00  0.00     0.148 A 
ATOM     84  C   UNL A   1      44.529  22.733  33.876  1.00  0.00     0.002 A 
ATOM     85  C   UNL A   1      46.620  23.876  34.204  1.00  0.00     0.091 A 
ATOM     86  F   UNL A   1      46.864  26.115  33.532  1.00  0.00    -0.205 F 
ATOM     87  C   UNL A   1      45.810  22.758  34.407  1.00  0.00     0.022 A 
BRANCH  85  88
ATOM     88  S   UNL A   1      48.358  23.763  34.636  1.00  0.00     0.127 S 
ATOM     89  O   UNL A   1      48.412  24.538  35.873  1.00  0.00    -0.237 OA
ATOM     90  O   UNL A   1      48.542  22.320  34.810  1.00  0.00    -0.237 OA
ATOM     91  O   UNL A   1      49.074  24.322  33.496  1.00  0.00    -0.744 OA
ENDBRANCH  85  88
ENDBRANCH  58  81
ENDBRANCH  32  33
ENDBRANCH  25  27
ENDBRANCH  24  25
ENDBRANCH  23  24
ENDBRANCH   1  23
TORSDOF 17
ENDMDL
MODEL 2
REMARK VINA RESULT:     -12.0      2.476      3.603
REMARK SMILES Cc1ccc(Nc2c(C)cccc2Cl)c(CC(=O)OCCOC(=O)c2ccc(-c3c4nc(c(-c5cccc(S(=O)(=O)[O-])c5F)c5ccc([nH]5)c(-c5cccc(S(=O)(=O)[O-])c5F)c5nc(c(-c6cccc(S(=O)(=O)[O-])c6F)c6ccc3[nH]6)C=C5)C=C4)cc2)c1
REMARK SMILES IDX 20 1 19 2 17 3 18 4 16 5 15 6 1 7 2 8 3 9 88 10 4 11 5 12
REMARK SMILES IDX 6 13 7 15 8 16 13 17 9 18 10 19 12 20 14 21 11 22 21 23
REMARK SMILES IDX 22 24 23 25 24 26 25 27 26 28 87 29 27 30 86 31 28 32 29 33
REMARK SMILES IDX 30 34 80 35 31 36 85 37 79 38 81 39 32 40 84 41 78 42 77 43
REMARK SMILES IDX 33 45 65 46 45 47 64 48 46 49 49 50 63 51 82 52 47 53 48 54
REMARK SMILES IDX 62 56 83 57 50 58 34 59 35 60 43 61 36 62 38 63 44 64 37 65
REMARK SMILES IDX 39 66 40 67 41 68 42 69 66 70 67 71 75 72 68 73 70 74 76 75
REMARK SMILES IDX 69 76 71 77 72 78 73 79 74 80 51 81 52 82 60 83 53 84 55 85
REMARK SMILES IDX 61 86 54 87 56 88 57 89 58 90 59 91
REMARK H PARENT 6 14 81 44 49 55
REMARK Flexibility Score: inf
ROOT
ATOM      1  C   UNL A   1      33.126  30.798  27.285  1.00  0.00     0.274 C 
ENDROOT
BRANCH   1   2
ATOM      2  O   UNL A   1      32.288  30.641  26.153  1.00  0.00    -0.462 OA
BRANCH   2   3
ATOM      3  C   UNL A   1      31.828  29.395  25.889  1.00  0.00     0.310 C 
ATOM      4  O   UNL A   1      31.385  28.650  26.734  1.00  0.00    -0.252 OA
BRANCH   3   5
ATOM      5  C   UNL A   1      31.915  29.200  24.391  1.00  0.00     0.160 C 
BRANCH   5   6
ATOM      6  C   UNL A   1      30.603  29.041  23.678  1.00  0.00    -0.013 A 
ATOM      7  C   UNL A   1      27.757  31.510  23.546  1.00  0.00     0.044 C 
ATOM      8  C   UNL A   1      28.513  30.230  23.389  1.00  0.00    -0.051 A 
ATOM      9  C   UNL A   1      27.878  28.997  23.262  1.00  0.00     0.005 A 
ATOM     10  C   UNL A   1      29.886  30.244  23.561  1.00  0.00     0.009 A 
ATOM     11  C   UNL A   1      28.628  27.816  23.180  1.00  0.00     0.026 A 
ATOM     12  C   UNL A   1      30.021  27.821  23.279  1.00  0.00     0.042 A 
BRANCH  12  13
ATOM     13  N   UNL A   1      30.762  26.628  23.131  1.00  0.00    -0.354 N 
ATOM     14  H   UNL A   1      30.577  26.134  22.299  1.00  0.00     0.167 HD
BRANCH  13  15
ATOM     15  C   UNL A   1      31.733  26.016  23.979  1.00  0.00     0.060 A 
ATOM     16  C   UNL A   1      33.096  25.909  23.614  1.00  0.00    -0.026 A 
ATOM     17  C   UNL A   1      31.397  25.677  25.313  1.00  0.00     0.064 A 
ATOM     18  C   UNL A   1      33.627  26.324  22.269  1.00  0.00     0.046 C 
ATOM     19  C   UNL A   1      34.028  25.365  24.527  1.00  0.00     0.005 A 
ATOM     20  C   UNL A   1      32.356  25.241  26.235  1.00  0.00     0.023 A 
ATOM     21  Cl  UNL A   1      29.770  25.637  25.883  1.00  0.00    -0.082 Cl
ATOM     22  C   UNL A   1      33.667  25.054  25.834  1.00  0.00     0.002 A 
ENDBRANCH  13  15
ENDBRANCH  12  13
ENDBRANCH   5   6
ENDBRANCH   3   5
ENDBRANCH   2   3
ENDBRANCH   1   2
BRANCH   1  23
ATOM     23  C   UNL A   1      34.545  30.193  27.162  1.00  0.00     0.275 C 
BRANCH  23  24
ATOM     24  O   UNL A   1      35.630  30.431  28.147  1.00  0.00    -0.458 OA
BRANCH  24  25
ATOM     25  C   UNL A   1      36.339  29.773  29.110  1.00  0.00     0.338 C 
ATOM     26  O   UNL A   1      35.866  29.570  30.218  1.00  0.00    -0.246 OA
BRANCH  25  27
ATOM     27  C   UNL A   1      37.604  29.148  28.729  1.00  0.00     0.060 A 
ATOM     28  C   UNL A   1      38.338  29.418  27.560  1.00  0.00     0.016 A 
ATOM     29  C   UNL A   1      38.149  28.371  29.703  1.00  0.00     0.016 A 
ATOM     30  C   UNL A   1      39.642  28.908  27.456  1.00  0.00     0.010 A 
ATOM     31  C   UNL A   1      39.500  28.361  29.795  1.00  0.00     0.010 A 
ATOM     32  C   UNL A   1      40.197  28.353  28.601  1.00  0.00    -0.014 A 
BRANCH  32  33
ATOM     33  C   UNL A   1      41.312  27.429  28.730  1.00  0.00     0.031 A 
ATOM     34  C   UNL A   1      41.146  26.011  28.446  1.00  0.00     0.074 A 
ATOM     35  C   UNL A   1      42.509  28.065  28.854  1.00  0.00     0.049 A 
ATOM     36  N   UNL A   1      41.761  25.092  29.096  1.00  0.00    -0.248 NA
ATOM     37  C   UNL A   1      40.272  25.506  27.388  1.00  0.00     0.031 C 
ATOM     38  C   UNL A   1      43.879  27.658  28.622  1.00  0.00     0.029 A 
ATOM     39  N   UNL A   1      42.660  29.417  29.228  1.00  0.00    -0.354 N 
ATOM     40  C   UNL A   1      41.664  23.957  28.323  1.00  0.00     0.074 A 
ATOM     41  C   UNL A   1      40.586  24.204  27.390  1.00  0.00     0.031 C 
ATOM     42  C   UNL A   1      44.699  28.595  29.158  1.00  0.00     0.029 A 
ATOM     43  C   UNL A   1      43.870  29.570  29.869  1.00  0.00     0.049 A 
ATOM     44  H   UNL A   1      42.008  30.134  29.058  1.00  0.00     0.167 HD
ATOM     45  C   UNL A   1      42.693  23.067  28.327  1.00  0.00     0.034 A 
ATOM     46  C   UNL A   1      43.787  29.834  31.206  1.00  0.00     0.034 A 
ATOM     47  C   UNL A   1      43.838  23.641  29.059  1.00  0.00     0.049 A 
ATOM     48  C   UNL A   1      44.277  28.649  31.991  1.00  0.00     0.074 A 
ATOM     49  C   UNL A   1      44.968  24.309  28.610  1.00  0.00     0.029 A 
ATOM     50  N   UNL A   1      43.743  23.912  30.419  1.00  0.00    -0.354 N 
ATOM     51  N   UNL A   1      44.471  27.471  31.473  1.00  0.00    -0.248 NA
ATOM     52  C   UNL A   1      44.582  28.696  33.412  1.00  0.00     0.031 C 
ATOM     53  C   UNL A   1      45.519  25.031  29.703  1.00  0.00     0.029 A 
ATOM     54  C   UNL A   1      44.731  24.804  30.818  1.00  0.00     0.049 A 
ATOM     55  H   UNL A   1      43.065  23.523  31.019  1.00  0.00     0.167 HD
ATOM     56  C   UNL A   1      44.776  26.581  32.453  1.00  0.00     0.074 A 
ATOM     57  C   UNL A   1      44.926  27.416  33.636  1.00  0.00     0.031 C 
ATOM     58  C   UNL A   1      44.809  25.237  32.213  1.00  0.00     0.034 A 
BRANCH  45  59
ATOM     59  C   UNL A   1      42.832  21.901  27.370  1.00  0.00     0.023 A 
ATOM     60  C   UNL A   1      41.912  20.837  27.506  1.00  0.00     0.012 A 
ATOM     61  C   UNL A   1      43.775  21.785  26.320  1.00  0.00     0.148 A 
ATOM     62  C   UNL A   1      41.952  19.694  26.706  1.00  0.00     0.002 A 
ATOM     63  C   UNL A   1      43.840  20.623  25.540  1.00  0.00     0.091 A 
ATOM     64  F   UNL A   1      44.579  22.821  26.041  1.00  0.00    -0.205 F 
ATOM     65  C   UNL A   1      42.930  19.578  25.733  1.00  0.00     0.022 A 
BRANCH  63  66
ATOM     66  S   UNL A   1      45.103  20.347  24.284  1.00  0.00     0.127 S 
ATOM     67  O   UNL A   1      44.866  18.950  23.909  1.00  0.00    -0.237 OA
ATOM     68  O   UNL A   1      44.741  21.319  23.254  1.00  0.00    -0.237 OA
ATOM     69  O   UNL A   1      46.383  20.573  24.946  1.00  0.00    -0.744 OA
ENDBRANCH  63  66
ENDBRANCH  45  59
BRANCH  46  70
ATOM     70  C   UNL A   1      42.576  30.673  31.589  1.00  0.00     0.023 A 
ATOM     71  C   UNL A   1      42.348  31.883  30.878  1.00  0.00     0.012 A 
ATOM     72  C   UNL A   1      41.525  30.183  32.391  1.00  0.00     0.148 A 
ATOM     73  C   UNL A   1      41.099  32.520  30.889  1.00  0.00     0.002 A 
ATOM     74  C   UNL A   1      40.292  30.849  32.429  1.00  0.00     0.091 A 
ATOM     75  F   UNL A   1      41.700  29.043  33.073  1.00  0.00    -0.205 F 
ATOM     76  C   UNL A   1      40.064  31.993  31.653  1.00  0.00     0.022 A 
BRANCH  74  77
ATOM     77  S   UNL A   1      38.984  30.260  33.519  1.00  0.00     0.127 S 
ATOM     78  O   UNL A   1      38.862  28.844  33.163  1.00  0.00    -0.237 OA
ATOM     79  O   UNL A   1      39.512  30.494  34.856  1.00  0.00    -0.237 OA
ATOM     80  O   UNL A   1      37.845  31.074  33.110  1.00  0.00    -0.744 OA
ENDBRANCH  74  77
ENDBRANCH  46  70
BRANCH  58  81
ATOM     81  C   UNL A   1      44.914  24.190  33.289  1.00  0.00     0.023 A 
ATOM     82  C   UNL A   1      43.823  23.386  33.665  1.00  0.00     0.012 A 
ATOM     83  C   UNL A   1      46.170  23.882  33.867  1.00  0.00     0.148 A 
ATOM     84  C   UNL A   1      43.944  22.395  34.638  1.00  0.00     0.002 A 
ATOM     85  C   UNL A   1      46.313  22.800  34.721  1.00  0.00     0.091 A 
ATOM     86  F   UNL A   1      47.238  24.653  33.610  1.00  0.00    -0.205 F 
ATOM     87  C   UNL A   1      45.195  22.083  35.149  1.00  0.00     0.022 A 
BRANCH  85  88
ATOM     88  S   UNL A   1      47.942  22.187  35.162  1.00  0.00     0.127 S 
ATOM     89  O   UNL A   1      48.097  22.698  36.522  1.00  0.00    -0.237 OA
ATOM     90  O   UNL A   1      47.763  20.737  35.070  1.00  0.00    -0.237 OA
ATOM     91  O   UNL A   1      48.844  22.741  34.161  1.00  0.00    -0.744 OA
ENDBRANCH  85  88
ENDBRANCH  58  81
ENDBRANCH  32  33
ENDBRANCH  25  27
ENDBRANCH  24  25
ENDBRANCH  23  24
ENDBRANCH   1  23
TORSDOF 17
ENDMDL
MODEL 3
REMARK VINA RESULT:     -11.9      2.399      3.223
REMARK SMILES Cc1ccc(Nc2c(C)cccc2Cl)c(CC(=O)OCCOC(=O)c2ccc(-c3c4nc(c(-c5cccc(S(=O)(=O)[O-])c5F)c5ccc([nH]5)c(-c5cccc(S(=O)(=O)[O-])c5F)c5nc(c(-c6cccc(S(=O)(=O)[O-])c6F)c6ccc3[nH]6)C=C5)C=C4)cc2)c1
REMARK SMILES IDX 20 1 19 2 17 3 18 4 16 5 15 6 1 7 2 8 3 9 88 10 4 11 5 12
REMARK SMILES IDX 6 13 7 15 8 16 13 17 9 18 10 19 12 20 14 21 11 22 21 23
REMARK SMILES IDX 22 24 23 25 24 26 25 27 26 28 87 29 27 30 86 31 28 32 29 33
REMARK SMILES IDX 30 34 80 35 31 36 85 37 79 38 81 39 32 40 84 41 78 42 77 43
REMARK SMILES IDX 33 45 65 46 45 47 64 48 46 49 49 50 63 51 82 52 47 53 48 54
REMARK SMILES IDX 62 56 83 57 50 58 34 59 35 60 43 61 36 62 38 63 44 64 37 65
REMARK SMILES IDX 39 66 40 67 41 68 42 69 66 70 67 71 75 72 68 73 70 74 76 75
REMARK SMILES IDX 69 76 71 77 72 78 73 79 74 80 51 81 52 82 60 83 53 84 55 85
REMARK SMILES IDX 61 86 54 87 56 88 57 89 58 90 59 91
REMARK H PARENT 6 14 81 44 49 55
REMARK Flexibility Score: inf
ROOT
ATOM      1  C   UNL A   1      32.686  30.210  26.612  1.00  0.00     0.274 C 
ENDROOT
BRANCH   1   2
ATOM      2  O   UNL A   1      33.310  29.926  25.373  1.00  0.00    -0.462 OA
BRANCH   2   3
ATOM      3  C   UNL A   1      33.106  28.696  24.842  1.00  0.00     0.310 C 
ATOM      4  O   UNL A   1      33.911  28.127  24.140  1.00  0.00    -0.252 OA
BRANCH   3   5
ATOM      5  C   UNL A   1      31.773  28.205  25.362  1.00  0.00     0.160 C 
BRANCH   5   6
ATOM      6  C   UNL A   1      30.693  28.042  24.331  1.00  0.00    -0.013 A 
ATOM      7  C   UNL A   1      28.465  30.728  22.906  1.00  0.00     0.044 C 
ATOM      8  C   UNL A   1      28.999  29.367  23.218  1.00  0.00    -0.051 A 
ATOM      9  C   UNL A   1      28.215  28.219  23.135  1.00  0.00     0.005 A 
ATOM     10  C   UNL A   1      30.256  29.262  23.787  1.00  0.00     0.009 A 
ATOM     11  C   UNL A   1      28.741  26.972  23.498  1.00  0.00     0.026 A 
ATOM     12  C   UNL A   1      30.035  26.838  24.006  1.00  0.00     0.042 A 
BRANCH  12  13
ATOM     13  N   UNL A   1      30.568  25.566  24.307  1.00  0.00    -0.354 N 
ATOM     14  H   UNL A   1      29.909  24.920  24.652  1.00  0.00     0.167 HD
BRANCH  13  15
ATOM     15  C   UNL A   1      31.895  25.054  24.197  1.00  0.00     0.060 A 
ATOM     16  C   UNL A   1      32.642  25.139  22.998  1.00  0.00    -0.026 A 
ATOM     17  C   UNL A   1      32.589  24.626  25.356  1.00  0.00     0.064 A 
ATOM     18  C   UNL A   1      32.077  25.669  21.708  1.00  0.00     0.046 C 
ATOM     19  C   UNL A   1      33.982  24.688  22.970  1.00  0.00     0.005 A 
ATOM     20  C   UNL A   1      33.946  24.285  25.329  1.00  0.00     0.023 A 
ATOM     21  Cl  UNL A   1      31.802  24.353  26.866  1.00  0.00    -0.082 Cl
ATOM     22  C   UNL A   1      34.636  24.285  24.128  1.00  0.00     0.002 A 
ENDBRANCH  13  15
ENDBRANCH  12  13
ENDBRANCH   5   6
ENDBRANCH   3   5
ENDBRANCH   2   3
ENDBRANCH   1   2
BRANCH   1  23
ATOM     23  C   UNL A   1      33.594  30.843  27.695  1.00  0.00     0.275 C 
BRANCH  23  24
ATOM     24  O   UNL A   1      35.003  30.438  27.926  1.00  0.00    -0.458 OA
BRANCH  24  25
ATOM     25  C   UNL A   1      36.229  30.989  28.165  1.00  0.00     0.338 C 
ATOM     26  O   UNL A   1      36.381  32.200  28.213  1.00  0.00    -0.246 OA
BRANCH  25  27
ATOM     27  C   UNL A   1      37.322  30.099  28.550  1.00  0.00     0.060 A 
ATOM     28  C   UNL A   1      37.289  29.155  29.593  1.00  0.00     0.016 A 
ATOM     29  C   UNL A   1      38.375  30.115  27.689  1.00  0.00     0.016 A 
ATOM     30  C   UNL A   1      38.333  28.222  29.684  1.00  0.00     0.010 A 
ATOM     31  C   UNL A   1      39.027  28.945  27.497  1.00  0.00     0.010 A 
ATOM     32  C   UNL A   1      39.217  28.155  28.615  1.00  0.00    -0.014 A 
BRANCH  32  33
ATOM     33  C   UNL A   1      40.563  27.609  28.566  1.00  0.00     0.031 A 
ATOM     34  C   UNL A   1      40.788  26.193  28.311  1.00  0.00     0.074 A 
ATOM     35  C   UNL A   1      41.519  28.576  28.500  1.00  0.00     0.049 A 
ATOM     36  N   UNL A   1      41.740  25.529  28.857  1.00  0.00    -0.248 NA
ATOM     37  C   UNL A   1      39.957  25.404  27.404  1.00  0.00     0.031 C 
ATOM     38  C   UNL A   1      42.897  28.581  28.055  1.00  0.00     0.029 A 
ATOM     39  N   UNL A   1      41.314  29.928  28.845  1.00  0.00    -0.354 N 
ATOM     40  C   UNL A   1      41.871  24.381  28.109  1.00  0.00     0.074 A 
ATOM     41  C   UNL A   1      40.642  24.254  27.358  1.00  0.00     0.031 C 
ATOM     42  C   UNL A   1      43.470  29.742  28.454  1.00  0.00     0.029 A 
ATOM     43  C   UNL A   1      42.504  30.461  29.287  1.00  0.00     0.049 A 
ATOM     44  H   UNL A   1      40.459  30.411  28.779  1.00  0.00     0.167 HD
ATOM     45  C   UNL A   1      43.109  23.836  27.951  1.00  0.00     0.034 A 
ATOM     46  C   UNL A   1      42.548  30.752  30.621  1.00  0.00     0.034 A 
ATOM     47  C   UNL A   1      44.126  24.756  28.494  1.00  0.00     0.049 A 
ATOM     48  C   UNL A   1      43.483  29.803  31.319  1.00  0.00     0.074 A 
ATOM     49  C   UNL A   1      44.923  25.706  27.872  1.00  0.00     0.029 A 
ATOM     50  N   UNL A   1      44.159  25.050  29.851  1.00  0.00    -0.354 N 
ATOM     51  N   UNL A   1      43.939  28.712  30.777  1.00  0.00    -0.248 NA
ATOM     52  C   UNL A   1      43.969  30.005  32.674  1.00  0.00     0.031 C 
ATOM     53  C   UNL A   1      45.390  26.609  28.864  1.00  0.00     0.029 A 
ATOM     54  C   UNL A   1      44.883  26.213  30.090  1.00  0.00     0.049 A 
ATOM     55  H   UNL A   1      43.727  24.508  30.551  1.00  0.00     0.167 HD
ATOM     56  C   UNL A   1      44.640  27.999  31.697  1.00  0.00     0.074 A 
ATOM     57  C   UNL A   1      44.710  28.896  32.842  1.00  0.00     0.031 C 
ATOM     58  C   UNL A   1      45.037  26.714  31.454  1.00  0.00     0.034 A 
BRANCH  45  59
ATOM     59  C   UNL A   1      43.444  22.719  26.984  1.00  0.00     0.023 A 
ATOM     60  C   UNL A   1      44.345  23.016  25.937  1.00  0.00     0.012 A 
ATOM     61  C   UNL A   1      42.972  21.385  27.047  1.00  0.00     0.148 A 
ATOM     62  C   UNL A   1      44.711  22.083  24.965  1.00  0.00     0.002 A 
ATOM     63  C   UNL A   1      43.311  20.458  26.051  1.00  0.00     0.091 A 
ATOM     64  F   UNL A   1      42.235  20.997  28.097  1.00  0.00    -0.205 F 
ATOM     65  C   UNL A   1      44.179  20.807  25.011  1.00  0.00     0.022 A 
BRANCH  63  66
ATOM     66  S   UNL A   1      42.633  18.788  25.988  1.00  0.00     0.127 S 
ATOM     67  O   UNL A   1      43.461  18.159  24.955  1.00  0.00    -0.237 OA
ATOM     68  O   UNL A   1      42.879  18.297  27.342  1.00  0.00    -0.237 OA
ATOM     69  O   UNL A   1      41.232  18.938  25.613  1.00  0.00    -0.744 OA
ENDBRANCH  63  66
ENDBRANCH  45  59
BRANCH  46  70
ATOM     70  C   UNL A   1      41.214  31.214  31.189  1.00  0.00     0.023 A 
ATOM     71  C   UNL A   1      40.628  32.392  30.652  1.00  0.00     0.012 A 
ATOM     72  C   UNL A   1      40.399  30.393  31.996  1.00  0.00     0.148 A 
ATOM     73  C   UNL A   1      39.270  32.687  30.831  1.00  0.00     0.002 A 
ATOM     74  C   UNL A   1      39.051  30.717  32.204  1.00  0.00     0.091 A 
ATOM     75  F   UNL A   1      40.912  29.270  32.517  1.00  0.00    -0.205 F 
ATOM     76  C   UNL A   1      38.475  31.840  31.594  1.00  0.00     0.022 A 
BRANCH  74  77
ATOM     77  S   UNL A   1      38.040  29.707  33.301  1.00  0.00     0.127 S 
ATOM     78  O   UNL A   1      36.673  30.005  32.867  1.00  0.00    -0.237 OA
ATOM     79  O   UNL A   1      38.471  28.345  33.017  1.00  0.00    -0.237 OA
ATOM     80  O   UNL A   1      38.375  30.242  34.617  1.00  0.00    -0.744 OA
ENDBRANCH  74  77
ENDBRANCH  46  70
BRANCH  58  81
ATOM     81  C   UNL A   1      45.611  25.797  32.501  1.00  0.00     0.023 A 
ATOM     82  C   UNL A   1      46.996  25.631  32.677  1.00  0.00     0.012 A 
ATOM     83  C   UNL A   1      44.762  25.171  33.447  1.00  0.00     0.148 A 
ATOM     84  C   UNL A   1      47.515  24.807  33.674  1.00  0.00     0.002 A 
ATOM     85  C   UNL A   1      45.289  24.476  34.524  1.00  0.00     0.091 A 
ATOM     86  F   UNL A   1      43.430  25.227  33.298  1.00  0.00    -0.205 F 
ATOM     87  C   UNL A   1      46.663  24.248  34.615  1.00  0.00     0.022 A 
BRANCH  85  88
ATOM     88  S   UNL A   1      44.249  24.000  35.907  1.00  0.00     0.127 S 
ATOM     89  O   UNL A   1      43.807  25.298  36.412  1.00  0.00    -0.237 OA
ATOM     90  O   UNL A   1      43.205  23.210  35.253  1.00  0.00    -0.237 OA
ATOM     91  O   UNL A   1      45.115  23.229  36.790  1.00  0.00    -0.744 OA
ENDBRANCH  85  88
ENDBRANCH  58  81
ENDBRANCH  32  33
ENDBRANCH  25  27
ENDBRANCH  24  25
ENDBRANCH  23  24
ENDBRANCH   1  23
TORSDOF 17
ENDMDL
