MODEL 1
REMARK VINA RESULT:     -11.5      0.000      0.000
REMARK SMILES Cc1nc2nc(CNC(=O)OC(C)(C)C)nn2c(C)c1CCC(=O)OCCOC(=O)c1ccc(-c2c3nc(c(-c4cccc(S(=O)(=O)[O-])c4F)c4ccc([nH]4)c(-c4cccc(S(=O)(=O)[O-])c4F)c4nc(c(-c5cccc(S(=O)(=O)[O-])c5F)c5ccc2[nH]5)C=C4)C=C3)cc1
REMARK SMILES IDX 25 1 23 2 24 3 22 4 21 5 20 6 1 7 2 8 3 9 4 10 18 11 5 12
REMARK SMILES IDX 17 13 19 14 6 15 16 16 7 17 8 18 9 19 10 21 11 22 12 23
REMARK SMILES IDX 13 24 14 25 15 26 26 27 27 28 28 29 29 30 30 31 31 32 32 33
REMARK SMILES IDX 93 34 33 35 92 36 34 37 35 38 36 39 86 40 37 41 91 42 85 43
REMARK SMILES IDX 87 44 38 45 90 46 84 47 83 48 39 50 71 51 51 52 70 53 52 54
REMARK SMILES IDX 55 55 69 56 88 57 53 58 54 59 68 61 89 62 56 63 40 64 41 65
REMARK SMILES IDX 49 66 42 67 44 68 50 69 43 70 45 71 46 72 47 73 48 74 72 75
REMARK SMILES IDX 73 76 81 77 74 78 76 79 82 80 75 81 77 82 78 83 79 84 80 85
REMARK SMILES IDX 57 86 58 87 66 88 59 89 61 90 67 91 60 92 62 93 63 94 64 95
REMARK SMILES IDX 65 96
REMARK H PARENT 8 20 87 49 55 60
REMARK Flexibility Score: inf
ROOT
ATOM      1  O   UNL A   1      33.184  29.399  24.862  1.00  0.00    -0.462 OA
ENDROOT
BRANCH   1   2
ATOM      2  C   UNL A   1      33.046  28.972  23.578  1.00  0.00     0.306 C 
ATOM      3  O   UNL A   1      33.988  28.699  22.839  1.00  0.00    -0.252 OA
BRANCH   2   4
ATOM      4  C   UNL A   1      31.596  28.897  23.102  1.00  0.00     0.127 C 
BRANCH   4   5
ATOM      5  C   UNL A   1      31.061  27.637  22.387  1.00  0.00     0.051 C 
BRANCH   5   6
ATOM      6  C   UNL A   1      31.008  26.416  23.263  1.00  0.00    -0.005 A 
ATOM      7  C   UNL A   1      28.500  26.759  23.915  1.00  0.00     0.067 C 
ATOM      8  C   UNL A   1      29.876  26.215  24.254  1.00  0.00     0.046 A 
ATOM      9  N   UNL A   1      29.944  25.473  25.324  1.00  0.00    -0.216 NA
ATOM     10  C   UNL A   1      31.096  24.760  25.481  1.00  0.00     0.252 A 
ATOM     11  C   UNL A   1      31.937  25.431  23.285  1.00  0.00     0.048 A 
ATOM     12  N   UNL A   1      31.550  24.094  26.522  1.00  0.00    -0.192 NA
ATOM     13  N   UNL A   1      32.000  24.625  24.424  1.00  0.00    -0.201 N 
ATOM     14  C   UNL A   1      33.045  25.229  22.290  1.00  0.00     0.067 C 
ATOM     15  C   UNL A   1      32.706  23.523  26.054  1.00  0.00     0.172 A 
ATOM     16  N   UNL A   1      32.971  23.754  24.769  1.00  0.00    -0.148 NA
BRANCH  15  17
ATOM     17  C   UNL A   1      33.617  22.664  26.855  1.00  0.00     0.199 C 
BRANCH  17  18
ATOM     18  N   UNL A   1      34.057  21.501  26.118  1.00  0.00    -0.314 N 
ATOM     19  C   UNL A   1      35.350  21.275  25.772  1.00  0.00     0.408 C 
ATOM     20  H   UNL A   1      33.381  20.836  25.852  1.00  0.00     0.167 HD
ATOM     21  O   UNL A   1      35.702  20.265  25.175  1.00  0.00    -0.225 OA
BRANCH  19  22
ATOM     22  O   UNL A   1      36.149  22.299  26.142  1.00  0.00    -0.444 OA
BRANCH  22  23
ATOM     23  C   UNL A   1      37.319  22.670  25.382  1.00  0.00     0.106 C 
ATOM     24  C   UNL A   1      38.398  21.590  25.468  1.00  0.00     0.056 C 
ATOM     25  C   UNL A   1      36.940  23.011  23.939  1.00  0.00     0.056 C 
ATOM     26  C   UNL A   1      37.831  23.945  26.070  1.00  0.00     0.056 C 
ENDBRANCH  22  23
ENDBRANCH  19  22
ENDBRANCH  17  18
ENDBRANCH  15  17
ENDBRANCH   5   6
ENDBRANCH   4   5
ENDBRANCH   2   4
ENDBRANCH   1   2
BRANCH   1  27
ATOM     27  C   UNL A   1      31.966  29.721  25.572  1.00  0.00     0.274 C 
BRANCH  27  28
ATOM     28  C   UNL A   1      32.238  30.477  26.873  1.00  0.00     0.275 C 
BRANCH  28  29
ATOM     29  O   UNL A   1      33.507  30.186  27.472  1.00  0.00    -0.458 OA
BRANCH  29  30
ATOM     30  C   UNL A   1      34.206  31.276  27.844  1.00  0.00     0.338 C 
ATOM     31  O   UNL A   1      33.811  32.426  27.901  1.00  0.00    -0.246 OA
BRANCH  30  32
ATOM     32  C   UNL A   1      35.639  31.040  27.879  1.00  0.00     0.060 A 
ATOM     33  C   UNL A   1      36.034  29.705  27.701  1.00  0.00     0.016 A 
ATOM     34  C   UNL A   1      36.497  32.022  28.376  1.00  0.00     0.016 A 
ATOM     35  C   UNL A   1      37.275  29.324  28.135  1.00  0.00     0.010 A 
ATOM     36  C   UNL A   1      37.743  31.640  28.806  1.00  0.00     0.010 A 
ATOM     37  C   UNL A   1      38.094  30.293  28.719  1.00  0.00    -0.014 A 
BRANCH  37  38
ATOM     38  C   UNL A   1      39.436  29.887  29.050  1.00  0.00     0.031 A 
ATOM     39  C   UNL A   1      39.770  30.181  30.466  1.00  0.00     0.074 A 
ATOM     40  C   UNL A   1      40.207  29.197  28.198  1.00  0.00     0.049 A 
ATOM     41  N   UNL A   1      40.623  31.039  30.915  1.00  0.00    -0.248 NA
ATOM     42  C   UNL A   1      38.889  29.605  31.497  1.00  0.00     0.031 C 
ATOM     43  C   UNL A   1      39.833  28.591  26.920  1.00  0.00     0.029 A 
ATOM     44  N   UNL A   1      41.464  28.739  28.407  1.00  0.00    -0.354 N 
ATOM     45  C   UNL A   1      40.534  30.944  32.300  1.00  0.00     0.074 A 
ATOM     46  C   UNL A   1      39.311  30.244  32.587  1.00  0.00     0.031 C 
ATOM     47  C   UNL A   1      40.729  27.621  26.626  1.00  0.00     0.029 A 
ATOM     48  C   UNL A   1      41.784  27.638  27.627  1.00  0.00     0.049 A 
ATOM     49  H   UNL A   1      42.090  29.148  29.049  1.00  0.00     0.167 HD
ATOM     50  C   UNL A   1      41.599  31.205  33.104  1.00  0.00     0.034 A 
ATOM     51  C   UNL A   1      42.766  26.746  27.904  1.00  0.00     0.034 A 
ATOM     52  C   UNL A   1      42.638  31.901  32.395  1.00  0.00     0.049 A 
ATOM     53  C   UNL A   1      43.688  27.392  28.878  1.00  0.00     0.074 A 
ATOM     54  C   UNL A   1      42.716  33.107  31.725  1.00  0.00     0.029 A 
ATOM     55  N   UNL A   1      43.703  31.150  31.957  1.00  0.00    -0.354 N 
ATOM     56  N   UNL A   1      44.423  28.430  28.592  1.00  0.00    -0.248 NA
ATOM     57  C   UNL A   1      43.450  27.167  30.297  1.00  0.00     0.031 C 
ATOM     58  C   UNL A   1      43.523  32.835  30.584  1.00  0.00     0.029 A 
ATOM     59  C   UNL A   1      43.941  31.504  30.655  1.00  0.00     0.049 A 
ATOM     60  H   UNL A   1      44.203  30.483  32.482  1.00  0.00     0.167 HD
ATOM     61  C   UNL A   1      44.359  29.228  29.729  1.00  0.00     0.074 A 
ATOM     62  C   UNL A   1      43.839  28.352  30.779  1.00  0.00     0.031 C 
ATOM     63  C   UNL A   1      44.437  30.590  29.648  1.00  0.00     0.034 A 
BRANCH  50  64
ATOM     64  C   UNL A   1      41.853  30.524  34.423  1.00  0.00     0.023 A 
ATOM     65  C   UNL A   1      42.245  31.334  35.509  1.00  0.00     0.012 A 
ATOM     66  C   UNL A   1      41.974  29.125  34.590  1.00  0.00     0.148 A 
ATOM     67  C   UNL A   1      42.759  30.781  36.686  1.00  0.00     0.002 A 
ATOM     68  C   UNL A   1      42.394  28.577  35.795  1.00  0.00     0.091 A 
ATOM     69  F   UNL A   1      41.826  28.307  33.544  1.00  0.00    -0.205 F 
ATOM     70  C   UNL A   1      42.820  29.400  36.836  1.00  0.00     0.022 A 
BRANCH  68  71
ATOM     71  S   UNL A   1      42.418  26.799  36.049  1.00  0.00     0.127 S 
ATOM     72  O   UNL A   1      43.563  26.400  35.236  1.00  0.00    -0.237 OA
ATOM     73  O   UNL A   1      42.621  26.706  37.495  1.00  0.00    -0.237 OA
ATOM     74  O   UNL A   1      41.113  26.328  35.602  1.00  0.00    -0.744 OA
ENDBRANCH  68  71
ENDBRANCH  50  64
BRANCH  51  75
ATOM     75  C   UNL A   1      42.766  25.281  27.680  1.00  0.00     0.023 A 
ATOM     76  C   UNL A   1      41.654  24.523  28.091  1.00  0.00     0.012 A 
ATOM     77  C   UNL A   1      43.709  24.670  26.821  1.00  0.00     0.148 A 
ATOM     78  C   UNL A   1      41.467  23.212  27.636  1.00  0.00     0.002 A 
ATOM     79  C   UNL A   1      43.523  23.367  26.375  1.00  0.00     0.091 A 
ATOM     80  F   UNL A   1      44.737  25.397  26.362  1.00  0.00    -0.205 F 
ATOM     81  C   UNL A   1      42.396  22.637  26.771  1.00  0.00     0.022 A 
BRANCH  79  82
ATOM     82  S   UNL A   1      44.661  22.577  25.227  1.00  0.00     0.127 S 
ATOM     83  O   UNL A   1      44.774  23.584  24.172  1.00  0.00    -0.237 OA
ATOM     84  O   UNL A   1      45.855  22.414  26.051  1.00  0.00    -0.237 OA
ATOM     85  O   UNL A   1      44.008  21.342  24.807  1.00  0.00    -0.744 OA
ENDBRANCH  79  82
ENDBRANCH  51  75
BRANCH  63  86
ATOM     86  C   UNL A   1      44.799  31.210  28.318  1.00  0.00     0.023 A 
ATOM     87  C   UNL A   1      43.820  31.585  27.373  1.00  0.00     0.012 A 
ATOM     88  C   UNL A   1      46.128  31.615  28.109  1.00  0.00     0.148 A 
ATOM     89  C   UNL A   1      44.159  32.329  26.240  1.00  0.00     0.002 A 
ATOM     90  C   UNL A   1      46.452  32.401  27.009  1.00  0.00     0.091 A 
ATOM     91  F   UNL A   1      47.050  31.256  29.014  1.00  0.00    -0.205 F 
ATOM     92  C   UNL A   1      45.474  32.751  26.066  1.00  0.00     0.022 A 
BRANCH  90  93
ATOM     93  S   UNL A   1      48.094  33.099  26.816  1.00  0.00     0.127 S 
ATOM     94  O   UNL A   1      47.908  34.005  25.685  1.00  0.00    -0.237 OA
ATOM     95  O   UNL A   1      48.309  33.763  28.103  1.00  0.00    -0.237 OA
ATOM     96  O   UNL A   1      48.981  31.966  26.580  1.00  0.00    -0.744 OA
ENDBRANCH  90  93
ENDBRANCH  63  86
ENDBRANCH  37  38
ENDBRANCH  30  32
ENDBRANCH  29  30
ENDBRANCH  28  29
ENDBRANCH  27  28
ENDBRANCH   1  27
TORSDOF 20
ENDMDL
MODEL 2
REMARK VINA RESULT:     -11.0      2.436      3.223
REMARK SMILES Cc1nc2nc(CNC(=O)OC(C)(C)C)nn2c(C)c1CCC(=O)OCCOC(=O)c1ccc(-c2c3nc(c(-c4cccc(S(=O)(=O)[O-])c4F)c4ccc([nH]4)c(-c4cccc(S(=O)(=O)[O-])c4F)c4nc(c(-c5cccc(S(=O)(=O)[O-])c5F)c5ccc2[nH]5)C=C4)C=C3)cc1
REMARK SMILES IDX 25 1 23 2 24 3 22 4 21 5 20 6 1 7 2 8 3 9 4 10 18 11 5 12
REMARK SMILES IDX 17 13 19 14 6 15 16 16 7 17 8 18 9 19 10 21 11 22 12 23
REMARK SMILES IDX 13 24 14 25 15 26 26 27 27 28 28 29 29 30 30 31 31 32 32 33
REMARK SMILES IDX 93 34 33 35 92 36 34 37 35 38 36 39 86 40 37 41 91 42 85 43
REMARK SMILES IDX 87 44 38 45 90 46 84 47 83 48 39 50 71 51 51 52 70 53 52 54
REMARK SMILES IDX 55 55 69 56 88 57 53 58 54 59 68 61 89 62 56 63 40 64 41 65
REMARK SMILES IDX 49 66 42 67 44 68 50 69 43 70 45 71 46 72 47 73 48 74 72 75
REMARK SMILES IDX 73 76 81 77 74 78 76 79 82 80 75 81 77 82 78 83 79 84 80 85
REMARK SMILES IDX 57 86 58 87 66 88 59 89 61 90 67 91 60 92 62 93 63 94 64 95
REMARK SMILES IDX 65 96
REMARK H PARENT 8 20 87 49 55 60
REMARK Flexibility Score: inf
ROOT
ATOM      1  O   UNL A   1      33.242  30.243  27.426  1.00  0.00    -0.462 OA
ENDROOT
BRANCH   1   2
ATOM      2  C   UNL A   1      33.078  29.364  26.402  1.00  0.00     0.306 C 
ATOM      3  O   UNL A   1      33.926  28.546  26.055  1.00  0.00    -0.252 OA
BRANCH   2   4
ATOM      4  C   UNL A   1      31.745  29.507  25.670  1.00  0.00     0.127 C 
BRANCH   4   5
ATOM      5  C   UNL A   1      31.694  29.616  24.130  1.00  0.00     0.051 C 
BRANCH   5   6
ATOM      6  C   UNL A   1      31.644  28.288  23.427  1.00  0.00    -0.005 A 
ATOM      7  C   UNL A   1      29.034  28.254  23.272  1.00  0.00     0.067 C 
ATOM      8  C   UNL A   1      30.350  27.499  23.341  1.00  0.00     0.046 A 
ATOM      9  N   UNL A   1      30.273  26.209  23.166  1.00  0.00    -0.216 NA
ATOM     10  C   UNL A   1      31.455  25.568  22.948  1.00  0.00     0.252 A 
ATOM     11  C   UNL A   1      32.703  27.669  22.854  1.00  0.00     0.048 A 
ATOM     12  N   UNL A   1      31.737  24.280  22.938  1.00  0.00    -0.192 NA
ATOM     13  N   UNL A   1      32.614  26.290  22.652  1.00  0.00    -0.201 N 
ATOM     14  C   UNL A   1      34.051  28.275  22.584  1.00  0.00     0.067 C 
ATOM     15  C   UNL A   1      33.061  24.248  22.583  1.00  0.00     0.172 A 
ATOM     16  N   UNL A   1      33.607  25.436  22.323  1.00  0.00    -0.148 NA
BRANCH  15  17
ATOM     17  C   UNL A   1      33.875  23.013  22.438  1.00  0.00     0.199 C 
BRANCH  17  18
ATOM     18  N   UNL A   1      35.104  23.077  23.197  1.00  0.00    -0.314 N 
ATOM     19  C   UNL A   1      35.202  22.710  24.500  1.00  0.00     0.408 C 
ATOM     20  H   UNL A   1      35.913  23.406  22.744  1.00  0.00     0.167 HD
ATOM     21  O   UNL A   1      36.262  22.743  25.112  1.00  0.00    -0.225 OA
BRANCH  19  22
ATOM     22  O   UNL A   1      34.003  22.346  25.005  1.00  0.00    -0.444 OA
BRANCH  22  23
ATOM     23  C   UNL A   1      33.450  22.966  26.186  1.00  0.00     0.106 C 
ATOM     24  C   UNL A   1      34.071  22.386  27.456  1.00  0.00     0.056 C 
ATOM     25  C   UNL A   1      33.582  24.490  26.107  1.00  0.00     0.056 C 
ATOM     26  C   UNL A   1      31.958  22.600  26.144  1.00  0.00     0.056 C 
ENDBRANCH  22  23
ENDBRANCH  19  22
ENDBRANCH  17  18
ENDBRANCH  15  17
ENDBRANCH   5   6
ENDBRANCH   4   5
ENDBRANCH   2   4
ENDBRANCH   1   2
BRANCH   1  27
ATOM     27  C   UNL A   1      34.331  31.187  27.302  1.00  0.00     0.274 C 
BRANCH  27  28
ATOM     28  C   UNL A   1      34.228  32.325  28.319  1.00  0.00     0.275 C 
BRANCH  28  29
ATOM     29  O   UNL A   1      35.491  32.815  28.787  1.00  0.00    -0.458 OA
BRANCH  29  30
ATOM     30  C   UNL A   1      35.998  32.130  29.830  1.00  0.00     0.338 C 
ATOM     31  O   UNL A   1      35.645  32.183  30.994  1.00  0.00    -0.246 OA
BRANCH  30  32
ATOM     32  C   UNL A   1      37.278  31.514  29.529  1.00  0.00     0.060 A 
ATOM     33  C   UNL A   1      37.233  30.141  29.239  1.00  0.00     0.016 A 
ATOM     34  C   UNL A   1      38.464  32.183  29.834  1.00  0.00     0.016 A 
ATOM     35  C   UNL A   1      38.380  29.405  29.368  1.00  0.00     0.010 A 
ATOM     36  C   UNL A   1      39.615  31.445  29.958  1.00  0.00     0.010 A 
ATOM     37  C   UNL A   1      39.544  30.065  29.766  1.00  0.00    -0.014 A 
BRANCH  37  38
ATOM     38  C   UNL A   1      40.756  29.286  29.772  1.00  0.00     0.031 A 
ATOM     39  C   UNL A   1      41.168  28.912  31.147  1.00  0.00     0.074 A 
ATOM     40  C   UNL A   1      41.331  28.846  28.643  1.00  0.00     0.049 A 
ATOM     41  N   UNL A   1      42.206  29.318  31.799  1.00  0.00    -0.248 NA
ATOM     42  C   UNL A   1      40.190  28.174  31.965  1.00  0.00     0.031 C 
ATOM     43  C   UNL A   1      40.808  28.895  27.278  1.00  0.00     0.029 A 
ATOM     44  N   UNL A   1      42.447  28.088  28.525  1.00  0.00    -0.354 N 
ATOM     45  C   UNL A   1      42.115  28.699  33.042  1.00  0.00     0.074 A 
ATOM     46  C   UNL A   1      40.765  28.219  33.165  1.00  0.00     0.031 C 
ATOM     47  C   UNL A   1      41.444  27.956  26.540  1.00  0.00     0.029 A 
ATOM     48  C   UNL A   1      42.486  27.349  27.353  1.00  0.00     0.049 A 
ATOM     49  H   UNL A   1      43.159  28.064  29.205  1.00  0.00     0.167 HD
ATOM     50  C   UNL A   1      43.222  28.385  33.767  1.00  0.00     0.034 A 
ATOM     51  C   UNL A   1      43.232  26.234  27.159  1.00  0.00     0.034 A 
ATOM     52  C   UNL A   1      44.387  29.068  33.275  1.00  0.00     0.049 A 
ATOM     53  C   UNL A   1      44.294  26.226  28.203  1.00  0.00     0.074 A 
ATOM     54  C   UNL A   1      44.740  30.395  33.116  1.00  0.00     0.029 A 
ATOM     55  N   UNL A   1      45.239  28.347  32.471  1.00  0.00    -0.354 N 
ATOM     56  N   UNL A   1      45.250  27.111  28.262  1.00  0.00    -0.248 NA
ATOM     57  C   UNL A   1      44.028  25.510  29.443  1.00  0.00     0.031 C 
ATOM     58  C   UNL A   1      45.445  30.436  31.879  1.00  0.00     0.029 A 
ATOM     59  C   UNL A   1      45.536  29.132  31.388  1.00  0.00     0.049 A 
ATOM     60  H   UNL A   1      45.573  27.437  32.642  1.00  0.00     0.167 HD
ATOM     61  C   UNL A   1      45.391  27.382  29.619  1.00  0.00     0.074 A 
ATOM     62  C   UNL A   1      44.692  26.292  30.300  1.00  0.00     0.031 C 
ATOM     63  C   UNL A   1      45.789  28.613  30.060  1.00  0.00     0.034 A 
BRANCH  50  64
ATOM     64  C   UNL A   1      43.325  27.197  34.687  1.00  0.00     0.023 A 
ATOM     65  C   UNL A   1      43.247  27.441  36.074  1.00  0.00     0.012 A 
ATOM     66  C   UNL A   1      43.741  25.907  34.283  1.00  0.00     0.148 A 
ATOM     67  C   UNL A   1      43.597  26.460  37.009  1.00  0.00     0.002 A 
ATOM     68  C   UNL A   1      43.994  24.909  35.214  1.00  0.00     0.091 A 
ATOM     69  F   UNL A   1      44.042  25.666  33.004  1.00  0.00    -0.205 F 
ATOM     70  C   UNL A   1      43.956  25.188  36.580  1.00  0.00     0.022 A 
BRANCH  68  71
ATOM     71  S   UNL A   1      44.392  23.235  34.697  1.00  0.00     0.127 S 
ATOM     72  O   UNL A   1      45.520  23.464  33.801  1.00  0.00    -0.237 OA
ATOM     73  O   UNL A   1      44.729  22.599  35.972  1.00  0.00    -0.237 OA
ATOM     74  O   UNL A   1      43.173  22.721  34.084  1.00  0.00    -0.744 OA
ENDBRANCH  68  71
ENDBRANCH  50  64
BRANCH  51  75
ATOM     75  C   UNL A   1      42.883  25.017  26.390  1.00  0.00     0.023 A 
ATOM     76  C   UNL A   1      43.745  24.581  25.366  1.00  0.00     0.012 A 
ATOM     77  C   UNL A   1      41.872  24.132  26.833  1.00  0.00     0.148 A 
ATOM     78  C   UNL A   1      43.629  23.294  24.825  1.00  0.00     0.002 A 
ATOM     79  C   UNL A   1      41.757  22.858  26.290  1.00  0.00     0.091 A 
ATOM     80  F   UNL A   1      41.087  24.502  27.854  1.00  0.00    -0.205 F 
ATOM     81  C   UNL A   1      42.642  22.429  25.294  1.00  0.00     0.022 A 
BRANCH  79  82
ATOM     82  S   UNL A   1      40.532  21.676  26.874  1.00  0.00     0.127 S 
ATOM     83  O   UNL A   1      39.278  22.345  26.530  1.00  0.00    -0.237 OA
ATOM     84  O   UNL A   1      40.842  20.499  26.068  1.00  0.00    -0.237 OA
ATOM     85  O   UNL A   1      40.763  21.541  28.308  1.00  0.00    -0.744 OA
ENDBRANCH  79  82
ENDBRANCH  51  75
BRANCH  63  86
ATOM     86  C   UNL A   1      46.270  29.620  29.041  1.00  0.00     0.023 A 
ATOM     87  C   UNL A   1      47.586  29.604  28.532  1.00  0.00     0.012 A 
ATOM     88  C   UNL A   1      45.322  30.459  28.431  1.00  0.00     0.148 A 
ATOM     89  C   UNL A   1      47.953  30.415  27.455  1.00  0.00     0.002 A 
ATOM     90  C   UNL A   1      45.676  31.225  27.327  1.00  0.00     0.091 A 
ATOM     91  F   UNL A   1      44.072  30.465  28.921  1.00  0.00    -0.205 F 
ATOM     92  C   UNL A   1      46.993  31.215  26.842  1.00  0.00     0.022 A 
BRANCH  90  93
ATOM     93  S   UNL A   1      44.448  32.153  26.405  1.00  0.00     0.127 S 
ATOM     94  O   UNL A   1      45.227  32.645  25.271  1.00  0.00    -0.237 OA
ATOM     95  O   UNL A   1      43.460  31.126  26.071  1.00  0.00    -0.237 OA
ATOM     96  O   UNL A   1      43.953  33.174  27.321  1.00  0.00    -0.744 OA
ENDBRANCH  90  93
ENDBRANCH  63  86
ENDBRANCH  37  38
ENDBRANCH  30  32
ENDBRANCH  29  30
ENDBRANCH  28  29
ENDBRANCH  27  28
ENDBRANCH   1  27
TORSDOF 20
ENDMDL
MODEL 3
REMARK VINA RESULT:     -10.8      3.102      7.851
REMARK SMILES Cc1nc2nc(CNC(=O)OC(C)(C)C)nn2c(C)c1CCC(=O)OCCOC(=O)c1ccc(-c2c3nc(c(-c4cccc(S(=O)(=O)[O-])c4F)c4ccc([nH]4)c(-c4cccc(S(=O)(=O)[O-])c4F)c4nc(c(-c5cccc(S(=O)(=O)[O-])c5F)c5ccc2[nH]5)C=C4)C=C3)cc1
REMARK SMILES IDX 25 1 23 2 24 3 22 4 21 5 20 6 1 7 2 8 3 9 4 10 18 11 5 12
REMARK SMILES IDX 17 13 19 14 6 15 16 16 7 17 8 18 9 19 10 21 11 22 12 23
REMARK SMILES IDX 13 24 14 25 15 26 26 27 27 28 28 29 29 30 30 31 31 32 32 33
REMARK SMILES IDX 93 34 33 35 92 36 34 37 35 38 36 39 86 40 37 41 91 42 85 43
REMARK SMILES IDX 87 44 38 45 90 46 84 47 83 48 39 50 71 51 51 52 70 53 52 54
REMARK SMILES IDX 55 55 69 56 88 57 53 58 54 59 68 61 89 62 56 63 40 64 41 65
REMARK SMILES IDX 49 66 42 67 44 68 50 69 43 70 45 71 46 72 47 73 48 74 72 75
REMARK SMILES IDX 73 76 81 77 74 78 76 79 82 80 75 81 77 82 78 83 79 84 80 85
REMARK SMILES IDX 57 86 58 87 66 88 59 89 61 90 67 91 60 92 62 93 63 94 64 95
REMARK SMILES IDX 65 96
REMARK H PARENT 8 20 87 49 55 60
REMARK Flexibility Score: inf
ROOT
ATOM      1  O   UNL A   1      37.218  22.230  25.078  1.00  0.00    -0.462 OA
ENDROOT
BRANCH   1   2
ATOM      2  C   UNL A   1      35.995  22.375  25.655  1.00  0.00     0.306 C 
ATOM      3  O   UNL A   1      35.550  23.444  26.063  1.00  0.00    -0.252 OA
BRANCH   2   4
ATOM      4  C   UNL A   1      35.219  21.067  25.799  1.00  0.00     0.127 C 
BRANCH   4   5
ATOM      5  C   UNL A   1      33.796  21.052  26.400  1.00  0.00     0.051 C 
BRANCH   5   6
ATOM      6  C   UNL A   1      32.763  21.716  25.534  1.00  0.00    -0.005 A 
ATOM      7  C   UNL A   1      32.682  19.759  23.802  1.00  0.00     0.067 C 
ATOM      8  C   UNL A   1      32.505  21.233  24.117  1.00  0.00     0.046 A 
ATOM      9  N   UNL A   1      31.992  21.959  23.164  1.00  0.00    -0.216 NA
ATOM     10  C   UNL A   1      31.573  23.205  23.525  1.00  0.00     0.252 A 
ATOM     11  C   UNL A   1      32.013  22.784  25.893  1.00  0.00     0.048 A 
ATOM     12  N   UNL A   1      31.208  24.230  22.781  1.00  0.00    -0.192 NA
ATOM     13  N   UNL A   1      31.448  23.552  24.873  1.00  0.00    -0.201 N 
ATOM     14  C   UNL A   1      31.877  23.352  27.278  1.00  0.00     0.067 C 
ATOM     15  C   UNL A   1      30.818  25.167  23.703  1.00  0.00     0.172 A 
ATOM     16  N   UNL A   1      30.873  24.769  24.974  1.00  0.00    -0.148 NA
BRANCH  15  17
ATOM     17  C   UNL A   1      30.321  26.529  23.376  1.00  0.00     0.199 C 
BRANCH  17  18
ATOM     18  N   UNL A   1      31.313  27.549  23.634  1.00  0.00    -0.314 N 
ATOM     19  C   UNL A   1      31.006  28.828  23.969  1.00  0.00     0.408 C 
ATOM     20  H   UNL A   1      32.263  27.302  23.562  1.00  0.00     0.167 HD
ATOM     21  O   UNL A   1      31.865  29.665  24.215  1.00  0.00    -0.225 OA
BRANCH  19  22
ATOM     22  O   UNL A   1      29.671  29.036  23.963  1.00  0.00    -0.444 OA
BRANCH  22  23
ATOM     23  C   UNL A   1      29.051  29.998  23.083  1.00  0.00     0.106 C 
ATOM     24  C   UNL A   1      28.918  31.361  23.762  1.00  0.00     0.056 C 
ATOM     25  C   UNL A   1      29.802  30.074  21.751  1.00  0.00     0.056 C 
ATOM     26  C   UNL A   1      27.648  29.427  22.824  1.00  0.00     0.056 C 
ENDBRANCH  22  23
ENDBRANCH  19  22
ENDBRANCH  17  18
ENDBRANCH  15  17
ENDBRANCH   5   6
ENDBRANCH   4   5
ENDBRANCH   2   4
ENDBRANCH   1   2
BRANCH   1  27
ATOM     27  C   UNL A   1      37.802  20.908  25.121  1.00  0.00     0.274 C 
BRANCH  27  28
ATOM     28  C   UNL A   1      39.185  20.907  25.774  1.00  0.00     0.275 C 
BRANCH  28  29
ATOM     29  O   UNL A   1      39.778  19.608  25.901  1.00  0.00    -0.458 OA
BRANCH  29  30
ATOM     30  C   UNL A   1      41.124  19.608  25.849  1.00  0.00     0.338 C 
ATOM     31  O   UNL A   1      41.853  18.694  25.510  1.00  0.00    -0.246 OA
BRANCH  30  32
ATOM     32  C   UNL A   1      41.714  20.727  26.565  1.00  0.00     0.060 A 
ATOM     33  C   UNL A   1      41.323  20.857  27.907  1.00  0.00     0.016 A 
ATOM     34  C   UNL A   1      42.347  21.751  25.859  1.00  0.00     0.016 A 
ATOM     35  C   UNL A   1      41.468  22.074  28.517  1.00  0.00     0.010 A 
ATOM     36  C   UNL A   1      42.497  22.969  26.475  1.00  0.00     0.010 A 
ATOM     37  C   UNL A   1      42.016  23.121  27.775  1.00  0.00    -0.014 A 
BRANCH  37  38
ATOM     38  C   UNL A   1      42.269  24.349  28.485  1.00  0.00     0.031 A 
ATOM     39  C   UNL A   1      41.186  25.342  28.275  1.00  0.00     0.074 A 
ATOM     40  C   UNL A   1      43.294  24.487  29.338  1.00  0.00     0.049 A 
ATOM     41  N   UNL A   1      41.255  26.464  27.640  1.00  0.00    -0.248 NA
ATOM     42  C   UNL A   1      39.817  24.928  28.626  1.00  0.00     0.031 C 
ATOM     43  C   UNL A   1      44.202  23.456  29.841  1.00  0.00     0.029 A 
ATOM     44  N   UNL A   1      43.612  25.575  30.078  1.00  0.00    -0.354 N 
ATOM     45  C   UNL A   1      39.971  26.996  27.710  1.00  0.00     0.074 A 
ATOM     46  C   UNL A   1      39.101  25.921  28.103  1.00  0.00     0.031 C 
ATOM     47  C   UNL A   1      44.754  23.896  30.996  1.00  0.00     0.029 A 
ATOM     48  C   UNL A   1      44.328  25.268  31.225  1.00  0.00     0.049 A 
ATOM     49  H   UNL A   1      43.360  26.493  29.827  1.00  0.00     0.167 HD
ATOM     50  C   UNL A   1      39.753  28.339  27.705  1.00  0.00     0.034 A 
ATOM     51  C   UNL A   1      44.418  26.058  32.322  1.00  0.00     0.034 A 
ATOM     52  C   UNL A   1      40.918  29.062  27.274  1.00  0.00     0.049 A 
ATOM     53  C   UNL A   1      44.027  27.434  31.910  1.00  0.00     0.074 A 
ATOM     54  C   UNL A   1      41.679  29.077  26.122  1.00  0.00     0.029 A 
ATOM     55  N   UNL A   1      41.696  29.629  28.255  1.00  0.00    -0.354 N 
ATOM     56  N   UNL A   1      44.718  28.157  31.074  1.00  0.00    -0.248 NA
ATOM     57  C   UNL A   1      42.633  27.825  32.070  1.00  0.00     0.031 C 
ATOM     58  C   UNL A   1      43.023  29.201  26.578  1.00  0.00     0.029 A 
ATOM     59  C   UNL A   1      43.000  29.317  27.969  1.00  0.00     0.049 A 
ATOM     60  H   UNL A   1      41.377  30.161  29.020  1.00  0.00     0.167 HD
ATOM     61  C   UNL A   1      43.763  28.784  30.281  1.00  0.00     0.074 A 
ATOM     62  C   UNL A   1      42.503  28.628  31.009  1.00  0.00     0.031 C 
ATOM     63  C   UNL A   1      44.017  29.099  28.976  1.00  0.00     0.034 A 
BRANCH  50  64
ATOM     64  C   UNL A   1      38.616  29.015  28.425  1.00  0.00     0.023 A 
ATOM     65  C   UNL A   1      37.713  29.771  27.649  1.00  0.00     0.012 A 
ATOM     66  C   UNL A   1      38.531  29.158  29.830  1.00  0.00     0.148 A 
ATOM     67  C   UNL A   1      36.795  30.646  28.240  1.00  0.00     0.002 A 
ATOM     68  C   UNL A   1      37.556  29.955  30.414  1.00  0.00     0.091 A 
ATOM     69  F   UNL A   1      39.481  28.646  30.617  1.00  0.00    -0.205 F 
ATOM     70  C   UNL A   1      36.705  30.727  29.624  1.00  0.00     0.022 A 
BRANCH  68  71
ATOM     71  S   UNL A   1      37.364  30.030  32.199  1.00  0.00     0.127 S 
ATOM     72  O   UNL A   1      38.628  30.634  32.606  1.00  0.00    -0.237 OA
ATOM     73  O   UNL A   1      36.190  30.892  32.339  1.00  0.00    -0.237 OA
ATOM     74  O   UNL A   1      37.141  28.652  32.621  1.00  0.00    -0.744 OA
ENDBRANCH  68  71
ENDBRANCH  50  64
BRANCH  51  75
ATOM     75  C   UNL A   1      44.460  25.651  33.746  1.00  0.00     0.023 A 
ATOM     76  C   UNL A   1      43.429  24.842  34.261  1.00  0.00     0.012 A 
ATOM     77  C   UNL A   1      45.633  25.808  34.521  1.00  0.00     0.148 A 
ATOM     78  C   UNL A   1      43.573  24.184  35.488  1.00  0.00     0.002 A 
ATOM     79  C   UNL A   1      45.770  25.157  35.742  1.00  0.00     0.091 A 
ATOM     80  F   UNL A   1      46.653  26.516  34.019  1.00  0.00    -0.205 F 
ATOM     81  C   UNL A   1      44.746  24.334  36.224  1.00  0.00     0.022 A 
BRANCH  79  82
ATOM     82  S   UNL A   1      47.272  25.274  36.725  1.00  0.00     0.127 S 
ATOM     83  O   UNL A   1      46.814  24.810  38.035  1.00  0.00    -0.237 OA
ATOM     84  O   UNL A   1      48.162  24.353  36.024  1.00  0.00    -0.237 OA
ATOM     85  O   UNL A   1      47.661  26.679  36.690  1.00  0.00    -0.744 OA
ENDBRANCH  79  82
ENDBRANCH  51  75
BRANCH  63  86
ATOM     86  C   UNL A   1      45.429  28.938  28.461  1.00  0.00     0.023 A 
ATOM     87  C   UNL A   1      46.426  29.910  28.687  1.00  0.00     0.012 A 
ATOM     88  C   UNL A   1      45.807  27.695  27.927  1.00  0.00     0.148 A 
ATOM     89  C   UNL A   1      47.764  29.657  28.373  1.00  0.00     0.002 A 
ATOM     90  C   UNL A   1      47.146  27.427  27.665  1.00  0.00     0.091 A 
ATOM     91  F   UNL A   1      44.852  26.777  27.718  1.00  0.00    -0.205 F 
ATOM     92  C   UNL A   1      48.127  28.408  27.877  1.00  0.00     0.022 A 
BRANCH  90  93
ATOM     93  S   UNL A   1      47.688  25.790  27.171  1.00  0.00     0.127 S 
ATOM     94  O   UNL A   1      49.141  25.942  27.155  1.00  0.00    -0.237 OA
ATOM     95  O   UNL A   1      47.173  24.946  28.252  1.00  0.00    -0.237 OA
ATOM     96  O   UNL A   1      47.065  25.539  25.877  1.00  0.00    -0.744 OA
ENDBRANCH  90  93
ENDBRANCH  63  86
ENDBRANCH  37  38
ENDBRANCH  30  32
ENDBRANCH  29  30
ENDBRANCH  28  29
ENDBRANCH  27  28
ENDBRANCH   1  27
TORSDOF 20
ENDMDL
