MODEL 1
REMARK VINA RESULT:     -11.6      0.000      0.000
REMARK SMILES O=C(CSc1nnc(C2CC2)n1-c1cccc2ccccc12)OCCOC(=O)c1ccc(-c2c3nc(c(-c4cccc(S(=O)(=O)[O-])c4F)c4ccc([nH]4)c(-c4cccc(S(=O)(=O)[O-])c4F)c4nc(c(-c5cccc(S(=O)(=O)[O-])c5F)c5ccc2[nH]5)C=C4)C=C3)cc1
REMARK SMILES IDX 24 1 23 2 2 3 1 4 3 5 4 6 5 7 6 8 12 9 7 10 8 11 13 12 14 13
REMARK SMILES IDX 22 14 15 15 17 16 21 17 16 18 18 19 20 20 19 21 9 22 10 23
REMARK SMILES IDX 11 24 25 25 26 26 27 27 28 28 29 29 30 30 91 31 31 32 90 33
REMARK SMILES IDX 32 34 33 35 34 36 84 37 35 38 89 39 83 40 85 41 36 42 88 43
REMARK SMILES IDX 82 44 81 45 37 47 69 48 49 49 68 50 50 51 53 52 67 53 86 54
REMARK SMILES IDX 51 55 52 56 66 58 87 59 54 60 38 61 39 62 47 63 40 64 42 65
REMARK SMILES IDX 48 66 41 67 43 68 44 69 45 70 46 71 70 72 71 73 79 74 72 75
REMARK SMILES IDX 74 76 80 77 73 78 75 79 76 80 77 81 78 82 55 83 56 84 64 85
REMARK SMILES IDX 57 86 59 87 65 88 58 89 60 90 61 91 62 92 63 93
REMARK H PARENT 85 46 53 57
REMARK Flexibility Score: inf
ROOT
ATOM      1  C   UNL A   1      37.376  21.348  25.171  1.00  0.00     0.274 C 
ENDROOT
BRANCH   1   2
ATOM      2  O   UNL A   1      36.968  22.075  23.987  1.00  0.00    -0.461 OA
BRANCH   2   3
ATOM      3  C   UNL A   1      35.744  22.636  23.795  1.00  0.00     0.316 C 
ATOM      4  O   UNL A   1      35.476  23.215  22.744  1.00  0.00    -0.251 OA
BRANCH   3   5
ATOM      5  C   UNL A   1      34.706  22.506  24.871  1.00  0.00     0.200 C 
BRANCH   5   6
ATOM      6  S   UNL A   1      34.716  23.935  25.978  1.00  0.00    -0.074 SA
BRANCH   6   7
ATOM      7  C   UNL A   1      33.038  24.236  26.259  1.00  0.00     0.196 A 
ATOM      8  N   UNL A   1      32.205  23.293  26.641  1.00  0.00    -0.123 NA
ATOM      9  N   UNL A   1      32.337  25.403  26.017  1.00  0.00    -0.273 N 
ATOM     10  N   UNL A   1      30.931  23.785  26.524  1.00  0.00    -0.134 NA
ATOM     11  C   UNL A   1      31.012  25.002  26.023  1.00  0.00     0.141 A 
BRANCH   9  12
ATOM     12  C   UNL A   1      32.804  26.723  25.843  1.00  0.00     0.057 A 
ATOM     13  C   UNL A   1      32.920  27.542  26.972  1.00  0.00     0.027 A 
ATOM     14  C   UNL A   1      33.193  27.170  24.541  1.00  0.00     0.006 A 
ATOM     15  C   UNL A   1      33.409  28.835  26.826  1.00  0.00     0.003 A 
ATOM     16  C   UNL A   1      33.732  28.476  24.433  1.00  0.00    -0.016 A 
ATOM     17  C   UNL A   1      33.077  26.415  23.342  1.00  0.00     0.011 A 
ATOM     18  C   UNL A   1      33.810  29.295  25.571  1.00  0.00     0.009 A 
ATOM     19  C   UNL A   1      34.186  28.950  23.190  1.00  0.00     0.009 A 
ATOM     20  C   UNL A   1      33.549  26.894  22.119  1.00  0.00     0.001 A 
ATOM     21  C   UNL A   1      34.115  28.157  22.046  1.00  0.00     0.001 A 
ENDBRANCH   9  12
BRANCH  11  22
ATOM     22  C   UNL A   1      29.772  25.674  25.442  1.00  0.00     0.058 C 
ATOM     23  C   UNL A   1      29.742  26.957  24.648  1.00  0.00     0.012 C 
ATOM     24  C   UNL A   1      29.641  25.660  23.927  1.00  0.00     0.012 C 
ENDBRANCH  11  22
ENDBRANCH   6   7
ENDBRANCH   5   6
ENDBRANCH   3   5
ENDBRANCH   2   3
ENDBRANCH   1   2
BRANCH   1  25
ATOM     25  C   UNL A   1      38.634  21.982  25.751  1.00  0.00     0.275 C 
BRANCH  25  26
ATOM     26  O   UNL A   1      39.196  21.030  26.639  1.00  0.00    -0.458 OA
BRANCH  26  27
ATOM     27  C   UNL A   1      40.280  20.366  26.178  1.00  0.00     0.338 C 
ATOM     28  O   UNL A   1      40.288  19.337  25.513  1.00  0.00    -0.246 OA
BRANCH  27  29
ATOM     29  C   UNL A   1      41.456  21.104  26.654  1.00  0.00     0.060 A 
ATOM     30  C   UNL A   1      41.740  21.013  28.014  1.00  0.00     0.016 A 
ATOM     31  C   UNL A   1      42.010  22.099  25.830  1.00  0.00     0.016 A 
ATOM     32  C   UNL A   1      42.244  22.135  28.620  1.00  0.00     0.010 A 
ATOM     33  C   UNL A   1      42.478  23.227  26.433  1.00  0.00     0.010 A 
ATOM     34  C   UNL A   1      42.447  23.262  27.821  1.00  0.00    -0.014 A 
BRANCH  34  35
ATOM     35  C   UNL A   1      42.483  24.548  28.463  1.00  0.00     0.031 A 
ATOM     36  C   UNL A   1      41.310  25.377  28.167  1.00  0.00     0.074 A 
ATOM     37  C   UNL A   1      43.460  24.839  29.344  1.00  0.00     0.049 A 
ATOM     38  N   UNL A   1      41.261  26.420  27.410  1.00  0.00    -0.248 NA
ATOM     39  C   UNL A   1      40.000  24.869  28.599  1.00  0.00     0.031 C 
ATOM     40  C   UNL A   1      44.456  23.927  29.922  1.00  0.00     0.029 A 
ATOM     41  N   UNL A   1      43.661  25.991  30.031  1.00  0.00    -0.354 N 
ATOM     42  C   UNL A   1      39.943  26.844  27.501  1.00  0.00     0.074 A 
ATOM     43  C   UNL A   1      39.181  25.729  27.996  1.00  0.00     0.031 C 
ATOM     44  C   UNL A   1      44.968  24.489  31.040  1.00  0.00     0.029 A 
ATOM     45  C   UNL A   1      44.428  25.830  31.178  1.00  0.00     0.049 A 
ATOM     46  H   UNL A   1      43.298  26.859  29.744  1.00  0.00     0.167 HD
ATOM     47  C   UNL A   1      39.637  28.167  27.506  1.00  0.00     0.034 A 
ATOM     48  C   UNL A   1      44.497  26.705  32.211  1.00  0.00     0.034 A 
ATOM     49  C   UNL A   1      40.728  28.975  27.025  1.00  0.00     0.049 A 
ATOM     50  C   UNL A   1      44.010  28.016  31.713  1.00  0.00     0.074 A 
ATOM     51  C   UNL A   1      41.481  29.007  25.867  1.00  0.00     0.029 A 
ATOM     52  N   UNL A   1      41.448  29.672  27.966  1.00  0.00    -0.354 N 
ATOM     53  N   UNL A   1      44.633  28.723  30.810  1.00  0.00    -0.248 NA
ATOM     54  C   UNL A   1      42.601  28.334  31.888  1.00  0.00     0.031 C 
ATOM     55  C   UNL A   1      42.802  29.329  26.293  1.00  0.00     0.029 A 
ATOM     56  C   UNL A   1      42.777  29.518  27.676  1.00  0.00     0.049 A 
ATOM     57  H   UNL A   1      41.073  30.189  28.715  1.00  0.00     0.167 HD
ATOM     58  C   UNL A   1      43.622  29.238  30.009  1.00  0.00     0.074 A 
ATOM     59  C   UNL A   1      42.398  29.067  30.789  1.00  0.00     0.031 C 
ATOM     60  C   UNL A   1      43.825  29.471  28.677  1.00  0.00     0.034 A 
BRANCH  47  61
ATOM     61  C   UNL A   1      38.509  28.751  28.316  1.00  0.00     0.023 A 
ATOM     62  C   UNL A   1      37.513  29.458  27.616  1.00  0.00     0.012 A 
ATOM     63  C   UNL A   1      38.510  28.865  29.728  1.00  0.00     0.148 A 
ATOM     64  C   UNL A   1      36.586  30.264  28.284  1.00  0.00     0.002 A 
ATOM     65  C   UNL A   1      37.528  29.585  30.392  1.00  0.00     0.091 A 
ATOM     66  F   UNL A   1      39.542  28.409  30.444  1.00  0.00    -0.205 F 
ATOM     67  C   UNL A   1      36.581  30.315  29.674  1.00  0.00     0.022 A 
BRANCH  65  68
ATOM     68  S   UNL A   1      37.458  29.617  32.186  1.00  0.00     0.127 S 
ATOM     69  O   UNL A   1      36.201  30.319  32.418  1.00  0.00    -0.237 OA
ATOM     70  O   UNL A   1      37.444  28.190  32.513  1.00  0.00    -0.237 OA
ATOM     71  O   UNL A   1      38.674  30.307  32.603  1.00  0.00    -0.744 OA
ENDBRANCH  65  68
ENDBRANCH  47  61
BRANCH  48  72
ATOM     72  C   UNL A   1      44.652  26.414  33.656  1.00  0.00     0.023 A 
ATOM     73  C   UNL A   1      45.926  26.493  34.250  1.00  0.00     0.012 A 
ATOM     74  C   UNL A   1      43.526  26.308  34.506  1.00  0.00     0.148 A 
ATOM     75  C   UNL A   1      46.072  26.494  35.644  1.00  0.00     0.002 A 
ATOM     76  C   UNL A   1      43.678  26.291  35.889  1.00  0.00     0.091 A 
ATOM     77  F   UNL A   1      42.302  26.321  33.965  1.00  0.00    -0.205 F 
ATOM     78  C   UNL A   1      44.950  26.397  36.462  1.00  0.00     0.022 A 
BRANCH  76  79
ATOM     79  S   UNL A   1      42.270  26.172  37.002  1.00  0.00     0.127 S 
ATOM     80  O   UNL A   1      41.448  27.304  36.574  1.00  0.00    -0.237 OA
ATOM     81  O   UNL A   1      41.727  24.859  36.667  1.00  0.00    -0.237 OA
ATOM     82  O   UNL A   1      42.814  26.307  38.348  1.00  0.00    -0.744 OA
ENDBRANCH  76  79
ENDBRANCH  48  72
BRANCH  60  83
ATOM     83  C   UNL A   1      45.240  29.395  28.154  1.00  0.00     0.023 A 
ATOM     84  C   UNL A   1      46.139  30.477  28.274  1.00  0.00     0.012 A 
ATOM     85  C   UNL A   1      45.729  28.158  27.699  1.00  0.00     0.148 A 
ATOM     86  C   UNL A   1      47.485  30.338  27.923  1.00  0.00     0.002 A 
ATOM     87  C   UNL A   1      47.077  28.011  27.393  1.00  0.00     0.091 A 
ATOM     88  F   UNL A   1      44.868  27.135  27.601  1.00  0.00    -0.205 F 
ATOM     89  C   UNL A   1      47.956  29.101  27.494  1.00  0.00     0.022 A 
BRANCH  87  90
ATOM     90  S   UNL A   1      47.773  26.416  26.954  1.00  0.00     0.127 S 
ATOM     91  O   UNL A   1      47.009  26.066  25.759  1.00  0.00    -0.237 OA
ATOM     92  O   UNL A   1      49.179  26.743  26.708  1.00  0.00    -0.237 OA
ATOM     93  O   UNL A   1      47.559  25.555  28.111  1.00  0.00    -0.744 OA
ENDBRANCH  87  90
ENDBRANCH  60  83
ENDBRANCH  34  35
ENDBRANCH  27  29
ENDBRANCH  26  27
ENDBRANCH  25  26
ENDBRANCH   1  25
TORSDOF 18
ENDMDL
MODEL 2
REMARK VINA RESULT:     -11.1      2.590      6.548
REMARK SMILES O=C(CSc1nnc(C2CC2)n1-c1cccc2ccccc12)OCCOC(=O)c1ccc(-c2c3nc(c(-c4cccc(S(=O)(=O)[O-])c4F)c4ccc([nH]4)c(-c4cccc(S(=O)(=O)[O-])c4F)c4nc(c(-c5cccc(S(=O)(=O)[O-])c5F)c5ccc2[nH]5)C=C4)C=C3)cc1
REMARK SMILES IDX 24 1 23 2 2 3 1 4 3 5 4 6 5 7 6 8 12 9 7 10 8 11 13 12 14 13
REMARK SMILES IDX 22 14 15 15 17 16 21 17 16 18 18 19 20 20 19 21 9 22 10 23
REMARK SMILES IDX 11 24 25 25 26 26 27 27 28 28 29 29 30 30 91 31 31 32 90 33
REMARK SMILES IDX 32 34 33 35 34 36 84 37 35 38 89 39 83 40 85 41 36 42 88 43
REMARK SMILES IDX 82 44 81 45 37 47 69 48 49 49 68 50 50 51 53 52 67 53 86 54
REMARK SMILES IDX 51 55 52 56 66 58 87 59 54 60 38 61 39 62 47 63 40 64 42 65
REMARK SMILES IDX 48 66 41 67 43 68 44 69 45 70 46 71 70 72 71 73 79 74 72 75
REMARK SMILES IDX 74 76 80 77 73 78 75 79 76 80 77 81 78 82 55 83 56 84 64 85
REMARK SMILES IDX 57 86 59 87 65 88 58 89 60 90 61 91 62 92 63 93
REMARK H PARENT 85 46 53 57
REMARK Flexibility Score: inf
ROOT
ATOM      1  C   UNL A   1      40.495  21.611  27.113  1.00  0.00     0.274 C 
ENDROOT
BRANCH   1   2
ATOM      2  O   UNL A   1      39.415  21.235  26.224  1.00  0.00    -0.461 OA
BRANCH   2   3
ATOM      3  C   UNL A   1      38.443  22.074  25.775  1.00  0.00     0.316 C 
ATOM      4  O   UNL A   1      38.432  23.258  26.106  1.00  0.00    -0.251 OA
BRANCH   3   5
ATOM      5  C   UNL A   1      37.400  21.544  24.835  1.00  0.00     0.200 C 
BRANCH   5   6
ATOM      6  S   UNL A   1      36.460  22.881  24.064  1.00  0.00    -0.074 SA
BRANCH   6   7
ATOM      7  C   UNL A   1      34.995  22.921  24.980  1.00  0.00     0.196 A 
ATOM      8  N   UNL A   1      34.788  22.139  26.017  1.00  0.00    -0.123 NA
ATOM      9  N   UNL A   1      33.846  23.639  24.704  1.00  0.00    -0.273 N 
ATOM     10  N   UNL A   1      33.463  22.230  26.353  1.00  0.00    -0.134 NA
ATOM     11  C   UNL A   1      32.877  23.025  25.480  1.00  0.00     0.141 A 
BRANCH   9  12
ATOM     12  C   UNL A   1      33.655  24.764  23.876  1.00  0.00     0.057 A 
ATOM     13  C   UNL A   1      33.381  24.554  22.519  1.00  0.00     0.027 A 
ATOM     14  C   UNL A   1      33.693  26.077  24.445  1.00  0.00     0.006 A 
ATOM     15  C   UNL A   1      33.157  25.650  21.694  1.00  0.00     0.003 A 
ATOM     16  C   UNL A   1      33.414  27.169  23.587  1.00  0.00    -0.016 A 
ATOM     17  C   UNL A   1      33.996  26.378  25.800  1.00  0.00     0.011 A 
ATOM     18  C   UNL A   1      33.174  26.941  22.222  1.00  0.00     0.009 A 
ATOM     19  C   UNL A   1      33.379  28.477  24.100  1.00  0.00     0.009 A 
ATOM     20  C   UNL A   1      33.940  27.681  26.298  1.00  0.00     0.001 A 
ATOM     21  C   UNL A   1      33.618  28.729  25.450  1.00  0.00     0.001 A 
ENDBRANCH   9  12
BRANCH  11  22
ATOM     22  C   UNL A   1      31.356  23.045  25.362  1.00  0.00     0.058 C 
ATOM     23  C   UNL A   1      30.372  22.711  26.455  1.00  0.00     0.012 C 
ATOM     24  C   UNL A   1      30.632  24.139  26.129  1.00  0.00     0.012 C 
ENDBRANCH  11  22
ENDBRANCH   6   7
ENDBRANCH   5   6
ENDBRANCH   3   5
ENDBRANCH   2   3
ENDBRANCH   1   2
BRANCH   1  25
ATOM     25  C   UNL A   1      41.653  20.635  26.949  1.00  0.00     0.275 C 
BRANCH  25  26
ATOM     26  O   UNL A   1      42.065  20.718  25.595  1.00  0.00    -0.458 OA
BRANCH  26  27
ATOM     27  C   UNL A   1      43.356  20.392  25.354  1.00  0.00     0.338 C 
ATOM     28  O   UNL A   1      43.835  19.265  25.298  1.00  0.00    -0.246 OA
BRANCH  27  29
ATOM     29  C   UNL A   1      44.085  21.656  25.200  1.00  0.00     0.060 A 
ATOM     30  C   UNL A   1      45.296  21.763  25.880  1.00  0.00     0.016 A 
ATOM     31  C   UNL A   1      43.401  22.773  24.690  1.00  0.00     0.016 A 
ATOM     32  C   UNL A   1      45.613  22.994  26.393  1.00  0.00     0.010 A 
ATOM     33  C   UNL A   1      43.695  23.990  25.227  1.00  0.00     0.010 A 
ATOM     34  C   UNL A   1      44.709  24.035  26.176  1.00  0.00    -0.014 A 
BRANCH  34  35
ATOM     35  C   UNL A   1      44.737  25.155  27.078  1.00  0.00     0.031 A 
ATOM     36  C   UNL A   1      45.867  26.059  26.843  1.00  0.00     0.074 A 
ATOM     37  C   UNL A   1      43.719  25.361  27.935  1.00  0.00     0.049 A 
ATOM     38  N   UNL A   1      46.917  26.205  27.576  1.00  0.00    -0.248 NA
ATOM     39  C   UNL A   1      45.932  26.732  25.537  1.00  0.00     0.031 C 
ATOM     40  C   UNL A   1      42.418  24.679  27.973  1.00  0.00     0.029 A 
ATOM     41  N   UNL A   1      43.577  26.345  28.857  1.00  0.00    -0.354 N 
ATOM     42  C   UNL A   1      47.644  27.200  26.937  1.00  0.00     0.074 A 
ATOM     43  C   UNL A   1      47.146  27.274  25.589  1.00  0.00     0.031 C 
ATOM     44  C   UNL A   1      41.547  25.434  28.681  1.00  0.00     0.029 A 
ATOM     45  C   UNL A   1      42.260  26.571  29.236  1.00  0.00     0.049 A 
ATOM     46  H   UNL A   1      44.337  26.851  29.224  1.00  0.00     0.167 HD
ATOM     47  C   UNL A   1      48.343  28.119  27.650  1.00  0.00     0.034 A 
ATOM     48  C   UNL A   1      41.796  27.685  29.853  1.00  0.00     0.034 A 
ATOM     49  C   UNL A   1      48.545  27.703  29.014  1.00  0.00     0.049 A 
ATOM     50  C   UNL A   1      42.964  28.376  30.454  1.00  0.00     0.074 A 
ATOM     51  C   UNL A   1      49.104  26.596  29.623  1.00  0.00     0.029 A 
ATOM     52  N   UNL A   1      47.771  28.314  29.972  1.00  0.00    -0.354 N 
ATOM     53  N   UNL A   1      43.671  27.884  31.434  1.00  0.00    -0.248 NA
ATOM     54  C   UNL A   1      43.623  29.411  29.671  1.00  0.00     0.031 C 
ATOM     55  C   UNL A   1      48.290  26.352  30.767  1.00  0.00     0.029 A 
ATOM     56  C   UNL A   1      47.308  27.344  30.820  1.00  0.00     0.049 A 
ATOM     57  H   UNL A   1      47.585  29.279  30.037  1.00  0.00     0.167 HD
ATOM     58  C   UNL A   1      44.984  28.207  31.115  1.00  0.00     0.074 A 
ATOM     59  C   UNL A   1      44.880  29.245  30.092  1.00  0.00     0.031 C 
ATOM     60  C   UNL A   1      46.021  27.395  31.484  1.00  0.00     0.034 A 
BRANCH  47  61
ATOM     61  C   UNL A   1      48.489  29.557  27.225  1.00  0.00     0.023 A 
ATOM     62  C   UNL A   1      49.783  30.111  27.268  1.00  0.00     0.012 A 
ATOM     63  C   UNL A   1      47.409  30.454  27.038  1.00  0.00     0.148 A 
ATOM     64  C   UNL A   1      49.987  31.491  27.163  1.00  0.00     0.002 A 
ATOM     65  C   UNL A   1      47.625  31.808  26.835  1.00  0.00     0.091 A 
ATOM     66  F   UNL A   1      46.148  30.040  27.204  1.00  0.00    -0.205 F 
ATOM     67  C   UNL A   1      48.911  32.339  26.930  1.00  0.00     0.022 A 
BRANCH  65  68
ATOM     68  S   UNL A   1      46.261  32.917  26.468  1.00  0.00     0.127 S 
ATOM     69  O   UNL A   1      46.947  34.010  25.787  1.00  0.00    -0.237 OA
ATOM     70  O   UNL A   1      45.416  32.083  25.612  1.00  0.00    -0.237 OA
ATOM     71  O   UNL A   1      45.665  33.231  27.762  1.00  0.00    -0.744 OA
ENDBRANCH  65  68
ENDBRANCH  47  61
BRANCH  48  72
ATOM     72  C   UNL A   1      40.479  28.346  29.693  1.00  0.00     0.023 A 
ATOM     73  C   UNL A   1      39.882  28.408  28.420  1.00  0.00     0.012 A 
ATOM     74  C   UNL A   1      39.691  28.689  30.816  1.00  0.00     0.148 A 
ATOM     75  C   UNL A   1      38.537  28.775  28.272  1.00  0.00     0.002 A 
ATOM     76  C   UNL A   1      38.361  29.070  30.663  1.00  0.00     0.091 A 
ATOM     77  F   UNL A   1      40.213  28.550  32.041  1.00  0.00    -0.205 F 
ATOM     78  C   UNL A   1      37.777  29.101  29.392  1.00  0.00     0.022 A 
BRANCH  76  79
ATOM     79  S   UNL A   1      37.324  29.499  32.068  1.00  0.00     0.127 S 
ATOM     80  O   UNL A   1      37.987  30.699  32.580  1.00  0.00    -0.237 OA
ATOM     81  O   UNL A   1      36.032  29.738  31.430  1.00  0.00    -0.237 OA
ATOM     82  O   UNL A   1      37.382  28.355  32.970  1.00  0.00    -0.744 OA
ENDBRANCH  76  79
ENDBRANCH  48  72
BRANCH  60  83
ATOM     83  C   UNL A   1      45.731  26.276  32.458  1.00  0.00     0.023 A 
ATOM     84  C   UNL A   1      45.168  25.051  32.040  1.00  0.00     0.012 A 
ATOM     85  C   UNL A   1      46.197  26.390  33.779  1.00  0.00     0.148 A 
ATOM     86  C   UNL A   1      45.046  23.976  32.924  1.00  0.00     0.002 A 
ATOM     87  C   UNL A   1      46.115  25.304  34.643  1.00  0.00     0.091 A 
ATOM     88  F   UNL A   1      46.742  27.555  34.160  1.00  0.00    -0.205 F 
ATOM     89  C   UNL A   1      45.531  24.098  34.223  1.00  0.00     0.022 A 
BRANCH  87  90
ATOM     90  S   UNL A   1      46.832  25.354  36.287  1.00  0.00     0.127 S 
ATOM     91  O   UNL A   1      48.182  25.844  36.018  1.00  0.00    -0.237 OA
ATOM     92  O   UNL A   1      45.964  26.307  36.981  1.00  0.00    -0.237 OA
ATOM     93  O   UNL A   1      46.749  23.993  36.801  1.00  0.00    -0.744 OA
ENDBRANCH  87  90
ENDBRANCH  60  83
ENDBRANCH  34  35
ENDBRANCH  27  29
ENDBRANCH  26  27
ENDBRANCH  25  26
ENDBRANCH   1  25
TORSDOF 18
ENDMDL
MODEL 3
REMARK VINA RESULT:     -11.0      4.791      9.214
REMARK SMILES O=C(CSc1nnc(C2CC2)n1-c1cccc2ccccc12)OCCOC(=O)c1ccc(-c2c3nc(c(-c4cccc(S(=O)(=O)[O-])c4F)c4ccc([nH]4)c(-c4cccc(S(=O)(=O)[O-])c4F)c4nc(c(-c5cccc(S(=O)(=O)[O-])c5F)c5ccc2[nH]5)C=C4)C=C3)cc1
REMARK SMILES IDX 24 1 23 2 2 3 1 4 3 5 4 6 5 7 6 8 12 9 7 10 8 11 13 12 14 13
REMARK SMILES IDX 22 14 15 15 17 16 21 17 16 18 18 19 20 20 19 21 9 22 10 23
REMARK SMILES IDX 11 24 25 25 26 26 27 27 28 28 29 29 30 30 91 31 31 32 90 33
REMARK SMILES IDX 32 34 33 35 34 36 84 37 35 38 89 39 83 40 85 41 36 42 88 43
REMARK SMILES IDX 82 44 81 45 37 47 69 48 49 49 68 50 50 51 53 52 67 53 86 54
REMARK SMILES IDX 51 55 52 56 66 58 87 59 54 60 38 61 39 62 47 63 40 64 42 65
REMARK SMILES IDX 48 66 41 67 43 68 44 69 45 70 46 71 70 72 71 73 79 74 72 75
REMARK SMILES IDX 74 76 80 77 73 78 75 79 76 80 77 81 78 82 55 83 56 84 64 85
REMARK SMILES IDX 57 86 59 87 65 88 58 89 60 90 61 91 62 92 63 93
REMARK H PARENT 85 46 53 57
REMARK Flexibility Score: inf
ROOT
ATOM      1  C   UNL A   1      33.020  33.426  27.706  1.00  0.00     0.274 C 
ENDROOT
BRANCH   1   2
ATOM      2  O   UNL A   1      33.861  32.371  28.234  1.00  0.00    -0.461 OA
BRANCH   2   3
ATOM      3  C   UNL A   1      34.036  31.150  27.663  1.00  0.00     0.316 C 
ATOM      4  O   UNL A   1      35.107  30.556  27.765  1.00  0.00    -0.251 OA
BRANCH   3   5
ATOM      5  C   UNL A   1      32.887  30.514  26.935  1.00  0.00     0.200 C 
BRANCH   5   6
ATOM      6  S   UNL A   1      32.905  28.715  27.109  1.00  0.00    -0.074 SA
BRANCH   6   7
ATOM      7  C   UNL A   1      33.045  28.156  25.481  1.00  0.00     0.196 A 
ATOM      8  N   UNL A   1      33.432  28.937  24.496  1.00  0.00    -0.123 NA
ATOM      9  N   UNL A   1      32.673  26.924  24.976  1.00  0.00    -0.273 N 
ATOM     10  N   UNL A   1      33.191  28.278  23.318  1.00  0.00    -0.134 NA
ATOM     11  C   UNL A   1      32.613  27.130  23.608  1.00  0.00     0.141 A 
BRANCH   9  12
ATOM     12  C   UNL A   1      32.440  25.703  25.642  1.00  0.00     0.057 A 
ATOM     13  C   UNL A   1      31.139  25.414  26.070  1.00  0.00     0.027 A 
ATOM     14  C   UNL A   1      33.516  24.774  25.815  1.00  0.00     0.006 A 
ATOM     15  C   UNL A   1      30.884  24.201  26.698  1.00  0.00     0.003 A 
ATOM     16  C   UNL A   1      33.213  23.528  26.416  1.00  0.00    -0.016 A 
ATOM     17  C   UNL A   1      34.868  25.003  25.440  1.00  0.00     0.011 A 
ATOM     18  C   UNL A   1      31.910  23.270  26.869  1.00  0.00     0.009 A 
ATOM     19  C   UNL A   1      34.216  22.554  26.560  1.00  0.00     0.009 A 
ATOM     20  C   UNL A   1      35.848  24.018  25.573  1.00  0.00     0.001 A 
ATOM     21  C   UNL A   1      35.518  22.788  26.122  1.00  0.00     0.001 A 
ENDBRANCH   9  12
BRANCH  11  22
ATOM     22  C   UNL A   1      31.900  26.335  22.518  1.00  0.00     0.058 C 
ATOM     23  C   UNL A   1      32.479  25.932  21.185  1.00  0.00     0.012 C 
ATOM     24  C   UNL A   1      32.402  24.921  22.273  1.00  0.00     0.012 C 
ENDBRANCH  11  22
ENDBRANCH   6   7
ENDBRANCH   5   6
ENDBRANCH   3   5
ENDBRANCH   2   3
ENDBRANCH   1   2
BRANCH   1  25
ATOM     25  C   UNL A   1      33.208  34.691  28.534  1.00  0.00     0.275 C 
BRANCH  25  26
ATOM     26  O   UNL A   1      33.991  34.328  29.659  1.00  0.00    -0.458 OA
BRANCH  26  27
ATOM     27  C   UNL A   1      33.516  34.732  30.859  1.00  0.00     0.338 C 
ATOM     28  O   UNL A   1      32.537  35.439  31.066  1.00  0.00    -0.246 OA
BRANCH  27  29
ATOM     29  C   UNL A   1      34.422  34.181  31.874  1.00  0.00     0.060 A 
ATOM     30  C   UNL A   1      35.317  35.072  32.460  1.00  0.00     0.016 A 
ATOM     31  C   UNL A   1      34.580  32.786  31.954  1.00  0.00     0.016 A 
ATOM     32  C   UNL A   1      36.562  34.588  32.770  1.00  0.00     0.010 A 
ATOM     33  C   UNL A   1      35.826  32.308  32.229  1.00  0.00     0.010 A 
ATOM     34  C   UNL A   1      36.818  33.244  32.492  1.00  0.00    -0.014 A 
BRANCH  34  35
ATOM     35  C   UNL A   1      38.187  32.837  32.327  1.00  0.00     0.031 A 
ATOM     36  C   UNL A   1      38.960  32.885  33.573  1.00  0.00     0.074 A 
ATOM     37  C   UNL A   1      38.611  32.343  31.148  1.00  0.00     0.049 A 
ATOM     38  N   UNL A   1      39.875  33.734  33.894  1.00  0.00    -0.248 NA
ATOM     39  C   UNL A   1      38.522  32.010  34.671  1.00  0.00     0.031 C 
ATOM     40  C   UNL A   1      37.799  31.964  29.983  1.00  0.00     0.029 A 
ATOM     41  N   UNL A   1      39.854  31.923  30.806  1.00  0.00    -0.354 N 
ATOM     42  C   UNL A   1      40.307  33.314  35.143  1.00  0.00     0.074 A 
ATOM     43  C   UNL A   1      39.278  32.457  35.671  1.00  0.00     0.031 C 
ATOM     44  C   UNL A   1      38.526  31.146  29.189  1.00  0.00     0.029 A 
ATOM     45  C   UNL A   1      39.872  31.049  29.726  1.00  0.00     0.049 A 
ATOM     46  H   UNL A   1      40.668  32.211  31.278  1.00  0.00     0.167 HD
ATOM     47  C   UNL A   1      41.614  33.410  35.497  1.00  0.00     0.034 A 
ATOM     48  C   UNL A   1      40.894  30.223  29.396  1.00  0.00     0.034 A 
ATOM     49  C   UNL A   1      42.340  34.309  34.636  1.00  0.00     0.049 A 
ATOM     50  C   UNL A   1      42.113  30.737  30.069  1.00  0.00     0.074 A 
ATOM     51  C   UNL A   1      42.197  35.631  34.264  1.00  0.00     0.029 A 
ATOM     52  N   UNL A   1      43.174  33.738  33.703  1.00  0.00    -0.354 N 
ATOM     53  N   UNL A   1      42.675  31.877  29.777  1.00  0.00    -0.248 NA
ATOM     54  C   UNL A   1      42.452  30.194  31.376  1.00  0.00     0.031 C 
ATOM     55  C   UNL A   1      42.581  35.673  32.892  1.00  0.00     0.029 A 
ATOM     56  C   UNL A   1      42.979  34.389  32.514  1.00  0.00     0.049 A 
ATOM     57  H   UNL A   1      43.799  32.995  33.863  1.00  0.00     0.167 HD
ATOM     58  C   UNL A   1      43.060  32.403  31.004  1.00  0.00     0.074 A 
ATOM     59  C   UNL A   1      43.008  31.275  31.931  1.00  0.00     0.031 C 
ATOM     60  C   UNL A   1      43.087  33.754  31.216  1.00  0.00     0.034 A 
BRANCH  47  61
ATOM     61  C   UNL A   1      42.314  32.392  36.359  1.00  0.00     0.023 A 
ATOM     62  C   UNL A   1      43.174  32.880  37.361  1.00  0.00     0.012 A 
ATOM     63  C   UNL A   1      42.374  31.005  36.077  1.00  0.00     0.148 A 
ATOM     64  C   UNL A   1      44.071  32.037  38.024  1.00  0.00     0.002 A 
ATOM     65  C   UNL A   1      43.194  30.157  36.807  1.00  0.00     0.091 A 
ATOM     66  F   UNL A   1      41.757  30.505  35.002  1.00  0.00    -0.205 F 
ATOM     67  C   UNL A   1      44.071  30.672  37.760  1.00  0.00     0.022 A 
BRANCH  65  68
ATOM     68  S   UNL A   1      43.167  28.383  36.531  1.00  0.00     0.127 S 
ATOM     69  O   UNL A   1      41.743  28.091  36.642  1.00  0.00    -0.237 OA
ATOM     70  O   UNL A   1      43.721  28.278  35.180  1.00  0.00    -0.237 OA
ATOM     71  O   UNL A   1      44.028  27.823  37.568  1.00  0.00    -0.744 OA
ENDBRANCH  65  68
ENDBRANCH  47  61
BRANCH  48  72
ATOM     72  C   UNL A   1      40.827  28.865  28.805  1.00  0.00     0.023 A 
ATOM     73  C   UNL A   1      39.785  27.995  29.176  1.00  0.00     0.012 A 
ATOM     74  C   UNL A   1      41.627  28.511  27.693  1.00  0.00     0.148 A 
ATOM     75  C   UNL A   1      39.531  26.823  28.450  1.00  0.00     0.002 A 
ATOM     76  C   UNL A   1      41.383  27.337  26.987  1.00  0.00     0.091 A 
ATOM     77  F   UNL A   1      42.565  29.367  27.270  1.00  0.00    -0.205 F 
ATOM     78  C   UNL A   1      40.326  26.497  27.354  1.00  0.00     0.022 A 
BRANCH  76  79
ATOM     79  S   UNL A   1      42.369  26.859  25.560  1.00  0.00     0.127 S 
ATOM     80  O   UNL A   1      43.677  26.606  26.167  1.00  0.00    -0.237 OA
ATOM     81  O   UNL A   1      41.669  25.666  25.092  1.00  0.00    -0.237 OA
ATOM     82  O   UNL A   1      42.343  28.003  24.657  1.00  0.00    -0.744 OA
ENDBRANCH  76  79
ENDBRANCH  48  72
BRANCH  60  83
ATOM     83  C   UNL A   1      42.934  34.661  30.018  1.00  0.00     0.023 A 
ATOM     84  C   UNL A   1      41.666  35.029  29.517  1.00  0.00     0.012 A 
ATOM     85  C   UNL A   1      44.075  35.297  29.499  1.00  0.00     0.148 A 
ATOM     86  C   UNL A   1      41.540  35.986  28.507  1.00  0.00     0.002 A 
ATOM     87  C   UNL A   1      43.943  36.280  28.525  1.00  0.00     0.091 A 
ATOM     88  F   UNL A   1      45.273  34.949  29.992  1.00  0.00    -0.205 F 
ATOM     89  C   UNL A   1      42.678  36.620  28.019  1.00  0.00     0.022 A 
BRANCH  87  90
ATOM     90  S   UNL A   1      45.355  37.224  27.943  1.00  0.00     0.127 S 
ATOM     91  O   UNL A   1      46.148  36.202  27.266  1.00  0.00    -0.237 OA
ATOM     92  O   UNL A   1      44.732  38.206  27.053  1.00  0.00    -0.237 OA
ATOM     93  O   UNL A   1      45.963  37.806  29.133  1.00  0.00    -0.744 OA
ENDBRANCH  87  90
ENDBRANCH  60  83
ENDBRANCH  34  35
ENDBRANCH  27  29
ENDBRANCH  26  27
ENDBRANCH  25  26
ENDBRANCH   1  25
TORSDOF 18
ENDMDL
