MODEL 1
REMARK VINA RESULT:     -11.9      0.000      0.000
REMARK SMILES C[C@]12CCC(=O)N1[C@H](C(=O)N1CCC[C@@H]1C(=O)OCCOC(=O)c1ccc(-c3c4nc(c(-c5cccc(S(=O)(=O)[O-])c5F)c5ccc([nH]5)c(-c5cccc(S(=O)(=O)[O-])c5F)c5nc(c(-c6cccc(S(=O)(=O)[O-])c6F)c6ccc3[nH]6)C=C5)C=C4)cc1)CS2
REMARK SMILES IDX 20 1 19 2 18 3 16 4 17 5 15 6 11 7 12 8 13 9 14 10 9 11
REMARK SMILES IDX 10 12 8 13 1 14 2 15 3 16 7 17 88 18 4 19 5 20 87 21 6 22
REMARK SMILES IDX 21 23 22 24 23 25 24 26 25 27 86 28 26 29 85 30 27 31 28 32
REMARK SMILES IDX 29 33 79 34 30 35 84 36 78 37 80 38 31 39 83 40 77 41 76 42
REMARK SMILES IDX 32 44 64 45 44 46 63 47 45 48 48 49 62 50 81 51 46 52 47 53
REMARK SMILES IDX 61 55 82 56 49 57 33 58 34 59 42 60 35 61 37 62 43 63 36 64
REMARK SMILES IDX 38 65 39 66 40 67 41 68 65 69 66 70 74 71 67 72 69 73 75 74
REMARK SMILES IDX 68 75 70 76 71 77 72 78 73 79 50 80 51 81 59 82 52 83 54 84
REMARK SMILES IDX 60 85 53 86 55 87 56 88 57 89 58 90
REMARK H PARENT 80 43 48 54
REMARK Flexibility Score: inf
ROOT
ATOM      1  C   UNL A   1      31.644  30.012  25.376  1.00  0.00     0.275 C 
ENDROOT
BRANCH   1   2
ATOM      2  C   UNL A   1      31.592  28.991  24.246  1.00  0.00     0.274 C 
BRANCH   2   3
ATOM      3  O   UNL A   1      31.021  27.751  24.720  1.00  0.00    -0.461 OA
BRANCH   3   4
ATOM      4  C   UNL A   1      30.378  26.981  23.796  1.00  0.00     0.328 C 
ATOM      5  O   UNL A   1      29.191  27.104  23.519  1.00  0.00    -0.250 OA
BRANCH   4   6
ATOM      6  C   UNL A   1      31.257  25.801  23.312  1.00  0.00     0.195 C 
ATOM      7  N   UNL A   1      32.460  25.482  24.101  1.00  0.00    -0.327 N 
ATOM      8  C   UNL A   1      33.669  25.630  23.309  1.00  0.00     0.120 C 
ATOM      9  C   UNL A   1      33.268  26.412  22.080  1.00  0.00     0.024 C 
ATOM     10  C   UNL A   1      31.797  26.067  21.894  1.00  0.00     0.039 C 
BRANCH   7  11
ATOM     11  C   UNL A   1      32.581  24.888  25.345  1.00  0.00     0.247 C 
ATOM     12  O   UNL A   1      33.015  25.549  26.293  1.00  0.00    -0.272 OA
BRANCH  11  13
ATOM     13  C   UNL A   1      32.341  23.377  25.483  1.00  0.00     0.186 C 
ATOM     14  C   UNL A   1      35.628  23.404  26.005  1.00  0.00     0.047 C 
ATOM     15  C   UNL A   1      34.540  22.332  25.947  1.00  0.00     0.087 C 
ATOM     16  C   UNL A   1      35.165  21.012  25.489  1.00  0.00     0.049 C 
ATOM     17  N   UNL A   1      33.476  22.578  25.001  1.00  0.00    -0.315 N 
ATOM     18  S   UNL A   1      33.679  22.199  27.550  1.00  0.00    -0.131 SA
ATOM     19  C   UNL A   1      34.107  20.340  24.633  1.00  0.00     0.103 C 
ATOM     20  C   UNL A   1      33.220  21.475  24.196  1.00  0.00     0.224 C 
ATOM     21  C   UNL A   1      32.124  22.960  26.943  1.00  0.00     0.107 C 
ATOM     22  O   UNL A   1      32.317  21.378  23.378  1.00  0.00    -0.275 OA
ENDBRANCH  11  13
ENDBRANCH   7  11
ENDBRANCH   4   6
ENDBRANCH   3   4
ENDBRANCH   2   3
ENDBRANCH   1   2
BRANCH   1  23
ATOM     23  O   UNL A   1      32.996  30.133  25.838  1.00  0.00    -0.458 OA
BRANCH  23  24
ATOM     24  C   UNL A   1      33.164  31.029  26.838  1.00  0.00     0.338 C 
ATOM     25  O   UNL A   1      32.371  31.867  27.222  1.00  0.00    -0.246 OA
BRANCH  24  26
ATOM     26  C   UNL A   1      34.473  30.802  27.455  1.00  0.00     0.060 A 
ATOM     27  C   UNL A   1      34.795  29.528  27.925  1.00  0.00     0.016 A 
ATOM     28  C   UNL A   1      35.342  31.874  27.632  1.00  0.00     0.016 A 
ATOM     29  C   UNL A   1      35.982  29.331  28.629  1.00  0.00     0.010 A 
ATOM     30  C   UNL A   1      36.558  31.658  28.278  1.00  0.00     0.010 A 
ATOM     31  C   UNL A   1      36.879  30.392  28.804  1.00  0.00    -0.014 A 
BRANCH  31  32
ATOM     32  C   UNL A   1      38.160  30.217  29.535  1.00  0.00     0.031 A 
ATOM     33  C   UNL A   1      39.219  29.314  28.967  1.00  0.00     0.074 A 
ATOM     34  C   UNL A   1      38.334  30.789  30.743  1.00  0.00     0.049 A 
ATOM     35  N   UNL A   1      40.269  28.802  29.552  1.00  0.00    -0.248 NA
ATOM     36  C   UNL A   1      39.064  28.921  27.557  1.00  0.00     0.031 C 
ATOM     37  C   UNL A   1      37.394  31.704  31.390  1.00  0.00     0.029 A 
ATOM     38  N   UNL A   1      39.347  30.647  31.660  1.00  0.00    -0.354 N 
ATOM     39  C   UNL A   1      40.858  27.967  28.610  1.00  0.00     0.074 A 
ATOM     40  C   UNL A   1      40.060  28.057  27.406  1.00  0.00     0.031 C 
ATOM     41  C   UNL A   1      37.860  32.025  32.606  1.00  0.00     0.029 A 
ATOM     42  C   UNL A   1      39.091  31.283  32.854  1.00  0.00     0.049 A 
ATOM     43  H   UNL A   1      40.172  30.141  31.482  1.00  0.00     0.167 HD
ATOM     44  C   UNL A   1      41.963  27.197  28.740  1.00  0.00     0.034 A 
ATOM     45  C   UNL A   1      39.740  31.230  34.034  1.00  0.00     0.034 A 
ATOM     46  C   UNL A   1      42.782  27.161  29.921  1.00  0.00     0.049 A 
ATOM     47  C   UNL A   1      40.966  30.366  34.154  1.00  0.00     0.074 A 
ATOM     48  C   UNL A   1      43.944  26.444  30.142  1.00  0.00     0.029 A 
ATOM     49  N   UNL A   1      42.530  27.882  31.079  1.00  0.00    -0.354 N 
ATOM     50  N   UNL A   1      41.539  29.619  33.241  1.00  0.00    -0.248 NA
ATOM     51  C   UNL A   1      41.641  30.344  35.458  1.00  0.00     0.031 C 
ATOM     52  C   UNL A   1      44.391  26.726  31.437  1.00  0.00     0.029 A 
ATOM     53  C   UNL A   1      43.516  27.630  32.016  1.00  0.00     0.049 A 
ATOM     54  H   UNL A   1      41.763  28.483  31.215  1.00  0.00     0.167 HD
ATOM     55  C   UNL A   1      42.659  29.066  33.849  1.00  0.00     0.074 A 
ATOM     56  C   UNL A   1      42.692  29.574  35.206  1.00  0.00     0.031 C 
ATOM     57  C   UNL A   1      43.569  28.202  33.337  1.00  0.00     0.034 A 
BRANCH  44  58
ATOM     58  C   UNL A   1      42.371  26.343  27.570  1.00  0.00     0.023 A 
ATOM     59  C   UNL A   1      43.246  26.864  26.597  1.00  0.00     0.012 A 
ATOM     60  C   UNL A   1      41.942  25.005  27.469  1.00  0.00     0.148 A 
ATOM     61  C   UNL A   1      43.669  26.073  25.528  1.00  0.00     0.002 A 
ATOM     62  C   UNL A   1      42.399  24.211  26.422  1.00  0.00     0.091 A 
ATOM     63  F   UNL A   1      41.090  24.534  28.391  1.00  0.00    -0.205 F 
ATOM     64  C   UNL A   1      43.255  24.746  25.447  1.00  0.00     0.022 A 
BRANCH  62  65
ATOM     65  S   UNL A   1      41.980  22.469  26.281  1.00  0.00     0.127 S 
ATOM     66  O   UNL A   1      42.647  22.105  25.032  1.00  0.00    -0.237 OA
ATOM     67  O   UNL A   1      42.591  21.903  27.483  1.00  0.00    -0.237 OA
ATOM     68  O   UNL A   1      40.525  22.410  26.258  1.00  0.00    -0.744 OA
ENDBRANCH  62  65
ENDBRANCH  44  58
BRANCH  45  69
ATOM     69  C   UNL A   1      39.245  32.034  35.187  1.00  0.00     0.023 A 
ATOM     70  C   UNL A   1      38.337  31.453  36.092  1.00  0.00     0.012 A 
ATOM     71  C   UNL A   1      39.710  33.343  35.425  1.00  0.00     0.148 A 
ATOM     72  C   UNL A   1      37.886  32.167  37.203  1.00  0.00     0.002 A 
ATOM     73  C   UNL A   1      39.304  34.025  36.566  1.00  0.00     0.091 A 
ATOM     74  F   UNL A   1      40.558  33.889  34.542  1.00  0.00    -0.205 F 
ATOM     75  C   UNL A   1      38.380  33.445  37.448  1.00  0.00     0.022 A 
BRANCH  73  76
ATOM     76  S   UNL A   1      40.005  35.614  37.030  1.00  0.00     0.127 S 
ATOM     77  O   UNL A   1      39.647  36.446  35.885  1.00  0.00    -0.237 OA
ATOM     78  O   UNL A   1      39.282  35.920  38.265  1.00  0.00    -0.237 OA
ATOM     79  O   UNL A   1      41.429  35.367  37.220  1.00  0.00    -0.744 OA
ENDBRANCH  73  76
ENDBRANCH  45  69
BRANCH  57  80
ATOM     80  C   UNL A   1      44.713  27.784  34.218  1.00  0.00     0.023 A 
ATOM     81  C   UNL A   1      45.874  28.579  34.280  1.00  0.00     0.012 A 
ATOM     82  C   UNL A   1      44.591  26.664  35.065  1.00  0.00     0.148 A 
ATOM     83  C   UNL A   1      46.903  28.257  35.162  1.00  0.00     0.002 A 
ATOM     84  C   UNL A   1      45.603  26.373  35.971  1.00  0.00     0.091 A 
ATOM     85  F   UNL A   1      43.484  25.912  34.974  1.00  0.00    -0.205 F 
ATOM     86  C   UNL A   1      46.763  27.164  36.016  1.00  0.00     0.022 A 
BRANCH  84  87
ATOM     87  S   UNL A   1      45.470  25.041  37.169  1.00  0.00     0.127 S 
ATOM     88  O   UNL A   1      46.737  25.161  37.889  1.00  0.00    -0.237 OA
ATOM     89  O   UNL A   1      44.291  25.435  37.940  1.00  0.00    -0.237 OA
ATOM     90  O   UNL A   1      45.305  23.819  36.394  1.00  0.00    -0.744 OA
ENDBRANCH  84  87
ENDBRANCH  57  80
ENDBRANCH  31  32
ENDBRANCH  24  26
ENDBRANCH  23  24
ENDBRANCH   1  23
TORSDOF 16
ENDMDL
MODEL 2
REMARK VINA RESULT:     -11.9      5.203      9.932
REMARK SMILES C[C@]12CCC(=O)N1[C@H](C(=O)N1CCC[C@@H]1C(=O)OCCOC(=O)c1ccc(-c3c4nc(c(-c5cccc(S(=O)(=O)[O-])c5F)c5ccc([nH]5)c(-c5cccc(S(=O)(=O)[O-])c5F)c5nc(c(-c6cccc(S(=O)(=O)[O-])c6F)c6ccc3[nH]6)C=C5)C=C4)cc1)CS2
REMARK SMILES IDX 20 1 19 2 18 3 16 4 17 5 15 6 11 7 12 8 13 9 14 10 9 11
REMARK SMILES IDX 10 12 8 13 1 14 2 15 3 16 7 17 88 18 4 19 5 20 87 21 6 22
REMARK SMILES IDX 21 23 22 24 23 25 24 26 25 27 86 28 26 29 85 30 27 31 28 32
REMARK SMILES IDX 29 33 79 34 30 35 84 36 78 37 80 38 31 39 83 40 77 41 76 42
REMARK SMILES IDX 32 44 64 45 44 46 63 47 45 48 48 49 62 50 81 51 46 52 47 53
REMARK SMILES IDX 61 55 82 56 49 57 33 58 34 59 42 60 35 61 37 62 43 63 36 64
REMARK SMILES IDX 38 65 39 66 40 67 41 68 65 69 66 70 74 71 67 72 69 73 75 74
REMARK SMILES IDX 68 75 70 76 71 77 72 78 73 79 50 80 51 81 59 82 52 83 54 84
REMARK SMILES IDX 60 85 53 86 55 87 56 88 57 89 58 90
REMARK H PARENT 80 43 48 54
REMARK Flexibility Score: inf
ROOT
ATOM      1  C   UNL A   1      36.459  21.088  24.630  1.00  0.00     0.275 C 
ENDROOT
BRANCH   1   2
ATOM      2  C   UNL A   1      35.170  20.383  25.034  1.00  0.00     0.274 C 
BRANCH   2   3
ATOM      3  O   UNL A   1      34.068  20.862  24.232  1.00  0.00    -0.461 OA
BRANCH   3   4
ATOM      4  C   UNL A   1      32.877  21.040  24.872  1.00  0.00     0.328 C 
ATOM      5  O   UNL A   1      31.987  20.197  24.896  1.00  0.00    -0.250 OA
BRANCH   4   6
ATOM      6  C   UNL A   1      32.695  22.497  25.365  1.00  0.00     0.195 C 
ATOM      7  N   UNL A   1      33.678  23.496  24.908  1.00  0.00    -0.327 N 
ATOM      8  C   UNL A   1      34.399  24.080  26.026  1.00  0.00     0.120 C 
ATOM      9  C   UNL A   1      34.133  23.179  27.209  1.00  0.00     0.024 C 
ATOM     10  C   UNL A   1      32.773  22.568  26.902  1.00  0.00     0.039 C 
BRANCH   7  11
ATOM     11  C   UNL A   1      33.848  24.078  23.664  1.00  0.00     0.247 C 
ATOM     12  O   UNL A   1      34.965  24.075  23.141  1.00  0.00    -0.272 OA
BRANCH  11  13
ATOM     13  C   UNL A   1      32.687  24.867  23.040  1.00  0.00     0.186 C 
ATOM     14  C   UNL A   1      33.843  27.225  25.084  1.00  0.00     0.047 C 
ATOM     15  C   UNL A   1      32.696  27.117  24.078  1.00  0.00     0.087 C 
ATOM     16  C   UNL A   1      31.564  28.052  24.510  1.00  0.00     0.049 C 
ATOM     17  N   UNL A   1      32.077  25.816  23.981  1.00  0.00    -0.315 N 
ATOM     18  S   UNL A   1      33.291  27.447  22.385  1.00  0.00    -0.131 SA
ATOM     19  C   UNL A   1      30.282  27.330  24.139  1.00  0.00     0.103 C 
ATOM     20  C   UNL A   1      30.691  25.884  24.053  1.00  0.00     0.224 C 
ATOM     21  C   UNL A   1      33.142  25.703  21.837  1.00  0.00     0.107 C 
ATOM     22  O   UNL A   1      29.917  24.950  23.908  1.00  0.00    -0.275 OA
ENDBRANCH  11  13
ENDBRANCH   7  11
ENDBRANCH   4   6
ENDBRANCH   3   4
ENDBRANCH   2   3
ENDBRANCH   1   2
BRANCH   1  23
ATOM     23  O   UNL A   1      37.101  21.604  25.804  1.00  0.00    -0.458 OA
BRANCH  23  24
ATOM     24  C   UNL A   1      38.426  21.339  25.875  1.00  0.00     0.338 C 
ATOM     25  O   UNL A   1      39.002  20.337  25.495  1.00  0.00    -0.246 OA
BRANCH  24  26
ATOM     26  C   UNL A   1      39.106  22.501  26.452  1.00  0.00     0.060 A 
ATOM     27  C   UNL A   1      38.664  23.783  26.123  1.00  0.00     0.016 A 
ATOM     28  C   UNL A   1      40.226  22.311  27.254  1.00  0.00     0.016 A 
ATOM     29  C   UNL A   1      39.383  24.895  26.560  1.00  0.00     0.010 A 
ATOM     30  C   UNL A   1      40.903  23.427  27.745  1.00  0.00     0.010 A 
ATOM     31  C   UNL A   1      40.503  24.727  27.384  1.00  0.00    -0.014 A 
BRANCH  31  32
ATOM     32  C   UNL A   1      41.285  25.887  27.881  1.00  0.00     0.031 A 
ATOM     33  C   UNL A   1      40.595  26.957  28.682  1.00  0.00     0.074 A 
ATOM     34  C   UNL A   1      42.581  26.028  27.540  1.00  0.00     0.049 A 
ATOM     35  N   UNL A   1      41.000  28.165  28.969  1.00  0.00    -0.248 NA
ATOM     36  C   UNL A   1      39.261  26.626  29.212  1.00  0.00     0.031 C 
ATOM     37  C   UNL A   1      43.370  25.051  26.789  1.00  0.00     0.029 A 
ATOM     38  N   UNL A   1      43.450  27.073  27.743  1.00  0.00    -0.354 N 
ATOM     39  C   UNL A   1      39.946  28.767  29.647  1.00  0.00     0.074 A 
ATOM     40  C   UNL A   1      38.889  27.782  29.746  1.00  0.00     0.031 C 
ATOM     41  C   UNL A   1      44.598  25.548  26.576  1.00  0.00     0.029 A 
ATOM     42  C   UNL A   1      44.659  26.904  27.108  1.00  0.00     0.049 A 
ATOM     43  H   UNL A   1      43.229  27.862  28.289  1.00  0.00     0.167 HD
ATOM     44  C   UNL A   1      39.869  30.025  30.139  1.00  0.00     0.034 A 
ATOM     45  C   UNL A   1      45.680  27.764  26.922  1.00  0.00     0.034 A 
ATOM     46  C   UNL A   1      40.948  30.974  30.086  1.00  0.00     0.049 A 
ATOM     47  C   UNL A   1      45.571  29.158  27.478  1.00  0.00     0.074 A 
ATOM     48  C   UNL A   1      40.986  32.262  30.590  1.00  0.00     0.029 A 
ATOM     49  N   UNL A   1      42.182  30.735  29.503  1.00  0.00    -0.354 N 
ATOM     50  N   UNL A   1      44.589  29.698  28.158  1.00  0.00    -0.248 NA
ATOM     51  C   UNL A   1      46.712  30.056  27.254  1.00  0.00     0.031 C 
ATOM     52  C   UNL A   1      42.243  32.804  30.305  1.00  0.00     0.029 A 
ATOM     53  C   UNL A   1      42.992  31.849  29.637  1.00  0.00     0.049 A 
ATOM     54  H   UNL A   1      42.445  29.897  29.059  1.00  0.00     0.167 HD
ATOM     55  C   UNL A   1      45.005  30.986  28.472  1.00  0.00     0.074 A 
ATOM     56  C   UNL A   1      46.335  31.142  27.919  1.00  0.00     0.031 C 
ATOM     57  C   UNL A   1      44.340  31.958  29.142  1.00  0.00     0.034 A 
BRANCH  44  58
ATOM     58  C   UNL A   1      38.585  30.448  30.800  1.00  0.00     0.023 A 
ATOM     59  C   UNL A   1      38.401  30.219  32.178  1.00  0.00     0.012 A 
ATOM     60  C   UNL A   1      37.590  31.130  30.073  1.00  0.00     0.148 A 
ATOM     61  C   UNL A   1      37.235  30.642  32.817  1.00  0.00     0.002 A 
ATOM     62  C   UNL A   1      36.448  31.584  30.725  1.00  0.00     0.091 A 
ATOM     63  F   UNL A   1      37.772  31.317  28.758  1.00  0.00    -0.205 F 
ATOM     64  C   UNL A   1      36.266  31.333  32.094  1.00  0.00     0.022 A 
BRANCH  62  65
ATOM     65  S   UNL A   1      35.182  32.549  29.892  1.00  0.00     0.127 S 
ATOM     66  O   UNL A   1      34.228  32.783  30.974  1.00  0.00    -0.237 OA
ATOM     67  O   UNL A   1      35.925  33.737  29.469  1.00  0.00    -0.237 OA
ATOM     68  O   UNL A   1      34.703  31.717  28.798  1.00  0.00    -0.744 OA
ENDBRANCH  62  65
ENDBRANCH  44  58
BRANCH  45  69
ATOM     69  C   UNL A   1      46.898  27.319  26.187  1.00  0.00     0.023 A 
ATOM     70  C   UNL A   1      47.789  26.424  26.810  1.00  0.00     0.012 A 
ATOM     71  C   UNL A   1      47.149  27.726  24.862  1.00  0.00     0.148 A 
ATOM     72  C   UNL A   1      48.916  25.958  26.133  1.00  0.00     0.002 A 
ATOM     73  C   UNL A   1      48.241  27.211  24.173  1.00  0.00     0.091 A 
ATOM     74  F   UNL A   1      46.302  28.596  24.291  1.00  0.00    -0.205 F 
ATOM     75  C   UNL A   1      49.134  26.339  24.811  1.00  0.00     0.022 A 
BRANCH  73  76
ATOM     76  S   UNL A   1      48.508  27.537  22.426  1.00  0.00     0.127 S 
ATOM     77  O   UNL A   1      49.755  28.295  22.449  1.00  0.00    -0.237 OA
ATOM     78  O   UNL A   1      48.618  26.185  21.876  1.00  0.00    -0.237 OA
ATOM     79  O   UNL A   1      47.326  28.265  21.983  1.00  0.00    -0.744 OA
ENDBRANCH  73  76
ENDBRANCH  45  69
BRANCH  57  80
ATOM     80  C   UNL A   1      45.048  33.265  29.368  1.00  0.00     0.023 A 
ATOM     81  C   UNL A   1      45.841  33.439  30.519  1.00  0.00     0.012 A 
ATOM     82  C   UNL A   1      45.015  34.275  28.387  1.00  0.00     0.148 A 
ATOM     83  C   UNL A   1      46.579  34.607  30.697  1.00  0.00     0.002 A 
ATOM     84  C   UNL A   1      45.786  35.419  28.551  1.00  0.00     0.091 A 
ATOM     85  F   UNL A   1      44.239  34.093  27.308  1.00  0.00    -0.205 F 
ATOM     86  C   UNL A   1      46.562  35.590  29.709  1.00  0.00     0.022 A 
BRANCH  84  87
ATOM     87  S   UNL A   1      45.898  36.695  27.291  1.00  0.00     0.127 S 
ATOM     88  O   UNL A   1      44.521  37.186  27.243  1.00  0.00    -0.237 OA
ATOM     89  O   UNL A   1      46.857  37.629  27.881  1.00  0.00    -0.237 OA
ATOM     90  O   UNL A   1      46.365  36.028  26.084  1.00  0.00    -0.744 OA
ENDBRANCH  84  87
ENDBRANCH  57  80
ENDBRANCH  31  32
ENDBRANCH  24  26
ENDBRANCH  23  24
ENDBRANCH   1  23
TORSDOF 16
ENDMDL
MODEL 3
REMARK VINA RESULT:     -11.9      4.841      9.839
REMARK SMILES C[C@]12CCC(=O)N1[C@H](C(=O)N1CCC[C@@H]1C(=O)OCCOC(=O)c1ccc(-c3c4nc(c(-c5cccc(S(=O)(=O)[O-])c5F)c5ccc([nH]5)c(-c5cccc(S(=O)(=O)[O-])c5F)c5nc(c(-c6cccc(S(=O)(=O)[O-])c6F)c6ccc3[nH]6)C=C5)C=C4)cc1)CS2
REMARK SMILES IDX 20 1 19 2 18 3 16 4 17 5 15 6 11 7 12 8 13 9 14 10 9 11
REMARK SMILES IDX 10 12 8 13 1 14 2 15 3 16 7 17 88 18 4 19 5 20 87 21 6 22
REMARK SMILES IDX 21 23 22 24 23 25 24 26 25 27 86 28 26 29 85 30 27 31 28 32
REMARK SMILES IDX 29 33 79 34 30 35 84 36 78 37 80 38 31 39 83 40 77 41 76 42
REMARK SMILES IDX 32 44 64 45 44 46 63 47 45 48 48 49 62 50 81 51 46 52 47 53
REMARK SMILES IDX 61 55 82 56 49 57 33 58 34 59 42 60 35 61 37 62 43 63 36 64
REMARK SMILES IDX 38 65 39 66 40 67 41 68 65 69 66 70 74 71 67 72 69 73 75 74
REMARK SMILES IDX 68 75 70 76 71 77 72 78 73 79 50 80 51 81 59 82 52 83 54 84
REMARK SMILES IDX 60 85 53 86 55 87 56 88 57 89 58 90
REMARK H PARENT 80 43 48 54
REMARK Flexibility Score: inf
ROOT
ATOM      1  C   UNL A   1      36.408  20.429  25.037  1.00  0.00     0.275 C 
ENDROOT
BRANCH   1   2
ATOM      2  C   UNL A   1      34.928  20.787  25.105  1.00  0.00     0.274 C 
BRANCH   2   3
ATOM      3  O   UNL A   1      34.769  22.185  25.434  1.00  0.00    -0.461 OA
BRANCH   3   4
ATOM      4  C   UNL A   1      33.760  22.499  26.295  1.00  0.00     0.328 C 
ATOM      5  O   UNL A   1      33.743  22.159  27.472  1.00  0.00    -0.250 OA
BRANCH   4   6
ATOM      6  C   UNL A   1      32.549  23.132  25.566  1.00  0.00     0.195 C 
ATOM      7  N   UNL A   1      32.098  24.459  26.023  1.00  0.00    -0.327 N 
ATOM      8  C   UNL A   1      30.731  24.416  26.513  1.00  0.00     0.120 C 
ATOM      9  C   UNL A   1      30.408  22.953  26.714  1.00  0.00     0.024 C 
ATOM     10  C   UNL A   1      31.300  22.242  25.706  1.00  0.00     0.039 C 
BRANCH   7  11
ATOM     11  C   UNL A   1      32.679  25.704  25.861  1.00  0.00     0.247 C 
ATOM     12  O   UNL A   1      32.493  26.576  26.714  1.00  0.00    -0.272 OA
BRANCH  11  13
ATOM     13  C   UNL A   1      33.395  26.033  24.541  1.00  0.00     0.186 C 
ATOM     14  C   UNL A   1      30.259  26.511  23.533  1.00  0.00     0.047 C 
ATOM     15  C   UNL A   1      31.641  26.600  22.885  1.00  0.00     0.087 C 
ATOM     16  C   UNL A   1      31.510  26.304  21.389  1.00  0.00     0.049 C 
ATOM     17  N   UNL A   1      32.612  25.642  23.361  1.00  0.00    -0.315 N 
ATOM     18  S   UNL A   1      32.413  28.216  23.230  1.00  0.00    -0.131 SA
ATOM     19  C   UNL A   1      32.772  25.550  21.014  1.00  0.00     0.103 C 
ATOM     20  C   UNL A   1      33.259  24.984  22.321  1.00  0.00     0.224 C 
ATOM     21  C   UNL A   1      33.661  27.536  24.391  1.00  0.00     0.107 C 
ATOM     22  O   UNL A   1      34.184  24.195  22.437  1.00  0.00    -0.275 OA
ENDBRANCH  11  13
ENDBRANCH   7  11
ENDBRANCH   4   6
ENDBRANCH   3   4
ENDBRANCH   2   3
ENDBRANCH   1   2
BRANCH   1  23
ATOM     23  O   UNL A   1      37.174  21.485  25.632  1.00  0.00    -0.458 OA
BRANCH  23  24
ATOM     24  C   UNL A   1      38.475  21.176  25.848  1.00  0.00     0.338 C 
ATOM     25  O   UNL A   1      39.040  20.130  25.588  1.00  0.00    -0.246 OA
BRANCH  24  26
ATOM     26  C   UNL A   1      39.148  22.348  26.412  1.00  0.00     0.060 A 
ATOM     27  C   UNL A   1      38.702  23.624  26.067  1.00  0.00     0.016 A 
ATOM     28  C   UNL A   1      40.266  22.172  27.221  1.00  0.00     0.016 A 
ATOM     29  C   UNL A   1      39.414  24.744  26.493  1.00  0.00     0.010 A 
ATOM     30  C   UNL A   1      40.936  23.296  27.701  1.00  0.00     0.010 A 
ATOM     31  C   UNL A   1      40.532  24.590  27.323  1.00  0.00    -0.014 A 
BRANCH  31  32
ATOM     32  C   UNL A   1      41.308  25.760  27.809  1.00  0.00     0.031 A 
ATOM     33  C   UNL A   1      40.614  26.826  28.611  1.00  0.00     0.074 A 
ATOM     34  C   UNL A   1      42.599  25.911  27.457  1.00  0.00     0.049 A 
ATOM     35  N   UNL A   1      41.010  28.040  28.890  1.00  0.00    -0.248 NA
ATOM     36  C   UNL A   1      39.288  26.486  29.153  1.00  0.00     0.031 C 
ATOM     37  C   UNL A   1      43.391  24.938  26.705  1.00  0.00     0.029 A 
ATOM     38  N   UNL A   1      43.460  26.964  27.650  1.00  0.00    -0.354 N 
ATOM     39  C   UNL A   1      39.956  28.635  29.573  1.00  0.00     0.074 A 
ATOM     40  C   UNL A   1      38.909  27.641  29.685  1.00  0.00     0.031 C 
ATOM     41  C   UNL A   1      44.613  25.444  26.479  1.00  0.00     0.029 A 
ATOM     42  C   UNL A   1      44.666  26.804  27.005  1.00  0.00     0.049 A 
ATOM     43  H   UNL A   1      43.237  27.753  28.193  1.00  0.00     0.167 HD
ATOM     44  C   UNL A   1      39.871  29.894  30.061  1.00  0.00     0.034 A 
ATOM     45  C   UNL A   1      45.678  27.672  26.808  1.00  0.00     0.034 A 
ATOM     46  C   UNL A   1      40.941  30.853  29.996  1.00  0.00     0.049 A 
ATOM     47  C   UNL A   1      45.560  29.067  27.359  1.00  0.00     0.074 A 
ATOM     48  C   UNL A   1      40.972  32.143  30.494  1.00  0.00     0.029 A 
ATOM     49  N   UNL A   1      42.173  30.622  29.404  1.00  0.00    -0.354 N 
ATOM     50  N   UNL A   1      44.579  29.601  28.044  1.00  0.00    -0.248 NA
ATOM     51  C   UNL A   1      46.691  29.975  27.122  1.00  0.00     0.031 C 
ATOM     52  C   UNL A   1      42.222  32.695  30.197  1.00  0.00     0.029 A 
ATOM     53  C   UNL A   1      42.974  31.744  29.527  1.00  0.00     0.049 A 
ATOM     54  H   UNL A   1      42.440  29.784  28.961  1.00  0.00     0.167 HD
ATOM     55  C   UNL A   1      44.985  30.894  28.350  1.00  0.00     0.074 A 
ATOM     56  C   UNL A   1      46.310  31.060  27.785  1.00  0.00     0.031 C 
ATOM     57  C   UNL A   1      44.317  31.863  29.021  1.00  0.00     0.034 A 
BRANCH  44  58
ATOM     58  C   UNL A   1      38.589  30.308  30.731  1.00  0.00     0.023 A 
ATOM     59  C   UNL A   1      38.398  30.039  32.100  1.00  0.00     0.012 A 
ATOM     60  C   UNL A   1      37.602  31.021  30.021  1.00  0.00     0.148 A 
ATOM     61  C   UNL A   1      37.234  30.453  32.748  1.00  0.00     0.002 A 
ATOM     62  C   UNL A   1      36.462  31.464  30.683  1.00  0.00     0.091 A 
ATOM     63  F   UNL A   1      37.790  31.246  28.713  1.00  0.00    -0.205 F 
ATOM     64  C   UNL A   1      36.273  31.174  32.043  1.00  0.00     0.022 A 
BRANCH  62  65
ATOM     65  S   UNL A   1      35.208  32.466  29.875  1.00  0.00     0.127 S 
ATOM     66  O   UNL A   1      34.272  32.709  30.971  1.00  0.00    -0.237 OA
ATOM     67  O   UNL A   1      35.972  33.642  29.455  1.00  0.00    -0.237 OA
ATOM     68  O   UNL A   1      34.697  31.656  28.779  1.00  0.00    -0.744 OA
ENDBRANCH  62  65
ENDBRANCH  44  58
BRANCH  45  69
ATOM     69  C   UNL A   1      46.893  27.235  26.065  1.00  0.00     0.023 A 
ATOM     70  C   UNL A   1      47.011  27.540  24.697  1.00  0.00     0.012 A 
ATOM     71  C   UNL A   1      47.954  26.572  26.715  1.00  0.00     0.148 A 
ATOM     72  C   UNL A   1      48.155  27.178  23.984  1.00  0.00     0.002 A 
ATOM     73  C   UNL A   1      49.115  26.269  26.013  1.00  0.00     0.091 A 
ATOM     74  F   UNL A   1      47.816  26.269  28.014  1.00  0.00    -0.205 F 
ATOM     75  C   UNL A   1      49.212  26.557  24.644  1.00  0.00     0.022 A 
BRANCH  73  76
ATOM     76  S   UNL A   1      50.575  25.603  26.823  1.00  0.00     0.127 S 
ATOM     77  O   UNL A   1      51.483  25.411  25.697  1.00  0.00    -0.237 OA
ATOM     78  O   UNL A   1      50.942  26.689  27.733  1.00  0.00    -0.237 OA
ATOM     79  O   UNL A   1      50.125  24.391  27.495  1.00  0.00    -0.744 OA
ENDBRANCH  73  76
ENDBRANCH  45  69
BRANCH  57  80
ATOM     80  C   UNL A   1      45.015  33.177  29.236  1.00  0.00     0.023 A 
ATOM     81  C   UNL A   1      45.826  33.359  30.373  1.00  0.00     0.012 A 
ATOM     82  C   UNL A   1      44.954  34.188  28.256  1.00  0.00     0.148 A 
ATOM     83  C   UNL A   1      46.554  34.535  30.540  1.00  0.00     0.002 A 
ATOM     84  C   UNL A   1      45.716  35.340  28.408  1.00  0.00     0.091 A 
ATOM     85  F   UNL A   1      44.161  33.999  27.191  1.00  0.00    -0.205 F 
ATOM     86  C   UNL A   1      46.510  35.518  29.553  1.00  0.00     0.022 A 
BRANCH  84  87
ATOM     87  S   UNL A   1      45.791  36.618  27.148  1.00  0.00     0.127 S 
ATOM     88  O   UNL A   1      46.296  35.870  25.997  1.00  0.00    -0.237 OA
ATOM     89  O   UNL A   1      44.392  37.030  27.041  1.00  0.00    -0.237 OA
ATOM     90  O   UNL A   1      46.686  37.643  27.668  1.00  0.00    -0.744 OA
ENDBRANCH  84  87
ENDBRANCH  57  80
ENDBRANCH  31  32
ENDBRANCH  24  26
ENDBRANCH  23  24
ENDBRANCH   1  23
TORSDOF 16
ENDMDL
