MODEL 1
REMARK VINA RESULT:     -10.8      0.000      0.000
REMARK SMILES CC[C@@H](C)[C@H](NC(=O)/C=C/c1ccnn1C)C(=O)OCCOC(=O)c1ccc(-c2c3nc(c(-c4cccc(S(=O)(=O)[O-])c4F)c4ccc([nH]4)c(-c4cccc(S(=O)(=O)[O-])c4F)c4nc(c(-c5cccc(S(=O)(=O)[O-])c5F)c5ccc2[nH]5)C=C4)C=C3)cc1
REMARK SMILES IDX 20 1 19 2 17 3 18 4 5 5 3 6 4 7 2 8 1 9 6 10 7 11 8 13 9 14
REMARK SMILES IDX 10 15 11 16 12 17 15 18 13 19 14 20 16 21 21 22 22 23 23 24
REMARK SMILES IDX 24 25 25 26 26 27 87 28 27 29 86 30 28 31 29 32 30 33 80 34
REMARK SMILES IDX 31 35 85 36 79 37 81 38 32 39 84 40 78 41 77 42 33 44 65 45
REMARK SMILES IDX 45 46 64 47 46 48 49 49 63 50 82 51 47 52 48 53 62 55 83 56
REMARK SMILES IDX 50 57 34 58 35 59 43 60 36 61 38 62 44 63 37 64 39 65 40 66
REMARK SMILES IDX 41 67 42 68 66 69 67 70 75 71 68 72 70 73 76 74 69 75 71 76
REMARK SMILES IDX 72 77 73 78 74 79 51 80 52 81 60 82 53 83 55 84 61 85 54 86
REMARK SMILES IDX 56 87 57 88 58 89 59 90
REMARK H PARENT 6 12 81 43 49 54
REMARK Flexibility Score: inf
ROOT
ATOM      1  C   UNL A   1      37.084  21.863  25.125  1.00  0.00     0.274 C 
ENDROOT
BRANCH   1   2
ATOM      2  O   UNL A   1      35.808  21.209  24.935  1.00  0.00    -0.461 OA
BRANCH   2   3
ATOM      3  C   UNL A   1      34.887  21.472  25.902  1.00  0.00     0.329 C 
ATOM      4  O   UNL A   1      35.062  22.287  26.808  1.00  0.00    -0.250 OA
BRANCH   3   5
ATOM      5  C   UNL A   1      33.596  20.620  25.806  1.00  0.00     0.195 C 
BRANCH   5   6
ATOM      6  C   UNL A   1      33.646  19.957  24.376  1.00  0.00     0.019 C 
ATOM      7  C   UNL A   1      32.415  20.309  23.526  1.00  0.00     0.010 C 
BRANCH   6   8
ATOM      8  C   UNL A   1      33.899  18.433  24.404  1.00  0.00     0.002 C 
ATOM      9  C   UNL A   1      32.934  17.646  23.521  1.00  0.00     0.004 C 
ENDBRANCH   6   8
ENDBRANCH   5   6
BRANCH   5  10
ATOM     10  N   UNL A   1      32.262  21.198  26.137  1.00  0.00    -0.339 N 
ATOM     11  C   UNL A   1      32.033  22.551  26.289  1.00  0.00     0.244 C 
ATOM     12  H   UNL A   1      31.503  20.582  26.253  1.00  0.00     0.164 HD
ATOM     13  O   UNL A   1      31.762  23.001  27.400  1.00  0.00    -0.270 OA
BRANCH  11  14
ATOM     14  C   UNL A   1      31.976  23.406  25.076  1.00  0.00     0.073 C 
ATOM     15  C   UNL A   1      32.947  24.297  24.784  1.00  0.00     0.033 C 
BRANCH  15  16
ATOM     16  C   UNL A   1      32.972  24.995  23.533  1.00  0.00     0.061 A 
ATOM     17  C   UNL A   1      32.681  24.616  22.232  1.00  0.00     0.050 A 
ATOM     18  N   UNL A   1      33.394  26.310  23.411  1.00  0.00    -0.269 N 
ATOM     19  C   UNL A   1      33.047  25.694  21.414  1.00  0.00     0.136 A 
ATOM     20  N   UNL A   1      33.478  26.729  22.126  1.00  0.00    -0.181 NA
ATOM     21  C   UNL A   1      33.686  27.301  24.421  1.00  0.00     0.174 C 
ENDBRANCH  15  16
ENDBRANCH  11  14
ENDBRANCH   5  10
ENDBRANCH   3   5
ENDBRANCH   2   3
ENDBRANCH   1   2
BRANCH   1  22
ATOM     22  C   UNL A   1      38.144  20.955  25.781  1.00  0.00     0.275 C 
BRANCH  22  23
ATOM     23  O   UNL A   1      39.531  21.336  25.608  1.00  0.00    -0.458 OA
BRANCH  23  24
ATOM     24  C   UNL A   1      40.166  21.594  26.763  1.00  0.00     0.338 C 
ATOM     25  O   UNL A   1      40.457  20.760  27.607  1.00  0.00    -0.246 OA
BRANCH  24  26
ATOM     26  C   UNL A   1      40.562  22.953  27.074  1.00  0.00     0.060 A 
ATOM     27  C   UNL A   1      41.407  23.110  28.184  1.00  0.00     0.016 A 
ATOM     28  C   UNL A   1      39.861  24.028  26.536  1.00  0.00     0.016 A 
ATOM     29  C   UNL A   1      41.578  24.365  28.748  1.00  0.00     0.010 A 
ATOM     30  C   UNL A   1      40.057  25.294  27.086  1.00  0.00     0.010 A 
ATOM     31  C   UNL A   1      40.928  25.468  28.177  1.00  0.00    -0.014 A 
BRANCH  31  32
ATOM     32  C   UNL A   1      41.375  26.825  28.538  1.00  0.00     0.031 A 
ATOM     33  C   UNL A   1      40.447  27.870  29.062  1.00  0.00     0.074 A 
ATOM     34  C   UNL A   1      42.670  27.092  28.287  1.00  0.00     0.049 A 
ATOM     35  N   UNL A   1      40.710  29.118  29.348  1.00  0.00    -0.248 NA
ATOM     36  C   UNL A   1      39.051  27.477  29.301  1.00  0.00     0.031 C 
ATOM     37  C   UNL A   1      43.631  26.124  27.744  1.00  0.00     0.029 A 
ATOM     38  N   UNL A   1      43.391  28.247  28.406  1.00  0.00    -0.354 N 
ATOM     39  C   UNL A   1      39.514  29.674  29.779  1.00  0.00     0.074 A 
ATOM     40  C   UNL A   1      38.519  28.621  29.721  1.00  0.00     0.031 C 
ATOM     41  C   UNL A   1      44.800  26.737  27.533  1.00  0.00     0.029 A 
ATOM     42  C   UNL A   1      44.662  28.139  27.899  1.00  0.00     0.049 A 
ATOM     43  H   UNL A   1      43.035  29.070  28.812  1.00  0.00     0.167 HD
ATOM     44  C   UNL A   1      39.288  30.943  30.194  1.00  0.00     0.034 A 
ATOM     45  C   UNL A   1      45.610  29.075  27.718  1.00  0.00     0.034 A 
ATOM     46  C   UNL A   1      40.308  31.960  30.257  1.00  0.00     0.049 A 
ATOM     47  C   UNL A   1      45.329  30.465  28.190  1.00  0.00     0.074 A 
ATOM     48  C   UNL A   1      40.209  33.252  30.743  1.00  0.00     0.029 A 
ATOM     49  N   UNL A   1      41.612  31.806  29.804  1.00  0.00    -0.354 N 
ATOM     50  N   UNL A   1      44.235  30.939  28.737  1.00  0.00    -0.248 NA
ATOM     51  C   UNL A   1      46.416  31.440  28.061  1.00  0.00     0.031 C 
ATOM     52  C   UNL A   1      41.447  33.882  30.571  1.00  0.00     0.029 A 
ATOM     53  C   UNL A   1      42.322  32.981  29.986  1.00  0.00     0.049 A 
ATOM     54  H   UNL A   1      41.978  30.981  29.411  1.00  0.00     0.167 HD
ATOM     55  C   UNL A   1      44.508  32.260  29.046  1.00  0.00     0.074 A 
ATOM     56  C   UNL A   1      45.880  32.507  28.639  1.00  0.00     0.031 C 
ATOM     57  C   UNL A   1      43.695  33.191  29.603  1.00  0.00     0.034 A 
BRANCH  44  58
ATOM     58  C   UNL A   1      37.904  31.307  30.667  1.00  0.00     0.023 A 
ATOM     59  C   UNL A   1      37.540  31.033  32.001  1.00  0.00     0.012 A 
ATOM     60  C   UNL A   1      37.013  32.018  29.840  1.00  0.00     0.148 A 
ATOM     61  C   UNL A   1      36.307  31.454  32.502  1.00  0.00     0.002 A 
ATOM     62  C   UNL A   1      35.798  32.461  30.355  1.00  0.00     0.091 A 
ATOM     63  F   UNL A   1      37.366  32.248  28.567  1.00  0.00    -0.205 F 
ATOM     64  C   UNL A   1      35.443  32.178  31.684  1.00  0.00     0.022 A 
BRANCH  62  65
ATOM     65  S   UNL A   1      34.652  33.462  29.398  1.00  0.00     0.127 S 
ATOM     66  O   UNL A   1      35.538  34.494  28.861  1.00  0.00    -0.237 OA
ATOM     67  O   UNL A   1      34.156  32.508  28.404  1.00  0.00    -0.237 OA
ATOM     68  O   UNL A   1      33.645  33.925  30.343  1.00  0.00    -0.744 OA
ENDBRANCH  62  65
ENDBRANCH  44  58
BRANCH  45  69
ATOM     69  C   UNL A   1      46.912  28.669  27.130  1.00  0.00     0.023 A 
ATOM     70  C   UNL A   1      48.009  28.447  27.980  1.00  0.00     0.012 A 
ATOM     71  C   UNL A   1      47.025  28.363  25.759  1.00  0.00     0.148 A 
ATOM     72  C   UNL A   1      49.202  27.934  27.474  1.00  0.00     0.002 A 
ATOM     73  C   UNL A   1      48.199  27.800  25.271  1.00  0.00     0.091 A 
ATOM     74  F   UNL A   1      45.970  28.589  24.963  1.00  0.00    -0.205 F 
ATOM     75  C   UNL A   1      49.293  27.595  26.125  1.00  0.00     0.022 A 
BRANCH  73  76
ATOM     76  S   UNL A   1      48.319  27.189  23.586  1.00  0.00     0.127 S 
ATOM     77  O   UNL A   1      47.520  28.165  22.853  1.00  0.00    -0.237 OA
ATOM     78  O   UNL A   1      49.759  27.255  23.328  1.00  0.00    -0.237 OA
ATOM     79  O   UNL A   1      47.791  25.831  23.637  1.00  0.00    -0.744 OA
ENDBRANCH  73  76
ENDBRANCH  45  69
BRANCH  57  80
ATOM     80  C   UNL A   1      44.279  34.562  29.803  1.00  0.00     0.023 A 
ATOM     81  C   UNL A   1      44.970  34.848  30.997  1.00  0.00     0.012 A 
ATOM     82  C   UNL A   1      44.173  35.548  28.805  1.00  0.00     0.148 A 
ATOM     83  C   UNL A   1      45.521  36.111  31.208  1.00  0.00     0.002 A 
ATOM     84  C   UNL A   1      44.759  36.793  29.008  1.00  0.00     0.091 A 
ATOM     85  F   UNL A   1      43.487  35.263  27.689  1.00  0.00    -0.205 F 
ATOM     86  C   UNL A   1      45.424  37.079  30.211  1.00  0.00     0.022 A 
BRANCH  84  87
ATOM     87  S   UNL A   1      44.738  38.066  27.741  1.00  0.00     0.127 S 
ATOM     88  O   UNL A   1      45.112  39.254  28.504  1.00  0.00    -0.237 OA
ATOM     89  O   UNL A   1      45.761  37.597  26.804  1.00  0.00    -0.237 OA
ATOM     90  O   UNL A   1      43.385  38.059  27.200  1.00  0.00    -0.744 OA
ENDBRANCH  84  87
ENDBRANCH  57  80
ENDBRANCH  31  32
ENDBRANCH  24  26
ENDBRANCH  23  24
ENDBRANCH  22  23
ENDBRANCH   1  22
TORSDOF 19
ENDMDL
MODEL 2
REMARK VINA RESULT:     -10.7      1.820      2.481
REMARK SMILES CC[C@@H](C)[C@H](NC(=O)/C=C/c1ccnn1C)C(=O)OCCOC(=O)c1ccc(-c2c3nc(c(-c4cccc(S(=O)(=O)[O-])c4F)c4ccc([nH]4)c(-c4cccc(S(=O)(=O)[O-])c4F)c4nc(c(-c5cccc(S(=O)(=O)[O-])c5F)c5ccc2[nH]5)C=C4)C=C3)cc1
REMARK SMILES IDX 20 1 19 2 17 3 18 4 5 5 3 6 4 7 2 8 1 9 6 10 7 11 8 13 9 14
REMARK SMILES IDX 10 15 11 16 12 17 15 18 13 19 14 20 16 21 21 22 22 23 23 24
REMARK SMILES IDX 24 25 25 26 26 27 87 28 27 29 86 30 28 31 29 32 30 33 80 34
REMARK SMILES IDX 31 35 85 36 79 37 81 38 32 39 84 40 78 41 77 42 33 44 65 45
REMARK SMILES IDX 45 46 64 47 46 48 49 49 63 50 82 51 47 52 48 53 62 55 83 56
REMARK SMILES IDX 50 57 34 58 35 59 43 60 36 61 38 62 44 63 37 64 39 65 40 66
REMARK SMILES IDX 41 67 42 68 66 69 67 70 75 71 68 72 70 73 76 74 69 75 71 76
REMARK SMILES IDX 72 77 73 78 74 79 51 80 52 81 60 82 53 83 55 84 61 85 54 86
REMARK SMILES IDX 56 87 57 88 58 89 59 90
REMARK H PARENT 6 12 81 43 49 54
REMARK Flexibility Score: inf
ROOT
ATOM      1  C   UNL A   1      37.561  21.185  24.701  1.00  0.00     0.274 C 
ENDROOT
BRANCH   1   2
ATOM      2  O   UNL A   1      36.778  22.394  24.812  1.00  0.00    -0.461 OA
BRANCH   2   3
ATOM      3  C   UNL A   1      36.049  22.701  23.704  1.00  0.00     0.329 C 
ATOM      4  O   UNL A   1      36.539  22.851  22.585  1.00  0.00    -0.250 OA
BRANCH   3   5
ATOM      5  C   UNL A   1      34.533  22.897  23.967  1.00  0.00     0.195 C 
BRANCH   5   6
ATOM      6  C   UNL A   1      34.195  21.927  25.164  1.00  0.00     0.019 C 
ATOM      7  C   UNL A   1      33.671  20.565  24.681  1.00  0.00     0.010 C 
BRANCH   6   8
ATOM      8  C   UNL A   1      33.263  22.549  26.226  1.00  0.00     0.002 C 
ATOM      9  C   UNL A   1      33.743  22.319  27.657  1.00  0.00     0.004 C 
ENDBRANCH   6   8
ENDBRANCH   5   6
BRANCH   5  10
ATOM     10  N   UNL A   1      33.541  22.826  22.857  1.00  0.00    -0.339 N 
ATOM     11  C   UNL A   1      32.256  23.322  22.949  1.00  0.00     0.244 C 
ATOM     12  H   UNL A   1      33.817  22.402  22.012  1.00  0.00     0.164 HD
ATOM     13  O   UNL A   1      31.304  22.545  22.958  1.00  0.00    -0.270 OA
BRANCH  11  14
ATOM     14  C   UNL A   1      32.052  24.791  22.884  1.00  0.00     0.073 C 
ATOM     15  C   UNL A   1      30.909  25.373  23.305  1.00  0.00     0.033 C 
BRANCH  15  16
ATOM     16  C   UNL A   1      30.783  26.797  23.398  1.00  0.00     0.061 A 
ATOM     17  C   UNL A   1      30.486  27.783  22.469  1.00  0.00     0.050 A 
ATOM     18  N   UNL A   1      31.019  27.502  24.568  1.00  0.00    -0.269 N 
ATOM     19  C   UNL A   1      30.667  29.010  23.122  1.00  0.00     0.136 A 
ATOM     20  N   UNL A   1      30.987  28.845  24.401  1.00  0.00    -0.181 NA
ATOM     21  C   UNL A   1      31.221  27.035  25.921  1.00  0.00     0.174 C 
ENDBRANCH  15  16
ENDBRANCH  11  14
ENDBRANCH   5  10
ENDBRANCH   3   5
ENDBRANCH   2   3
ENDBRANCH   1   2
BRANCH   1  22
ATOM     22  C   UNL A   1      38.604  21.028  25.827  1.00  0.00     0.275 C 
BRANCH  22  23
ATOM     23  O   UNL A   1      39.510  19.901  25.729  1.00  0.00    -0.458 OA
BRANCH  23  24
ATOM     24  C   UNL A   1      40.688  20.102  26.341  1.00  0.00     0.338 C 
ATOM     25  O   UNL A   1      41.516  19.235  26.575  1.00  0.00    -0.246 OA
BRANCH  24  26
ATOM     26  C   UNL A   1      41.052  21.437  26.772  1.00  0.00     0.060 A 
ATOM     27  C   UNL A   1      41.343  22.357  25.753  1.00  0.00     0.016 A 
ATOM     28  C   UNL A   1      41.435  21.668  28.090  1.00  0.00     0.016 A 
ATOM     29  C   UNL A   1      42.000  23.539  26.057  1.00  0.00     0.010 A 
ATOM     30  C   UNL A   1      42.069  22.871  28.399  1.00  0.00     0.010 A 
ATOM     31  C   UNL A   1      42.334  23.814  27.390  1.00  0.00    -0.014 A 
BRANCH  31  32
ATOM     32  C   UNL A   1      42.700  25.192  27.764  1.00  0.00     0.031 A 
ATOM     33  C   UNL A   1      41.722  26.161  28.341  1.00  0.00     0.074 A 
ATOM     34  C   UNL A   1      43.965  25.551  27.476  1.00  0.00     0.049 A 
ATOM     35  N   UNL A   1      41.910  27.418  28.644  1.00  0.00    -0.248 NA
ATOM     36  C   UNL A   1      40.365  25.668  28.618  1.00  0.00     0.031 C 
ATOM     37  C   UNL A   1      44.969  24.662  26.881  1.00  0.00     0.029 A 
ATOM     38  N   UNL A   1      44.609  26.751  27.595  1.00  0.00    -0.354 N 
ATOM     39  C   UNL A   1      40.694  27.882  29.127  1.00  0.00     0.074 A 
ATOM     40  C   UNL A   1      39.771  26.765  29.080  1.00  0.00     0.031 C 
ATOM     41  C   UNL A   1      46.087  25.358  26.645  1.00  0.00     0.029 A 
ATOM     42  C   UNL A   1      45.866  26.740  27.044  1.00  0.00     0.049 A 
ATOM     43  H   UNL A   1      44.212  27.540  28.030  1.00  0.00     0.167 HD
ATOM     44  C   UNL A   1      40.397  29.125  29.575  1.00  0.00     0.034 A 
ATOM     45  C   UNL A   1      46.742  27.743  26.852  1.00  0.00     0.034 A 
ATOM     46  C   UNL A   1      41.347  30.209  29.626  1.00  0.00     0.049 A 
ATOM     47  C   UNL A   1      46.383  29.101  27.361  1.00  0.00     0.074 A 
ATOM     48  C   UNL A   1      41.177  31.481  30.142  1.00  0.00     0.029 A 
ATOM     49  N   UNL A   1      42.642  30.152  29.127  1.00  0.00    -0.354 N 
ATOM     50  N   UNL A   1      45.279  29.488  27.955  1.00  0.00    -0.248 NA
ATOM     51  C   UNL A   1      47.396  30.151  27.217  1.00  0.00     0.031 C 
ATOM     52  C   UNL A   1      42.363  32.197  29.943  1.00  0.00     0.029 A 
ATOM     53  C   UNL A   1      43.276  31.370  29.310  1.00  0.00     0.049 A 
ATOM     54  H   UNL A   1      43.049  29.362  28.704  1.00  0.00     0.167 HD
ATOM     55  C   UNL A   1      45.473  30.819  28.282  1.00  0.00     0.074 A 
ATOM     56  C   UNL A   1      46.809  31.167  27.835  1.00  0.00     0.031 C 
ATOM     57  C   UNL A   1      44.618  31.681  28.886  1.00  0.00     0.034 A 
BRANCH  44  58
ATOM     58  C   UNL A   1      39.009  29.384  30.102  1.00  0.00     0.023 A 
ATOM     59  C   UNL A   1      38.678  28.960  31.405  1.00  0.00     0.012 A 
ATOM     60  C   UNL A   1      38.077  30.141  29.365  1.00  0.00     0.148 A 
ATOM     61  C   UNL A   1      37.439  29.279  31.963  1.00  0.00     0.002 A 
ATOM     62  C   UNL A   1      36.856  30.481  29.939  1.00  0.00     0.091 A 
ATOM     63  F   UNL A   1      38.400  30.516  28.119  1.00  0.00    -0.205 F 
ATOM     64  C   UNL A   1      36.535  30.049  31.236  1.00  0.00     0.022 A 
BRANCH  62  65
ATOM     65  S   UNL A   1      35.657  31.530  29.107  1.00  0.00     0.127 S 
ATOM     66  O   UNL A   1      36.518  32.559  28.525  1.00  0.00    -0.237 OA
ATOM     67  O   UNL A   1      35.061  30.614  28.133  1.00  0.00    -0.237 OA
ATOM     68  O   UNL A   1      34.742  31.986  30.143  1.00  0.00    -0.744 OA
ENDBRANCH  62  65
ENDBRANCH  44  58
BRANCH  45  69
ATOM     69  C   UNL A   1      48.047  27.438  26.212  1.00  0.00     0.023 A 
ATOM     70  C   UNL A   1      49.055  26.820  26.971  1.00  0.00     0.012 A 
ATOM     71  C   UNL A   1      48.238  27.624  24.828  1.00  0.00     0.148 A 
ATOM     72  C   UNL A   1      50.237  26.398  26.366  1.00  0.00     0.002 A 
ATOM     73  C   UNL A   1      49.396  27.151  24.221  1.00  0.00     0.091 A 
ATOM     74  F   UNL A   1      47.268  28.224  24.123  1.00  0.00    -0.205 F 
ATOM     75  C   UNL A   1      50.402  26.547  24.990  1.00  0.00     0.022 A 
BRANCH  73  76
ATOM     76  S   UNL A   1      49.593  27.164  22.435  1.00  0.00     0.127 S 
ATOM     77  O   UNL A   1      49.175  28.520  22.094  1.00  0.00    -0.237 OA
ATOM     78  O   UNL A   1      51.025  26.904  22.274  1.00  0.00    -0.237 OA
ATOM     79  O   UNL A   1      48.740  26.085  21.952  1.00  0.00    -0.744 OA
ENDBRANCH  73  76
ENDBRANCH  45  69
BRANCH  57  80
ATOM     80  C   UNL A   1      45.113  33.085  29.095  1.00  0.00     0.023 A 
ATOM     81  C   UNL A   1      45.723  33.424  30.319  1.00  0.00     0.012 A 
ATOM     82  C   UNL A   1      45.007  34.051  28.078  1.00  0.00     0.148 A 
ATOM     83  C   UNL A   1      46.191  34.718  30.539  1.00  0.00     0.002 A 
ATOM     84  C   UNL A   1      45.511  35.329  28.292  1.00  0.00     0.091 A 
ATOM     85  F   UNL A   1      44.397  33.714  26.932  1.00  0.00    -0.205 F 
ATOM     86  C   UNL A   1      46.094  35.667  29.524  1.00  0.00     0.022 A 
BRANCH  84  87
ATOM     87  S   UNL A   1      45.487  36.583  27.006  1.00  0.00     0.127 S 
ATOM     88  O   UNL A   1      46.347  37.616  27.580  1.00  0.00    -0.237 OA
ATOM     89  O   UNL A   1      46.066  35.875  25.862  1.00  0.00    -0.237 OA
ATOM     90  O   UNL A   1      44.086  36.946  26.838  1.00  0.00    -0.744 OA
ENDBRANCH  84  87
ENDBRANCH  57  80
ENDBRANCH  31  32
ENDBRANCH  24  26
ENDBRANCH  23  24
ENDBRANCH  22  23
ENDBRANCH   1  22
TORSDOF 19
ENDMDL
MODEL 3
REMARK VINA RESULT:     -10.2      1.681      7.975
REMARK SMILES CC[C@@H](C)[C@H](NC(=O)/C=C/c1ccnn1C)C(=O)OCCOC(=O)c1ccc(-c2c3nc(c(-c4cccc(S(=O)(=O)[O-])c4F)c4ccc([nH]4)c(-c4cccc(S(=O)(=O)[O-])c4F)c4nc(c(-c5cccc(S(=O)(=O)[O-])c5F)c5ccc2[nH]5)C=C4)C=C3)cc1
REMARK SMILES IDX 20 1 19 2 17 3 18 4 5 5 3 6 4 7 2 8 1 9 6 10 7 11 8 13 9 14
REMARK SMILES IDX 10 15 11 16 12 17 15 18 13 19 14 20 16 21 21 22 22 23 23 24
REMARK SMILES IDX 24 25 25 26 26 27 87 28 27 29 86 30 28 31 29 32 30 33 80 34
REMARK SMILES IDX 31 35 85 36 79 37 81 38 32 39 84 40 78 41 77 42 33 44 65 45
REMARK SMILES IDX 45 46 64 47 46 48 49 49 63 50 82 51 47 52 48 53 62 55 83 56
REMARK SMILES IDX 50 57 34 58 35 59 43 60 36 61 38 62 44 63 37 64 39 65 40 66
REMARK SMILES IDX 41 67 42 68 66 69 67 70 75 71 68 72 70 73 76 74 69 75 71 76
REMARK SMILES IDX 72 77 73 78 74 79 51 80 52 81 60 82 53 83 55 84 61 85 54 86
REMARK SMILES IDX 56 87 57 88 58 89 59 90
REMARK H PARENT 6 12 81 43 49 54
REMARK Flexibility Score: inf
ROOT
ATOM      1  C   UNL A   1      37.314  21.048  24.786  1.00  0.00     0.274 C 
ENDROOT
BRANCH   1   2
ATOM      2  O   UNL A   1      36.459  22.212  24.714  1.00  0.00    -0.461 OA
BRANCH   2   3
ATOM      3  C   UNL A   1      35.322  22.126  25.457  1.00  0.00     0.329 C 
ATOM      4  O   UNL A   1      35.237  21.487  26.505  1.00  0.00    -0.250 OA
BRANCH   3   5
ATOM      5  C   UNL A   1      34.103  22.868  24.850  1.00  0.00     0.195 C 
BRANCH   5   6
ATOM      6  C   UNL A   1      32.898  21.859  24.987  1.00  0.00     0.019 C 
ATOM      7  C   UNL A   1      32.640  21.079  23.688  1.00  0.00     0.010 C 
BRANCH   6   8
ATOM      8  C   UNL A   1      31.603  22.504  25.527  1.00  0.00     0.002 C 
ATOM      9  C   UNL A   1      31.811  23.267  26.833  1.00  0.00     0.004 C 
ENDBRANCH   6   8
ENDBRANCH   5   6
BRANCH   5  10
ATOM     10  N   UNL A   1      34.180  23.510  23.506  1.00  0.00    -0.339 N 
ATOM     11  C   UNL A   1      33.340  24.527  23.097  1.00  0.00     0.244 C 
ATOM     12  H   UNL A   1      34.866  23.191  22.877  1.00  0.00     0.164 HD
ATOM     13  O   UNL A   1      32.514  24.315  22.212  1.00  0.00    -0.270 OA
BRANCH  11  14
ATOM     14  C   UNL A   1      33.559  25.893  23.637  1.00  0.00     0.073 C 
ATOM     15  C   UNL A   1      32.683  26.476  24.482  1.00  0.00     0.033 C 
BRANCH  15  16
ATOM     16  C   UNL A   1      32.980  27.719  25.129  1.00  0.00     0.061 A 
ATOM     17  C   UNL A   1      34.020  28.136  25.947  1.00  0.00     0.050 A 
ATOM     18  N   UNL A   1      32.140  28.820  25.070  1.00  0.00    -0.269 N 
ATOM     19  C   UNL A   1      33.676  29.417  26.401  1.00  0.00     0.136 A 
ATOM     20  N   UNL A   1      32.536  29.840  25.868  1.00  0.00    -0.181 NA
ATOM     21  C   UNL A   1      30.972  29.068  24.255  1.00  0.00     0.174 C 
ENDBRANCH  15  16
ENDBRANCH  11  14
ENDBRANCH   5  10
ENDBRANCH   3   5
ENDBRANCH   2   3
ENDBRANCH   1   2
BRANCH   1  22
ATOM     22  C   UNL A   1      38.504  21.223  25.751  1.00  0.00     0.275 C 
BRANCH  22  23
ATOM     23  O   UNL A   1      39.386  20.086  25.916  1.00  0.00    -0.458 OA
BRANCH  23  24
ATOM     24  C   UNL A   1      40.473  20.351  26.660  1.00  0.00     0.338 C 
ATOM     25  O   UNL A   1      41.183  19.510  27.191  1.00  0.00    -0.246 OA
BRANCH  24  26
ATOM     26  C   UNL A   1      40.876  21.726  26.874  1.00  0.00     0.060 A 
ATOM     27  C   UNL A   1      41.377  22.404  25.751  1.00  0.00     0.016 A 
ATOM     28  C   UNL A   1      41.088  22.202  28.165  1.00  0.00     0.016 A 
ATOM     29  C   UNL A   1      42.075  23.590  25.917  1.00  0.00     0.010 A 
ATOM     30  C   UNL A   1      41.765  23.410  28.327  1.00  0.00     0.010 A 
ATOM     31  C   UNL A   1      42.241  24.114  27.206  1.00  0.00    -0.014 A 
BRANCH  31  32
ATOM     32  C   UNL A   1      42.657  25.520  27.357  1.00  0.00     0.031 A 
ATOM     33  C   UNL A   1      44.012  26.009  26.966  1.00  0.00     0.074 A 
ATOM     34  C   UNL A   1      41.758  26.327  27.949  1.00  0.00     0.049 A 
ATOM     35  N   UNL A   1      44.516  27.205  27.115  1.00  0.00    -0.248 NA
ATOM     36  C   UNL A   1      44.921  25.046  26.326  1.00  0.00     0.031 C 
ATOM     37  C   UNL A   1      40.421  25.907  28.387  1.00  0.00     0.029 A 
ATOM     38  N   UNL A   1      41.838  27.638  28.327  1.00  0.00    -0.354 N 
ATOM     39  C   UNL A   1      45.808  27.144  26.612  1.00  0.00     0.074 A 
ATOM     40  C   UNL A   1      46.011  25.786  26.147  1.00  0.00     0.031 C 
ATOM     41  C   UNL A   1      39.825  26.927  29.014  1.00  0.00     0.029 A 
ATOM     42  C   UNL A   1      40.744  28.055  29.046  1.00  0.00     0.049 A 
ATOM     43  H   UNL A   1      42.599  28.222  28.107  1.00  0.00     0.167 HD
ATOM     44  C   UNL A   1      46.722  28.141  26.541  1.00  0.00     0.034 A 
ATOM     45  C   UNL A   1      40.515  29.213  29.690  1.00  0.00     0.034 A 
ATOM     46  C   UNL A   1      46.477  29.487  26.997  1.00  0.00     0.049 A 
ATOM     47  C   UNL A   1      41.543  30.293  29.589  1.00  0.00     0.074 A 
ATOM     48  C   UNL A   1      47.300  30.595  26.892  1.00  0.00     0.029 A 
ATOM     49  N   UNL A   1      45.330  29.905  27.659  1.00  0.00    -0.354 N 
ATOM     50  N   UNL A   1      42.702  30.265  28.976  1.00  0.00    -0.248 NA
ATOM     51  C   UNL A   1      41.222  31.574  30.226  1.00  0.00     0.031 C 
ATOM     52  C   UNL A   1      46.656  31.678  27.504  1.00  0.00     0.029 A 
ATOM     53  C   UNL A   1      45.429  31.248  27.981  1.00  0.00     0.049 A 
ATOM     54  H   UNL A   1      44.559  29.329  27.868  1.00  0.00     0.167 HD
ATOM     55  C   UNL A   1      43.240  31.532  29.127  1.00  0.00     0.074 A 
ATOM     56  C   UNL A   1      42.270  32.309  29.876  1.00  0.00     0.031 C 
ATOM     57  C   UNL A   1      44.435  32.007  28.698  1.00  0.00     0.034 A 
BRANCH  44  58
ATOM     58  C   UNL A   1      48.055  27.847  25.902  1.00  0.00     0.023 A 
ATOM     59  C   UNL A   1      49.139  27.468  26.719  1.00  0.00     0.012 A 
ATOM     60  C   UNL A   1      48.206  27.830  24.502  1.00  0.00     0.148 A 
ATOM     61  C   UNL A   1      50.355  27.084  26.152  1.00  0.00     0.002 A 
ATOM     62  C   UNL A   1      49.411  27.417  23.943  1.00  0.00     0.091 A 
ATOM     63  F   UNL A   1      47.171  28.216  23.741  1.00  0.00    -0.205 F 
ATOM     64  C   UNL A   1      50.487  27.046  24.767  1.00  0.00     0.022 A 
BRANCH  62  65
ATOM     65  S   UNL A   1      49.652  27.267  22.168  1.00  0.00     0.127 S 
ATOM     66  O   UNL A   1      51.037  26.804  22.096  1.00  0.00    -0.237 OA
ATOM     67  O   UNL A   1      48.654  26.262  21.799  1.00  0.00    -0.237 OA
ATOM     68  O   UNL A   1      49.402  28.593  21.620  1.00  0.00    -0.744 OA
ENDBRANCH  62  65
ENDBRANCH  44  58
BRANCH  45  69
ATOM     69  C   UNL A   1      39.226  29.388  30.405  1.00  0.00     0.023 A 
ATOM     70  C   UNL A   1      39.051  28.784  31.662  1.00  0.00     0.012 A 
ATOM     71  C   UNL A   1      38.236  30.264  29.915  1.00  0.00     0.148 A 
ATOM     72  C   UNL A   1      37.908  29.042  32.417  1.00  0.00     0.002 A 
ATOM     73  C   UNL A   1      37.126  30.560  30.697  1.00  0.00     0.091 A 
ATOM     74  F   UNL A   1      38.417  30.824  28.710  1.00  0.00    -0.205 F 
ATOM     75  C   UNL A   1      36.955  29.942  31.944  1.00  0.00     0.022 A 
BRANCH  73  76
ATOM     76  S   UNL A   1      35.951  31.833  30.218  1.00  0.00     0.127 S 
ATOM     77  O   UNL A   1      35.306  31.227  29.058  1.00  0.00    -0.237 OA
ATOM     78  O   UNL A   1      35.102  31.941  31.406  1.00  0.00    -0.237 OA
ATOM     79  O   UNL A   1      36.760  33.018  29.962  1.00  0.00    -0.744 OA
ENDBRANCH  73  76
ENDBRANCH  45  69
BRANCH  57  80
ATOM     80  C   UNL A   1      44.750  33.438  29.032  1.00  0.00     0.023 A 
ATOM     81  C   UNL A   1      45.517  33.724  30.179  1.00  0.00     0.012 A 
ATOM     82  C   UNL A   1      44.318  34.489  28.203  1.00  0.00     0.148 A 
ATOM     83  C   UNL A   1      45.823  35.042  30.512  1.00  0.00     0.002 A 
ATOM     84  C   UNL A   1      44.660  35.798  28.522  1.00  0.00     0.091 A 
ATOM     85  F   UNL A   1      43.565  34.196  27.133  1.00  0.00    -0.205 F 
ATOM     86  C   UNL A   1      45.404  36.077  29.680  1.00  0.00     0.022 A 
BRANCH  84  87
ATOM     87  S   UNL A   1      44.218  37.178  27.460  1.00  0.00     0.127 S 
ATOM     88  O   UNL A   1      45.516  37.559  26.909  1.00  0.00    -0.237 OA
ATOM     89  O   UNL A   1      43.306  36.558  26.498  1.00  0.00    -0.237 OA
ATOM     90  O   UNL A   1      43.587  38.159  28.334  1.00  0.00    -0.744 OA
ENDBRANCH  84  87
ENDBRANCH  57  80
ENDBRANCH  31  32
ENDBRANCH  24  26
ENDBRANCH  23  24
ENDBRANCH  22  23
ENDBRANCH   1  22
TORSDOF 19
ENDMDL
