MODEL 1
REMARK VINA RESULT:     -12.8      0.000      0.000
REMARK SMILES COc1ccccc1[C@@H]1CN(C(=O)c2cnn3ccccc23)C[C@H]1C(=O)OCCOC(=O)c1ccc(-c2c3nc(c(-c4cccc(S(=O)(=O)[O-])c4F)c4ccc([nH]4)c(-c4cccc(S(=O)(=O)[O-])c4F)c4nc(c(-c5cccc(S(=O)(=O)[O-])c5F)c5ccc2[nH]5)C=C4)C=C3)cc1
REMARK SMILES IDX 29 1 28 2 27 3 25 4 26 5 24 6 9 7 10 8 11 9 23 10 8 11 3 12
REMARK SMILES IDX 4 13 5 14 7 15 6 16 2 17 1 18 12 19 13 20 14 21 15 22 22 23
REMARK SMILES IDX 16 24 17 25 21 26 18 27 20 28 19 29 30 30 31 31 32 32 33 33
REMARK SMILES IDX 34 34 95 35 35 36 94 37 36 38 37 39 38 40 88 41 39 42 93 43
REMARK SMILES IDX 87 44 89 45 40 46 92 47 86 48 85 49 41 51 73 52 53 53 72 54
REMARK SMILES IDX 54 55 57 56 71 57 90 58 55 59 56 60 70 62 91 63 58 64 42 65
REMARK SMILES IDX 43 66 51 67 44 68 46 69 52 70 45 71 47 72 48 73 49 74 50 75
REMARK SMILES IDX 74 76 75 77 83 78 76 79 78 80 84 81 77 82 79 83 80 84 81 85
REMARK SMILES IDX 82 86 59 87 60 88 68 89 61 90 63 91 69 92 62 93 64 94 65 95
REMARK SMILES IDX 66 96 67 97
REMARK H PARENT 89 50 57 61
REMARK Flexibility Score: inf
ROOT
ATOM      1  C   UNL A   1      38.474  21.555  25.719  1.00  0.00     0.275 C 
ENDROOT
BRANCH   1   2
ATOM      2  C   UNL A   1      37.219  21.454  24.848  1.00  0.00     0.274 C 
BRANCH   2   3
ATOM      3  O   UNL A   1      36.255  22.505  25.100  1.00  0.00    -0.462 OA
BRANCH   3   4
ATOM      4  C   UNL A   1      35.096  22.104  25.689  1.00  0.00     0.311 C 
ATOM      5  O   UNL A   1      35.046  21.469  26.741  1.00  0.00    -0.252 OA
BRANCH   4   6
ATOM      6  C   UNL A   1      33.843  22.376  24.883  1.00  0.00     0.128 C 
ATOM      7  C   UNL A   1      32.644  21.396  24.889  1.00  0.00     0.058 C 
ATOM      8  C   UNL A   1      31.426  22.319  24.880  1.00  0.00     0.129 C 
ATOM      9  N   UNL A   1      31.861  23.518  25.563  1.00  0.00    -0.337 N 
ATOM     10  C   UNL A   1      33.292  23.694  25.428  1.00  0.00     0.135 C 
BRANCH   7  11
ATOM     11  C   UNL A   1      32.492  20.340  23.796  1.00  0.00    -0.000 A 
ATOM     12  C   UNL A   1      32.786  18.968  23.915  1.00  0.00     0.122 A 
ATOM     13  C   UNL A   1      32.612  18.096  22.825  1.00  0.00     0.047 A 
ATOM     14  C   UNL A   1      32.182  18.575  21.589  1.00  0.00     0.004 A 
ATOM     15  C   UNL A   1      32.116  20.799  22.511  1.00  0.00     0.008 A 
ATOM     16  C   UNL A   1      31.957  19.934  21.426  1.00  0.00     0.001 A 
BRANCH  12  17
ATOM     17  O   UNL A   1      33.496  18.452  24.968  1.00  0.00    -0.496 OA
ATOM     18  C   UNL A   1      32.779  17.528  25.773  1.00  0.00     0.278 C 
ENDBRANCH  12  17
ENDBRANCH   7  11
BRANCH   9  19
ATOM     19  C   UNL A   1      31.065  24.541  26.039  1.00  0.00     0.257 C 
ATOM     20  O   UNL A   1      30.377  24.417  27.052  1.00  0.00    -0.269 OA
BRANCH  19  21
ATOM     21  C   UNL A   1      31.116  25.799  25.329  1.00  0.00     0.085 A 
ATOM     22  C   UNL A   1      30.868  26.005  23.960  1.00  0.00     0.150 A 
ATOM     23  C   UNL A   1      31.443  27.056  25.803  1.00  0.00     0.079 A 
ATOM     24  N   UNL A   1      30.938  27.287  23.598  1.00  0.00    -0.176 NA
ATOM     25  N   UNL A   1      31.247  27.948  24.744  1.00  0.00    -0.240 N 
ATOM     26  C   UNL A   1      31.854  27.595  27.060  1.00  0.00     0.029 A 
ATOM     27  C   UNL A   1      31.358  29.328  24.915  1.00  0.00     0.113 A 
ATOM     28  C   UNL A   1      31.952  28.928  27.214  1.00  0.00     0.004 A 
ATOM     29  C   UNL A   1      31.684  29.839  26.114  1.00  0.00     0.020 A 
ENDBRANCH  19  21
ENDBRANCH   9  19
ENDBRANCH   4   6
ENDBRANCH   3   4
ENDBRANCH   2   3
ENDBRANCH   1   2
BRANCH   1  30
ATOM     30  O   UNL A   1      38.733  22.882  26.182  1.00  0.00    -0.458 OA
BRANCH  30  31
ATOM     31  C   UNL A   1      39.857  22.942  26.924  1.00  0.00     0.338 C 
ATOM     32  O   UNL A   1      40.306  22.042  27.613  1.00  0.00    -0.246 OA
BRANCH  31  33
ATOM     33  C   UNL A   1      40.386  24.293  27.036  1.00  0.00     0.060 A 
ATOM     34  C   UNL A   1      41.572  24.439  27.764  1.00  0.00     0.016 A 
ATOM     35  C   UNL A   1      39.515  25.356  26.804  1.00  0.00     0.016 A 
ATOM     36  C   UNL A   1      41.792  25.615  28.442  1.00  0.00     0.010 A 
ATOM     37  C   UNL A   1      39.743  26.536  27.470  1.00  0.00     0.010 A 
ATOM     38  C   UNL A   1      40.831  26.621  28.344  1.00  0.00    -0.014 A 
BRANCH  38  39
ATOM     39  C   UNL A   1      41.054  27.842  29.094  1.00  0.00     0.031 A 
ATOM     40  C   UNL A   1      42.107  28.709  28.506  1.00  0.00     0.074 A 
ATOM     41  C   UNL A   1      40.222  28.207  30.088  1.00  0.00     0.049 A 
ATOM     42  N   UNL A   1      43.141  29.225  29.084  1.00  0.00    -0.248 NA
ATOM     43  C   UNL A   1      42.069  28.915  27.046  1.00  0.00     0.031 C 
ATOM     44  C   UNL A   1      38.986  27.531  30.498  1.00  0.00     0.029 A 
ATOM     45  N   UNL A   1      40.187  29.375  30.790  1.00  0.00    -0.354 N 
ATOM     46  C   UNL A   1      43.751  30.008  28.104  1.00  0.00     0.074 A 
ATOM     47  C   UNL A   1      43.177  29.623  26.845  1.00  0.00     0.031 C 
ATOM     48  C   UNL A   1      38.188  28.427  31.118  1.00  0.00     0.029 A 
ATOM     49  C   UNL A   1      38.904  29.685  31.235  1.00  0.00     0.049 A 
ATOM     50  H   UNL A   1      40.977  29.935  30.963  1.00  0.00     0.167 HD
ATOM     51  C   UNL A   1      44.482  31.108  28.421  1.00  0.00     0.034 A 
ATOM     52  C   UNL A   1      38.431  30.922  31.529  1.00  0.00     0.034 A 
ATOM     53  C   UNL A   1      44.921  31.089  29.789  1.00  0.00     0.049 A 
ATOM     54  C   UNL A   1      39.595  31.821  31.709  1.00  0.00     0.074 A 
ATOM     55  C   UNL A   1      45.639  30.200  30.565  1.00  0.00     0.029 A 
ATOM     56  N   UNL A   1      44.304  31.943  30.669  1.00  0.00    -0.354 N 
ATOM     57  N   UNL A   1      40.444  31.726  32.694  1.00  0.00    -0.248 NA
ATOM     58  C   UNL A   1      40.065  32.566  30.550  1.00  0.00     0.031 C 
ATOM     59  C   UNL A   1      45.024  30.257  31.849  1.00  0.00     0.029 A 
ATOM     60  C   UNL A   1      44.008  31.212  31.789  1.00  0.00     0.049 A 
ATOM     61  H   UNL A   1      44.110  32.897  30.522  1.00  0.00     0.167 HD
ATOM     62  C   UNL A   1      41.678  31.995  32.116  1.00  0.00     0.074 A 
ATOM     63  C   UNL A   1      41.369  32.612  30.828  1.00  0.00     0.031 C 
ATOM     64  C   UNL A   1      42.825  31.424  32.592  1.00  0.00     0.034 A 
BRANCH  51  65
ATOM     65  C   UNL A   1      44.480  32.375  27.599  1.00  0.00     0.023 A 
ATOM     66  C   UNL A   1      45.506  32.531  26.645  1.00  0.00     0.012 A 
ATOM     67  C   UNL A   1      43.706  33.520  27.903  1.00  0.00     0.148 A 
ATOM     68  C   UNL A   1      45.781  33.772  26.063  1.00  0.00     0.002 A 
ATOM     69  C   UNL A   1      43.922  34.728  27.253  1.00  0.00     0.091 A 
ATOM     70  F   UNL A   1      42.846  33.503  28.926  1.00  0.00    -0.205 F 
ATOM     71  C   UNL A   1      44.982  34.870  26.358  1.00  0.00     0.022 A 
BRANCH  69  72
ATOM     72  S   UNL A   1      42.866  36.149  27.560  1.00  0.00     0.127 S 
ATOM     73  O   UNL A   1      43.447  37.144  26.665  1.00  0.00    -0.237 OA
ATOM     74  O   UNL A   1      41.554  35.642  27.159  1.00  0.00    -0.237 OA
ATOM     75  O   UNL A   1      42.987  36.414  28.988  1.00  0.00    -0.744 OA
ENDBRANCH  69  72
ENDBRANCH  51  65
BRANCH  52  76
ATOM     76  C   UNL A   1      37.051  31.443  31.371  1.00  0.00     0.023 A 
ATOM     77  C   UNL A   1      36.334  31.862  32.508  1.00  0.00     0.012 A 
ATOM     78  C   UNL A   1      36.516  31.750  30.099  1.00  0.00     0.148 A 
ATOM     79  C   UNL A   1      35.134  32.572  32.382  1.00  0.00     0.002 A 
ATOM     80  C   UNL A   1      35.308  32.431  29.978  1.00  0.00     0.091 A 
ATOM     81  F   UNL A   1      37.233  31.462  29.005  1.00  0.00    -0.205 F 
ATOM     82  C   UNL A   1      34.619  32.854  31.120  1.00  0.00     0.022 A 
BRANCH  80  83
ATOM     83  S   UNL A   1      34.588  32.806  28.374  1.00  0.00     0.127 S 
ATOM     84  O   UNL A   1      34.248  31.475  27.870  1.00  0.00    -0.237 OA
ATOM     85  O   UNL A   1      33.442  33.633  28.740  1.00  0.00    -0.237 OA
ATOM     86  O   UNL A   1      35.640  33.475  27.618  1.00  0.00    -0.744 OA
ENDBRANCH  80  83
ENDBRANCH  52  76
BRANCH  64  87
ATOM     87  C   UNL A   1      42.784  30.699  33.913  1.00  0.00     0.023 A 
ATOM     88  C   UNL A   1      42.864  31.379  35.146  1.00  0.00     0.012 A 
ATOM     89  C   UNL A   1      42.466  29.329  33.915  1.00  0.00     0.148 A 
ATOM     90  C   UNL A   1      42.663  30.703  36.352  1.00  0.00     0.002 A 
ATOM     91  C   UNL A   1      42.217  28.672  35.114  1.00  0.00     0.091 A 
ATOM     92  F   UNL A   1      42.386  28.692  32.737  1.00  0.00    -0.205 F 
ATOM     93  C   UNL A   1      42.325  29.353  36.335  1.00  0.00     0.022 A 
BRANCH  91  94
ATOM     94  S   UNL A   1      41.645  26.972  35.139  1.00  0.00     0.127 S 
ATOM     95  O   UNL A   1      41.248  26.802  36.534  1.00  0.00    -0.237 OA
ATOM     96  O   UNL A   1      40.533  26.994  34.185  1.00  0.00    -0.237 OA
ATOM     97  O   UNL A   1      42.780  26.169  34.700  1.00  0.00    -0.744 OA
ENDBRANCH  91  94
ENDBRANCH  64  87
ENDBRANCH  38  39
ENDBRANCH  31  33
ENDBRANCH  30  31
ENDBRANCH   1  30
TORSDOF 18
ENDMDL
MODEL 2
REMARK VINA RESULT:     -12.5      3.083      8.974
REMARK SMILES COc1ccccc1[C@@H]1CN(C(=O)c2cnn3ccccc23)C[C@H]1C(=O)OCCOC(=O)c1ccc(-c2c3nc(c(-c4cccc(S(=O)(=O)[O-])c4F)c4ccc([nH]4)c(-c4cccc(S(=O)(=O)[O-])c4F)c4nc(c(-c5cccc(S(=O)(=O)[O-])c5F)c5ccc2[nH]5)C=C4)C=C3)cc1
REMARK SMILES IDX 29 1 28 2 27 3 25 4 26 5 24 6 9 7 10 8 11 9 23 10 8 11 3 12
REMARK SMILES IDX 4 13 5 14 7 15 6 16 2 17 1 18 12 19 13 20 14 21 15 22 22 23
REMARK SMILES IDX 16 24 17 25 21 26 18 27 20 28 19 29 30 30 31 31 32 32 33 33
REMARK SMILES IDX 34 34 95 35 35 36 94 37 36 38 37 39 38 40 88 41 39 42 93 43
REMARK SMILES IDX 87 44 89 45 40 46 92 47 86 48 85 49 41 51 73 52 53 53 72 54
REMARK SMILES IDX 54 55 57 56 71 57 90 58 55 59 56 60 70 62 91 63 58 64 42 65
REMARK SMILES IDX 43 66 51 67 44 68 46 69 52 70 45 71 47 72 48 73 49 74 50 75
REMARK SMILES IDX 74 76 75 77 83 78 76 79 78 80 84 81 77 82 79 83 80 84 81 85
REMARK SMILES IDX 82 86 59 87 60 88 68 89 61 90 63 91 69 92 62 93 64 94 65 95
REMARK SMILES IDX 66 96 67 97
REMARK H PARENT 89 50 57 61
REMARK Flexibility Score: inf
ROOT
ATOM      1  C   UNL A   1      33.326  30.603  27.079  1.00  0.00     0.275 C 
ENDROOT
BRANCH   1   2
ATOM      2  C   UNL A   1      32.607  29.550  26.232  1.00  0.00     0.274 C 
BRANCH   2   3
ATOM      3  O   UNL A   1      33.493  28.806  25.361  1.00  0.00    -0.462 OA
BRANCH   3   4
ATOM      4  C   UNL A   1      33.009  28.554  24.114  1.00  0.00     0.311 C 
ATOM      5  O   UNL A   1      33.166  29.305  23.154  1.00  0.00    -0.252 OA
BRANCH   4   6
ATOM      6  C   UNL A   1      32.127  27.328  24.008  1.00  0.00     0.128 C 
ATOM      7  C   UNL A   1      31.088  27.170  22.870  1.00  0.00     0.058 C 
ATOM      8  C   UNL A   1      31.171  25.688  22.511  1.00  0.00     0.129 C 
ATOM      9  N   UNL A   1      32.537  25.308  22.804  1.00  0.00    -0.337 N 
ATOM     10  C   UNL A   1      33.091  26.153  23.841  1.00  0.00     0.135 C 
BRANCH   7  11
ATOM     11  C   UNL A   1      29.628  27.562  23.086  1.00  0.00    -0.000 A 
ATOM     12  C   UNL A   1      29.052  28.819  22.817  1.00  0.00     0.122 A 
ATOM     13  C   UNL A   1      27.690  29.058  23.070  1.00  0.00     0.047 A 
ATOM     14  C   UNL A   1      26.884  28.068  23.631  1.00  0.00     0.004 A 
ATOM     15  C   UNL A   1      28.794  26.604  23.710  1.00  0.00     0.008 A 
ATOM     16  C   UNL A   1      27.444  26.847  23.973  1.00  0.00     0.001 A 
BRANCH  12  17
ATOM     17  O   UNL A   1      29.803  29.936  22.562  1.00  0.00    -0.496 OA
ATOM     18  C   UNL A   1      29.418  31.092  23.291  1.00  0.00     0.278 C 
ENDBRANCH  12  17
ENDBRANCH   7  11
BRANCH   9  19
ATOM     19  C   UNL A   1      33.182  24.151  22.414  1.00  0.00     0.257 C 
ATOM     20  O   UNL A   1      33.531  23.958  21.249  1.00  0.00    -0.269 OA
BRANCH  19  21
ATOM     21  C   UNL A   1      33.489  23.189  23.448  1.00  0.00     0.085 A 
ATOM     22  C   UNL A   1      32.575  22.553  24.306  1.00  0.00     0.150 A 
ATOM     23  C   UNL A   1      34.720  22.704  23.851  1.00  0.00     0.079 A 
ATOM     24  N   UNL A   1      33.147  21.670  25.127  1.00  0.00    -0.176 NA
ATOM     25  N   UNL A   1      34.468  21.725  24.817  1.00  0.00    -0.240 N 
ATOM     26  C   UNL A   1      36.078  22.938  23.477  1.00  0.00     0.029 A 
ATOM     27  C   UNL A   1      35.489  20.933  25.344  1.00  0.00     0.113 A 
ATOM     28  C   UNL A   1      37.052  22.163  23.988  1.00  0.00     0.004 A 
ATOM     29  C   UNL A   1      36.760  21.111  24.947  1.00  0.00     0.020 A 
ENDBRANCH  19  21
ENDBRANCH   9  19
ENDBRANCH   4   6
ENDBRANCH   3   4
ENDBRANCH   2   3
ENDBRANCH   1   2
BRANCH   1  30
ATOM     30  O   UNL A   1      34.599  30.165  27.560  1.00  0.00    -0.458 OA
BRANCH  30  31
ATOM     31  C   UNL A   1      35.349  31.196  27.998  1.00  0.00     0.338 C 
ATOM     32  O   UNL A   1      35.318  32.336  27.565  1.00  0.00    -0.246 OA
BRANCH  31  33
ATOM     33  C   UNL A   1      36.412  30.777  28.899  1.00  0.00     0.060 A 
ATOM     34  C   UNL A   1      37.387  31.734  29.200  1.00  0.00     0.016 A 
ATOM     35  C   UNL A   1      36.632  29.409  29.055  1.00  0.00     0.016 A 
ATOM     36  C   UNL A   1      38.668  31.312  29.469  1.00  0.00     0.010 A 
ATOM     37  C   UNL A   1      37.909  28.988  29.338  1.00  0.00     0.010 A 
ATOM     38  C   UNL A   1      38.926  29.941  29.459  1.00  0.00    -0.014 A 
BRANCH  38  39
ATOM     39  C   UNL A   1      40.288  29.509  29.706  1.00  0.00     0.031 A 
ATOM     40  C   UNL A   1      40.641  29.473  31.147  1.00  0.00     0.074 A 
ATOM     41  C   UNL A   1      41.043  28.999  28.714  1.00  0.00     0.049 A 
ATOM     42  N   UNL A   1      41.654  30.012  31.741  1.00  0.00    -0.248 NA
ATOM     43  C   UNL A   1      39.658  28.868  32.064  1.00  0.00     0.031 C 
ATOM     44  C   UNL A   1      40.624  28.729  27.334  1.00  0.00     0.029 A 
ATOM     45  N   UNL A   1      42.271  28.412  28.788  1.00  0.00    -0.354 N 
ATOM     46  C   UNL A   1      41.548  29.611  33.073  1.00  0.00     0.074 A 
ATOM     47  C   UNL A   1      40.220  29.093  33.249  1.00  0.00     0.031 C 
ATOM     48  C   UNL A   1      41.430  27.777  26.816  1.00  0.00     0.029 A 
ATOM     49  C   UNL A   1      42.465  27.464  27.786  1.00  0.00     0.049 A 
ATOM     50  H   UNL A   1      42.943  28.631  29.473  1.00  0.00     0.167 HD
ATOM     51  C   UNL A   1      42.642  29.475  33.867  1.00  0.00     0.034 A 
ATOM     52  C   UNL A   1      43.315  26.408  27.830  1.00  0.00     0.034 A 
ATOM     53  C   UNL A   1      43.772  30.202  33.360  1.00  0.00     0.049 A 
ATOM     54  C   UNL A   1      44.294  26.660  28.914  1.00  0.00     0.074 A 
ATOM     55  C   UNL A   1      44.001  31.518  33.009  1.00  0.00     0.029 A 
ATOM     56  N   UNL A   1      44.794  29.479  32.796  1.00  0.00    -0.354 N 
ATOM     57  N   UNL A   1      45.197  27.601  28.876  1.00  0.00    -0.248 NA
ATOM     58  C   UNL A   1      43.995  26.134  30.237  1.00  0.00     0.031 C 
ATOM     59  C   UNL A   1      44.844  31.449  31.863  1.00  0.00     0.029 A 
ATOM     60  C   UNL A   1      45.118  30.102  31.620  1.00  0.00     0.049 A 
ATOM     61  H   UNL A   1      45.213  28.668  33.165  1.00  0.00     0.167 HD
ATOM     62  C   UNL A   1      45.241  28.090  30.176  1.00  0.00     0.074 A 
ATOM     63  C   UNL A   1      44.567  27.079  30.987  1.00  0.00     0.031 C 
ATOM     64  C   UNL A   1      45.546  29.397  30.433  1.00  0.00     0.034 A 
BRANCH  51  65
ATOM     65  C   UNL A   1      42.791  28.382  34.899  1.00  0.00     0.023 A 
ATOM     66  C   UNL A   1      43.189  28.765  36.196  1.00  0.00     0.012 A 
ATOM     67  C   UNL A   1      42.835  27.000  34.595  1.00  0.00     0.148 A 
ATOM     68  C   UNL A   1      43.655  27.828  37.125  1.00  0.00     0.002 A 
ATOM     69  C   UNL A   1      43.209  26.065  35.551  1.00  0.00     0.091 A 
ATOM     70  F   UNL A   1      42.656  26.578  33.340  1.00  0.00    -0.205 F 
ATOM     71  C   UNL A   1      43.655  26.475  36.807  1.00  0.00     0.022 A 
BRANCH  69  72
ATOM     72  S   UNL A   1      43.155  24.304  35.197  1.00  0.00     0.127 S 
ATOM     73  O   UNL A   1      43.995  23.766  36.261  1.00  0.00    -0.237 OA
ATOM     74  O   UNL A   1      41.727  24.014  35.325  1.00  0.00    -0.237 OA
ATOM     75  O   UNL A   1      43.666  24.172  33.838  1.00  0.00    -0.744 OA
ENDBRANCH  69  72
ENDBRANCH  51  65
BRANCH  52  76
ATOM     76  C   UNL A   1      43.159  25.072  27.206  1.00  0.00     0.023 A 
ATOM     77  C   UNL A   1      41.890  24.461  27.181  1.00  0.00     0.012 A 
ATOM     78  C   UNL A   1      44.189  24.491  26.431  1.00  0.00     0.148 A 
ATOM     79  C   UNL A   1      41.654  23.322  26.403  1.00  0.00     0.002 A 
ATOM     80  C   UNL A   1      43.957  23.342  25.682  1.00  0.00     0.091 A 
ATOM     81  F   UNL A   1      45.372  25.115  26.349  1.00  0.00    -0.205 F 
ATOM     82  C   UNL A   1      42.686  22.760  25.656  1.00  0.00     0.022 A 
BRANCH  80  83
ATOM     83  S   UNL A   1      45.257  22.563  24.712  1.00  0.00     0.127 S 
ATOM     84  O   UNL A   1      46.251  22.236  25.736  1.00  0.00    -0.237 OA
ATOM     85  O   UNL A   1      44.564  21.412  24.142  1.00  0.00    -0.237 OA
ATOM     86  O   UNL A   1      45.698  23.577  23.761  1.00  0.00    -0.744 OA
ENDBRANCH  80  83
ENDBRANCH  52  76
BRANCH  64  87
ATOM     87  C   UNL A   1      46.091  30.251  29.316  1.00  0.00     0.023 A 
ATOM     88  C   UNL A   1      47.442  30.194  28.917  1.00  0.00     0.012 A 
ATOM     89  C   UNL A   1      45.183  30.983  28.530  1.00  0.00     0.148 A 
ATOM     90  C   UNL A   1      47.883  30.874  27.779  1.00  0.00     0.002 A 
ATOM     91  C   UNL A   1      45.615  31.615  27.371  1.00  0.00     0.091 A 
ATOM     92  F   UNL A   1      43.898  31.026  28.915  1.00  0.00    -0.205 F 
ATOM     93  C   UNL A   1      46.967  31.573  26.998  1.00  0.00     0.022 A 
BRANCH  91  94
ATOM     94  S   UNL A   1      44.453  32.412  26.260  1.00  0.00     0.127 S 
ATOM     95  O   UNL A   1      43.926  33.492  27.090  1.00  0.00    -0.237 OA
ATOM     96  O   UNL A   1      45.315  32.852  25.159  1.00  0.00    -0.237 OA
ATOM     97  O   UNL A   1      43.498  31.378  25.882  1.00  0.00    -0.744 OA
ENDBRANCH  91  94
ENDBRANCH  64  87
ENDBRANCH  38  39
ENDBRANCH  31  33
ENDBRANCH  30  31
ENDBRANCH   1  30
TORSDOF 18
ENDMDL
MODEL 3
REMARK VINA RESULT:     -12.5      2.948      8.849
REMARK SMILES COc1ccccc1[C@@H]1CN(C(=O)c2cnn3ccccc23)C[C@H]1C(=O)OCCOC(=O)c1ccc(-c2c3nc(c(-c4cccc(S(=O)(=O)[O-])c4F)c4ccc([nH]4)c(-c4cccc(S(=O)(=O)[O-])c4F)c4nc(c(-c5cccc(S(=O)(=O)[O-])c5F)c5ccc2[nH]5)C=C4)C=C3)cc1
REMARK SMILES IDX 29 1 28 2 27 3 25 4 26 5 24 6 9 7 10 8 11 9 23 10 8 11 3 12
REMARK SMILES IDX 4 13 5 14 7 15 6 16 2 17 1 18 12 19 13 20 14 21 15 22 22 23
REMARK SMILES IDX 16 24 17 25 21 26 18 27 20 28 19 29 30 30 31 31 32 32 33 33
REMARK SMILES IDX 34 34 95 35 35 36 94 37 36 38 37 39 38 40 88 41 39 42 93 43
REMARK SMILES IDX 87 44 89 45 40 46 92 47 86 48 85 49 41 51 73 52 53 53 72 54
REMARK SMILES IDX 54 55 57 56 71 57 90 58 55 59 56 60 70 62 91 63 58 64 42 65
REMARK SMILES IDX 43 66 51 67 44 68 46 69 52 70 45 71 47 72 48 73 49 74 50 75
REMARK SMILES IDX 74 76 75 77 83 78 76 79 78 80 84 81 77 82 79 83 80 84 81 85
REMARK SMILES IDX 82 86 59 87 60 88 68 89 61 90 63 91 69 92 62 93 64 94 65 95
REMARK SMILES IDX 66 96 67 97
REMARK H PARENT 89 50 57 61
REMARK Flexibility Score: inf
ROOT
ATOM      1  C   UNL A   1      33.865  29.719  27.328  1.00  0.00     0.275 C 
ENDROOT
BRANCH   1   2
ATOM      2  C   UNL A   1      33.621  28.779  26.145  1.00  0.00     0.274 C 
BRANCH   2   3
ATOM      3  O   UNL A   1      33.143  27.470  26.536  1.00  0.00    -0.462 OA
BRANCH   3   4
ATOM      4  C   UNL A   1      31.832  27.411  26.896  1.00  0.00     0.311 C 
ATOM      5  O   UNL A   1      31.414  27.720  28.010  1.00  0.00    -0.252 OA
BRANCH   4   6
ATOM      6  C   UNL A   1      30.912  26.800  25.861  1.00  0.00     0.128 C 
ATOM      7  C   UNL A   1      30.947  27.246  24.378  1.00  0.00     0.058 C 
ATOM      8  C   UNL A   1      30.742  25.943  23.606  1.00  0.00     0.129 C 
ATOM      9  N   UNL A   1      31.310  24.915  24.452  1.00  0.00    -0.337 N 
ATOM     10  C   UNL A   1      31.258  25.311  25.843  1.00  0.00     0.135 C 
BRANCH   7  11
ATOM     11  C   UNL A   1      29.978  28.305  23.858  1.00  0.00    -0.000 A 
ATOM     12  C   UNL A   1      30.182  29.699  23.863  1.00  0.00     0.122 A 
ATOM     13  C   UNL A   1      29.202  30.574  23.360  1.00  0.00     0.047 A 
ATOM     14  C   UNL A   1      27.987  30.086  22.882  1.00  0.00     0.004 A 
ATOM     15  C   UNL A   1      28.710  27.852  23.420  1.00  0.00     0.008 A 
ATOM     16  C   UNL A   1      27.733  28.723  22.934  1.00  0.00     0.001 A 
BRANCH  12  17
ATOM     17  O   UNL A   1      31.186  30.296  24.580  1.00  0.00    -0.496 OA
ATOM     18  C   UNL A   1      30.748  31.234  25.551  1.00  0.00     0.278 C 
ENDBRANCH  12  17
ENDBRANCH   7  11
BRANCH   9  19
ATOM     19  C   UNL A   1      31.604  23.613  24.097  1.00  0.00     0.257 C 
ATOM     20  O   UNL A   1      31.002  23.029  23.196  1.00  0.00    -0.269 OA
BRANCH  19  21
ATOM     21  C   UNL A   1      32.699  22.974  24.791  1.00  0.00     0.085 A 
ATOM     22  C   UNL A   1      32.634  22.285  26.016  1.00  0.00     0.150 A 
ATOM     23  C   UNL A   1      34.037  22.916  24.445  1.00  0.00     0.079 A 
ATOM     24  N   UNL A   1      33.800  21.753  26.384  1.00  0.00    -0.176 NA
ATOM     25  N   UNL A   1      34.661  22.100  25.393  1.00  0.00    -0.240 N 
ATOM     26  C   UNL A   1      34.835  23.432  23.379  1.00  0.00     0.029 A 
ATOM     27  C   UNL A   1      35.998  21.719  25.268  1.00  0.00     0.113 A 
ATOM     28  C   UNL A   1      36.121  23.052  23.267  1.00  0.00     0.004 A 
ATOM     29  C   UNL A   1      36.734  22.154  24.231  1.00  0.00     0.020 A 
ENDBRANCH  19  21
ENDBRANCH   9  19
ENDBRANCH   4   6
ENDBRANCH   3   4
ENDBRANCH   2   3
ENDBRANCH   1   2
BRANCH   1  30
ATOM     30  O   UNL A   1      35.139  30.366  27.279  1.00  0.00    -0.458 OA
BRANCH  30  31
ATOM     31  C   UNL A   1      35.340  31.154  28.355  1.00  0.00     0.338 C 
ATOM     32  O   UNL A   1      34.818  32.239  28.552  1.00  0.00    -0.246 OA
BRANCH  31  33
ATOM     33  C   UNL A   1      36.453  30.709  29.178  1.00  0.00     0.060 A 
ATOM     34  C   UNL A   1      37.524  31.600  29.314  1.00  0.00     0.016 A 
ATOM     35  C   UNL A   1      36.584  29.341  29.414  1.00  0.00     0.016 A 
ATOM     36  C   UNL A   1      38.789  31.092  29.490  1.00  0.00     0.010 A 
ATOM     37  C   UNL A   1      37.847  28.835  29.605  1.00  0.00     0.010 A 
ATOM     38  C   UNL A   1      38.940  29.707  29.558  1.00  0.00    -0.014 A 
BRANCH  38  39
ATOM     39  C   UNL A   1      40.283  29.180  29.706  1.00  0.00     0.031 A 
ATOM     40  C   UNL A   1      40.667  28.936  31.119  1.00  0.00     0.074 A 
ATOM     41  C   UNL A   1      40.989  28.771  28.634  1.00  0.00     0.049 A 
ATOM     42  N   UNL A   1      41.719  29.341  31.749  1.00  0.00    -0.248 NA
ATOM     43  C   UNL A   1      39.674  28.262  31.977  1.00  0.00     0.031 C 
ATOM     44  C   UNL A   1      40.525  28.707  27.243  1.00  0.00     0.029 A 
ATOM     45  N   UNL A   1      42.186  28.121  28.594  1.00  0.00    -0.354 N 
ATOM     46  C   UNL A   1      41.623  28.772  33.018  1.00  0.00     0.074 A 
ATOM     47  C   UNL A   1      40.274  28.300  33.164  1.00  0.00     0.031 C 
ATOM     48  C   UNL A   1      41.269  27.795  26.581  1.00  0.00     0.029 A 
ATOM     49  C   UNL A   1      42.308  27.307  27.471  1.00  0.00     0.049 A 
ATOM     50  H   UNL A   1      42.884  28.215  29.281  1.00  0.00     0.167 HD
ATOM     51  C   UNL A   1      42.725  28.479  33.756  1.00  0.00     0.034 A 
ATOM     52  C   UNL A   1      43.103  26.215  27.350  1.00  0.00     0.034 A 
ATOM     53  C   UNL A   1      43.880  29.212  33.316  1.00  0.00     0.049 A 
ATOM     54  C   UNL A   1      44.118  26.272  28.428  1.00  0.00     0.074 A 
ATOM     55  C   UNL A   1      44.169  30.551  33.135  1.00  0.00     0.029 A 
ATOM     56  N   UNL A   1      44.850  28.522  32.632  1.00  0.00    -0.354 N 
ATOM     57  N   UNL A   1      45.067  27.165  28.489  1.00  0.00    -0.248 NA
ATOM     58  C   UNL A   1      43.822  25.590  29.679  1.00  0.00     0.031 C 
ATOM     59  C   UNL A   1      44.981  30.594  31.966  1.00  0.00     0.029 A 
ATOM     60  C   UNL A   1      45.179  29.280  31.539  1.00  0.00     0.049 A 
ATOM     61  H   UNL A   1      45.235  27.650  32.878  1.00  0.00     0.167 HD
ATOM     62  C   UNL A   1      45.166  27.474  29.840  1.00  0.00     0.074 A 
ATOM     63  C   UNL A   1      44.459  26.398  30.530  1.00  0.00     0.031 C 
ATOM     64  C   UNL A   1      45.544  28.719  30.258  1.00  0.00     0.034 A 
BRANCH  51  65
ATOM     65  C   UNL A   1      42.842  27.252  34.630  1.00  0.00     0.023 A 
ATOM     66  C   UNL A   1      42.656  27.425  36.017  1.00  0.00     0.012 A 
ATOM     67  C   UNL A   1      43.390  26.020  34.203  1.00  0.00     0.148 A 
ATOM     68  C   UNL A   1      43.043  26.442  36.934  1.00  0.00     0.002 A 
ATOM     69  C   UNL A   1      43.686  25.011  35.111  1.00  0.00     0.091 A 
ATOM     70  F   UNL A   1      43.771  25.853  32.933  1.00  0.00    -0.205 F 
ATOM     71  C   UNL A   1      43.548  25.230  36.481  1.00  0.00     0.022 A 
BRANCH  69  72
ATOM     72  S   UNL A   1      44.276  23.407  34.556  1.00  0.00     0.127 S 
ATOM     73  O   UNL A   1      43.150  22.941  33.756  1.00  0.00    -0.237 OA
ATOM     74  O   UNL A   1      45.471  23.773  33.795  1.00  0.00    -0.237 OA
ATOM     75  O   UNL A   1      44.558  22.661  35.777  1.00  0.00    -0.744 OA
ENDBRANCH  69  72
ENDBRANCH  51  65
BRANCH  52  76
ATOM     76  C   UNL A   1      42.864  24.982  26.560  1.00  0.00     0.023 A 
ATOM     77  C   UNL A   1      43.738  24.653  25.506  1.00  0.00     0.012 A 
ATOM     78  C   UNL A   1      41.927  24.007  26.973  1.00  0.00     0.148 A 
ATOM     79  C   UNL A   1      43.688  23.395  24.895  1.00  0.00     0.002 A 
ATOM     80  C   UNL A   1      41.862  22.768  26.344  1.00  0.00     0.091 A 
ATOM     81  F   UNL A   1      41.161  24.253  28.044  1.00  0.00    -0.205 F 
ATOM     82  C   UNL A   1      42.750  22.453  25.310  1.00  0.00     0.022 A 
BRANCH  80  83
ATOM     83  S   UNL A   1      40.659  21.521  26.827  1.00  0.00     0.127 S 
ATOM     84  O   UNL A   1      41.105  20.352  26.067  1.00  0.00    -0.237 OA
ATOM     85  O   UNL A   1      40.875  21.432  28.268  1.00  0.00    -0.237 OA
ATOM     86  O   UNL A   1      39.364  22.042  26.407  1.00  0.00    -0.744 OA
ENDBRANCH  80  83
ENDBRANCH  52  76
BRANCH  64  87
ATOM     87  C   UNL A   1      46.106  29.687  29.248  1.00  0.00     0.023 A 
ATOM     88  C   UNL A   1      47.465  29.674  28.870  1.00  0.00     0.012 A 
ATOM     89  C   UNL A   1      45.211  30.497  28.527  1.00  0.00     0.148 A 
ATOM     90  C   UNL A   1      47.925  30.471  27.818  1.00  0.00     0.002 A 
ATOM     91  C   UNL A   1      45.663  31.249  27.450  1.00  0.00     0.091 A 
ATOM     92  F   UNL A   1      43.919  30.498  28.890  1.00  0.00    -0.205 F 
ATOM     93  C   UNL A   1      47.021  31.248  27.099  1.00  0.00     0.022 A 
BRANCH  91  94
ATOM     94  S   UNL A   1      44.519  32.159  26.408  1.00  0.00     0.127 S 
ATOM     95  O   UNL A   1      43.526  31.139  26.080  1.00  0.00    -0.237 OA
ATOM     96  O   UNL A   1      44.039  33.213  27.305  1.00  0.00    -0.237 OA
ATOM     97  O   UNL A   1      45.314  32.654  25.291  1.00  0.00    -0.744 OA
ENDBRANCH  91  94
ENDBRANCH  64  87
ENDBRANCH  38  39
ENDBRANCH  31  33
ENDBRANCH  30  31
ENDBRANCH   1  30
TORSDOF 18
ENDMDL
