MODEL 1
REMARK VINA RESULT:     -10.8      0.000      0.000
REMARK SMILES O=C(C[C@H]1C[N@@H+](CCSc2ccccc2F)CCO1)OCCOC(=O)c1ccc(-c2c3nc(c(-c4cccc(S(=O)(=O)[O-])c4F)c4ccc([nH]4)c(-c4cccc(S(=O)(=O)[O-])c4F)c4nc(c(-c5cccc(S(=O)(=O)[O-])c5F)c5ccc2[nH]5)C=C4)C=C3)cc1
REMARK SMILES IDX 21 1 20 2 2 3 1 4 3 5 4 6 5 7 19 8 6 9 18 10 17 11 7 13 8 14
REMARK SMILES IDX 9 15 10 16 11 17 15 18 12 19 14 20 16 21 13 22 22 23 23 24
REMARK SMILES IDX 24 25 25 26 26 27 27 28 88 29 28 30 87 31 29 32 30 33 31 34
REMARK SMILES IDX 81 35 32 36 86 37 80 38 82 39 33 40 85 41 79 42 78 43 34 45
REMARK SMILES IDX 66 46 46 47 65 48 47 49 50 50 64 51 83 52 48 53 49 54 63 56
REMARK SMILES IDX 84 57 51 58 35 59 36 60 44 61 37 62 39 63 45 64 38 65 40 66
REMARK SMILES IDX 41 67 42 68 43 69 67 70 68 71 76 72 69 73 71 74 77 75 70 76
REMARK SMILES IDX 72 77 73 78 74 79 75 80 52 81 53 82 61 83 54 84 56 85 62 86
REMARK SMILES IDX 55 87 57 88 58 89 59 90 60 91
REMARK H PARENT 6 12 82 44 50 55
REMARK Flexibility Score: inf
ROOT
ATOM      1  C   UNL A   1      31.299  31.655  26.142  1.00  0.00     0.274 C 
ENDROOT
BRANCH   1   2
ATOM      2  O   UNL A   1      31.716  30.614  27.059  1.00  0.00    -0.462 OA
BRANCH   2   3
ATOM      3  C   UNL A   1      32.211  29.422  26.679  1.00  0.00     0.308 C 
ATOM      4  O   UNL A   1      32.054  28.385  27.302  1.00  0.00    -0.252 OA
BRANCH   3   5
ATOM      5  C   UNL A   1      32.967  29.590  25.353  1.00  0.00     0.160 C 
BRANCH   5   6
ATOM      6  C   UNL A   1      32.219  29.184  24.056  1.00  0.00     0.184 C 
ATOM      7  C   UNL A   1      32.999  28.213  23.183  1.00  0.00     0.295 C 
ATOM      8  O   UNL A   1      30.898  28.659  24.327  1.00  0.00    -0.366 OA
ATOM      9  N   UNL A   1      32.555  26.816  23.326  1.00  0.00    -0.330 N 
ATOM     10  C   UNL A   1      30.324  27.748  23.357  1.00  0.00     0.222 C 
ATOM     11  C   UNL A   1      31.263  26.766  22.677  1.00  0.00     0.291 C 
ATOM     12  H   UNL A   1      33.285  26.241  22.905  1.00  0.00     0.348 HD
BRANCH   9  13
ATOM     13  C   UNL A   1      32.511  26.184  24.670  1.00  0.00     0.273 C 
BRANCH  13  14
ATOM     14  C   UNL A   1      32.529  24.710  25.315  1.00  0.00     0.136 C 
BRANCH  14  15
ATOM     15  S   UNL A   1      33.450  23.531  26.417  1.00  0.00    -0.117 SA
BRANCH  15  16
ATOM     16  C   UNL A   1      34.958  23.117  25.592  1.00  0.00     0.043 A 
ATOM     17  C   UNL A   1      36.105  23.830  25.985  1.00  0.00     0.018 A 
ATOM     18  C   UNL A   1      35.096  22.065  24.693  1.00  0.00     0.136 A 
ATOM     19  C   UNL A   1      37.377  23.366  25.641  1.00  0.00     0.001 A 
ATOM     20  C   UNL A   1      36.363  21.626  24.306  1.00  0.00     0.040 A 
ATOM     21  F   UNL A   1      34.020  21.415  24.226  1.00  0.00    -0.206 F 
ATOM     22  C   UNL A   1      37.504  22.245  24.823  1.00  0.00     0.003 A 
ENDBRANCH  15  16
ENDBRANCH  14  15
ENDBRANCH  13  14
ENDBRANCH   9  13
ENDBRANCH   5   6
ENDBRANCH   3   5
ENDBRANCH   2   3
ENDBRANCH   1   2
BRANCH   1  23
ATOM     23  C   UNL A   1      31.778  32.987  26.770  1.00  0.00     0.275 C 
BRANCH  23  24
ATOM     24  O   UNL A   1      32.613  32.748  27.922  1.00  0.00    -0.458 OA
BRANCH  24  25
ATOM     25  C   UNL A   1      33.649  33.617  27.998  1.00  0.00     0.338 C 
ATOM     26  O   UNL A   1      33.546  34.829  28.139  1.00  0.00    -0.246 OA
BRANCH  25  27
ATOM     27  C   UNL A   1      34.916  32.882  28.199  1.00  0.00     0.060 A 
ATOM     28  C   UNL A   1      34.826  31.492  28.367  1.00  0.00     0.016 A 
ATOM     29  C   UNL A   1      36.156  33.522  28.251  1.00  0.00     0.016 A 
ATOM     30  C   UNL A   1      35.958  30.750  28.693  1.00  0.00     0.010 A 
ATOM     31  C   UNL A   1      37.288  32.780  28.601  1.00  0.00     0.010 A 
ATOM     32  C   UNL A   1      37.179  31.406  28.880  1.00  0.00    -0.014 A 
BRANCH  32  33
ATOM     33  C   UNL A   1      38.269  30.714  29.604  1.00  0.00     0.031 A 
ATOM     34  C   UNL A   1      38.514  31.091  31.040  1.00  0.00     0.074 A 
ATOM     35  C   UNL A   1      39.021  29.773  29.013  1.00  0.00     0.049 A 
ATOM     36  N   UNL A   1      39.426  30.655  31.867  1.00  0.00    -0.248 NA
ATOM     37  C   UNL A   1      37.599  32.089  31.619  1.00  0.00     0.031 C 
ATOM     38  C   UNL A   1      38.852  29.290  27.646  1.00  0.00     0.029 A 
ATOM     39  N   UNL A   1      40.095  29.069  29.495  1.00  0.00    -0.354 N 
ATOM     40  C   UNL A   1      39.204  31.331  33.061  1.00  0.00     0.074 A 
ATOM     41  C   UNL A   1      38.083  32.219  32.845  1.00  0.00     0.031 C 
ATOM     42  C   UNL A   1      39.806  28.381  27.388  1.00  0.00     0.029 A 
ATOM     43  C   UNL A   1      40.671  28.242  28.561  1.00  0.00     0.049 A 
ATOM     44  H   UNL A   1      40.422  29.147  30.420  1.00  0.00     0.167 HD
ATOM     45  C   UNL A   1      39.865  31.217  34.236  1.00  0.00     0.034 A 
ATOM     46  C   UNL A   1      41.777  27.476  28.641  1.00  0.00     0.034 A 
ATOM     47  C   UNL A   1      40.997  30.357  34.441  1.00  0.00     0.049 A 
ATOM     48  C   UNL A   1      42.553  27.426  29.932  1.00  0.00     0.074 A 
ATOM     49  C   UNL A   1      41.747  30.182  35.591  1.00  0.00     0.029 A 
ATOM     50  N   UNL A   1      41.558  29.539  33.470  1.00  0.00    -0.354 N 
ATOM     51  N   UNL A   1      42.301  28.022  31.073  1.00  0.00    -0.248 NA
ATOM     52  C   UNL A   1      43.751  26.572  29.957  1.00  0.00     0.031 C 
ATOM     53  C   UNL A   1      42.781  29.285  35.305  1.00  0.00     0.029 A 
ATOM     54  C   UNL A   1      42.647  28.863  33.991  1.00  0.00     0.049 A 
ATOM     55  H   UNL A   1      41.228  29.453  32.547  1.00  0.00     0.167 HD
ATOM     56  C   UNL A   1      43.279  27.584  31.962  1.00  0.00     0.074 A 
ATOM     57  C   UNL A   1      44.126  26.666  31.227  1.00  0.00     0.031 C 
ATOM     58  C   UNL A   1      43.459  27.916  33.266  1.00  0.00     0.034 A 
BRANCH  45  59
ATOM     59  C   UNL A   1      39.365  32.043  35.393  1.00  0.00     0.023 A 
ATOM     60  C   UNL A   1      38.444  31.482  36.303  1.00  0.00     0.012 A 
ATOM     61  C   UNL A   1      39.822  33.359  35.598  1.00  0.00     0.148 A 
ATOM     62  C   UNL A   1      37.961  32.228  37.377  1.00  0.00     0.002 A 
ATOM     63  C   UNL A   1      39.374  34.079  36.699  1.00  0.00     0.091 A 
ATOM     64  F   UNL A   1      40.674  33.886  34.708  1.00  0.00    -0.205 F 
ATOM     65  C   UNL A   1      38.433  33.522  37.580  1.00  0.00     0.022 A 
BRANCH  63  66
ATOM     66  S   UNL A   1      39.988  35.720  37.094  1.00  0.00     0.127 S 
ATOM     67  O   UNL A   1      41.419  35.470  37.257  1.00  0.00    -0.237 OA
ATOM     68  O   UNL A   1      39.635  36.477  35.892  1.00  0.00    -0.237 OA
ATOM     69  O   UNL A   1      39.283  36.133  38.298  1.00  0.00    -0.744 OA
ENDBRANCH  63  66
ENDBRANCH  45  59
BRANCH  46  70
ATOM     70  C   UNL A   1      42.175  26.648  27.469  1.00  0.00     0.023 A 
ATOM     71  C   UNL A   1      42.939  27.233  26.442  1.00  0.00     0.012 A 
ATOM     72  C   UNL A   1      41.867  25.274  27.402  1.00  0.00     0.148 A 
ATOM     73  C   UNL A   1      43.380  26.468  25.362  1.00  0.00     0.002 A 
ATOM     74  C   UNL A   1      42.357  24.507  26.353  1.00  0.00     0.091 A 
ATOM     75  F   UNL A   1      41.133  24.742  28.390  1.00  0.00    -0.205 F 
ATOM     76  C   UNL A   1      43.101  25.104  25.324  1.00  0.00     0.022 A 
BRANCH  74  77
ATOM     77  S   UNL A   1      42.165  22.722  26.284  1.00  0.00     0.127 S 
ATOM     78  O   UNL A   1      42.894  22.294  27.477  1.00  0.00    -0.237 OA
ATOM     79  O   UNL A   1      40.711  22.579  26.366  1.00  0.00    -0.237 OA
ATOM     80  O   UNL A   1      42.747  22.305  25.017  1.00  0.00    -0.744 OA
ENDBRANCH  74  77
ENDBRANCH  46  70
BRANCH  58  81
ATOM     81  C   UNL A   1      44.590  27.256  34.019  1.00  0.00     0.023 A 
ATOM     82  C   UNL A   1      45.863  27.860  34.056  1.00  0.00     0.012 A 
ATOM     83  C   UNL A   1      44.360  26.089  34.776  1.00  0.00     0.148 A 
ATOM     84  C   UNL A   1      46.894  27.296  34.807  1.00  0.00     0.002 A 
ATOM     85  C   UNL A   1      45.376  25.564  35.566  1.00  0.00     0.091 A 
ATOM     86  F   UNL A   1      43.148  25.517  34.718  1.00  0.00    -0.205 F 
ATOM     87  C   UNL A   1      46.648  26.158  35.573  1.00  0.00     0.022 A 
BRANCH  85  88
ATOM     88  S   UNL A   1      45.118  24.166  36.667  1.00  0.00     0.127 S 
ATOM     89  O   UNL A   1      46.474  23.912  37.147  1.00  0.00    -0.237 OA
ATOM     90  O   UNL A   1      44.210  24.724  37.669  1.00  0.00    -0.237 OA
ATOM     91  O   UNL A   1      44.538  23.111  35.846  1.00  0.00    -0.744 OA
ENDBRANCH  85  88
ENDBRANCH  58  81
ENDBRANCH  32  33
ENDBRANCH  25  27
ENDBRANCH  24  25
ENDBRANCH  23  24
ENDBRANCH   1  23
TORSDOF 19
ENDMDL
MODEL 2
REMARK VINA RESULT:     -10.8      2.021      8.017
REMARK SMILES O=C(C[C@H]1C[N@@H+](CCSc2ccccc2F)CCO1)OCCOC(=O)c1ccc(-c2c3nc(c(-c4cccc(S(=O)(=O)[O-])c4F)c4ccc([nH]4)c(-c4cccc(S(=O)(=O)[O-])c4F)c4nc(c(-c5cccc(S(=O)(=O)[O-])c5F)c5ccc2[nH]5)C=C4)C=C3)cc1
REMARK SMILES IDX 21 1 20 2 2 3 1 4 3 5 4 6 5 7 19 8 6 9 18 10 17 11 7 13 8 14
REMARK SMILES IDX 9 15 10 16 11 17 15 18 12 19 14 20 16 21 13 22 22 23 23 24
REMARK SMILES IDX 24 25 25 26 26 27 27 28 88 29 28 30 87 31 29 32 30 33 31 34
REMARK SMILES IDX 81 35 32 36 86 37 80 38 82 39 33 40 85 41 79 42 78 43 34 45
REMARK SMILES IDX 66 46 46 47 65 48 47 49 50 50 64 51 83 52 48 53 49 54 63 56
REMARK SMILES IDX 84 57 51 58 35 59 36 60 44 61 37 62 39 63 45 64 38 65 40 66
REMARK SMILES IDX 41 67 42 68 43 69 67 70 68 71 76 72 69 73 71 74 77 75 70 76
REMARK SMILES IDX 72 77 73 78 74 79 75 80 52 81 53 82 61 83 54 84 56 85 62 86
REMARK SMILES IDX 55 87 57 88 58 89 59 90 60 91
REMARK H PARENT 6 12 82 44 50 55
REMARK Flexibility Score: inf
ROOT
ATOM      1  C   UNL A   1      32.314  29.336  25.111  1.00  0.00     0.274 C 
ENDROOT
BRANCH   1   2
ATOM      2  O   UNL A   1      31.257  28.346  25.097  1.00  0.00    -0.462 OA
BRANCH   2   3
ATOM      3  C   UNL A   1      31.413  27.064  25.473  1.00  0.00     0.308 C 
ATOM      4  O   UNL A   1      31.139  26.638  26.583  1.00  0.00    -0.252 OA
BRANCH   3   5
ATOM      5  C   UNL A   1      31.961  26.254  24.289  1.00  0.00     0.160 C 
BRANCH   5   6
ATOM      6  C   UNL A   1      33.456  25.847  24.341  1.00  0.00     0.184 C 
ATOM      7  C   UNL A   1      33.973  25.609  25.752  1.00  0.00     0.295 C 
ATOM      8  O   UNL A   1      33.741  24.699  23.508  1.00  0.00    -0.366 OA
ATOM      9  N   UNL A   1      34.049  24.183  26.112  1.00  0.00    -0.330 N 
ATOM     10  C   UNL A   1      34.879  23.876  23.862  1.00  0.00     0.222 C 
ATOM     11  C   UNL A   1      35.156  23.661  25.341  1.00  0.00     0.291 C 
ATOM     12  H   UNL A   1      34.161  24.151  27.126  1.00  0.00     0.348 HD
BRANCH   9  13
ATOM     13  C   UNL A   1      32.846  23.320  25.986  1.00  0.00     0.273 C 
BRANCH  13  14
ATOM     14  C   UNL A   1      32.432  21.912  25.326  1.00  0.00     0.136 C 
BRANCH  14  15
ATOM     15  S   UNL A   1      32.321  20.931  23.751  1.00  0.00    -0.117 SA
BRANCH  15  16
ATOM     16  C   UNL A   1      33.113  19.379  24.047  1.00  0.00     0.043 A 
ATOM     17  C   UNL A   1      32.467  18.237  23.540  1.00  0.00     0.018 A 
ATOM     18  C   UNL A   1      34.371  19.239  24.624  1.00  0.00     0.136 A 
ATOM     19  C   UNL A   1      33.155  17.026  23.433  1.00  0.00     0.001 A 
ATOM     20  C   UNL A   1      35.045  18.019  24.564  1.00  0.00     0.040 A 
ATOM     21  F   UNL A   1      34.984  20.286  25.197  1.00  0.00    -0.206 F 
ATOM     22  C   UNL A   1      34.457  16.927  23.921  1.00  0.00     0.003 A 
ENDBRANCH  15  16
ENDBRANCH  14  15
ENDBRANCH  13  14
ENDBRANCH   9  13
ENDBRANCH   5   6
ENDBRANCH   3   5
ENDBRANCH   2   3
ENDBRANCH   1   2
BRANCH   1  23
ATOM     23  C   UNL A   1      31.805  30.484  26.019  1.00  0.00     0.275 C 
BRANCH  23  24
ATOM     24  O   UNL A   1      32.538  30.529  27.260  1.00  0.00    -0.458 OA
BRANCH  24  25
ATOM     25  C   UNL A   1      33.278  31.656  27.382  1.00  0.00     0.338 C 
ATOM     26  O   UNL A   1      32.830  32.794  27.437  1.00  0.00    -0.246 OA
BRANCH  25  27
ATOM     27  C   UNL A   1      34.669  31.314  27.749  1.00  0.00     0.060 A 
ATOM     28  C   UNL A   1      34.966  29.953  27.919  1.00  0.00     0.016 A 
ATOM     29  C   UNL A   1      35.653  32.283  27.951  1.00  0.00     0.016 A 
ATOM     30  C   UNL A   1      36.215  29.562  28.393  1.00  0.00     0.010 A 
ATOM     31  C   UNL A   1      36.899  31.892  28.449  1.00  0.00     0.010 A 
ATOM     32  C   UNL A   1      37.160  30.537  28.726  1.00  0.00    -0.014 A 
BRANCH  32  33
ATOM     33  C   UNL A   1      38.306  30.171  29.590  1.00  0.00     0.031 A 
ATOM     34  C   UNL A   1      39.303  29.179  29.057  1.00  0.00     0.074 A 
ATOM     35  C   UNL A   1      38.466  30.704  30.810  1.00  0.00     0.049 A 
ATOM     36  N   UNL A   1      40.363  28.678  29.633  1.00  0.00    -0.248 NA
ATOM     37  C   UNL A   1      39.077  28.696  27.684  1.00  0.00     0.031 C 
ATOM     38  C   UNL A   1      37.595  31.706  31.417  1.00  0.00     0.029 A 
ATOM     39  N   UNL A   1      39.419  30.455  31.765  1.00  0.00    -0.354 N 
ATOM     40  C   UNL A   1      40.923  27.812  28.701  1.00  0.00     0.074 A 
ATOM     41  C   UNL A   1      40.078  27.844  27.528  1.00  0.00     0.031 C 
ATOM     42  C   UNL A   1      38.041  31.972  32.656  1.00  0.00     0.029 A 
ATOM     43  C   UNL A   1      39.209  31.136  32.939  1.00  0.00     0.049 A 
ATOM     44  H   UNL A   1      40.180  29.846  31.624  1.00  0.00     0.167 HD
ATOM     45  C   UNL A   1      42.048  27.066  28.805  1.00  0.00     0.034 A 
ATOM     46  C   UNL A   1      39.874  31.078  34.110  1.00  0.00     0.034 A 
ATOM     47  C   UNL A   1      42.871  27.013  29.982  1.00  0.00     0.049 A 
ATOM     48  C   UNL A   1      41.075  30.176  34.238  1.00  0.00     0.074 A 
ATOM     49  C   UNL A   1      44.022  26.275  30.193  1.00  0.00     0.029 A 
ATOM     50  N   UNL A   1      42.623  27.712  31.155  1.00  0.00    -0.354 N 
ATOM     51  N   UNL A   1      41.632  29.407  33.333  1.00  0.00    -0.248 NA
ATOM     52  C   UNL A   1      41.757  30.156  35.540  1.00  0.00     0.031 C 
ATOM     53  C   UNL A   1      44.451  26.501  31.504  1.00  0.00     0.029 A 
ATOM     54  C   UNL A   1      43.595  27.417  32.096  1.00  0.00     0.049 A 
ATOM     55  H   UNL A   1      41.867  28.326  31.296  1.00  0.00     0.167 HD
ATOM     56  C   UNL A   1      42.753  28.847  33.939  1.00  0.00     0.074 A 
ATOM     57  C   UNL A   1      42.798  29.371  35.290  1.00  0.00     0.031 C 
ATOM     58  C   UNL A   1      43.658  27.977  33.424  1.00  0.00     0.034 A 
BRANCH  45  59
ATOM     59  C   UNL A   1      42.451  26.255  27.602  1.00  0.00     0.023 A 
ATOM     60  C   UNL A   1      43.208  26.859  26.576  1.00  0.00     0.012 A 
ATOM     61  C   UNL A   1      42.111  24.893  27.496  1.00  0.00     0.148 A 
ATOM     62  C   UNL A   1      43.587  26.132  25.449  1.00  0.00     0.002 A 
ATOM     63  C   UNL A   1      42.535  24.161  26.394  1.00  0.00     0.091 A 
ATOM     64  F   UNL A   1      41.367  24.342  28.466  1.00  0.00    -0.205 F 
ATOM     65  C   UNL A   1      43.260  24.781  25.363  1.00  0.00     0.022 A 
BRANCH  63  66
ATOM     66  S   UNL A   1      42.237  22.397  26.232  1.00  0.00     0.127 S 
ATOM     67  O   UNL A   1      40.776  22.343  26.233  1.00  0.00    -0.237 OA
ATOM     68  O   UNL A   1      42.856  22.098  24.941  1.00  0.00    -0.237 OA
ATOM     69  O   UNL A   1      42.888  21.774  27.376  1.00  0.00    -0.744 OA
ENDBRANCH  63  66
ENDBRANCH  45  59
BRANCH  46  70
ATOM     70  C   UNL A   1      39.443  31.952  35.236  1.00  0.00     0.023 A 
ATOM     71  C   UNL A   1      39.676  33.338  35.157  1.00  0.00     0.012 A 
ATOM     72  C   UNL A   1      38.743  31.433  36.343  1.00  0.00     0.148 A 
ATOM     73  C   UNL A   1      39.229  34.192  36.165  1.00  0.00     0.002 A 
ATOM     74  C   UNL A   1      38.251  32.295  37.316  1.00  0.00     0.091 A 
ATOM     75  F   UNL A   1      38.539  30.109  36.398  1.00  0.00    -0.205 F 
ATOM     76  C   UNL A   1      38.506  33.672  37.236  1.00  0.00     0.022 A 
BRANCH  74  77
ATOM     77  S   UNL A   1      37.198  31.740  38.661  1.00  0.00     0.127 S 
ATOM     78  O   UNL A   1      38.085  31.883  39.815  1.00  0.00    -0.237 OA
ATOM     79  O   UNL A   1      36.106  32.711  38.600  1.00  0.00    -0.237 OA
ATOM     80  O   UNL A   1      36.819  30.373  38.335  1.00  0.00    -0.744 OA
ENDBRANCH  74  77
ENDBRANCH  46  70
BRANCH  58  81
ATOM     81  C   UNL A   1      44.816  27.553  34.297  1.00  0.00     0.023 A 
ATOM     82  C   UNL A   1      45.997  28.322  34.329  1.00  0.00     0.012 A 
ATOM     83  C   UNL A   1      44.690  26.448  35.165  1.00  0.00     0.148 A 
ATOM     84  C   UNL A   1      47.044  27.979  35.185  1.00  0.00     0.002 A 
ATOM     85  C   UNL A   1      45.715  26.145  36.054  1.00  0.00     0.091 A 
ATOM     86  F   UNL A   1      43.567  25.717  35.111  1.00  0.00    -0.205 F 
ATOM     87  C   UNL A   1      46.898  26.901  36.057  1.00  0.00     0.022 A 
BRANCH  85  88
ATOM     88  S   UNL A   1      45.571  24.844  37.285  1.00  0.00     0.127 S 
ATOM     89  O   UNL A   1      45.434  23.655  36.447  1.00  0.00    -0.237 OA
ATOM     90  O   UNL A   1      46.846  24.946  37.995  1.00  0.00    -0.237 OA
ATOM     91  O   UNL A   1      44.403  25.180  38.089  1.00  0.00    -0.744 OA
ENDBRANCH  85  88
ENDBRANCH  58  81
ENDBRANCH  32  33
ENDBRANCH  25  27
ENDBRANCH  24  25
ENDBRANCH  23  24
ENDBRANCH   1  23
TORSDOF 19
ENDMDL
MODEL 3
REMARK VINA RESULT:     -10.7      5.025      8.418
REMARK SMILES O=C(C[C@H]1C[N@@H+](CCSc2ccccc2F)CCO1)OCCOC(=O)c1ccc(-c2c3nc(c(-c4cccc(S(=O)(=O)[O-])c4F)c4ccc([nH]4)c(-c4cccc(S(=O)(=O)[O-])c4F)c4nc(c(-c5cccc(S(=O)(=O)[O-])c5F)c5ccc2[nH]5)C=C4)C=C3)cc1
REMARK SMILES IDX 21 1 20 2 2 3 1 4 3 5 4 6 5 7 19 8 6 9 18 10 17 11 7 13 8 14
REMARK SMILES IDX 9 15 10 16 11 17 15 18 12 19 14 20 16 21 13 22 22 23 23 24
REMARK SMILES IDX 24 25 25 26 26 27 27 28 88 29 28 30 87 31 29 32 30 33 31 34
REMARK SMILES IDX 81 35 32 36 86 37 80 38 82 39 33 40 85 41 79 42 78 43 34 45
REMARK SMILES IDX 66 46 46 47 65 48 47 49 50 50 64 51 83 52 48 53 49 54 63 56
REMARK SMILES IDX 84 57 51 58 35 59 36 60 44 61 37 62 39 63 45 64 38 65 40 66
REMARK SMILES IDX 41 67 42 68 43 69 67 70 68 71 76 72 69 73 71 74 77 75 70 76
REMARK SMILES IDX 72 77 73 78 74 79 75 80 52 81 53 82 61 83 54 84 56 85 62 86
REMARK SMILES IDX 55 87 57 88 58 89 59 90 60 91
REMARK H PARENT 6 12 82 44 50 55
REMARK Flexibility Score: inf
ROOT
ATOM      1  C   UNL A   1      35.891  20.012  24.929  1.00  0.00     0.274 C 
ENDROOT
BRANCH   1   2
ATOM      2  O   UNL A   1      34.500  20.058  25.332  1.00  0.00    -0.462 OA
BRANCH   2   3
ATOM      3  C   UNL A   1      33.462  20.053  24.476  1.00  0.00     0.308 C 
ATOM      4  O   UNL A   1      33.025  19.050  23.935  1.00  0.00    -0.252 OA
BRANCH   3   5
ATOM      5  C   UNL A   1      32.929  21.484  24.321  1.00  0.00     0.160 C 
BRANCH   5   6
ATOM      6  C   UNL A   1      32.196  22.102  25.539  1.00  0.00     0.184 C 
ATOM      7  C   UNL A   1      33.100  22.937  26.434  1.00  0.00     0.295 C 
ATOM      8  O   UNL A   1      31.036  22.873  25.148  1.00  0.00    -0.366 OA
ATOM      9  N   UNL A   1      32.969  24.385  26.206  1.00  0.00    -0.330 N 
ATOM     10  C   UNL A   1      30.600  23.932  26.036  1.00  0.00     0.222 C 
ATOM     11  C   UNL A   1      31.675  24.734  26.751  1.00  0.00     0.291 C 
ATOM     12  H   UNL A   1      33.773  24.819  26.662  1.00  0.00     0.348 HD
BRANCH   9  13
ATOM     13  C   UNL A   1      33.150  24.942  24.841  1.00  0.00     0.273 C 
BRANCH  13  14
ATOM     14  C   UNL A   1      33.177  26.376  24.113  1.00  0.00     0.136 C 
BRANCH  14  15
ATOM     15  S   UNL A   1      32.649  27.348  22.619  1.00  0.00    -0.117 SA
BRANCH  15  16
ATOM     16  C   UNL A   1      30.897  27.556  22.726  1.00  0.00     0.043 A 
ATOM     17  C   UNL A   1      30.169  26.489  23.283  1.00  0.00     0.018 A 
ATOM     18  C   UNL A   1      30.228  28.736  22.416  1.00  0.00     0.136 A 
ATOM     19  C   UNL A   1      28.852  26.678  23.706  1.00  0.00     0.001 A 
ATOM     20  C   UNL A   1      28.896  28.914  22.793  1.00  0.00     0.040 A 
ATOM     21  F   UNL A   1      30.865  29.746  21.804  1.00  0.00    -0.206 F 
ATOM     22  C   UNL A   1      28.225  27.903  23.485  1.00  0.00     0.003 A 
ENDBRANCH  15  16
ENDBRANCH  14  15
ENDBRANCH  13  14
ENDBRANCH   9  13
ENDBRANCH   5   6
ENDBRANCH   3   5
ENDBRANCH   2   3
ENDBRANCH   1   2
BRANCH   1  23
ATOM     23  C   UNL A   1      36.569  21.225  25.614  1.00  0.00     0.275 C 
BRANCH  23  24
ATOM     24  O   UNL A   1      37.845  21.517  25.008  1.00  0.00    -0.458 OA
BRANCH  24  25
ATOM     25  C   UNL A   1      38.884  21.190  25.811  1.00  0.00     0.338 C 
ATOM     26  O   UNL A   1      39.502  20.133  25.773  1.00  0.00    -0.246 OA
BRANCH  25  27
ATOM     27  C   UNL A   1      39.373  22.389  26.525  1.00  0.00     0.060 A 
ATOM     28  C   UNL A   1      38.812  23.622  26.159  1.00  0.00     0.016 A 
ATOM     29  C   UNL A   1      40.366  22.328  27.504  1.00  0.00     0.016 A 
ATOM     30  C   UNL A   1      39.313  24.806  26.690  1.00  0.00     0.010 A 
ATOM     31  C   UNL A   1      40.886  23.519  28.020  1.00  0.00     0.010 A 
ATOM     32  C   UNL A   1      40.400  24.760  27.569  1.00  0.00    -0.014 A 
BRANCH  32  33
ATOM     33  C   UNL A   1      41.185  25.990  27.816  1.00  0.00     0.031 A 
ATOM     34  C   UNL A   1      40.524  27.110  28.572  1.00  0.00     0.074 A 
ATOM     35  C   UNL A   1      42.451  26.116  27.391  1.00  0.00     0.049 A 
ATOM     36  N   UNL A   1      40.990  28.291  28.880  1.00  0.00    -0.248 NA
ATOM     37  C   UNL A   1      39.155  26.857  29.052  1.00  0.00     0.031 C 
ATOM     38  C   UNL A   1      43.214  25.086  26.690  1.00  0.00     0.029 A 
ATOM     39  N   UNL A   1      43.311  27.181  27.476  1.00  0.00    -0.354 N 
ATOM     40  C   UNL A   1      39.970  28.927  29.579  1.00  0.00     0.074 A 
ATOM     41  C   UNL A   1      38.854  28.008  29.634  1.00  0.00     0.031 C 
ATOM     42  C   UNL A   1      44.426  25.579  26.387  1.00  0.00     0.029 A 
ATOM     43  C   UNL A   1      44.512  26.967  26.845  1.00  0.00     0.049 A 
ATOM     44  H   UNL A   1      43.089  28.018  27.944  1.00  0.00     0.167 HD
ATOM     45  C   UNL A   1      39.963  30.160  30.135  1.00  0.00     0.034 A 
ATOM     46  C   UNL A   1      45.551  27.802  26.646  1.00  0.00     0.034 A 
ATOM     47  C   UNL A   1      41.061  31.084  30.054  1.00  0.00     0.049 A 
ATOM     48  C   UNL A   1      45.494  29.203  27.198  1.00  0.00     0.074 A 
ATOM     49  C   UNL A   1      41.147  32.365  30.571  1.00  0.00     0.029 A 
ATOM     50  N   UNL A   1      42.259  30.836  29.400  1.00  0.00    -0.354 N 
ATOM     51  N   UNL A   1      44.551  29.775  27.908  1.00  0.00    -0.248 NA
ATOM     52  C   UNL A   1      46.659  30.066  26.949  1.00  0.00     0.031 C 
ATOM     53  C   UNL A   1      42.383  32.902  30.200  1.00  0.00     0.029 A 
ATOM     54  C   UNL A   1      43.088  31.940  29.493  1.00  0.00     0.049 A 
ATOM     55  H   UNL A   1      42.486  29.997  28.938  1.00  0.00     0.167 HD
ATOM     56  C   UNL A   1      45.023  31.045  28.227  1.00  0.00     0.074 A 
ATOM     57  C   UNL A   1      46.342  31.156  27.636  1.00  0.00     0.031 C 
ATOM     58  C   UNL A   1      44.418  32.028  28.940  1.00  0.00     0.034 A 
BRANCH  45  59
ATOM     59  C   UNL A   1      38.726  30.571  30.890  1.00  0.00     0.023 A 
ATOM     60  C   UNL A   1      38.625  30.290  32.269  1.00  0.00     0.012 A 
ATOM     61  C   UNL A   1      37.678  31.258  30.248  1.00  0.00     0.148 A 
ATOM     62  C   UNL A   1      37.487  30.653  32.987  1.00  0.00     0.002 A 
ATOM     63  C   UNL A   1      36.568  31.661  30.981  1.00  0.00     0.091 A 
ATOM     64  F   UNL A   1      37.777  31.491  28.931  1.00  0.00    -0.205 F 
ATOM     65  C   UNL A   1      36.464  31.347  32.346  1.00  0.00     0.022 A 
BRANCH  63  66
ATOM     66  S   UNL A   1      35.239  32.634  30.265  1.00  0.00     0.127 S 
ATOM     67  O   UNL A   1      35.953  33.830  29.820  1.00  0.00    -0.237 OA
ATOM     68  O   UNL A   1      34.772  31.766  29.184  1.00  0.00    -0.237 OA
ATOM     69  O   UNL A   1      34.274  32.842  31.334  1.00  0.00    -0.744 OA
ENDBRANCH  63  66
ENDBRANCH  45  59
BRANCH  46  70
ATOM     70  C   UNL A   1      46.761  27.302  25.936  1.00  0.00     0.023 A 
ATOM     71  C   UNL A   1      46.887  27.526  24.551  1.00  0.00     0.012 A 
ATOM     72  C   UNL A   1      47.814  26.675  26.631  1.00  0.00     0.148 A 
ATOM     73  C   UNL A   1      48.036  27.126  23.870  1.00  0.00     0.002 A 
ATOM     74  C   UNL A   1      48.978  26.329  25.956  1.00  0.00     0.091 A 
ATOM     75  F   UNL A   1      47.667  26.467  27.947  1.00  0.00    -0.205 F 
ATOM     76  C   UNL A   1      49.085  26.540  24.573  1.00  0.00     0.022 A 
BRANCH  74  77
ATOM     77  S   UNL A   1      50.433  25.692  26.795  1.00  0.00     0.127 S 
ATOM     78  O   UNL A   1      51.387  25.571  25.693  1.00  0.00    -0.237 OA
ATOM     79  O   UNL A   1      50.721  26.768  27.743  1.00  0.00    -0.237 OA
ATOM     80  O   UNL A   1      50.026  24.435  27.405  1.00  0.00    -0.744 OA
ENDBRANCH  74  77
ENDBRANCH  46  70
BRANCH  58  81
ATOM     81  C   UNL A   1      45.180  33.311  29.174  1.00  0.00     0.023 A 
ATOM     82  C   UNL A   1      46.034  33.435  30.288  1.00  0.00     0.012 A 
ATOM     83  C   UNL A   1      45.126  34.357  28.229  1.00  0.00     0.148 A 
ATOM     84  C   UNL A   1      46.796  34.589  30.473  1.00  0.00     0.002 A 
ATOM     85  C   UNL A   1      45.929  35.480  28.391  1.00  0.00     0.091 A 
ATOM     86  F   UNL A   1      44.295  34.231  27.182  1.00  0.00    -0.205 F 
ATOM     87  C   UNL A   1      46.755  35.604  29.519  1.00  0.00     0.022 A 
BRANCH  85  88
ATOM     88  S   UNL A   1      46.021  36.786  27.159  1.00  0.00     0.127 S 
ATOM     89  O   UNL A   1      46.991  37.696  27.763  1.00  0.00    -0.237 OA
ATOM     90  O   UNL A   1      46.510  36.068  25.982  1.00  0.00    -0.237 OA
ATOM     91  O   UNL A   1      44.668  37.310  27.028  1.00  0.00    -0.744 OA
ENDBRANCH  85  88
ENDBRANCH  58  81
ENDBRANCH  32  33
ENDBRANCH  25  27
ENDBRANCH  24  25
ENDBRANCH  23  24
ENDBRANCH   1  23
TORSDOF 19
ENDMDL
