MODEL 1
REMARK VINA RESULT:     -11.6      0.000      0.000
REMARK SMILES Cc1nn(C(C)C)cc1-c1cnccc1C(=O)OCCOC(=O)c1ccc(-c2c3nc(c(-c4cccc(S(=O)(=O)[O-])c4F)c4ccc([nH]4)c(-c4cccc(S(=O)(=O)[O-])c4F)c4nc(c(-c5cccc(S(=O)(=O)[O-])c5F)c5ccc2[nH]5)C=C4)C=C3)cc1
REMARK SMILES IDX 20 1 19 2 18 3 16 4 17 5 15 6 10 7 11 8 12 9 14 10 13 11
REMARK SMILES IDX 9 12 1 13 2 14 3 15 4 16 8 17 5 18 6 19 7 20 21 21 22 22
REMARK SMILES IDX 23 23 24 24 25 25 86 26 26 27 85 28 27 29 28 30 29 31 79 32
REMARK SMILES IDX 30 33 84 34 78 35 80 36 31 37 83 38 77 39 76 40 32 42 64 43
REMARK SMILES IDX 44 44 63 45 45 46 48 47 62 48 81 49 46 50 47 51 61 53 82 54
REMARK SMILES IDX 49 55 33 56 34 57 42 58 35 59 37 60 43 61 36 62 38 63 39 64
REMARK SMILES IDX 40 65 41 66 65 67 66 68 74 69 67 70 69 71 75 72 68 73 70 74
REMARK SMILES IDX 71 75 72 76 73 77 50 78 51 79 59 80 52 81 54 82 60 83 53 84
REMARK SMILES IDX 55 85 56 86 57 87 58 88
REMARK H PARENT 80 41 48 52
REMARK Flexibility Score: inf
ROOT
ATOM      1  C   UNL A   1      37.810  20.054  24.650  1.00  0.00     0.275 C 
ENDROOT
BRANCH   1   2
ATOM      2  C   UNL A   1      36.445  20.582  25.048  1.00  0.00     0.275 C 
BRANCH   2   3
ATOM      3  O   UNL A   1      36.466  22.015  24.999  1.00  0.00    -0.458 OA
BRANCH   3   4
ATOM      4  C   UNL A   1      35.594  22.653  24.193  1.00  0.00     0.338 C 
ATOM      5  O   UNL A   1      35.716  22.772  22.979  1.00  0.00    -0.246 OA
BRANCH   4   6
ATOM      6  C   UNL A   1      34.390  23.146  24.929  1.00  0.00     0.071 A 
ATOM      7  C   UNL A   1      33.223  22.412  25.206  1.00  0.00     0.018 A 
ATOM      8  C   UNL A   1      32.234  23.069  25.942  1.00  0.00     0.120 A 
ATOM      9  N   UNL A   1      32.298  24.353  26.370  1.00  0.00    -0.264 NA
ATOM     10  C   UNL A   1      34.459  24.492  25.334  1.00  0.00     0.036 A 
ATOM     11  C   UNL A   1      33.399  25.045  26.028  1.00  0.00     0.112 A 
BRANCH   7  12
ATOM     12  C   UNL A   1      32.939  21.072  24.731  1.00  0.00     0.025 A 
ATOM     13  C   UNL A   1      32.012  21.433  22.304  1.00  0.00     0.069 C 
ATOM     14  C   UNL A   1      32.453  20.623  23.468  1.00  0.00     0.067 A 
ATOM     15  N   UNL A   1      32.461  19.284  23.386  1.00  0.00    -0.177 NA
ATOM     16  N   UNL A   1      33.041  18.896  24.536  1.00  0.00    -0.269 N 
ATOM     17  C   UNL A   1      33.182  19.912  25.438  1.00  0.00     0.118 A 
BRANCH  16  18
ATOM     18  C   UNL A   1      33.500  17.524  24.707  1.00  0.00     0.101 C 
ATOM     19  C   UNL A   1      32.469  16.701  25.471  1.00  0.00     0.033 C 
ATOM     20  C   UNL A   1      33.867  16.864  23.375  1.00  0.00     0.033 C 
ENDBRANCH  16  18
ENDBRANCH   7  12
ENDBRANCH   4   6
ENDBRANCH   3   4
ENDBRANCH   2   3
ENDBRANCH   1   2
BRANCH   1  21
ATOM     21  O   UNL A   1      38.813  20.730  25.402  1.00  0.00    -0.458 OA
BRANCH  21  22
ATOM     22  C   UNL A   1      39.920  20.010  25.683  1.00  0.00     0.338 C 
ATOM     23  O   UNL A   1      40.085  18.809  25.557  1.00  0.00    -0.246 OA
BRANCH  22  24
ATOM     24  C   UNL A   1      40.871  20.879  26.374  1.00  0.00     0.060 A 
ATOM     25  C   UNL A   1      40.865  20.844  27.772  1.00  0.00     0.016 A 
ATOM     26  C   UNL A   1      41.509  21.897  25.651  1.00  0.00     0.016 A 
ATOM     27  C   UNL A   1      41.343  21.940  28.453  1.00  0.00     0.010 A 
ATOM     28  C   UNL A   1      41.963  22.997  26.330  1.00  0.00     0.010 A 
ATOM     29  C   UNL A   1      41.801  23.032  27.713  1.00  0.00    -0.014 A 
BRANCH  29  30
ATOM     30  C   UNL A   1      42.152  24.240  28.420  1.00  0.00     0.031 A 
ATOM     31  C   UNL A   1      41.168  25.332  28.270  1.00  0.00     0.074 A 
ATOM     32  C   UNL A   1      43.191  24.260  29.273  1.00  0.00     0.049 A 
ATOM     33  N   UNL A   1      41.358  26.516  27.790  1.00  0.00    -0.248 NA
ATOM     34  C   UNL A   1      39.761  25.016  28.563  1.00  0.00     0.031 C 
ATOM     35  C   UNL A   1      43.997  23.118  29.722  1.00  0.00     0.029 A 
ATOM     36  N   UNL A   1      43.625  25.279  30.059  1.00  0.00    -0.354 N 
ATOM     37  C   UNL A   1      40.133  27.164  27.928  1.00  0.00     0.074 A 
ATOM     38  C   UNL A   1      39.157  26.147  28.206  1.00  0.00     0.031 C 
ATOM     39  C   UNL A   1      44.621  23.451  30.872  1.00  0.00     0.029 A 
ATOM     40  C   UNL A   1      44.354  24.848  31.160  1.00  0.00     0.049 A 
ATOM     41  H   UNL A   1      43.442  26.228  29.868  1.00  0.00     0.167 HD
ATOM     42  C   UNL A   1      40.059  28.514  28.066  1.00  0.00     0.034 A 
ATOM     43  C   UNL A   1      44.611  25.569  32.277  1.00  0.00     0.034 A 
ATOM     44  C   UNL A   1      41.273  29.157  27.634  1.00  0.00     0.049 A 
ATOM     45  C   UNL A   1      44.390  26.997  31.949  1.00  0.00     0.074 A 
ATOM     46  C   UNL A   1      41.981  29.219  26.452  1.00  0.00     0.029 A 
ATOM     47  N   UNL A   1      42.128  29.595  28.616  1.00  0.00    -0.354 N 
ATOM     48  N   UNL A   1      45.130  27.677  31.118  1.00  0.00    -0.248 NA
ATOM     49  C   UNL A   1      43.091  27.581  32.246  1.00  0.00     0.031 C 
ATOM     50  C   UNL A   1      43.351  29.278  26.841  1.00  0.00     0.029 A 
ATOM     51  C   UNL A   1      43.403  29.274  28.236  1.00  0.00     0.049 A 
ATOM     52  H   UNL A   1      41.870  30.058  29.445  1.00  0.00     0.167 HD
ATOM     53  C   UNL A   1      44.239  28.516  30.460  1.00  0.00     0.074 A 
ATOM     54  C   UNL A   1      43.038  28.513  31.291  1.00  0.00     0.031 C 
ATOM     55  C   UNL A   1      44.450  28.891  29.162  1.00  0.00     0.034 A 
BRANCH  42  56
ATOM     56  C   UNL A   1      39.045  29.231  28.931  1.00  0.00     0.023 A 
ATOM     57  C   UNL A   1      38.353  30.310  28.341  1.00  0.00     0.012 A 
ATOM     58  C   UNL A   1      38.933  29.094  30.336  1.00  0.00     0.148 A 
ATOM     59  C   UNL A   1      37.650  31.243  29.111  1.00  0.00     0.002 A 
ATOM     60  C   UNL A   1      38.165  29.977  31.087  1.00  0.00     0.091 A 
ATOM     61  F   UNL A   1      39.673  28.200  30.994  1.00  0.00    -0.205 F 
ATOM     62  C   UNL A   1      37.551  31.075  30.485  1.00  0.00     0.022 A 
BRANCH  60  63
ATOM     63  S   UNL A   1      37.966  29.755  32.859  1.00  0.00     0.127 S 
ATOM     64  O   UNL A   1      37.039  30.833  33.189  1.00  0.00    -0.237 OA
ATOM     65  O   UNL A   1      37.402  28.407  32.936  1.00  0.00    -0.237 OA
ATOM     66  O   UNL A   1      39.312  29.866  33.412  1.00  0.00    -0.744 OA
ENDBRANCH  60  63
ENDBRANCH  42  56
BRANCH  43  67
ATOM     67  C   UNL A   1      44.781  25.089  33.665  1.00  0.00     0.023 A 
ATOM     68  C   UNL A   1      43.663  24.613  34.376  1.00  0.00     0.012 A 
ATOM     69  C   UNL A   1      46.064  24.869  34.217  1.00  0.00     0.148 A 
ATOM     70  C   UNL A   1      43.819  23.927  35.586  1.00  0.00     0.002 A 
ATOM     71  C   UNL A   1      46.213  24.203  35.428  1.00  0.00     0.091 A 
ATOM     72  F   UNL A   1      47.144  25.230  33.509  1.00  0.00    -0.205 F 
ATOM     73  C   UNL A   1      45.092  23.719  36.111  1.00  0.00     0.022 A 
BRANCH  71  74
ATOM     74  S   UNL A   1      47.829  23.903  36.160  1.00  0.00     0.127 S 
ATOM     75  O   UNL A   1      47.505  23.798  37.583  1.00  0.00    -0.237 OA
ATOM     76  O   UNL A   1      48.220  22.647  35.527  1.00  0.00    -0.237 OA
ATOM     77  O   UNL A   1      48.639  25.067  35.819  1.00  0.00    -0.744 OA
ENDBRANCH  71  74
ENDBRANCH  43  67
BRANCH  55  78
ATOM     78  C   UNL A   1      45.800  28.597  28.549  1.00  0.00     0.023 A 
ATOM     79  C   UNL A   1      46.912  29.437  28.768  1.00  0.00     0.012 A 
ATOM     80  C   UNL A   1      46.001  27.364  27.905  1.00  0.00     0.148 A 
ATOM     81  C   UNL A   1      48.188  29.072  28.332  1.00  0.00     0.002 A 
ATOM     82  C   UNL A   1      47.280  26.982  27.514  1.00  0.00     0.091 A 
ATOM     83  F   UNL A   1      44.940  26.567  27.711  1.00  0.00    -0.205 F 
ATOM     84  C   UNL A   1      48.374  27.839  27.716  1.00  0.00     0.022 A 
BRANCH  82  85
ATOM     85  S   UNL A   1      47.610  25.350  26.843  1.00  0.00     0.127 S 
ATOM     86  O   UNL A   1      49.064  25.362  26.707  1.00  0.00    -0.237 OA
ATOM     87  O   UNL A   1      47.102  24.466  27.895  1.00  0.00    -0.237 OA
ATOM     88  O   UNL A   1      46.860  25.275  25.595  1.00  0.00    -0.744 OA
ENDBRANCH  82  85
ENDBRANCH  55  78
ENDBRANCH  29  30
ENDBRANCH  22  24
ENDBRANCH  21  22
ENDBRANCH   1  21
TORSDOF 16
ENDMDL
MODEL 2
REMARK VINA RESULT:     -11.4      4.034      8.129
REMARK SMILES Cc1nn(C(C)C)cc1-c1cnccc1C(=O)OCCOC(=O)c1ccc(-c2c3nc(c(-c4cccc(S(=O)(=O)[O-])c4F)c4ccc([nH]4)c(-c4cccc(S(=O)(=O)[O-])c4F)c4nc(c(-c5cccc(S(=O)(=O)[O-])c5F)c5ccc2[nH]5)C=C4)C=C3)cc1
REMARK SMILES IDX 20 1 19 2 18 3 16 4 17 5 15 6 10 7 11 8 12 9 14 10 13 11
REMARK SMILES IDX 9 12 1 13 2 14 3 15 4 16 8 17 5 18 6 19 7 20 21 21 22 22
REMARK SMILES IDX 23 23 24 24 25 25 86 26 26 27 85 28 27 29 28 30 29 31 79 32
REMARK SMILES IDX 30 33 84 34 78 35 80 36 31 37 83 38 77 39 76 40 32 42 64 43
REMARK SMILES IDX 44 44 63 45 45 46 48 47 62 48 81 49 46 50 47 51 61 53 82 54
REMARK SMILES IDX 49 55 33 56 34 57 42 58 35 59 37 60 43 61 36 62 38 63 39 64
REMARK SMILES IDX 40 65 41 66 65 67 66 68 74 69 67 70 69 71 75 72 68 73 70 74
REMARK SMILES IDX 71 75 72 76 73 77 50 78 51 79 59 80 52 81 54 82 60 83 53 84
REMARK SMILES IDX 55 85 56 86 57 87 58 88
REMARK H PARENT 80 41 48 52
REMARK Flexibility Score: inf
ROOT
ATOM      1  C   UNL A   1      33.630  30.415  27.511  1.00  0.00     0.275 C 
ENDROOT
BRANCH   1   2
ATOM      2  C   UNL A   1      33.807  29.232  26.578  1.00  0.00     0.275 C 
BRANCH   2   3
ATOM      3  O   UNL A   1      32.648  29.121  25.740  1.00  0.00    -0.458 OA
BRANCH   3   4
ATOM      4  C   UNL A   1      32.041  27.923  25.622  1.00  0.00     0.338 C 
ATOM      5  O   UNL A   1      31.230  27.464  26.418  1.00  0.00    -0.246 OA
BRANCH   4   6
ATOM      6  C   UNL A   1      32.403  27.221  24.353  1.00  0.00     0.071 A 
ATOM      7  C   UNL A   1      31.749  27.346  23.115  1.00  0.00     0.018 A 
ATOM      8  C   UNL A   1      32.284  26.617  22.051  1.00  0.00     0.120 A 
ATOM      9  N   UNL A   1      33.347  25.781  22.130  1.00  0.00    -0.264 NA
ATOM     10  C   UNL A   1      33.486  26.330  24.463  1.00  0.00     0.036 A 
ATOM     11  C   UNL A   1      33.906  25.634  23.344  1.00  0.00     0.112 A 
BRANCH   7  12
ATOM     12  C   UNL A   1      30.536  28.105  22.877  1.00  0.00     0.025 A 
ATOM     13  C   UNL A   1      28.633  26.602  23.876  1.00  0.00     0.069 C 
ATOM     14  C   UNL A   1      29.184  27.821  23.232  1.00  0.00     0.067 A 
ATOM     15  N   UNL A   1      28.375  28.853  22.950  1.00  0.00    -0.177 NA
ATOM     16  N   UNL A   1      29.216  29.811  22.522  1.00  0.00    -0.269 N 
ATOM     17  C   UNL A   1      30.484  29.356  22.298  1.00  0.00     0.118 A 
BRANCH  16  18
ATOM     18  C   UNL A   1      28.761  31.190  22.391  1.00  0.00     0.101 C 
ATOM     19  C   UNL A   1      28.165  31.432  21.009  1.00  0.00     0.033 C 
ATOM     20  C   UNL A   1      27.782  31.587  23.500  1.00  0.00     0.033 C 
ENDBRANCH  16  18
ENDBRANCH   7  12
ENDBRANCH   4   6
ENDBRANCH   3   4
ENDBRANCH   2   3
ENDBRANCH   1   2
BRANCH   1  21
ATOM     21  O   UNL A   1      34.829  31.181  27.531  1.00  0.00    -0.458 OA
BRANCH  21  22
ATOM     22  C   UNL A   1      35.492  31.204  28.707  1.00  0.00     0.338 C 
ATOM     23  O   UNL A   1      35.072  31.558  29.796  1.00  0.00    -0.246 OA
BRANCH  22  24
ATOM     24  C   UNL A   1      36.902  30.920  28.448  1.00  0.00     0.060 A 
ATOM     25  C   UNL A   1      37.198  29.725  27.784  1.00  0.00     0.016 A 
ATOM     26  C   UNL A   1      37.880  31.671  29.117  1.00  0.00     0.016 A 
ATOM     27  C   UNL A   1      38.451  29.180  27.953  1.00  0.00     0.010 A 
ATOM     28  C   UNL A   1      39.118  31.116  29.302  1.00  0.00     0.010 A 
ATOM     29  C   UNL A   1      39.356  29.845  28.782  1.00  0.00    -0.014 A 
BRANCH  29  30
ATOM     30  C   UNL A   1      40.609  29.198  29.087  1.00  0.00     0.031 A 
ATOM     31  C   UNL A   1      40.814  28.931  30.527  1.00  0.00     0.074 A 
ATOM     32  C   UNL A   1      41.399  28.730  28.104  1.00  0.00     0.049 A 
ATOM     33  N   UNL A   1      41.770  29.352  31.286  1.00  0.00    -0.248 NA
ATOM     34  C   UNL A   1      39.740  28.223  31.240  1.00  0.00     0.031 C 
ATOM     35  C   UNL A   1      41.089  28.660  26.670  1.00  0.00     0.029 A 
ATOM     36  N   UNL A   1      42.570  28.050  28.206  1.00  0.00    -0.354 N 
ATOM     37  C   UNL A   1      41.528  28.771  32.528  1.00  0.00     0.074 A 
ATOM     38  C   UNL A   1      40.181  28.273  32.495  1.00  0.00     0.031 C 
ATOM     39  C   UNL A   1      41.906  27.753  26.093  1.00  0.00     0.029 A 
ATOM     40  C   UNL A   1      42.857  27.284  27.084  1.00  0.00     0.049 A 
ATOM     41  H   UNL A   1      43.157  28.095  28.996  1.00  0.00     0.167 HD
ATOM     42  C   UNL A   1      42.540  28.510  33.397  1.00  0.00     0.034 A 
ATOM     43  C   UNL A   1      43.739  26.258  27.023  1.00  0.00     0.034 A 
ATOM     44  C   UNL A   1      43.724  29.261  33.069  1.00  0.00     0.049 A 
ATOM     45  C   UNL A   1      44.649  26.381  28.186  1.00  0.00     0.074 A 
ATOM     46  C   UNL A   1      44.035  30.601  32.958  1.00  0.00     0.029 A 
ATOM     47  N   UNL A   1      44.740  28.579  32.445  1.00  0.00    -0.354 N 
ATOM     48  N   UNL A   1      45.507  27.351  28.339  1.00  0.00    -0.248 NA
ATOM     49  C   UNL A   1      44.335  25.633  29.393  1.00  0.00     0.031 C 
ATOM     50  C   UNL A   1      44.990  30.675  31.904  1.00  0.00     0.029 A 
ATOM     51  C   UNL A   1      45.229  29.378  31.447  1.00  0.00     0.049 A 
ATOM     52  H   UNL A   1      45.060  27.677  32.674  1.00  0.00     0.167 HD
ATOM     53  C   UNL A   1      45.499  27.615  29.703  1.00  0.00     0.074 A 
ATOM     54  C   UNL A   1      44.875  26.441  30.309  1.00  0.00     0.031 C 
ATOM     55  C   UNL A   1      45.725  28.877  30.180  1.00  0.00     0.034 A 
BRANCH  42  56
ATOM     56  C   UNL A   1      42.590  27.308  34.315  1.00  0.00     0.023 A 
ATOM     57  C   UNL A   1      42.201  27.513  35.656  1.00  0.00     0.012 A 
ATOM     58  C   UNL A   1      43.242  26.086  34.021  1.00  0.00     0.148 A 
ATOM     59  C   UNL A   1      42.511  26.591  36.662  1.00  0.00     0.002 A 
ATOM     60  C   UNL A   1      43.473  25.136  35.009  1.00  0.00     0.091 A 
ATOM     61  F   UNL A   1      43.778  25.874  32.817  1.00  0.00    -0.205 F 
ATOM     62  C   UNL A   1      43.142  25.398  36.338  1.00  0.00     0.022 A 
BRANCH  60  63
ATOM     63  S   UNL A   1      44.234  23.556  34.616  1.00  0.00     0.127 S 
ATOM     64  O   UNL A   1      44.152  22.863  35.897  1.00  0.00    -0.237 OA
ATOM     65  O   UNL A   1      43.346  23.040  33.573  1.00  0.00    -0.237 OA
ATOM     66  O   UNL A   1      45.574  23.885  34.141  1.00  0.00    -0.744 OA
ENDBRANCH  60  63
ENDBRANCH  42  56
BRANCH  43  67
ATOM     67  C   UNL A   1      43.683  25.043  26.182  1.00  0.00     0.023 A 
ATOM     68  C   UNL A   1      44.636  24.861  25.162  1.00  0.00     0.012 A 
ATOM     69  C   UNL A   1      42.853  23.950  26.522  1.00  0.00     0.148 A 
ATOM     70  C   UNL A   1      44.771  23.627  24.516  1.00  0.00     0.002 A 
ATOM     71  C   UNL A   1      42.977  22.731  25.864  1.00  0.00     0.091 A 
ATOM     72  F   UNL A   1      42.005  24.076  27.553  1.00  0.00    -0.205 F 
ATOM     73  C   UNL A   1      43.945  22.562  24.867  1.00  0.00     0.022 A 
BRANCH  71  74
ATOM     74  S   UNL A   1      41.941  21.318  26.269  1.00  0.00     0.127 S 
ATOM     75  O   UNL A   1      42.276  21.087  27.675  1.00  0.00    -0.237 OA
ATOM     76  O   UNL A   1      40.601  21.849  26.039  1.00  0.00    -0.237 OA
ATOM     77  O   UNL A   1      42.364  20.248  25.373  1.00  0.00    -0.744 OA
ENDBRANCH  71  74
ENDBRANCH  43  67
BRANCH  55  78
ATOM     78  C   UNL A   1      46.246  29.916  29.215  1.00  0.00     0.023 A 
ATOM     79  C   UNL A   1      47.606  29.966  28.843  1.00  0.00     0.012 A 
ATOM     80  C   UNL A   1      45.328  30.731  28.530  1.00  0.00     0.148 A 
ATOM     81  C   UNL A   1      48.046  30.825  27.833  1.00  0.00     0.002 A 
ATOM     82  C   UNL A   1      45.761  31.550  27.493  1.00  0.00     0.091 A 
ATOM     83  F   UNL A   1      44.035  30.669  28.884  1.00  0.00    -0.205 F 
ATOM     84  C   UNL A   1      47.121  31.607  27.149  1.00  0.00     0.022 A 
BRANCH  82  85
ATOM     85  S   UNL A   1      44.604  32.477  26.481  1.00  0.00     0.127 S 
ATOM     86  O   UNL A   1      45.491  33.143  25.531  1.00  0.00    -0.237 OA
ATOM     87  O   UNL A   1      43.772  31.420  25.902  1.00  0.00    -0.237 OA
ATOM     88  O   UNL A   1      43.888  33.354  27.400  1.00  0.00    -0.744 OA
ENDBRANCH  82  85
ENDBRANCH  55  78
ENDBRANCH  29  30
ENDBRANCH  22  24
ENDBRANCH  21  22
ENDBRANCH   1  21
TORSDOF 16
ENDMDL
MODEL 3
REMARK VINA RESULT:     -11.4      4.126      8.021
REMARK SMILES Cc1nn(C(C)C)cc1-c1cnccc1C(=O)OCCOC(=O)c1ccc(-c2c3nc(c(-c4cccc(S(=O)(=O)[O-])c4F)c4ccc([nH]4)c(-c4cccc(S(=O)(=O)[O-])c4F)c4nc(c(-c5cccc(S(=O)(=O)[O-])c5F)c5ccc2[nH]5)C=C4)C=C3)cc1
REMARK SMILES IDX 20 1 19 2 18 3 16 4 17 5 15 6 10 7 11 8 12 9 14 10 13 11
REMARK SMILES IDX 9 12 1 13 2 14 3 15 4 16 8 17 5 18 6 19 7 20 21 21 22 22
REMARK SMILES IDX 23 23 24 24 25 25 86 26 26 27 85 28 27 29 28 30 29 31 79 32
REMARK SMILES IDX 30 33 84 34 78 35 80 36 31 37 83 38 77 39 76 40 32 42 64 43
REMARK SMILES IDX 44 44 63 45 45 46 48 47 62 48 81 49 46 50 47 51 61 53 82 54
REMARK SMILES IDX 49 55 33 56 34 57 42 58 35 59 37 60 43 61 36 62 38 63 39 64
REMARK SMILES IDX 40 65 41 66 65 67 66 68 74 69 67 70 69 71 75 72 68 73 70 74
REMARK SMILES IDX 71 75 72 76 73 77 50 78 51 79 59 80 52 81 54 82 60 83 53 84
REMARK SMILES IDX 55 85 56 86 57 87 58 88
REMARK H PARENT 80 41 48 52
REMARK Flexibility Score: inf
ROOT
ATOM      1  C   UNL A   1      33.075  30.466  26.971  1.00  0.00     0.275 C 
ENDROOT
BRANCH   1   2
ATOM      2  C   UNL A   1      32.379  29.148  27.252  1.00  0.00     0.275 C 
BRANCH   2   3
ATOM      3  O   UNL A   1      31.700  28.715  26.065  1.00  0.00    -0.458 OA
BRANCH   3   4
ATOM      4  C   UNL A   1      31.478  27.398  25.885  1.00  0.00     0.338 C 
ATOM      5  O   UNL A   1      30.825  26.685  26.638  1.00  0.00    -0.246 OA
BRANCH   4   6
ATOM      6  C   UNL A   1      32.055  26.892  24.602  1.00  0.00     0.071 A 
ATOM      7  C   UNL A   1      31.590  27.182  23.306  1.00  0.00     0.018 A 
ATOM      8  C   UNL A   1      32.308  26.624  22.247  1.00  0.00     0.120 A 
ATOM      9  N   UNL A   1      33.379  25.804  22.373  1.00  0.00    -0.264 NA
ATOM     10  C   UNL A   1      33.144  26.015  24.752  1.00  0.00     0.036 A 
ATOM     11  C   UNL A   1      33.754  25.494  23.626  1.00  0.00     0.112 A 
BRANCH   7  12
ATOM     12  C   UNL A   1      30.397  27.945  22.992  1.00  0.00     0.025 A 
ATOM     13  C   UNL A   1      28.432  26.471  23.911  1.00  0.00     0.069 C 
ATOM     14  C   UNL A   1      29.026  27.676  23.278  1.00  0.00     0.067 A 
ATOM     15  N   UNL A   1      28.241  28.708  22.936  1.00  0.00    -0.177 NA
ATOM     16  N   UNL A   1      29.111  29.654  22.539  1.00  0.00    -0.269 N 
ATOM     17  C   UNL A   1      30.386  29.187  22.391  1.00  0.00     0.118 A 
BRANCH  16  18
ATOM     18  C   UNL A   1      28.674  31.033  22.362  1.00  0.00     0.101 C 
ATOM     19  C   UNL A   1      28.108  31.245  20.962  1.00  0.00     0.033 C 
ATOM     20  C   UNL A   1      27.678  31.470  23.439  1.00  0.00     0.033 C 
ENDBRANCH  16  18
ENDBRANCH   7  12
ENDBRANCH   4   6
ENDBRANCH   3   4
ENDBRANCH   2   3
ENDBRANCH   1   2
BRANCH   1  21
ATOM     21  O   UNL A   1      34.468  30.325  27.223  1.00  0.00    -0.458 OA
BRANCH  21  22
ATOM     22  C   UNL A   1      35.077  31.400  27.768  1.00  0.00     0.338 C 
ATOM     23  O   UNL A   1      34.907  32.577  27.496  1.00  0.00    -0.246 OA
BRANCH  22  24
ATOM     24  C   UNL A   1      36.159  30.929  28.631  1.00  0.00     0.060 A 
ATOM     25  C   UNL A   1      37.160  31.850  28.957  1.00  0.00     0.016 A 
ATOM     26  C   UNL A   1      36.312  29.550  28.836  1.00  0.00     0.016 A 
ATOM     27  C   UNL A   1      38.397  31.367  29.317  1.00  0.00     0.010 A 
ATOM     28  C   UNL A   1      37.550  29.071  29.172  1.00  0.00     0.010 A 
ATOM     29  C   UNL A   1      38.590  29.984  29.332  1.00  0.00    -0.014 A 
BRANCH  29  30
ATOM     30  C   UNL A   1      39.924  29.480  29.552  1.00  0.00     0.031 A 
ATOM     31  C   UNL A   1      40.376  29.567  30.957  1.00  0.00     0.074 A 
ATOM     32  C   UNL A   1      40.583  28.829  28.577  1.00  0.00     0.049 A 
ATOM     33  N   UNL A   1      41.404  30.194  31.426  1.00  0.00    -0.248 NA
ATOM     34  C   UNL A   1      39.490  29.001  31.986  1.00  0.00     0.031 C 
ATOM     35  C   UNL A   1      40.056  28.412  27.271  1.00  0.00     0.029 A 
ATOM     36  N   UNL A   1      41.806  28.241  28.624  1.00  0.00    -0.354 N 
ATOM     37  C   UNL A   1      41.409  29.910  32.789  1.00  0.00     0.074 A 
ATOM     38  C   UNL A   1      40.119  29.362  33.102  1.00  0.00     0.031 C 
ATOM     39  C   UNL A   1      40.841  27.430  26.779  1.00  0.00     0.029 A 
ATOM     40  C   UNL A   1      41.973  27.246  27.670  1.00  0.00     0.049 A 
ATOM     41  H   UNL A   1      42.506  28.494  29.270  1.00  0.00     0.167 HD
ATOM     42  C   UNL A   1      42.564  29.903  33.505  1.00  0.00     0.034 A 
ATOM     43  C   UNL A   1      42.913  26.273  27.689  1.00  0.00     0.034 A 
ATOM     44  C   UNL A   1      43.617  30.605  32.818  1.00  0.00     0.049 A 
ATOM     45  C   UNL A   1      43.984  26.703  28.618  1.00  0.00     0.074 A 
ATOM     46  C   UNL A   1      43.797  31.893  32.358  1.00  0.00     0.029 A 
ATOM     47  N   UNL A   1      44.573  29.839  32.195  1.00  0.00    -0.354 N 
ATOM     48  N   UNL A   1      44.774  27.717  28.399  1.00  0.00    -0.248 NA
ATOM     49  C   UNL A   1      43.928  26.245  29.998  1.00  0.00     0.031 C 
ATOM     50  C   UNL A   1      44.563  31.759  31.164  1.00  0.00     0.029 A 
ATOM     51  C   UNL A   1      44.830  30.402  30.974  1.00  0.00     0.049 A 
ATOM     52  H   UNL A   1      44.996  29.030  32.561  1.00  0.00     0.167 HD
ATOM     53  C   UNL A   1      44.962  28.292  29.650  1.00  0.00     0.074 A 
ATOM     54  C   UNL A   1      44.539  27.268  30.602  1.00  0.00     0.031 C 
ATOM     55  C   UNL A   1      45.157  29.639  29.786  1.00  0.00     0.034 A 
BRANCH  42  56
ATOM     56  C   UNL A   1      42.857  28.952  34.646  1.00  0.00     0.023 A 
ATOM     57  C   UNL A   1      43.417  29.512  35.815  1.00  0.00     0.012 A 
ATOM     58  C   UNL A   1      42.876  27.540  34.544  1.00  0.00     0.148 A 
ATOM     59  C   UNL A   1      44.028  28.718  36.791  1.00  0.00     0.002 A 
ATOM     60  C   UNL A   1      43.410  26.751  35.556  1.00  0.00     0.091 A 
ATOM     61  F   UNL A   1      42.509  26.935  33.412  1.00  0.00    -0.205 F 
ATOM     62  C   UNL A   1      44.021  27.335  36.665  1.00  0.00     0.022 A 
BRANCH  60  63
ATOM     63  S   UNL A   1      43.364  24.957  35.455  1.00  0.00     0.127 S 
ATOM     64  O   UNL A   1      41.935  24.708  35.296  1.00  0.00    -0.237 OA
ATOM     65  O   UNL A   1      44.175  24.698  34.265  1.00  0.00    -0.237 OA
ATOM     66  O   UNL A   1      43.970  24.488  36.697  1.00  0.00    -0.744 OA
ENDBRANCH  60  63
ENDBRANCH  42  56
BRANCH  43  67
ATOM     67  C   UNL A   1      42.823  24.893  27.163  1.00  0.00     0.023 A 
ATOM     68  C   UNL A   1      41.589  24.216  27.200  1.00  0.00     0.012 A 
ATOM     69  C   UNL A   1      43.874  24.323  26.410  1.00  0.00     0.148 A 
ATOM     70  C   UNL A   1      41.404  23.021  26.496  1.00  0.00     0.002 A 
ATOM     71  C   UNL A   1      43.691  23.125  25.727  1.00  0.00     0.091 A 
ATOM     72  F   UNL A   1      45.025  25.000  26.285  1.00  0.00    -0.205 F 
ATOM     73  C   UNL A   1      42.452  22.476  25.758  1.00  0.00     0.022 A 
BRANCH  71  74
ATOM     74  S   UNL A   1      45.005  22.369  24.757  1.00  0.00     0.127 S 
ATOM     75  O   UNL A   1      45.989  22.033  25.786  1.00  0.00    -0.237 OA
ATOM     76  O   UNL A   1      44.322  21.223  24.165  1.00  0.00    -0.237 OA
ATOM     77  O   UNL A   1      45.447  23.398  23.823  1.00  0.00    -0.744 OA
ENDBRANCH  71  74
ENDBRANCH  43  67
BRANCH  55  78
ATOM     78  C   UNL A   1      45.433  30.445  28.538  1.00  0.00     0.023 A 
ATOM     79  C   UNL A   1      44.388  30.974  27.751  1.00  0.00     0.012 A 
ATOM     80  C   UNL A   1      46.754  30.836  28.257  1.00  0.00     0.148 A 
ATOM     81  C   UNL A   1      44.652  31.847  26.694  1.00  0.00     0.002 A 
ATOM     82  C   UNL A   1      47.010  31.743  27.234  1.00  0.00     0.091 A 
ATOM     83  F   UNL A   1      47.740  30.337  29.017  1.00  0.00    -0.205 F 
ATOM     84  C   UNL A   1      45.962  32.242  26.444  1.00  0.00     0.022 A 
BRANCH  82  85
ATOM     85  S   UNL A   1      48.656  32.399  26.950  1.00  0.00     0.127 S 
ATOM     86  O   UNL A   1      48.425  33.349  25.865  1.00  0.00    -0.237 OA
ATOM     87  O   UNL A   1      48.981  33.012  28.240  1.00  0.00    -0.237 OA
ATOM     88  O   UNL A   1      49.489  31.249  26.616  1.00  0.00    -0.744 OA
ENDBRANCH  82  85
ENDBRANCH  55  78
ENDBRANCH  29  30
ENDBRANCH  22  24
ENDBRANCH  21  22
ENDBRANCH   1  21
TORSDOF 16
ENDMDL
