MODEL 1
REMARK VINA RESULT:     -13.4      0.000      0.000
REMARK SMILES Cc1ccc(C(=O)N2CCCC[C@@H]2C(=O)OCCOC(=O)c2ccc(-c3c4nc(c(-c5cccc(S(=O)(=O)[O-])c5F)c5ccc([nH]5)c(-c5cccc(S(=O)(=O)[O-])c5F)c5nc(c(-c6cccc(S(=O)(=O)[O-])c6F)c6ccc3[nH]6)C=C5)C=C4)cc2)cc1S(=O)(=O)N1CCCCC1
REMARK SMILES IDX 17 1 16 2 14 3 15 4 13 5 8 6 9 7 10 8 12 9 11 10 6 11 7 12
REMARK SMILES IDX 5 13 1 14 2 15 3 16 86 17 4 18 85 19 87 20 88 21 89 22 90 23
REMARK SMILES IDX 91 24 95 25 92 26 94 27 93 28 18 29 19 30 20 31 21 32 22 33
REMARK SMILES IDX 23 34 84 35 24 36 83 37 25 38 26 39 27 40 77 41 28 42 82 43
REMARK SMILES IDX 76 44 78 45 29 46 81 47 75 48 74 49 30 51 62 52 42 53 61 54
REMARK SMILES IDX 43 55 46 56 60 57 79 58 44 59 45 60 59 62 80 63 47 64 31 65
REMARK SMILES IDX 32 66 40 67 33 68 35 69 41 70 34 71 36 72 37 73 38 74 39 75
REMARK SMILES IDX 63 76 64 77 72 78 65 79 67 80 73 81 66 82 68 83 69 84 70 85
REMARK SMILES IDX 71 86 48 87 49 88 57 89 50 90 52 91 58 92 51 93 53 94 54 95
REMARK SMILES IDX 55 96 56 97
REMARK H PARENT 78 50 46 61
REMARK Flexibility Score: inf
ROOT
ATOM      1  C   UNL A   1      37.015  23.816  26.256  1.00  0.00     0.274 C 
ENDROOT
BRANCH   1   2
ATOM      2  O   UNL A   1      36.051  24.369  25.224  1.00  0.00    -0.461 OA
BRANCH   2   3
ATOM      3  C   UNL A   1      35.434  23.688  24.226  1.00  0.00     0.328 C 
ATOM      4  O   UNL A   1      35.993  23.634  23.127  1.00  0.00    -0.250 OA
BRANCH   3   5
ATOM      5  C   UNL A   1      33.841  22.975  24.460  1.00  0.00     0.195 C 
ATOM      6  N   UNL A   1      32.422  23.137  25.464  1.00  0.00    -0.325 N 
ATOM      7  C   UNL A   1      31.660  21.901  25.755  1.00  0.00     0.121 C 
ATOM      8  C   UNL A   1      32.214  20.575  25.262  1.00  0.00     0.022 C 
ATOM      9  C   UNL A   1      34.102  21.507  24.074  1.00  0.00     0.037 C 
ATOM     10  C   UNL A   1      32.811  20.750  23.889  1.00  0.00     0.005 C 
BRANCH   6  11
ATOM     11  C   UNL A   1      31.306  24.440  25.656  1.00  0.00     0.254 C 
ATOM     12  O   UNL A   1      31.228  24.723  26.874  1.00  0.00    -0.269 OA
BRANCH  11  13
ATOM     13  C   UNL A   1      30.531  25.625  24.223  1.00  0.00     0.041 A 
ATOM     14  C   UNL A   1      34.166  28.355  23.701  1.00  0.00     0.046 C 
ATOM     15  C   UNL A   1      33.600  27.020  23.831  1.00  0.00    -0.031 A 
ATOM     16  C   UNL A   1      33.126  25.977  22.309  1.00  0.00     0.005 A 
ATOM     17  C   UNL A   1      32.550  27.417  25.217  1.00  0.00     0.086 A 
ATOM     18  C   UNL A   1      31.299  25.370  22.357  1.00  0.00     0.014 A 
ATOM     19  C   UNL A   1      31.201  26.722  25.374  1.00  0.00     0.035 A 
BRANCH  17  20
ATOM     20  S   UNL A   1      32.394  29.298  26.260  1.00  0.00     0.243 S 
ATOM     21  O   UNL A   1      31.809  30.255  25.337  1.00  0.00    -0.207 OA
ATOM     22  O   UNL A   1      31.665  28.969  27.475  1.00  0.00    -0.207 OA
BRANCH  20  23
ATOM     23  N   UNL A   1      34.096  30.221  26.955  1.00  0.00    -0.198 NA
ATOM     24  C   UNL A   1      34.867  29.158  27.729  1.00  0.00     0.102 C 
ATOM     25  C   UNL A   1      34.114  31.371  28.075  1.00  0.00     0.102 C 
ATOM     26  C   UNL A   1      36.246  29.715  28.246  1.00  0.00     0.017 C 
ATOM     27  C   UNL A   1      35.532  32.077  28.097  1.00  0.00     0.017 C 
ATOM     28  C   UNL A   1      36.649  31.112  27.767  1.00  0.00     0.003 C 
ENDBRANCH  20  23
ENDBRANCH  17  20
ENDBRANCH  11  13
ENDBRANCH   6  11
ENDBRANCH   3   5
ENDBRANCH   2   3
ENDBRANCH   1   2
BRANCH   1  29
ATOM     29  C   UNL A   1      38.591  23.994  26.212  1.00  0.00     0.275 C 
BRANCH  29  30
ATOM     30  O   UNL A   1      39.353  24.680  27.247  1.00  0.00    -0.458 OA
BRANCH  30  31
ATOM     31  C   UNL A   1      40.080  25.736  26.849  1.00  0.00     0.338 C 
ATOM     32  O   UNL A   1      40.605  25.895  25.762  1.00  0.00    -0.246 OA
BRANCH  31  33
ATOM     33  C   UNL A   1      39.989  26.696  27.937  1.00  0.00     0.060 A 
ATOM     34  C   UNL A   1      40.130  27.940  27.496  1.00  0.00     0.016 A 
ATOM     35  C   UNL A   1      39.411  26.444  29.234  1.00  0.00     0.016 A 
ATOM     36  C   UNL A   1      39.827  28.818  28.502  1.00  0.00     0.010 A 
ATOM     37  C   UNL A   1      38.800  27.468  30.171  1.00  0.00     0.010 A 
ATOM     38  C   UNL A   1      39.314  28.797  30.144  1.00  0.00    -0.014 A 
BRANCH  38  39
ATOM     39  C   UNL A   1      40.646  29.503  31.528  1.00  0.00     0.031 A 
ATOM     40  C   UNL A   1      42.054  28.448  31.292  1.00  0.00     0.074 A 
ATOM     41  C   UNL A   1      40.510  31.426  31.816  1.00  0.00     0.049 A 
ATOM     42  N   UNL A   1      43.310  28.741  31.601  1.00  0.00    -0.248 NA
ATOM     43  C   UNL A   1      41.988  27.311  30.375  1.00  0.00     0.031 C 
ATOM     44  C   UNL A   1      41.441  32.701  30.845  1.00  0.00     0.029 A 
ATOM     45  N   UNL A   1      39.406  32.420  31.620  1.00  0.00    -0.354 N 
ATOM     46  C   UNL A   1      44.092  28.247  30.569  1.00  0.00     0.074 A 
ATOM     47  C   UNL A   1      43.287  27.140  30.079  1.00  0.00     0.031 C 
ATOM     48  C   UNL A   1      40.832  33.854  30.617  1.00  0.00     0.029 A 
ATOM     49  C   UNL A   1      39.791  33.773  31.514  1.00  0.00     0.049 A 
ATOM     50  H   UNL A   1      38.462  32.145  31.569  1.00  0.00     0.167 HD
ATOM     51  C   UNL A   1      45.120  28.967  29.975  1.00  0.00     0.034 A 
ATOM     52  C   UNL A   1      39.780  34.457  32.663  1.00  0.00     0.034 A 
ATOM     53  C   UNL A   1      45.215  30.452  30.356  1.00  0.00     0.049 A 
ATOM     54  C   UNL A   1      41.542  34.531  33.151  1.00  0.00     0.074 A 
ATOM     55  C   UNL A   1      45.224  31.605  29.563  1.00  0.00     0.029 A 
ATOM     56  N   UNL A   1      45.149  30.956  31.667  1.00  0.00    -0.354 N 
ATOM     57  N   UNL A   1      42.676  34.310  32.395  1.00  0.00    -0.248 NA
ATOM     58  C   UNL A   1      42.122  34.947  34.450  1.00  0.00     0.031 C 
ATOM     59  C   UNL A   1      45.109  32.775  30.378  1.00  0.00     0.029 A 
ATOM     60  C   UNL A   1      45.073  32.395  31.701  1.00  0.00     0.049 A 
ATOM     61  H   UNL A   1      45.154  30.389  32.472  1.00  0.00     0.167 HD
ATOM     62  C   UNL A   1      43.878  34.095  33.203  1.00  0.00     0.074 A 
ATOM     63  C   UNL A   1      43.449  34.693  34.445  1.00  0.00     0.031 C 
ATOM     64  C   UNL A   1      44.975  33.175  33.002  1.00  0.00     0.034 A 
BRANCH  51  65
ATOM     65  C   UNL A   1      46.019  28.466  28.778  1.00  0.00     0.023 A 
ATOM     66  C   UNL A   1      47.409  28.339  29.040  1.00  0.00     0.012 A 
ATOM     67  C   UNL A   1      45.648  28.071  27.462  1.00  0.00     0.148 A 
ATOM     68  C   UNL A   1      48.351  27.899  28.094  1.00  0.00     0.002 A 
ATOM     69  C   UNL A   1      46.577  27.570  26.529  1.00  0.00     0.091 A 
ATOM     70  F   UNL A   1      44.396  28.200  27.039  1.00  0.00    -0.205 F 
ATOM     71  C   UNL A   1      47.933  27.496  26.839  1.00  0.00     0.022 A 
BRANCH  69  72
ATOM     72  S   UNL A   1      46.103  26.957  24.892  1.00  0.00     0.127 S 
ATOM     73  O   UNL A   1      45.764  28.194  24.187  1.00  0.00    -0.237 OA
ATOM     74  O   UNL A   1      47.335  26.316  24.430  1.00  0.00    -0.237 OA
ATOM     75  O   UNL A   1      44.982  26.049  25.095  1.00  0.00    -0.744 OA
ENDBRANCH  69  72
ENDBRANCH  51  65
BRANCH  52  76
ATOM     76  C   UNL A   1      38.130  33.907  32.914  1.00  0.00     0.023 A 
ATOM     77  C   UNL A   1      37.817  33.415  34.228  1.00  0.00     0.012 A 
ATOM     78  C   UNL A   1      36.877  34.344  32.283  1.00  0.00     0.148 A 
ATOM     79  C   UNL A   1      36.492  33.440  34.791  1.00  0.00     0.002 A 
ATOM     80  C   UNL A   1      35.544  34.327  32.800  1.00  0.00     0.091 A 
ATOM     81  F   UNL A   1      36.966  34.750  31.045  1.00  0.00    -0.205 F 
ATOM     82  C   UNL A   1      35.376  33.900  34.093  1.00  0.00     0.022 A 
BRANCH  80  83
ATOM     83  S   UNL A   1      33.961  34.699  31.859  1.00  0.00     0.127 S 
ATOM     84  O   UNL A   1      32.945  34.244  32.800  1.00  0.00    -0.237 OA
ATOM     85  O   UNL A   1      34.039  36.151  31.679  1.00  0.00    -0.237 OA
ATOM     86  O   UNL A   1      33.980  34.033  30.572  1.00  0.00    -0.744 OA
ENDBRANCH  80  83
ENDBRANCH  52  76
BRANCH  64  87
ATOM     87  C   UNL A   1      45.965  32.611  34.127  1.00  0.00     0.023 A 
ATOM     88  C   UNL A   1      47.280  33.083  34.342  1.00  0.00     0.012 A 
ATOM     89  C   UNL A   1      45.499  31.684  35.124  1.00  0.00     0.148 A 
ATOM     90  C   UNL A   1      48.125  32.545  35.341  1.00  0.00     0.002 A 
ATOM     91  C   UNL A   1      46.317  31.212  36.163  1.00  0.00     0.091 A 
ATOM     92  F   UNL A   1      44.238  31.233  35.064  1.00  0.00    -0.205 F 
ATOM     93  C   UNL A   1      47.652  31.596  36.237  1.00  0.00     0.022 A 
BRANCH  91  94
ATOM     94  S   UNL A   1      45.703  30.118  37.467  1.00  0.00     0.127 S 
ATOM     95  O   UNL A   1      46.861  30.041  38.354  1.00  0.00    -0.237 OA
ATOM     96  O   UNL A   1      44.571  30.869  38.015  1.00  0.00    -0.237 OA
ATOM     97  O   UNL A   1      45.331  28.880  36.797  1.00  0.00    -0.744 OA
ENDBRANCH  91  94
ENDBRANCH  64  87
ENDBRANCH  38  39
ENDBRANCH  31  33
ENDBRANCH  30  31
ENDBRANCH  29  30
ENDBRANCH   1  29
TORSDOF 18
ENDMDL
MODEL 2
REMARK VINA RESULT:     -13.4      4.103      8.774
REMARK SMILES Cc1ccc(C(=O)N2CCCC[C@@H]2C(=O)OCCOC(=O)c2ccc(-c3c4nc(c(-c5cccc(S(=O)(=O)[O-])c5F)c5ccc([nH]5)c(-c5cccc(S(=O)(=O)[O-])c5F)c5nc(c(-c6cccc(S(=O)(=O)[O-])c6F)c6ccc3[nH]6)C=C5)C=C4)cc2)cc1S(=O)(=O)N1CCCCC1
REMARK SMILES IDX 17 1 16 2 14 3 15 4 13 5 8 6 9 7 10 8 12 9 11 10 6 11 7 12
REMARK SMILES IDX 5 13 1 14 2 15 3 16 86 17 4 18 85 19 87 20 88 21 89 22 90 23
REMARK SMILES IDX 91 24 95 25 92 26 94 27 93 28 18 29 19 30 20 31 21 32 22 33
REMARK SMILES IDX 23 34 84 35 24 36 83 37 25 38 26 39 27 40 77 41 28 42 82 43
REMARK SMILES IDX 76 44 78 45 29 46 81 47 75 48 74 49 30 51 62 52 42 53 61 54
REMARK SMILES IDX 43 55 46 56 60 57 79 58 44 59 45 60 59 62 80 63 47 64 31 65
REMARK SMILES IDX 32 66 40 67 33 68 35 69 41 70 34 71 36 72 37 73 38 74 39 75
REMARK SMILES IDX 63 76 64 77 72 78 65 79 67 80 73 81 66 82 68 83 69 84 70 85
REMARK SMILES IDX 71 86 48 87 49 88 57 89 50 90 52 91 58 92 51 93 53 94 54 95
REMARK SMILES IDX 55 96 56 97
REMARK H PARENT 78 50 46 61
REMARK Flexibility Score: inf
ROOT
ATOM      1  C   UNL A   1      37.929  23.428  26.090  1.00  0.00     0.274 C 
ENDROOT
BRANCH   1   2
ATOM      2  O   UNL A   1      36.438  23.595  25.875  1.00  0.00    -0.461 OA
BRANCH   2   3
ATOM      3  C   UNL A   1      35.743  23.390  24.727  1.00  0.00     0.328 C 
ATOM      4  O   UNL A   1      36.279  23.703  23.661  1.00  0.00    -0.250 OA
BRANCH   3   5
ATOM      5  C   UNL A   1      34.092  22.779  24.759  1.00  0.00     0.195 C 
ATOM      6  N   UNL A   1      32.600  22.962  25.646  1.00  0.00    -0.325 N 
ATOM      7  C   UNL A   1      31.735  21.765  25.762  1.00  0.00     0.121 C 
ATOM      8  C   UNL A   1      32.245  20.447  25.205  1.00  0.00     0.022 C 
ATOM      9  C   UNL A   1      34.292  21.332  24.271  1.00  0.00     0.037 C 
ATOM     10  C   UNL A   1      32.976  20.688  23.910  1.00  0.00     0.005 C 
BRANCH   6  11
ATOM     11  C   UNL A   1      31.558  24.323  25.853  1.00  0.00     0.254 C 
ATOM     12  O   UNL A   1      31.641  24.713  27.040  1.00  0.00    -0.269 OA
BRANCH  11  13
ATOM     13  C   UNL A   1      30.648  25.412  24.423  1.00  0.00     0.041 A 
ATOM     14  C   UNL A   1      34.085  28.333  23.647  1.00  0.00     0.046 C 
ATOM     15  C   UNL A   1      33.607  26.973  23.844  1.00  0.00    -0.031 A 
ATOM     16  C   UNL A   1      33.129  25.854  22.378  1.00  0.00     0.005 A 
ATOM     17  C   UNL A   1      32.599  27.352  25.265  1.00  0.00     0.086 A 
ATOM     18  C   UNL A   1      31.345  25.141  22.531  1.00  0.00     0.014 A 
ATOM     19  C   UNL A   1      31.303  26.584  25.506  1.00  0.00     0.035 A 
BRANCH  17  20
ATOM     20  S   UNL A   1      32.377  29.254  26.257  1.00  0.00     0.243 S 
ATOM     21  O   UNL A   1      31.774  30.170  25.303  1.00  0.00    -0.207 OA
ATOM     22  O   UNL A   1      31.644  28.936  27.472  1.00  0.00    -0.207 OA
BRANCH  20  23
ATOM     23  N   UNL A   1      34.043  30.245  26.945  1.00  0.00    -0.198 NA
ATOM     24  C   UNL A   1      34.804  29.243  27.805  1.00  0.00     0.102 C 
ATOM     25  C   UNL A   1      34.010  31.461  27.993  1.00  0.00     0.102 C 
ATOM     26  C   UNL A   1      36.158  29.852  28.329  1.00  0.00     0.017 C 
ATOM     27  C   UNL A   1      35.417  32.189  28.014  1.00  0.00     0.017 C 
ATOM     28  C   UNL A   1      36.557  31.224  27.778  1.00  0.00     0.003 C 
ENDBRANCH  20  23
ENDBRANCH  17  20
ENDBRANCH  11  13
ENDBRANCH   6  11
ENDBRANCH   3   5
ENDBRANCH   2   3
ENDBRANCH   1   2
BRANCH   1  29
ATOM     29  C   UNL A   1      38.775  24.180  27.202  1.00  0.00     0.275 C 
BRANCH  29  30
ATOM     30  O   UNL A   1      39.556  25.382  26.944  1.00  0.00    -0.458 OA
BRANCH  30  31
ATOM     31  C   UNL A   1      39.789  26.178  28.000  1.00  0.00     0.338 C 
ATOM     32  O   UNL A   1      39.291  26.089  29.107  1.00  0.00    -0.246 OA
BRANCH  31  33
ATOM     33  C   UNL A   1      40.853  27.073  27.577  1.00  0.00     0.060 A 
ATOM     34  C   UNL A   1      40.976  27.087  26.256  1.00  0.00     0.016 A 
ATOM     35  C   UNL A   1      41.429  28.129  28.373  1.00  0.00     0.016 A 
ATOM     36  C   UNL A   1      41.831  28.090  25.886  1.00  0.00     0.010 A 
ATOM     37  C   UNL A   1      42.098  29.391  27.861  1.00  0.00     0.010 A 
ATOM     38  C   UNL A   1      42.776  29.332  26.609  1.00  0.00    -0.014 A 
BRANCH  38  39
ATOM     39  C   UNL A   1      44.809  29.146  26.451  1.00  0.00     0.031 A 
ATOM     40  C   UNL A   1      45.370  30.823  26.596  1.00  0.00     0.074 A 
ATOM     41  C   UNL A   1      45.491  27.487  27.216  1.00  0.00     0.049 A 
ATOM     42  N   UNL A   1      46.572  31.213  26.997  1.00  0.00    -0.248 NA
ATOM     43  C   UNL A   1      44.412  31.927  26.651  1.00  0.00     0.031 C 
ATOM     44  C   UNL A   1      46.002  27.280  28.984  1.00  0.00     0.029 A 
ATOM     45  N   UNL A   1      44.876  26.146  27.478  1.00  0.00    -0.354 N 
ATOM     46  C   UNL A   1      46.375  32.321  27.806  1.00  0.00     0.074 A 
ATOM     47  C   UNL A   1      45.138  32.870  27.276  1.00  0.00     0.031 C 
ATOM     48  C   UNL A   1      45.784  26.101  29.544  1.00  0.00     0.029 A 
ATOM     49  C   UNL A   1      45.527  25.333  28.431  1.00  0.00     0.049 A 
ATOM     50  H   UNL A   1      44.063  25.847  27.010  1.00  0.00     0.167 HD
ATOM     51  C   UNL A   1      47.006  32.497  29.030  1.00  0.00     0.034 A 
ATOM     52  C   UNL A   1      46.422  24.477  27.927  1.00  0.00     0.034 A 
ATOM     53  C   UNL A   1      47.775  31.285  29.577  1.00  0.00     0.049 A 
ATOM     54  C   UNL A   1      48.035  25.272  28.268  1.00  0.00     0.074 A 
ATOM     55  C   UNL A   1      47.675  30.607  30.797  1.00  0.00     0.029 A 
ATOM     56  N   UNL A   1      48.670  30.494  28.835  1.00  0.00    -0.354 N 
ATOM     57  N   UNL A   1      48.348  26.287  29.149  1.00  0.00    -0.248 NA
ATOM     58  C   UNL A   1      49.369  24.913  27.733  1.00  0.00     0.031 C 
ATOM     59  C   UNL A   1      48.449  29.404  30.767  1.00  0.00     0.029 A 
ATOM     60  C   UNL A   1      49.091  29.317  29.553  1.00  0.00     0.049 A 
ATOM     61  H   UNL A   1      48.974  30.718  27.925  1.00  0.00     0.167 HD
ATOM     62  C   UNL A   1      49.647  26.906  28.881  1.00  0.00     0.074 A 
ATOM     63  C   UNL A   1      50.263  25.856  28.104  1.00  0.00     0.031 C 
ATOM     64  C   UNL A   1      50.043  28.294  28.955  1.00  0.00     0.034 A 
BRANCH  51  65
ATOM     65  C   UNL A   1      46.795  33.721  30.004  1.00  0.00     0.023 A 
ATOM     66  C   UNL A   1      47.969  34.358  30.485  1.00  0.00     0.012 A 
ATOM     67  C   UNL A   1      45.590  34.331  30.454  1.00  0.00     0.148 A 
ATOM     68  C   UNL A   1      47.965  35.466  31.351  1.00  0.00     0.002 A 
ATOM     69  C   UNL A   1      45.579  35.479  31.270  1.00  0.00     0.091 A 
ATOM     70  F   UNL A   1      44.407  33.809  30.150  1.00  0.00    -0.205 F 
ATOM     71  C   UNL A   1      46.767  36.040  31.732  1.00  0.00     0.022 A 
BRANCH  69  72
ATOM     72  S   UNL A   1      44.057  36.332  31.757  1.00  0.00     0.127 S 
ATOM     73  O   UNL A   1      44.570  37.452  32.547  1.00  0.00    -0.237 OA
ATOM     74  O   UNL A   1      43.486  36.714  30.465  1.00  0.00    -0.237 OA
ATOM     75  O   UNL A   1      43.264  35.371  32.514  1.00  0.00    -0.744 OA
ENDBRANCH  69  72
ENDBRANCH  51  65
BRANCH  52  76
ATOM     76  C   UNL A   1      45.181  23.913  26.817  1.00  0.00     0.023 A 
ATOM     77  C   UNL A   1      45.479  24.039  25.416  1.00  0.00     0.012 A 
ATOM     78  C   UNL A   1      44.176  22.854  26.975  1.00  0.00     0.148 A 
ATOM     79  C   UNL A   1      44.904  23.191  24.404  1.00  0.00     0.002 A 
ATOM     80  C   UNL A   1      43.551  22.038  25.981  1.00  0.00     0.091 A 
ATOM     81  F   UNL A   1      43.729  22.659  28.187  1.00  0.00    -0.205 F 
ATOM     82  C   UNL A   1      43.965  22.199  24.683  1.00  0.00     0.022 A 
BRANCH  80  83
ATOM     83  S   UNL A   1      42.115  20.851  26.231  1.00  0.00     0.127 S 
ATOM     84  O   UNL A   1      42.224  20.554  27.653  1.00  0.00    -0.237 OA
ATOM     85  O   UNL A   1      40.963  21.671  25.850  1.00  0.00    -0.237 OA
ATOM     86  O   UNL A   1      42.243  19.721  25.333  1.00  0.00    -0.744 OA
ENDBRANCH  80  83
ENDBRANCH  52  76
BRANCH  64  87
ATOM     87  C   UNL A   1      51.265  28.980  28.180  1.00  0.00     0.023 A 
ATOM     88  C   UNL A   1      52.543  29.203  28.742  1.00  0.00     0.012 A 
ATOM     89  C   UNL A   1      51.183  29.260  26.770  1.00  0.00     0.148 A 
ATOM     90  C   UNL A   1      53.590  29.826  28.023  1.00  0.00     0.002 A 
ATOM     91  C   UNL A   1      52.252  29.804  26.040  1.00  0.00     0.091 A 
ATOM     92  F   UNL A   1      50.041  29.008  26.115  1.00  0.00    -0.205 F 
ATOM     93  C   UNL A   1      53.439  30.145  26.680  1.00  0.00     0.022 A 
BRANCH  91  94
ATOM     94  S   UNL A   1      52.176  30.069  24.252  1.00  0.00     0.127 S 
ATOM     95  O   UNL A   1      51.292  28.983  23.833  1.00  0.00    -0.237 OA
ATOM     96  O   UNL A   1      51.585  31.404  24.146  1.00  0.00    -0.237 OA
ATOM     97  O   UNL A   1      53.552  29.984  23.784  1.00  0.00    -0.744 OA
ENDBRANCH  91  94
ENDBRANCH  64  87
ENDBRANCH  38  39
ENDBRANCH  31  33
ENDBRANCH  30  31
ENDBRANCH  29  30
ENDBRANCH   1  29
TORSDOF 18
ENDMDL
MODEL 3
REMARK VINA RESULT:     -13.2      5.552     13.393
REMARK SMILES Cc1ccc(C(=O)N2CCCC[C@@H]2C(=O)OCCOC(=O)c2ccc(-c3c4nc(c(-c5cccc(S(=O)(=O)[O-])c5F)c5ccc([nH]5)c(-c5cccc(S(=O)(=O)[O-])c5F)c5nc(c(-c6cccc(S(=O)(=O)[O-])c6F)c6ccc3[nH]6)C=C5)C=C4)cc2)cc1S(=O)(=O)N1CCCCC1
REMARK SMILES IDX 17 1 16 2 14 3 15 4 13 5 8 6 9 7 10 8 12 9 11 10 6 11 7 12
REMARK SMILES IDX 5 13 1 14 2 15 3 16 86 17 4 18 85 19 87 20 88 21 89 22 90 23
REMARK SMILES IDX 91 24 95 25 92 26 94 27 93 28 18 29 19 30 20 31 21 32 22 33
REMARK SMILES IDX 23 34 84 35 24 36 83 37 25 38 26 39 27 40 77 41 28 42 82 43
REMARK SMILES IDX 76 44 78 45 29 46 81 47 75 48 74 49 30 51 62 52 42 53 61 54
REMARK SMILES IDX 43 55 46 56 60 57 79 58 44 59 45 60 59 62 80 63 47 64 31 65
REMARK SMILES IDX 32 66 40 67 33 68 35 69 41 70 34 71 36 72 37 73 38 74 39 75
REMARK SMILES IDX 63 76 64 77 72 78 65 79 67 80 73 81 66 82 68 83 69 84 70 85
REMARK SMILES IDX 71 86 48 87 49 88 57 89 50 90 52 91 58 92 51 93 53 94 54 95
REMARK SMILES IDX 55 96 56 97
REMARK H PARENT 78 50 46 61
REMARK Flexibility Score: inf
ROOT
ATOM      1  C   UNL A   1      38.706  32.456  41.087  1.00  0.00     0.274 C 
ENDROOT
BRANCH   1   2
ATOM      2  O   UNL A   1      37.909  31.523  41.977  1.00  0.00    -0.461 OA
BRANCH   2   3
ATOM      3  C   UNL A   1      38.347  30.392  42.585  1.00  0.00     0.328 C 
ATOM      4  O   UNL A   1      38.153  29.314  42.017  1.00  0.00    -0.250 OA
BRANCH   3   5
ATOM      5  C   UNL A   1      39.092  30.447  44.180  1.00  0.00     0.195 C 
ATOM      6  N   UNL A   1      40.504  29.877  45.033  1.00  0.00    -0.325 N 
ATOM      7  C   UNL A   1      40.344  29.576  46.474  1.00  0.00     0.121 C 
ATOM      8  C   UNL A   1      38.957  29.675  47.085  1.00  0.00     0.022 C 
ATOM      9  C   UNL A   1      37.853  30.492  45.095  1.00  0.00     0.037 C 
ATOM     10  C   UNL A   1      38.228  30.861  46.509  1.00  0.00     0.005 C 
BRANCH   6  11
ATOM     11  C   UNL A   1      42.183  30.203  44.799  1.00  0.00     0.254 C 
ATOM     12  O   UNL A   1      42.639  29.380  43.973  1.00  0.00    -0.269 OA
BRANCH  11  13
ATOM     13  C   UNL A   1      43.220  31.829  45.383  1.00  0.00     0.041 A 
ATOM     14  C   UNL A   1      40.341  34.976  43.726  1.00  0.00     0.046 C 
ATOM     15  C   UNL A   1      40.572  33.745  44.467  1.00  0.00    -0.031 A 
ATOM     16  C   UNL A   1      40.785  33.737  46.360  1.00  0.00     0.005 A 
ATOM     17  C   UNL A   1      41.685  33.034  43.269  1.00  0.00     0.086 A 
ATOM     18  C   UNL A   1      42.415  32.880  46.927  1.00  0.00     0.014 A 
ATOM     19  C   UNL A   1      42.829  32.137  43.731  1.00  0.00     0.035 A 
BRANCH  17  20
ATOM     20  S   UNL A   1      42.285  33.860  41.369  1.00  0.00     0.243 S 
ATOM     21  O   UNL A   1      43.497  34.628  41.597  1.00  0.00    -0.207 OA
ATOM     22  O   UNL A   1      42.349  32.706  40.486  1.00  0.00    -0.207 OA
BRANCH  20  23
ATOM     23  N   UNL A   1      41.029  35.155  40.380  1.00  0.00    -0.198 NA
ATOM     24  C   UNL A   1      41.469  35.137  38.921  1.00  0.00     0.102 C 
ATOM     25  C   UNL A   1      41.014  36.746  40.590  1.00  0.00     0.102 C 
ATOM     26  C   UNL A   1      40.526  36.027  38.028  1.00  0.00     0.017 C 
ATOM     27  C   UNL A   1      39.706  37.360  39.941  1.00  0.00     0.017 C 
ATOM     28  C   UNL A   1      39.279  36.604  38.704  1.00  0.00     0.003 C 
ENDBRANCH  20  23
ENDBRANCH  17  20
ENDBRANCH  11  13
ENDBRANCH   6  11
ENDBRANCH   3   5
ENDBRANCH   2   3
ENDBRANCH   1   2
BRANCH   1  29
ATOM     29  C   UNL A   1      38.110  33.271  39.862  1.00  0.00     0.275 C 
BRANCH  29  30
ATOM     30  O   UNL A   1      38.408  32.964  38.470  1.00  0.00    -0.458 OA
BRANCH  30  31
ATOM     31  C   UNL A   1      37.386  33.066  37.606  1.00  0.00     0.338 C 
ATOM     32  O   UNL A   1      36.198  33.061  37.874  1.00  0.00    -0.246 OA
BRANCH  31  33
ATOM     33  C   UNL A   1      38.000  33.319  36.313  1.00  0.00     0.060 A 
ATOM     34  C   UNL A   1      37.200  34.029  35.528  1.00  0.00     0.016 A 
ATOM     35  C   UNL A   1      39.409  33.219  36.018  1.00  0.00     0.016 A 
ATOM     36  C   UNL A   1      37.887  34.428  34.414  1.00  0.00     0.010 A 
ATOM     37  C   UNL A   1      40.163  33.959  34.930  1.00  0.00     0.010 A 
ATOM     38  C   UNL A   1      39.463  34.296  33.735  1.00  0.00    -0.014 A 
BRANCH  38  39
ATOM     39  C   UNL A   1      39.626  33.213  32.006  1.00  0.00     0.031 A 
ATOM     40  C   UNL A   1      41.152  32.336  32.234  1.00  0.00     0.074 A 
ATOM     41  C   UNL A   1      37.905  32.641  31.290  1.00  0.00     0.049 A 
ATOM     42  N   UNL A   1      41.496  31.201  31.643  1.00  0.00    -0.248 NA
ATOM     43  C   UNL A   1      41.999  32.605  33.395  1.00  0.00     0.031 C 
ATOM     44  C   UNL A   1      37.056  31.057  31.741  1.00  0.00     0.029 A 
ATOM     45  N   UNL A   1      36.507  33.161  31.434  1.00  0.00    -0.354 N 
ATOM     46  C   UNL A   1      42.136  30.436  32.607  1.00  0.00     0.074 A 
ATOM     47  C   UNL A   1      42.688  31.454  33.487  1.00  0.00     0.031 C 
ATOM     48  C   UNL A   1      35.734  31.070  31.788  1.00  0.00     0.029 A 
ATOM     49  C   UNL A   1      35.467  32.255  31.139  1.00  0.00     0.049 A 
ATOM     50  H   UNL A   1      36.323  34.086  31.719  1.00  0.00     0.167 HD
ATOM     51  C   UNL A   1      41.873  29.089  32.815  1.00  0.00     0.034 A 
ATOM     52  C   UNL A   1      35.019  32.297  29.879  1.00  0.00     0.034 A 
ATOM     53  C   UNL A   1      40.656  28.514  32.075  1.00  0.00     0.049 A 
ATOM     54  C   UNL A   1      35.808  30.852  29.080  1.00  0.00     0.074 A 
ATOM     55  C   UNL A   1      39.529  27.835  32.550  1.00  0.00     0.029 A 
ATOM     56  N   UNL A   1      40.366  28.720  30.715  1.00  0.00    -0.354 N 
ATOM     57  N   UNL A   1      36.401  29.744  29.651  1.00  0.00    -0.248 NA
ATOM     58  C   UNL A   1      35.880  30.523  27.637  1.00  0.00     0.031 C 
ATOM     59  C   UNL A   1      38.558  27.686  31.510  1.00  0.00     0.029 A 
ATOM     60  C   UNL A   1      39.064  28.221  30.347  1.00  0.00     0.049 A 
ATOM     61  H   UNL A   1      40.983  29.156  30.083  1.00  0.00     0.167 HD
ATOM     62  C   UNL A   1      37.240  28.990  28.718  1.00  0.00     0.074 A 
ATOM     63  C   UNL A   1      36.695  29.459  27.466  1.00  0.00     0.031 C 
ATOM     64  C   UNL A   1      38.513  28.342  28.936  1.00  0.00     0.034 A 
BRANCH  51  65
ATOM     65  C   UNL A   1      42.548  28.182  33.916  1.00  0.00     0.023 A 
ATOM     66  C   UNL A   1      42.111  28.379  35.254  1.00  0.00     0.012 A 
ATOM     67  C   UNL A   1      43.512  27.144  33.778  1.00  0.00     0.148 A 
ATOM     68  C   UNL A   1      42.598  27.654  36.355  1.00  0.00     0.002 A 
ATOM     69  C   UNL A   1      43.957  26.371  34.868  1.00  0.00     0.091 A 
ATOM     70  F   UNL A   1      44.072  26.886  32.602  1.00  0.00    -0.205 F 
ATOM     71  C   UNL A   1      43.511  26.633  36.162  1.00  0.00     0.022 A 
BRANCH  69  72
ATOM     72  S   UNL A   1      45.097  24.975  34.692  1.00  0.00     0.127 S 
ATOM     73  O   UNL A   1      46.326  25.634  34.249  1.00  0.00    -0.237 OA
ATOM     74  O   UNL A   1      45.152  24.442  36.054  1.00  0.00    -0.237 OA
ATOM     75  O   UNL A   1      44.505  24.075  33.709  1.00  0.00    -0.744 OA
ENDBRANCH  69  72
ENDBRANCH  51  65
BRANCH  52  76
ATOM     76  C   UNL A   1      34.806  34.031  30.069  1.00  0.00     0.023 A 
ATOM     77  C   UNL A   1      34.713  34.796  28.855  1.00  0.00     0.012 A 
ATOM     78  C   UNL A   1      34.151  34.797  31.139  1.00  0.00     0.148 A 
ATOM     79  C   UNL A   1      34.022  36.056  28.761  1.00  0.00     0.002 A 
ATOM     80  C   UNL A   1      33.508  36.072  31.082  1.00  0.00     0.091 A 
ATOM     81  F   UNL A   1      34.213  34.280  32.337  1.00  0.00    -0.205 F 
ATOM     82  C   UNL A   1      33.419  36.678  29.854  1.00  0.00     0.022 A 
BRANCH  80  83
ATOM     83  S   UNL A   1      32.883  37.089  32.533  1.00  0.00     0.127 S 
ATOM     84  O   UNL A   1      33.892  36.808  33.546  1.00  0.00    -0.237 OA
ATOM     85  O   UNL A   1      32.903  38.450  31.992  1.00  0.00    -0.237 OA
ATOM     86  O   UNL A   1      31.525  36.702  32.862  1.00  0.00    -0.744 OA
ENDBRANCH  80  83
ENDBRANCH  52  76
BRANCH  64  87
ATOM     87  C   UNL A   1      39.611  27.998  27.822  1.00  0.00     0.023 A 
ATOM     88  C   UNL A   1      40.188  28.949  26.950  1.00  0.00     0.012 A 
ATOM     89  C   UNL A   1      40.217  26.694  27.759  1.00  0.00     0.148 A 
ATOM     90  C   UNL A   1      41.146  28.597  25.970  1.00  0.00     0.002 A 
ATOM     91  C   UNL A   1      41.226  26.369  26.838  1.00  0.00     0.091 A 
ATOM     92  F   UNL A   1      39.803  25.735  28.599  1.00  0.00    -0.205 F 
ATOM     93  C   UNL A   1      41.649  27.305  25.900  1.00  0.00     0.022 A 
BRANCH  91  94
ATOM     94  S   UNL A   1      42.049  24.758  26.822  1.00  0.00     0.127 S 
ATOM     95  O   UNL A   1      43.255  25.054  26.052  1.00  0.00    -0.237 OA
ATOM     96  O   UNL A   1      42.289  24.501  28.244  1.00  0.00    -0.237 OA
ATOM     97  O   UNL A   1      41.105  23.842  26.199  1.00  0.00    -0.744 OA
ENDBRANCH  91  94
ENDBRANCH  64  87
ENDBRANCH  38  39
ENDBRANCH  31  33
ENDBRANCH  30  31
ENDBRANCH  29  30
ENDBRANCH   1  29
TORSDOF 18
ENDMDL
