MODEL 1
REMARK VINA RESULT:     -12.6      0.000      0.000
REMARK SMILES Cc1cc(F)cc(NC(=O)N[C@@H]2COC[C@H]2C(=O)OCCOC(=O)c2ccc(-c3c4nc(c(-c5cccc(S(=O)(=O)[O-])c5F)c5ccc([nH]5)c(-c5cccc(S(=O)(=O)[O-])c5F)c5nc(c(-c6cccc(S(=O)(=O)[O-])c6F)c6ccc3[nH]6)C=C5)C=C4)cc2)c1
REMARK SMILES IDX 21 1 20 2 19 3 17 4 18 5 16 6 12 7 13 8 14 9 15 10 11 11
REMARK SMILES IDX 8 12 9 13 10 15 7 17 1 18 2 19 3 20 88 21 4 22 5 23 6 24
REMARK SMILES IDX 22 25 23 26 24 27 25 28 26 29 87 30 27 31 86 32 28 33 29 34
REMARK SMILES IDX 30 35 80 36 31 37 85 38 79 39 81 40 32 41 84 42 78 43 77 44
REMARK SMILES IDX 33 46 65 47 45 48 64 49 46 50 49 51 63 52 82 53 47 54 48 55
REMARK SMILES IDX 62 57 83 58 50 59 34 60 35 61 43 62 36 63 38 64 44 65 37 66
REMARK SMILES IDX 39 67 40 68 41 69 42 70 66 71 67 72 75 73 68 74 70 75 76 76
REMARK SMILES IDX 69 77 71 78 72 79 73 80 74 81 51 82 52 83 60 84 53 85 55 86
REMARK SMILES IDX 61 87 54 88 56 89 57 90 58 91 59 92
REMARK H PARENT 8 14 11 16 81 45 49 56
REMARK Flexibility Score: inf
ROOT
ATOM      1  C   UNL A   1      36.633  20.252  25.003  1.00  0.00     0.275 C 
ENDROOT
BRANCH   1   2
ATOM      2  C   UNL A   1      35.187  20.604  25.363  1.00  0.00     0.274 C 
BRANCH   2   3
ATOM      3  O   UNL A   1      34.249  19.805  24.616  1.00  0.00    -0.462 OA
BRANCH   3   4
ATOM      4  C   UNL A   1      32.988  19.744  25.114  1.00  0.00     0.313 C 
ATOM      5  O   UNL A   1      32.630  18.978  26.002  1.00  0.00    -0.252 OA
BRANCH   4   6
ATOM      6  C   UNL A   1      32.017  20.666  24.420  1.00  0.00     0.150 C 
ATOM      7  C   UNL A   1      31.883  22.069  24.969  1.00  0.00     0.126 C 
ATOM      8  C   UNL A   1      31.804  22.991  23.763  1.00  0.00     0.186 C 
ATOM      9  O   UNL A   1      32.169  22.231  22.606  1.00  0.00    -0.378 OA
ATOM     10  C   UNL A   1      32.489  20.888  22.996  1.00  0.00     0.177 C 
BRANCH   7  11
ATOM     11  N   UNL A   1      30.881  22.311  26.005  1.00  0.00    -0.332 N 
ATOM     12  N   UNL A   1      30.343  24.538  26.760  1.00  0.00    -0.308 N 
ATOM     13  C   UNL A   1      30.304  23.213  26.777  1.00  0.00     0.319 C 
ATOM     14  H   UNL A   1      29.737  24.876  27.460  1.00  0.00     0.171 HD
ATOM     15  O   UNL A   1      29.534  22.738  27.628  1.00  0.00    -0.248 OA
ATOM     16  H   UNL A   1      30.467  21.443  26.215  1.00  0.00     0.165 HD
BRANCH  12  17
ATOM     17  C   UNL A   1      30.926  25.635  26.117  1.00  0.00     0.046 A 
ATOM     18  C   UNL A   1      29.808  27.941  23.259  1.00  0.00     0.044 C 
ATOM     19  C   UNL A   1      30.637  27.320  24.345  1.00  0.00    -0.046 A 
ATOM     20  C   UNL A   1      31.911  27.815  24.618  1.00  0.00     0.042 A 
ATOM     21  C   UNL A   1      30.162  26.227  25.090  1.00  0.00     0.029 A 
ATOM     22  C   UNL A   1      32.647  27.255  25.651  1.00  0.00     0.125 A 
ATOM     23  F   UNL A   1      33.861  27.747  25.934  1.00  0.00    -0.207 F 
ATOM     24  C   UNL A   1      32.150  26.197  26.408  1.00  0.00     0.065 A 
ENDBRANCH  12  17
ENDBRANCH   7  11
ENDBRANCH   4   6
ENDBRANCH   3   4
ENDBRANCH   2   3
ENDBRANCH   1   2
BRANCH   1  25
ATOM     25  O   UNL A   1      37.524  21.366  25.190  1.00  0.00    -0.458 OA
BRANCH  25  26
ATOM     26  C   UNL A   1      38.715  21.060  25.755  1.00  0.00     0.338 C 
ATOM     27  O   UNL A   1      39.262  19.965  25.762  1.00  0.00    -0.246 OA
BRANCH  26  28
ATOM     28  C   UNL A   1      39.328  22.275  26.313  1.00  0.00     0.060 A 
ATOM     29  C   UNL A   1      38.835  23.526  25.931  1.00  0.00     0.016 A 
ATOM     30  C   UNL A   1      40.447  22.179  27.140  1.00  0.00     0.016 A 
ATOM     31  C   UNL A   1      39.487  24.690  26.340  1.00  0.00     0.010 A 
ATOM     32  C   UNL A   1      41.084  23.346  27.569  1.00  0.00     0.010 A 
ATOM     33  C   UNL A   1      40.626  24.610  27.155  1.00  0.00    -0.014 A 
BRANCH  33  34
ATOM     34  C   UNL A   1      41.357  25.836  27.566  1.00  0.00     0.031 A 
ATOM     35  C   UNL A   1      40.647  26.914  28.340  1.00  0.00     0.074 A 
ATOM     36  C   UNL A   1      42.641  26.008  27.198  1.00  0.00     0.049 A 
ATOM     37  N   UNL A   1      41.073  28.105  28.674  1.00  0.00    -0.248 NA
ATOM     38  C   UNL A   1      39.279  26.616  28.791  1.00  0.00     0.031 C 
ATOM     39  C   UNL A   1      43.437  25.046  26.436  1.00  0.00     0.029 A 
ATOM     40  N   UNL A   1      43.489  27.071  27.385  1.00  0.00    -0.354 N 
ATOM     41  C   UNL A   1      40.016  28.714  29.342  1.00  0.00     0.074 A 
ATOM     42  C   UNL A   1      38.926  27.760  29.359  1.00  0.00     0.031 C 
ATOM     43  C   UNL A   1      44.645  25.576  26.189  1.00  0.00     0.029 A 
ATOM     44  C   UNL A   1      44.699  26.925  26.746  1.00  0.00     0.049 A 
ATOM     45  H   UNL A   1      43.255  27.862  27.923  1.00  0.00     0.167 HD
ATOM     46  C   UNL A   1      39.964  29.944  29.906  1.00  0.00     0.034 A 
ATOM     47  C   UNL A   1      45.722  27.788  26.597  1.00  0.00     0.034 A 
ATOM     48  C   UNL A   1      41.059  30.879  29.920  1.00  0.00     0.049 A 
ATOM     49  C   UNL A   1      45.639  29.149  27.234  1.00  0.00     0.074 A 
ATOM     50  C   UNL A   1      41.108  32.137  30.497  1.00  0.00     0.029 A 
ATOM     51  N   UNL A   1      42.296  30.660  29.336  1.00  0.00    -0.354 N 
ATOM     52  N   UNL A   1      44.671  29.668  27.949  1.00  0.00    -0.248 NA
ATOM     53  C   UNL A   1      46.804  30.033  27.071  1.00  0.00     0.031 C 
ATOM     54  C   UNL A   1      42.375  32.680  30.258  1.00  0.00     0.029 A 
ATOM     55  C   UNL A   1      43.118  31.756  29.542  1.00  0.00     0.049 A 
ATOM     56  H   UNL A   1      42.554  29.846  28.847  1.00  0.00     0.167 HD
ATOM     57  C   UNL A   1      45.118  30.924  28.343  1.00  0.00     0.074 A 
ATOM     58  C   UNL A   1      46.456  31.078  27.811  1.00  0.00     0.031 C 
ATOM     59  C   UNL A   1      44.471  31.874  29.062  1.00  0.00     0.034 A 
BRANCH  46  60
ATOM     60  C   UNL A   1      38.694  30.338  30.611  1.00  0.00     0.023 A 
ATOM     61  C   UNL A   1      38.545  30.034  31.980  1.00  0.00     0.012 A 
ATOM     62  C   UNL A   1      37.687  31.070  29.952  1.00  0.00     0.148 A 
ATOM     63  C   UNL A   1      37.406  30.432  32.677  1.00  0.00     0.002 A 
ATOM     64  C   UNL A   1      36.570  31.495  30.663  1.00  0.00     0.091 A 
ATOM     65  F   UNL A   1      37.837  31.333  28.646  1.00  0.00    -0.205 F 
ATOM     66  C   UNL A   1      36.425  31.171  32.022  1.00  0.00     0.022 A 
BRANCH  64  67
ATOM     67  S   UNL A   1      35.285  32.515  29.928  1.00  0.00     0.127 S 
ATOM     68  O   UNL A   1      34.380  32.712  31.060  1.00  0.00    -0.237 OA
ATOM     69  O   UNL A   1      36.029  33.711  29.527  1.00  0.00    -0.237 OA
ATOM     70  O   UNL A   1      34.744  31.740  28.821  1.00  0.00    -0.744 OA
ENDBRANCH  64  67
ENDBRANCH  46  60
BRANCH  47  71
ATOM     71  C   UNL A   1      46.932  27.377  25.831  1.00  0.00     0.023 A 
ATOM     72  C   UNL A   1      47.905  26.574  26.454  1.00  0.00     0.012 A 
ATOM     73  C   UNL A   1      47.110  27.753  24.486  1.00  0.00     0.148 A 
ATOM     74  C   UNL A   1      49.049  26.175  25.760  1.00  0.00     0.002 A 
ATOM     75  C   UNL A   1      48.223  27.307  23.783  1.00  0.00     0.091 A 
ATOM     76  F   UNL A   1      46.185  28.539  23.915  1.00  0.00    -0.205 F 
ATOM     77  C   UNL A   1      49.202  26.531  24.422  1.00  0.00     0.022 A 
BRANCH  75  78
ATOM     78  S   UNL A   1      48.418  27.611  22.023  1.00  0.00     0.127 S 
ATOM     79  O   UNL A   1      49.584  28.490  21.999  1.00  0.00    -0.237 OA
ATOM     80  O   UNL A   1      48.653  26.264  21.501  1.00  0.00    -0.237 OA
ATOM     81  O   UNL A   1      47.158  28.203  21.595  1.00  0.00    -0.744 OA
ENDBRANCH  75  78
ENDBRANCH  47  71
BRANCH  59  82
ATOM     82  C   UNL A   1      45.205  33.157  29.347  1.00  0.00     0.023 A 
ATOM     83  C   UNL A   1      45.995  33.262  30.509  1.00  0.00     0.012 A 
ATOM     84  C   UNL A   1      45.171  34.230  28.434  1.00  0.00     0.148 A 
ATOM     85  C   UNL A   1      46.719  34.425  30.771  1.00  0.00     0.002 A 
ATOM     86  C   UNL A   1      45.927  35.370  28.681  1.00  0.00     0.091 A 
ATOM     87  F   UNL A   1      44.396  34.120  27.345  1.00  0.00    -0.205 F 
ATOM     88  C   UNL A   1      46.694  35.473  29.854  1.00  0.00     0.022 A 
BRANCH  86  89
ATOM     89  S   UNL A   1      46.019  36.732  27.513  1.00  0.00     0.127 S 
ATOM     90  O   UNL A   1      46.980  37.620  28.164  1.00  0.00    -0.237 OA
ATOM     91  O   UNL A   1      46.517  36.076  26.304  1.00  0.00    -0.237 OA
ATOM     92  O   UNL A   1      44.661  37.248  27.400  1.00  0.00    -0.744 OA
ENDBRANCH  86  89
ENDBRANCH  59  82
ENDBRANCH  33  34
ENDBRANCH  26  28
ENDBRANCH  25  26
ENDBRANCH   1  25
TORSDOF 16
ENDMDL
MODEL 2
REMARK VINA RESULT:     -12.6      1.345      2.050
REMARK SMILES Cc1cc(F)cc(NC(=O)N[C@@H]2COC[C@H]2C(=O)OCCOC(=O)c2ccc(-c3c4nc(c(-c5cccc(S(=O)(=O)[O-])c5F)c5ccc([nH]5)c(-c5cccc(S(=O)(=O)[O-])c5F)c5nc(c(-c6cccc(S(=O)(=O)[O-])c6F)c6ccc3[nH]6)C=C5)C=C4)cc2)c1
REMARK SMILES IDX 21 1 20 2 19 3 17 4 18 5 16 6 12 7 13 8 14 9 15 10 11 11
REMARK SMILES IDX 8 12 9 13 10 15 7 17 1 18 2 19 3 20 88 21 4 22 5 23 6 24
REMARK SMILES IDX 22 25 23 26 24 27 25 28 26 29 87 30 27 31 86 32 28 33 29 34
REMARK SMILES IDX 30 35 80 36 31 37 85 38 79 39 81 40 32 41 84 42 78 43 77 44
REMARK SMILES IDX 33 46 65 47 45 48 64 49 46 50 49 51 63 52 82 53 47 54 48 55
REMARK SMILES IDX 62 57 83 58 50 59 34 60 35 61 43 62 36 63 38 64 44 65 37 66
REMARK SMILES IDX 39 67 40 68 41 69 42 70 66 71 67 72 75 73 68 74 70 75 76 76
REMARK SMILES IDX 69 77 71 78 72 79 73 80 74 81 51 82 52 83 60 84 53 85 55 86
REMARK SMILES IDX 61 87 54 88 56 89 57 90 58 91 59 92
REMARK H PARENT 8 14 11 16 81 45 49 56
REMARK Flexibility Score: inf
ROOT
ATOM      1  C   UNL A   1      36.651  20.400  24.878  1.00  0.00     0.275 C 
ENDROOT
BRANCH   1   2
ATOM      2  C   UNL A   1      35.133  20.572  24.976  1.00  0.00     0.274 C 
BRANCH   2   3
ATOM      3  O   UNL A   1      34.684  21.720  24.231  1.00  0.00    -0.462 OA
BRANCH   3   4
ATOM      4  C   UNL A   1      33.343  21.825  24.046  1.00  0.00     0.313 C 
ATOM      5  O   UNL A   1      32.608  20.887  23.756  1.00  0.00    -0.252 OA
BRANCH   4   6
ATOM      6  C   UNL A   1      32.826  23.237  24.154  1.00  0.00     0.150 C 
ATOM      7  C   UNL A   1      31.873  23.709  23.079  1.00  0.00     0.126 C 
ATOM      8  C   UNL A   1      30.791  24.506  23.789  1.00  0.00     0.186 C 
ATOM      9  O   UNL A   1      30.924  24.269  25.195  1.00  0.00    -0.378 OA
ATOM     10  C   UNL A   1      32.010  23.360  25.427  1.00  0.00     0.177 C 
BRANCH   7  11
ATOM     11  N   UNL A   1      32.436  24.344  21.889  1.00  0.00    -0.332 N 
ATOM     12  N   UNL A   1      32.680  26.738  21.718  1.00  0.00    -0.308 N 
ATOM     13  C   UNL A   1      32.702  25.485  21.282  1.00  0.00     0.319 C 
ATOM     14  H   UNL A   1      32.995  27.324  20.992  1.00  0.00     0.171 HD
ATOM     15  O   UNL A   1      33.111  25.359  20.117  1.00  0.00    -0.248 OA
ATOM     16  H   UNL A   1      32.742  23.622  21.294  1.00  0.00     0.165 HD
BRANCH  12  17
ATOM     17  C   UNL A   1      32.375  27.534  22.826  1.00  0.00     0.046 A 
ATOM     18  C   UNL A   1      33.951  27.971  26.299  1.00  0.00     0.044 C 
ATOM     19  C   UNL A   1      33.026  28.122  25.127  1.00  0.00    -0.046 A 
ATOM     20  C   UNL A   1      31.929  28.978  25.211  1.00  0.00     0.042 A 
ATOM     21  C   UNL A   1      33.231  27.400  23.939  1.00  0.00     0.029 A 
ATOM     22  C   UNL A   1      31.108  29.135  24.105  1.00  0.00     0.125 A 
ATOM     23  F   UNL A   1      30.068  29.978  24.173  1.00  0.00    -0.207 F 
ATOM     24  C   UNL A   1      31.344  28.443  22.919  1.00  0.00     0.065 A 
ENDBRANCH  12  17
ENDBRANCH   7  11
ENDBRANCH   4   6
ENDBRANCH   3   4
ENDBRANCH   2   3
ENDBRANCH   1   2
BRANCH   1  25
ATOM     25  O   UNL A   1      37.360  21.483  25.506  1.00  0.00    -0.458 OA
BRANCH  25  26
ATOM     26  C   UNL A   1      38.619  21.190  25.908  1.00  0.00     0.338 C 
ATOM     27  O   UNL A   1      39.197  20.118  25.778  1.00  0.00    -0.246 OA
BRANCH  26  28
ATOM     28  C   UNL A   1      39.254  22.390  26.472  1.00  0.00     0.060 A 
ATOM     29  C   UNL A   1      38.758  23.650  26.129  1.00  0.00     0.016 A 
ATOM     30  C   UNL A   1      40.396  22.271  27.264  1.00  0.00     0.016 A 
ATOM     31  C   UNL A   1      39.428  24.803  26.542  1.00  0.00     0.010 A 
ATOM     32  C   UNL A   1      41.052  23.426  27.698  1.00  0.00     0.010 A 
ATOM     33  C   UNL A   1      40.589  24.701  27.322  1.00  0.00    -0.014 A 
BRANCH  33  34
ATOM     34  C   UNL A   1      41.339  25.915  27.735  1.00  0.00     0.031 A 
ATOM     35  C   UNL A   1      40.643  27.006  28.504  1.00  0.00     0.074 A 
ATOM     36  C   UNL A   1      42.628  26.063  27.376  1.00  0.00     0.049 A 
ATOM     37  N   UNL A   1      41.088  28.190  28.839  1.00  0.00    -0.248 NA
ATOM     38  C   UNL A   1      39.267  26.732  28.947  1.00  0.00     0.031 C 
ATOM     39  C   UNL A   1      43.412  25.086  26.620  1.00  0.00     0.029 A 
ATOM     40  N   UNL A   1      43.494  27.112  27.567  1.00  0.00    -0.354 N 
ATOM     41  C   UNL A   1      40.037  28.817  29.499  1.00  0.00     0.074 A 
ATOM     42  C   UNL A   1      38.930  27.883  29.511  1.00  0.00     0.031 C 
ATOM     43  C   UNL A   1      44.631  25.595  26.380  1.00  0.00     0.029 A 
ATOM     44  C   UNL A   1      44.704  26.944  26.935  1.00  0.00     0.049 A 
ATOM     45  H   UNL A   1      43.270  27.908  28.102  1.00  0.00     0.167 HD
ATOM     46  C   UNL A   1      40.003  30.049  30.062  1.00  0.00     0.034 A 
ATOM     47  C   UNL A   1      45.744  27.789  26.791  1.00  0.00     0.034 A 
ATOM     48  C   UNL A   1      41.113  30.966  30.081  1.00  0.00     0.049 A 
ATOM     49  C   UNL A   1      45.680  29.152  27.426  1.00  0.00     0.074 A 
ATOM     50  C   UNL A   1      41.181  32.224  30.656  1.00  0.00     0.029 A 
ATOM     51  N   UNL A   1      42.351  30.724  29.505  1.00  0.00    -0.354 N 
ATOM     52  N   UNL A   1      44.717  29.689  28.134  1.00  0.00    -0.248 NA
ATOM     53  C   UNL A   1      46.860  30.016  27.269  1.00  0.00     0.031 C 
ATOM     54  C   UNL A   1      42.459  32.744  30.425  1.00  0.00     0.029 A 
ATOM     55  C   UNL A   1      43.190  31.806  29.714  1.00  0.00     0.049 A 
ATOM     56  H   UNL A   1      42.597  29.905  29.018  1.00  0.00     0.167 HD
ATOM     57  C   UNL A   1      45.183  30.937  28.529  1.00  0.00     0.074 A 
ATOM     58  C   UNL A   1      46.526  31.068  28.005  1.00  0.00     0.031 C 
ATOM     59  C   UNL A   1      44.547  31.899  29.243  1.00  0.00     0.034 A 
BRANCH  46  60
ATOM     60  C   UNL A   1      38.735  30.467  30.758  1.00  0.00     0.023 A 
ATOM     61  C   UNL A   1      38.607  30.241  32.144  1.00  0.00     0.012 A 
ATOM     62  C   UNL A   1      37.710  31.145  30.070  1.00  0.00     0.148 A 
ATOM     63  C   UNL A   1      37.470  30.664  32.830  1.00  0.00     0.002 A 
ATOM     64  C   UNL A   1      36.596  31.595  30.768  1.00  0.00     0.091 A 
ATOM     65  F   UNL A   1      37.841  31.332  28.749  1.00  0.00    -0.205 F 
ATOM     66  C   UNL A   1      36.471  31.349  32.146  1.00  0.00     0.022 A 
BRANCH  64  67
ATOM     67  S   UNL A   1      35.288  32.552  29.991  1.00  0.00     0.127 S 
ATOM     68  O   UNL A   1      34.830  31.635  28.949  1.00  0.00    -0.237 OA
ATOM     69  O   UNL A   1      34.344  32.742  31.094  1.00  0.00    -0.237 OA
ATOM     70  O   UNL A   1      35.916  33.777  29.516  1.00  0.00    -0.744 OA
ENDBRANCH  64  67
ENDBRANCH  46  60
BRANCH  47  71
ATOM     71  C   UNL A   1      46.950  27.356  26.033  1.00  0.00     0.023 A 
ATOM     72  C   UNL A   1      47.909  26.542  26.666  1.00  0.00     0.012 A 
ATOM     73  C   UNL A   1      47.141  27.722  24.687  1.00  0.00     0.148 A 
ATOM     74  C   UNL A   1      49.050  26.123  25.980  1.00  0.00     0.002 A 
ATOM     75  C   UNL A   1      48.250  27.255  23.992  1.00  0.00     0.091 A 
ATOM     76  F   UNL A   1      46.230  28.517  24.108  1.00  0.00    -0.205 F 
ATOM     77  C   UNL A   1      49.214  26.468  24.641  1.00  0.00     0.022 A 
BRANCH  75  78
ATOM     78  S   UNL A   1      48.458  27.546  22.232  1.00  0.00     0.127 S 
ATOM     79  O   UNL A   1      49.618  28.433  22.209  1.00  0.00    -0.237 OA
ATOM     80  O   UNL A   1      48.706  26.196  21.722  1.00  0.00    -0.237 OA
ATOM     81  O   UNL A   1      47.197  28.127  21.789  1.00  0.00    -0.744 OA
ENDBRANCH  75  78
ENDBRANCH  47  71
BRANCH  59  82
ATOM     82  C   UNL A   1      45.302  33.170  29.530  1.00  0.00     0.023 A 
ATOM     83  C   UNL A   1      46.099  33.258  30.690  1.00  0.00     0.012 A 
ATOM     84  C   UNL A   1      45.280  34.248  28.623  1.00  0.00     0.148 A 
ATOM     85  C   UNL A   1      46.840  34.408  30.954  1.00  0.00     0.002 A 
ATOM     86  C   UNL A   1      46.055  35.375  28.872  1.00  0.00     0.091 A 
ATOM     87  F   UNL A   1      44.500  34.154  27.537  1.00  0.00    -0.205 F 
ATOM     88  C   UNL A   1      46.828  35.461  30.042  1.00  0.00     0.022 A 
BRANCH  86  89
ATOM     89  S   UNL A   1      46.162  36.741  27.710  1.00  0.00     0.127 S 
ATOM     90  O   UNL A   1      47.107  37.631  28.381  1.00  0.00    -0.237 OA
ATOM     91  O   UNL A   1      46.685  36.091  26.508  1.00  0.00    -0.237 OA
ATOM     92  O   UNL A   1      44.804  37.252  27.573  1.00  0.00    -0.744 OA
ENDBRANCH  86  89
ENDBRANCH  59  82
ENDBRANCH  33  34
ENDBRANCH  26  28
ENDBRANCH  25  26
ENDBRANCH   1  25
TORSDOF 16
ENDMDL
MODEL 3
REMARK VINA RESULT:     -12.6      1.513      1.927
REMARK SMILES Cc1cc(F)cc(NC(=O)N[C@@H]2COC[C@H]2C(=O)OCCOC(=O)c2ccc(-c3c4nc(c(-c5cccc(S(=O)(=O)[O-])c5F)c5ccc([nH]5)c(-c5cccc(S(=O)(=O)[O-])c5F)c5nc(c(-c6cccc(S(=O)(=O)[O-])c6F)c6ccc3[nH]6)C=C5)C=C4)cc2)c1
REMARK SMILES IDX 21 1 20 2 19 3 17 4 18 5 16 6 12 7 13 8 14 9 15 10 11 11
REMARK SMILES IDX 8 12 9 13 10 15 7 17 1 18 2 19 3 20 88 21 4 22 5 23 6 24
REMARK SMILES IDX 22 25 23 26 24 27 25 28 26 29 87 30 27 31 86 32 28 33 29 34
REMARK SMILES IDX 30 35 80 36 31 37 85 38 79 39 81 40 32 41 84 42 78 43 77 44
REMARK SMILES IDX 33 46 65 47 45 48 64 49 46 50 49 51 63 52 82 53 47 54 48 55
REMARK SMILES IDX 62 57 83 58 50 59 34 60 35 61 43 62 36 63 38 64 44 65 37 66
REMARK SMILES IDX 39 67 40 68 41 69 42 70 66 71 67 72 75 73 68 74 70 75 76 76
REMARK SMILES IDX 69 77 71 78 72 79 73 80 74 81 51 82 52 83 60 84 53 85 55 86
REMARK SMILES IDX 61 87 54 88 56 89 57 90 58 91 59 92
REMARK H PARENT 8 14 11 16 81 45 49 56
REMARK Flexibility Score: inf
ROOT
ATOM      1  C   UNL A   1      36.580  20.280  25.059  1.00  0.00     0.275 C 
ENDROOT
BRANCH   1   2
ATOM      2  C   UNL A   1      35.118  20.629  25.347  1.00  0.00     0.274 C 
BRANCH   2   3
ATOM      3  O   UNL A   1      34.219  19.810  24.573  1.00  0.00    -0.462 OA
BRANCH   3   4
ATOM      4  C   UNL A   1      32.947  19.719  25.036  1.00  0.00     0.313 C 
ATOM      5  O   UNL A   1      32.564  18.888  25.852  1.00  0.00    -0.252 OA
BRANCH   4   6
ATOM      6  C   UNL A   1      31.997  20.699  24.394  1.00  0.00     0.150 C 
ATOM      7  C   UNL A   1      31.869  22.060  25.041  1.00  0.00     0.126 C 
ATOM      8  C   UNL A   1      31.820  23.068  23.904  1.00  0.00     0.186 C 
ATOM      9  O   UNL A   1      32.196  22.390  22.701  1.00  0.00    -0.378 OA
ATOM     10  C   UNL A   1      32.496  21.018  22.998  1.00  0.00     0.177 C 
BRANCH   7  11
ATOM     11  N   UNL A   1      30.852  22.238  26.076  1.00  0.00    -0.332 N 
ATOM     12  N   UNL A   1      30.027  24.421  26.689  1.00  0.00    -0.308 N 
ATOM     13  C   UNL A   1      30.166  23.107  26.796  1.00  0.00     0.319 C 
ATOM     14  H   UNL A   1      29.387  24.723  27.374  1.00  0.00     0.171 HD
ATOM     15  O   UNL A   1      29.473  22.593  27.689  1.00  0.00    -0.248 OA
ATOM     16  H   UNL A   1      30.559  21.340  26.351  1.00  0.00     0.165 HD
BRANCH  12  17
ATOM     17  C   UNL A   1      30.452  25.538  25.963  1.00  0.00     0.046 A 
ATOM     18  C   UNL A   1      33.471  27.894  26.238  1.00  0.00     0.044 C 
ATOM     19  C   UNL A   1      32.186  27.276  25.770  1.00  0.00    -0.046 A 
ATOM     20  C   UNL A   1      31.485  27.848  24.710  1.00  0.00     0.042 A 
ATOM     21  C   UNL A   1      31.656  26.134  26.394  1.00  0.00     0.029 A 
ATOM     22  C   UNL A   1      30.320  27.242  24.264  1.00  0.00     0.125 A 
ATOM     23  F   UNL A   1      29.658  27.773  23.227  1.00  0.00    -0.207 F 
ATOM     24  C   UNL A   1      29.825  26.087  24.866  1.00  0.00     0.065 A 
ENDBRANCH  12  17
ENDBRANCH   7  11
ENDBRANCH   4   6
ENDBRANCH   3   4
ENDBRANCH   2   3
ENDBRANCH   1   2
BRANCH   1  25
ATOM     25  O   UNL A   1      37.458  21.398  25.285  1.00  0.00    -0.458 OA
BRANCH  25  26
ATOM     26  C   UNL A   1      38.658  21.087  25.826  1.00  0.00     0.338 C 
ATOM     27  O   UNL A   1      39.213  19.995  25.796  1.00  0.00    -0.246 OA
BRANCH  26  28
ATOM     28  C   UNL A   1      39.269  22.290  26.410  1.00  0.00     0.060 A 
ATOM     29  C   UNL A   1      38.783  23.549  26.045  1.00  0.00     0.016 A 
ATOM     30  C   UNL A   1      40.381  22.177  27.244  1.00  0.00     0.016 A 
ATOM     31  C   UNL A   1      39.435  24.704  26.479  1.00  0.00     0.010 A 
ATOM     32  C   UNL A   1      41.018  23.335  27.699  1.00  0.00     0.010 A 
ATOM     33  C   UNL A   1      40.566  24.607  27.302  1.00  0.00    -0.014 A 
BRANCH  33  34
ATOM     34  C   UNL A   1      41.296  25.824  27.740  1.00  0.00     0.031 A 
ATOM     35  C   UNL A   1      40.574  26.907  28.495  1.00  0.00     0.074 A 
ATOM     36  C   UNL A   1      42.593  25.983  27.413  1.00  0.00     0.049 A 
ATOM     37  N   UNL A   1      41.002  28.092  28.847  1.00  0.00    -0.248 NA
ATOM     38  C   UNL A   1      39.189  26.621  28.903  1.00  0.00     0.031 C 
ATOM     39  C   UNL A   1      43.402  25.015  26.673  1.00  0.00     0.029 A 
ATOM     40  N   UNL A   1      43.446  27.037  27.630  1.00  0.00    -0.354 N 
ATOM     41  C   UNL A   1      39.931  28.709  29.484  1.00  0.00     0.074 A 
ATOM     42  C   UNL A   1      38.831  27.768  29.464  1.00  0.00     0.031 C 
ATOM     43  C   UNL A   1      44.623  25.534  26.465  1.00  0.00     0.029 A 
ATOM     44  C   UNL A   1      44.673  26.881  27.029  1.00  0.00     0.049 A 
ATOM     45  H   UNL A   1      43.203  27.829  28.164  1.00  0.00     0.167 HD
ATOM     46  C   UNL A   1      39.874  29.938  30.051  1.00  0.00     0.034 A 
ATOM     47  C   UNL A   1      45.710  27.734  26.914  1.00  0.00     0.034 A 
ATOM     48  C   UNL A   1      40.977  30.862  30.102  1.00  0.00     0.049 A 
ATOM     49  C   UNL A   1      45.621  29.093  27.554  1.00  0.00     0.074 A 
ATOM     50  C   UNL A   1      41.021  32.118  30.684  1.00  0.00     0.029 A 
ATOM     51  N   UNL A   1      42.230  30.632  29.556  1.00  0.00    -0.354 N 
ATOM     52  N   UNL A   1      44.636  29.620  28.240  1.00  0.00    -0.248 NA
ATOM     53  C   UNL A   1      46.799  29.966  27.431  1.00  0.00     0.031 C 
ATOM     54  C   UNL A   1      42.301  32.648  30.487  1.00  0.00     0.029 A 
ATOM     55  C   UNL A   1      43.056  31.719  29.791  1.00  0.00     0.049 A 
ATOM     56  H   UNL A   1      42.494  29.817  29.072  1.00  0.00     0.167 HD
ATOM     57  C   UNL A   1      45.084  30.869  28.653  1.00  0.00     0.074 A 
ATOM     58  C   UNL A   1      46.439  31.012  28.163  1.00  0.00     0.031 C 
ATOM     59  C   UNL A   1      44.424  31.824  29.355  1.00  0.00     0.034 A 
BRANCH  46  60
ATOM     60  C   UNL A   1      38.586  30.344  30.717  1.00  0.00     0.023 A 
ATOM     61  C   UNL A   1      38.387  30.025  32.076  1.00  0.00     0.012 A 
ATOM     62  C   UNL A   1      37.614  31.100  30.034  1.00  0.00     0.148 A 
ATOM     63  C   UNL A   1      37.230  30.432  32.739  1.00  0.00     0.002 A 
ATOM     64  C   UNL A   1      36.480  31.533  30.712  1.00  0.00     0.091 A 
ATOM     65  F   UNL A   1      37.812  31.376  28.737  1.00  0.00    -0.205 F 
ATOM     66  C   UNL A   1      36.283  31.194  32.061  1.00  0.00     0.022 A 
BRANCH  64  67
ATOM     67  S   UNL A   1      35.237  32.582  29.947  1.00  0.00     0.127 S 
ATOM     68  O   UNL A   1      34.717  31.707  28.897  1.00  0.00    -0.237 OA
ATOM     69  O   UNL A   1      34.309  32.822  31.054  1.00  0.00    -0.237 OA
ATOM     70  O   UNL A   1      35.944  33.767  29.482  1.00  0.00    -0.744 OA
ENDBRANCH  64  67
ENDBRANCH  46  60
BRANCH  47  71
ATOM     71  C   UNL A   1      46.938  27.313  26.185  1.00  0.00     0.023 A 
ATOM     72  C   UNL A   1      47.067  27.613  24.816  1.00  0.00     0.012 A 
ATOM     73  C   UNL A   1      47.988  26.643  26.843  1.00  0.00     0.148 A 
ATOM     74  C   UNL A   1      48.207  27.228  24.107  1.00  0.00     0.002 A 
ATOM     75  C   UNL A   1      49.144  26.313  26.146  1.00  0.00     0.091 A 
ATOM     76  F   UNL A   1      47.838  26.344  28.142  1.00  0.00    -0.205 F 
ATOM     77  C   UNL A   1      49.250  26.591  24.775  1.00  0.00     0.022 A 
BRANCH  75  78
ATOM     78  S   UNL A   1      50.580  25.614  26.968  1.00  0.00     0.127 S 
ATOM     79  O   UNL A   1      51.528  25.492  25.864  1.00  0.00    -0.237 OA
ATOM     80  O   UNL A   1      50.909  26.649  27.949  1.00  0.00    -0.237 OA
ATOM     81  O   UNL A   1      50.115  24.365  27.555  1.00  0.00    -0.744 OA
ENDBRANCH  75  78
ENDBRANCH  47  71
BRANCH  59  82
ATOM     82  C   UNL A   1      45.163  33.098  29.666  1.00  0.00     0.023 A 
ATOM     83  C   UNL A   1      45.918  33.191  30.852  1.00  0.00     0.012 A 
ATOM     84  C   UNL A   1      45.167  34.175  28.757  1.00  0.00     0.148 A 
ATOM     85  C   UNL A   1      46.645  34.345  31.141  1.00  0.00     0.002 A 
ATOM     86  C   UNL A   1      45.927  35.306  29.032  1.00  0.00     0.091 A 
ATOM     87  F   UNL A   1      44.424  34.077  27.645  1.00  0.00    -0.205 F 
ATOM     88  C   UNL A   1      46.659  35.397  30.228  1.00  0.00     0.022 A 
BRANCH  86  89
ATOM     89  S   UNL A   1      46.067  36.672  27.873  1.00  0.00     0.127 S 
ATOM     90  O   UNL A   1      44.702  37.191  27.856  1.00  0.00    -0.237 OA
ATOM     91  O   UNL A   1      47.042  37.542  28.530  1.00  0.00    -0.237 OA
ATOM     92  O   UNL A   1      46.533  36.084  26.624  1.00  0.00    -0.744 OA
ENDBRANCH  86  89
ENDBRANCH  59  82
ENDBRANCH  33  34
ENDBRANCH  26  28
ENDBRANCH  25  26
ENDBRANCH   1  25
TORSDOF 16
ENDMDL
