MODEL 1
REMARK VINA RESULT:     -10.6      0.000      0.000
REMARK SMILES [NH3+][C@H](CCC(=O)OCCOC(=O)c1ccc(-c2c3nc(c(-c4cccc(S(=O)(=O)[O-])c4F)c4ccc([nH]4)c(-c4cccc(S(=O)(=O)[O-])c4F)c4nc(c(-c5cccc(S(=O)(=O)[O-])c5F)c5ccc2[nH]5)C=C4)C=C3)cc1)c1nccc2[nH]ccc12
REMARK SMILES IDX 8 1 7 2 5 3 6 4 4 5 3 6 2 7 1 8 76 12 77 13 84 14 78 15
REMARK SMILES IDX 80 16 83 17 79 18 81 19 82 20 9 22 10 23 11 24 12 25 13 26
REMARK SMILES IDX 14 27 75 28 15 29 74 30 16 31 17 32 18 33 68 34 19 35 73 36
REMARK SMILES IDX 67 37 69 38 20 39 72 40 66 41 65 42 21 44 53 45 33 46 52 47
REMARK SMILES IDX 34 48 37 49 51 50 70 51 35 52 36 53 50 55 71 56 38 57 22 58
REMARK SMILES IDX 23 59 31 60 24 61 26 62 32 63 25 64 27 65 28 66 29 67 30 68
REMARK SMILES IDX 54 69 55 70 63 71 56 72 58 73 64 74 57 75 59 76 60 77 61 78
REMARK SMILES IDX 62 79 39 80 40 81 48 82 41 83 43 84 49 85 42 86 44 87 45 88
REMARK SMILES IDX 46 89 47 90
REMARK H PARENT 1 9 1 10 1 11 81 21 69 43 37 54
REMARK Flexibility Score: inf
ROOT
ATOM      1  C   UNL A   1      35.887  21.043  24.962  1.00  0.00     0.274 C 
ENDROOT
BRANCH   1   2
ATOM      2  O   UNL A   1      35.387  21.428  26.257  1.00  0.00    -0.462 OA
BRANCH   2   3
ATOM      3  C   UNL A   1      34.925  22.699  26.383  1.00  0.00     0.306 C 
ATOM      4  O   UNL A   1      34.278  23.109  27.339  1.00  0.00    -0.252 OA
BRANCH   3   5
ATOM      5  C   UNL A   1      35.477  23.610  25.307  1.00  0.00     0.129 C 
BRANCH   5   6
ATOM      6  C   UNL A   1      34.591  24.696  24.680  1.00  0.00     0.083 C 
BRANCH   6   7
ATOM      7  C   UNL A   1      33.568  24.343  23.560  1.00  0.00     0.232 C 
BRANCH   7   8
ATOM      8  N   UNL A   1      33.934  23.104  22.863  1.00  0.00    -0.350 N 
ATOM      9  H   UNL A   1      34.513  23.327  22.054  1.00  0.00     0.345 HD
ATOM     10  H   UNL A   1      33.087  22.625  22.554  1.00  0.00     0.345 HD
ATOM     11  H   UNL A   1      34.454  22.497  23.497  1.00  0.00     0.345 HD
ENDBRANCH   7   8
BRANCH   7  12
ATOM     12  C   UNL A   1      32.106  24.474  24.011  1.00  0.00     0.107 A 
ATOM     13  N   UNL A   1      31.490  23.279  24.258  1.00  0.00    -0.254 NA
ATOM     14  C   UNL A   1      31.652  25.554  24.799  1.00  0.00     0.027 A 
ATOM     15  C   UNL A   1      31.008  23.023  25.483  1.00  0.00     0.114 A 
ATOM     16  C   UNL A   1      31.216  25.246  26.090  1.00  0.00     0.049 A 
ATOM     17  C   UNL A   1      31.463  26.955  24.633  1.00  0.00     0.030 A 
ATOM     18  C   UNL A   1      31.006  23.938  26.514  1.00  0.00     0.047 A 
ATOM     19  N   UNL A   1      31.061  26.437  26.753  1.00  0.00    -0.361 N 
ATOM     20  C   UNL A   1      31.020  27.457  25.840  1.00  0.00     0.083 A 
ATOM     21  H   UNL A   1      30.989  26.542  27.729  1.00  0.00     0.166 HD
ENDBRANCH   7  12
ENDBRANCH   6   7
ENDBRANCH   5   6
ENDBRANCH   3   5
ENDBRANCH   2   3
ENDBRANCH   1   2
BRANCH   1  22
ATOM     22  C   UNL A   1      37.223  20.319  25.127  1.00  0.00     0.275 C 
BRANCH  22  23
ATOM     23  O   UNL A   1      38.319  21.250  25.084  1.00  0.00    -0.458 OA
BRANCH  23  24
ATOM     24  C   UNL A   1      39.270  21.076  26.025  1.00  0.00     0.338 C 
ATOM     25  O   UNL A   1      39.823  20.020  26.331  1.00  0.00    -0.246 OA
BRANCH  24  26
ATOM     26  C   UNL A   1      39.666  22.376  26.576  1.00  0.00     0.060 A 
ATOM     27  C   UNL A   1      39.057  23.533  26.081  1.00  0.00     0.016 A 
ATOM     28  C   UNL A   1      40.688  22.461  27.521  1.00  0.00     0.016 A 
ATOM     29  C   UNL A   1      39.500  24.785  26.484  1.00  0.00     0.010 A 
ATOM     30  C   UNL A   1      41.124  23.719  27.940  1.00  0.00     0.010 A 
ATOM     31  C   UNL A   1      40.556  24.885  27.396  1.00  0.00    -0.014 A 
BRANCH  31  32
ATOM     32  C   UNL A   1      41.130  26.214  27.692  1.00  0.00     0.031 A 
ATOM     33  C   UNL A   1      42.506  26.541  27.188  1.00  0.00     0.074 A 
ATOM     34  C   UNL A   1      40.413  27.116  28.383  1.00  0.00     0.049 A 
ATOM     35  N   UNL A   1      43.214  27.623  27.367  1.00  0.00    -0.248 NA
ATOM     36  C   UNL A   1      43.177  25.509  26.380  1.00  0.00     0.031 C 
ATOM     37  C   UNL A   1      39.058  26.907  28.894  1.00  0.00     0.029 A 
ATOM     38  N   UNL A   1      40.730  28.388  28.782  1.00  0.00    -0.354 N 
ATOM     39  C   UNL A   1      44.433  27.384  26.746  1.00  0.00     0.074 A 
ATOM     40  C   UNL A   1      44.369  26.053  26.183  1.00  0.00     0.031 C 
ATOM     41  C   UNL A   1      38.661  28.012  29.544  1.00  0.00     0.029 A 
ATOM     42  C   UNL A   1      39.745  28.990  29.526  1.00  0.00     0.049 A 
ATOM     43  H   UNL A   1      41.582  28.828  28.556  1.00  0.00     0.167 HD
ATOM     44  C   UNL A   1      45.504  28.204  26.644  1.00  0.00     0.034 A 
ATOM     45  C   UNL A   1      39.730  30.190  30.136  1.00  0.00     0.034 A 
ATOM     46  C   UNL A   1      45.538  29.542  27.169  1.00  0.00     0.049 A 
ATOM     47  C   UNL A   1      40.933  31.086  30.000  1.00  0.00     0.074 A 
ATOM     48  C   UNL A   1      46.554  30.476  27.084  1.00  0.00     0.029 A 
ATOM     49  N   UNL A   1      44.505  30.136  27.879  1.00  0.00    -0.354 N 
ATOM     50  N   UNL A   1      42.045  30.881  29.336  1.00  0.00    -0.248 NA
ATOM     51  C   UNL A   1      40.865  32.391  30.672  1.00  0.00     0.031 C 
ATOM     52  C   UNL A   1      46.141  31.630  27.760  1.00  0.00     0.029 A 
ATOM     53  C   UNL A   1      44.858  31.424  28.243  1.00  0.00     0.049 A 
ATOM     54  H   UNL A   1      43.645  29.705  28.092  1.00  0.00     0.167 HD
ATOM     55  C   UNL A   1      42.791  32.045  29.472  1.00  0.00     0.074 A 
ATOM     56  C   UNL A   1      41.997  32.955  30.274  1.00  0.00     0.031 C 
ATOM     57  C   UNL A   1      44.026  32.333  28.989  1.00  0.00     0.034 A 
BRANCH  44  58
ATOM     58  C   UNL A   1      46.720  27.674  25.931  1.00  0.00     0.023 A 
ATOM     59  C   UNL A   1      46.887  27.910  24.552  1.00  0.00     0.012 A 
ATOM     60  C   UNL A   1      47.709  26.958  26.633  1.00  0.00     0.148 A 
ATOM     61  C   UNL A   1      47.998  27.408  23.874  1.00  0.00     0.002 A 
ATOM     62  C   UNL A   1      48.836  26.498  25.960  1.00  0.00     0.091 A 
ATOM     63  F   UNL A   1      47.520  26.715  27.939  1.00  0.00    -0.205 F 
ATOM     64  C   UNL A   1      48.975  26.712  24.579  1.00  0.00     0.022 A 
BRANCH  62  65
ATOM     65  S   UNL A   1      50.181  25.657  26.801  1.00  0.00     0.127 S 
ATOM     66  O   UNL A   1      51.135  25.458  25.711  1.00  0.00    -0.237 OA
ATOM     67  O   UNL A   1      50.593  26.648  27.797  1.00  0.00    -0.237 OA
ATOM     68  O   UNL A   1      49.603  24.444  27.362  1.00  0.00    -0.744 OA
ENDBRANCH  62  65
ENDBRANCH  44  58
BRANCH  45  69
ATOM     69  C   UNL A   1      38.516  30.634  30.875  1.00  0.00     0.023 A 
ATOM     70  C   UNL A   1      38.432  30.406  32.263  1.00  0.00     0.012 A 
ATOM     71  C   UNL A   1      37.466  31.312  30.225  1.00  0.00     0.148 A 
ATOM     72  C   UNL A   1      37.313  30.822  32.985  1.00  0.00     0.002 A 
ATOM     73  C   UNL A   1      36.378  31.769  30.960  1.00  0.00     0.091 A 
ATOM     74  F   UNL A   1      37.559  31.506  28.902  1.00  0.00    -0.205 F 
ATOM     75  C   UNL A   1      36.292  31.513  32.337  1.00  0.00     0.022 A 
BRANCH  73  76
ATOM     76  S   UNL A   1      35.074  32.769  30.234  1.00  0.00     0.127 S 
ATOM     77  O   UNL A   1      34.184  32.973  31.375  1.00  0.00    -0.237 OA
ATOM     78  O   UNL A   1      35.810  33.960  29.808  1.00  0.00    -0.237 OA
ATOM     79  O   UNL A   1      34.529  31.975  29.141  1.00  0.00    -0.744 OA
ENDBRANCH  73  76
ENDBRANCH  45  69
BRANCH  57  80
ATOM     80  C   UNL A   1      44.576  33.706  29.267  1.00  0.00     0.023 A 
ATOM     81  C   UNL A   1      45.152  33.993  30.520  1.00  0.00     0.012 A 
ATOM     82  C   UNL A   1      44.588  34.689  28.258  1.00  0.00     0.148 A 
ATOM     83  C   UNL A   1      45.698  35.251  30.776  1.00  0.00     0.002 A 
ATOM     84  C   UNL A   1      45.179  35.923  28.504  1.00  0.00     0.091 A 
ATOM     85  F   UNL A   1      44.016  34.404  27.078  1.00  0.00    -0.205 F 
ATOM     86  C   UNL A   1      45.722  36.210  29.765  1.00  0.00     0.022 A 
BRANCH  84  87
ATOM     87  S   UNL A   1      45.343  37.173  27.224  1.00  0.00     0.127 S 
ATOM     88  O   UNL A   1      43.946  37.500  26.946  1.00  0.00    -0.237 OA
ATOM     89  O   UNL A   1      46.092  38.228  27.909  1.00  0.00    -0.237 OA
ATOM     90  O   UNL A   1      46.069  36.533  26.136  1.00  0.00    -0.744 OA
ENDBRANCH  84  87
ENDBRANCH  57  80
ENDBRANCH  31  32
ENDBRANCH  24  26
ENDBRANCH  23  24
ENDBRANCH  22  23
ENDBRANCH   1  22
TORSDOF 18
ENDMDL
MODEL 2
REMARK VINA RESULT:     -10.5      4.893      7.652
REMARK SMILES [NH3+][C@H](CCC(=O)OCCOC(=O)c1ccc(-c2c3nc(c(-c4cccc(S(=O)(=O)[O-])c4F)c4ccc([nH]4)c(-c4cccc(S(=O)(=O)[O-])c4F)c4nc(c(-c5cccc(S(=O)(=O)[O-])c5F)c5ccc2[nH]5)C=C4)C=C3)cc1)c1nccc2[nH]ccc12
REMARK SMILES IDX 8 1 7 2 5 3 6 4 4 5 3 6 2 7 1 8 76 12 77 13 84 14 78 15
REMARK SMILES IDX 80 16 83 17 79 18 81 19 82 20 9 22 10 23 11 24 12 25 13 26
REMARK SMILES IDX 14 27 75 28 15 29 74 30 16 31 17 32 18 33 68 34 19 35 73 36
REMARK SMILES IDX 67 37 69 38 20 39 72 40 66 41 65 42 21 44 53 45 33 46 52 47
REMARK SMILES IDX 34 48 37 49 51 50 70 51 35 52 36 53 50 55 71 56 38 57 22 58
REMARK SMILES IDX 23 59 31 60 24 61 26 62 32 63 25 64 27 65 28 66 29 67 30 68
REMARK SMILES IDX 54 69 55 70 63 71 56 72 58 73 64 74 57 75 59 76 60 77 61 78
REMARK SMILES IDX 62 79 39 80 40 81 48 82 41 83 43 84 49 85 42 86 44 87 45 88
REMARK SMILES IDX 46 89 47 90
REMARK H PARENT 1 9 1 10 1 11 81 21 69 43 37 54
REMARK Flexibility Score: inf
ROOT
ATOM      1  C   UNL A   1      32.211  28.465  24.920  1.00  0.00     0.274 C 
ENDROOT
BRANCH   1   2
ATOM      2  O   UNL A   1      32.802  27.358  25.625  1.00  0.00    -0.462 OA
BRANCH   2   3
ATOM      3  C   UNL A   1      31.973  26.613  26.403  1.00  0.00     0.306 C 
ATOM      4  O   UNL A   1      31.180  27.078  27.212  1.00  0.00    -0.252 OA
BRANCH   3   5
ATOM      5  C   UNL A   1      31.990  25.151  26.008  1.00  0.00     0.129 C 
BRANCH   5   6
ATOM      6  C   UNL A   1      33.232  24.542  25.341  1.00  0.00     0.083 C 
BRANCH   6   7
ATOM      7  C   UNL A   1      33.292  24.344  23.798  1.00  0.00     0.232 C 
BRANCH   7   8
ATOM      8  N   UNL A   1      33.580  25.604  23.100  1.00  0.00    -0.350 N 
ATOM      9  H   UNL A   1      33.097  25.612  22.202  1.00  0.00     0.345 HD
ATOM     10  H   UNL A   1      34.585  25.686  22.947  1.00  0.00     0.345 HD
ATOM     11  H   UNL A   1      33.258  26.388  23.667  1.00  0.00     0.345 HD
ENDBRANCH   7   8
BRANCH   7  12
ATOM     12  C   UNL A   1      34.115  23.119  23.375  1.00  0.00     0.107 A 
ATOM     13  N   UNL A   1      35.352  23.423  22.878  1.00  0.00    -0.254 NA
ATOM     14  C   UNL A   1      34.031  21.882  24.051  1.00  0.00     0.027 A 
ATOM     15  C   UNL A   1      36.447  22.949  23.491  1.00  0.00     0.114 A 
ATOM     16  C   UNL A   1      35.179  21.458  24.725  1.00  0.00     0.049 A 
ATOM     17  C   UNL A   1      33.060  20.856  24.223  1.00  0.00     0.030 A 
ATOM     18  C   UNL A   1      36.412  22.079  24.559  1.00  0.00     0.047 A 
ATOM     19  N   UNL A   1      34.812  20.388  25.501  1.00  0.00    -0.361 N 
ATOM     20  C   UNL A   1      33.606  19.907  25.063  1.00  0.00     0.083 A 
ATOM     21  H   UNL A   1      35.333  20.023  26.253  1.00  0.00     0.166 HD
ENDBRANCH   7  12
ENDBRANCH   6   7
ENDBRANCH   5   6
ENDBRANCH   3   5
ENDBRANCH   2   3
ENDBRANCH   1   2
BRANCH   1  22
ATOM     22  C   UNL A   1      32.919  29.759  25.321  1.00  0.00     0.275 C 
BRANCH  22  23
ATOM     23  O   UNL A   1      32.478  30.206  26.616  1.00  0.00    -0.458 OA
BRANCH  23  24
ATOM     24  C   UNL A   1      33.081  31.316  27.087  1.00  0.00     0.338 C 
ATOM     25  O   UNL A   1      32.593  32.443  27.176  1.00  0.00    -0.246 OA
BRANCH  24  26
ATOM     26  C   UNL A   1      34.406  30.974  27.616  1.00  0.00     0.060 A 
ATOM     27  C   UNL A   1      34.662  29.652  27.992  1.00  0.00     0.016 A 
ATOM     28  C   UNL A   1      35.366  31.967  27.814  1.00  0.00     0.016 A 
ATOM     29  C   UNL A   1      35.855  29.321  28.618  1.00  0.00     0.010 A 
ATOM     30  C   UNL A   1      36.573  31.631  28.428  1.00  0.00     0.010 A 
ATOM     31  C   UNL A   1      36.806  30.315  28.864  1.00  0.00    -0.014 A 
BRANCH  31  32
ATOM     32  C   UNL A   1      37.997  29.988  29.676  1.00  0.00     0.031 A 
ATOM     33  C   UNL A   1      39.055  29.098  29.090  1.00  0.00     0.074 A 
ATOM     34  C   UNL A   1      38.133  30.505  30.909  1.00  0.00     0.049 A 
ATOM     35  N   UNL A   1      40.154  28.652  29.638  1.00  0.00    -0.248 NA
ATOM     36  C   UNL A   1      38.845  28.644  27.706  1.00  0.00     0.031 C 
ATOM     37  C   UNL A   1      37.175  31.401  31.559  1.00  0.00     0.029 A 
ATOM     38  N   UNL A   1      39.126  30.342  31.838  1.00  0.00    -0.354 N 
ATOM     39  C   UNL A   1      40.737  27.820  28.690  1.00  0.00     0.074 A 
ATOM     40  C   UNL A   1      39.872  27.824  27.531  1.00  0.00     0.031 C 
ATOM     41  C   UNL A   1      37.627  31.706  32.786  1.00  0.00     0.029 A 
ATOM     42  C   UNL A   1      38.882  30.999  33.020  1.00  0.00     0.049 A 
ATOM     43  H   UNL A   1      39.936  29.806  31.674  1.00  0.00     0.167 HD
ATOM     44  C   UNL A   1      41.895  27.126  28.775  1.00  0.00     0.034 A 
ATOM     45  C   UNL A   1      39.589  31.012  34.166  1.00  0.00     0.034 A 
ATOM     46  C   UNL A   1      42.769  27.167  29.915  1.00  0.00     0.049 A 
ATOM     47  C   UNL A   1      40.878  30.237  34.230  1.00  0.00     0.074 A 
ATOM     48  C   UNL A   1      43.989  26.540  30.091  1.00  0.00     0.029 A 
ATOM     49  N   UNL A   1      42.513  27.879  31.079  1.00  0.00    -0.354 N 
ATOM     50  N   UNL A   1      41.462  29.526  33.296  1.00  0.00    -0.248 NA
ATOM     51  C   UNL A   1      41.622  30.292  35.496  1.00  0.00     0.031 C 
ATOM     52  C   UNL A   1      44.462  26.857  31.370  1.00  0.00     0.029 A 
ATOM     53  C   UNL A   1      43.549  27.704  31.980  1.00  0.00     0.049 A 
ATOM     54  H   UNL A   1      41.712  28.429  31.239  1.00  0.00     0.167 HD
ATOM     55  C   UNL A   1      42.660  29.084  33.844  1.00  0.00     0.074 A 
ATOM     56  C   UNL A   1      42.723  29.619  35.189  1.00  0.00     0.031 C 
ATOM     57  C   UNL A   1      43.617  28.298  33.291  1.00  0.00     0.034 A 
BRANCH  44  58
ATOM     58  C   UNL A   1      42.282  26.273  27.596  1.00  0.00     0.023 A 
ATOM     59  C   UNL A   1      43.080  26.811  26.567  1.00  0.00     0.012 A 
ATOM     60  C   UNL A   1      41.870  24.928  27.517  1.00  0.00     0.148 A 
ATOM     61  C   UNL A   1      43.429  26.039  25.460  1.00  0.00     0.002 A 
ATOM     62  C   UNL A   1      42.258  24.151  26.432  1.00  0.00     0.091 A 
ATOM     63  F   UNL A   1      41.085  24.440  28.490  1.00  0.00    -0.205 F 
ATOM     64  C   UNL A   1      43.026  24.708  25.396  1.00  0.00     0.022 A 
BRANCH  62  65
ATOM     65  S   UNL A   1      41.850  22.407  26.304  1.00  0.00     0.127 S 
ATOM     66  O   UNL A   1      42.545  22.028  25.075  1.00  0.00    -0.237 OA
ATOM     67  O   UNL A   1      42.437  21.859  27.529  1.00  0.00    -0.237 OA
ATOM     68  O   UNL A   1      40.395  22.341  26.252  1.00  0.00    -0.744 OA
ENDBRANCH  62  65
ENDBRANCH  44  58
BRANCH  45  69
ATOM     69  C   UNL A   1      39.123  31.834  35.317  1.00  0.00     0.023 A 
ATOM     70  C   UNL A   1      38.228  31.271  36.247  1.00  0.00     0.012 A 
ATOM     71  C   UNL A   1      39.590  33.148  35.520  1.00  0.00     0.148 A 
ATOM     72  C   UNL A   1      37.784  32.011  37.343  1.00  0.00     0.002 A 
ATOM     73  C   UNL A   1      39.183  33.860  36.643  1.00  0.00     0.091 A 
ATOM     74  F   UNL A   1      40.431  33.669  34.617  1.00  0.00    -0.205 F 
ATOM     75  C   UNL A   1      38.269  33.299  37.548  1.00  0.00     0.022 A 
BRANCH  73  76
ATOM     76  S   UNL A   1      39.846  35.479  37.051  1.00  0.00     0.127 S 
ATOM     77  O   UNL A   1      39.464  36.263  35.880  1.00  0.00    -0.237 OA
ATOM     78  O   UNL A   1      39.113  35.805  38.275  1.00  0.00    -0.237 OA
ATOM     79  O   UNL A   1      41.277  35.283  37.241  1.00  0.00    -0.744 OA
ENDBRANCH  73  76
ENDBRANCH  45  69
BRANCH  57  80
ATOM     80  C   UNL A   1      44.842  28.010  34.119  1.00  0.00     0.023 A 
ATOM     81  C   UNL A   1      45.946  28.882  34.069  1.00  0.00     0.012 A 
ATOM     82  C   UNL A   1      44.865  26.912  35.001  1.00  0.00     0.148 A 
ATOM     83  C   UNL A   1      47.071  28.645  34.859  1.00  0.00     0.002 A 
ATOM     84  C   UNL A   1      45.968  26.711  35.822  1.00  0.00     0.091 A 
ATOM     85  F   UNL A   1      43.812  26.081  35.019  1.00  0.00    -0.205 F 
ATOM     86  C   UNL A   1      47.076  27.568  35.743  1.00  0.00     0.022 A 
BRANCH  84  87
ATOM     87  S   UNL A   1      46.011  25.409  37.059  1.00  0.00     0.127 S 
ATOM     88  O   UNL A   1      44.808  25.697  37.838  1.00  0.00    -0.237 OA
ATOM     89  O   UNL A   1      45.933  24.196  36.243  1.00  0.00    -0.237 OA
ATOM     90  O   UNL A   1      47.275  25.575  37.765  1.00  0.00    -0.744 OA
ENDBRANCH  84  87
ENDBRANCH  57  80
ENDBRANCH  31  32
ENDBRANCH  24  26
ENDBRANCH  23  24
ENDBRANCH  22  23
ENDBRANCH   1  22
TORSDOF 18
ENDMDL
MODEL 3
REMARK VINA RESULT:     -10.5      4.912     10.158
REMARK SMILES [NH3+][C@H](CCC(=O)OCCOC(=O)c1ccc(-c2c3nc(c(-c4cccc(S(=O)(=O)[O-])c4F)c4ccc([nH]4)c(-c4cccc(S(=O)(=O)[O-])c4F)c4nc(c(-c5cccc(S(=O)(=O)[O-])c5F)c5ccc2[nH]5)C=C4)C=C3)cc1)c1nccc2[nH]ccc12
REMARK SMILES IDX 8 1 7 2 5 3 6 4 4 5 3 6 2 7 1 8 76 12 77 13 84 14 78 15
REMARK SMILES IDX 80 16 83 17 79 18 81 19 82 20 9 22 10 23 11 24 12 25 13 26
REMARK SMILES IDX 14 27 75 28 15 29 74 30 16 31 17 32 18 33 68 34 19 35 73 36
REMARK SMILES IDX 67 37 69 38 20 39 72 40 66 41 65 42 21 44 53 45 33 46 52 47
REMARK SMILES IDX 34 48 37 49 51 50 70 51 35 52 36 53 50 55 71 56 38 57 22 58
REMARK SMILES IDX 23 59 31 60 24 61 26 62 32 63 25 64 27 65 28 66 29 67 30 68
REMARK SMILES IDX 54 69 55 70 63 71 56 72 58 73 64 74 57 75 59 76 60 77 61 78
REMARK SMILES IDX 62 79 39 80 40 81 48 82 41 83 43 84 49 85 42 86 44 87 45 88
REMARK SMILES IDX 46 89 47 90
REMARK H PARENT 1 9 1 10 1 11 81 21 69 43 37 54
REMARK Flexibility Score: inf
ROOT
ATOM      1  C   UNL A   1      32.175  29.388  25.811  1.00  0.00     0.274 C 
ENDROOT
BRANCH   1   2
ATOM      2  O   UNL A   1      32.407  29.223  24.399  1.00  0.00    -0.462 OA
BRANCH   2   3
ATOM      3  C   UNL A   1      33.392  28.362  24.037  1.00  0.00     0.306 C 
ATOM      4  O   UNL A   1      34.031  27.671  24.820  1.00  0.00    -0.252 OA
BRANCH   3   5
ATOM      5  C   UNL A   1      33.472  28.194  22.533  1.00  0.00     0.129 C 
BRANCH   5   6
ATOM      6  C   UNL A   1      33.572  26.793  21.913  1.00  0.00     0.083 C 
BRANCH   6   7
ATOM      7  C   UNL A   1      32.292  25.954  21.626  1.00  0.00     0.232 C 
BRANCH   7   8
ATOM      8  N   UNL A   1      32.185  25.596  20.206  1.00  0.00    -0.350 N 
ATOM      9  H   UNL A   1      32.900  24.908  19.974  1.00  0.00     0.345 HD
ATOM     10  H   UNL A   1      32.317  26.431  19.634  1.00  0.00     0.345 HD
ATOM     11  H   UNL A   1      31.262  25.203  20.024  1.00  0.00     0.345 HD
ENDBRANCH   7   8
BRANCH   7  12
ATOM     12  C   UNL A   1      32.069  24.823  22.640  1.00  0.00     0.107 A 
ATOM     13  N   UNL A   1      32.774  23.684  22.369  1.00  0.00    -0.254 NA
ATOM     14  C   UNL A   1      31.841  25.071  24.011  1.00  0.00     0.027 A 
ATOM     15  C   UNL A   1      33.665  23.227  23.261  1.00  0.00     0.114 A 
ATOM     16  C   UNL A   1      32.826  24.629  24.899  1.00  0.00     0.049 A 
ATOM     17  C   UNL A   1      30.810  25.647  24.807  1.00  0.00     0.030 A 
ATOM     18  C   UNL A   1      33.859  23.785  24.506  1.00  0.00     0.047 A 
ATOM     19  N   UNL A   1      32.536  25.180  26.122  1.00  0.00    -0.361 N 
ATOM     20  C   UNL A   1      31.240  25.626  26.118  1.00  0.00     0.083 A 
ATOM     21  H   UNL A   1      33.159  25.245  26.881  1.00  0.00     0.166 HD
ENDBRANCH   7  12
ENDBRANCH   6   7
ENDBRANCH   5   6
ENDBRANCH   3   5
ENDBRANCH   2   3
ENDBRANCH   1   2
BRANCH   1  22
ATOM     22  C   UNL A   1      31.979  30.872  26.123  1.00  0.00     0.275 C 
BRANCH  22  23
ATOM     23  O   UNL A   1      32.429  31.178  27.455  1.00  0.00    -0.458 OA
BRANCH  23  24
ATOM     24  C   UNL A   1      33.326  32.180  27.552  1.00  0.00     0.338 C 
ATOM     25  O   UNL A   1      33.111  33.383  27.398  1.00  0.00    -0.246 OA
BRANCH  24  26
ATOM     26  C   UNL A   1      34.617  31.650  28.001  1.00  0.00     0.060 A 
ATOM     27  C   UNL A   1      34.718  30.288  28.303  1.00  0.00     0.016 A 
ATOM     28  C   UNL A   1      35.703  32.503  28.198  1.00  0.00     0.016 A 
ATOM     29  C   UNL A   1      35.885  29.778  28.855  1.00  0.00     0.010 A 
ATOM     30  C   UNL A   1      36.882  31.988  28.737  1.00  0.00     0.010 A 
ATOM     31  C   UNL A   1      36.965  30.632  29.101  1.00  0.00    -0.014 A 
BRANCH  31  32
ATOM     32  C   UNL A   1      38.137  30.118  29.838  1.00  0.00     0.031 A 
ATOM     33  C   UNL A   1      38.355  30.558  31.257  1.00  0.00     0.074 A 
ATOM     34  C   UNL A   1      38.978  29.254  29.245  1.00  0.00     0.049 A 
ATOM     35  N   UNL A   1      39.334  30.266  32.071  1.00  0.00    -0.248 NA
ATOM     36  C   UNL A   1      37.337  31.450  31.837  1.00  0.00     0.031 C 
ATOM     37  C   UNL A   1      38.841  28.744  27.880  1.00  0.00     0.029 A 
ATOM     38  N   UNL A   1      40.119  28.657  29.714  1.00  0.00    -0.354 N 
ATOM     39  C   UNL A   1      39.083  30.981  33.235  1.00  0.00     0.074 A 
ATOM     40  C   UNL A   1      37.859  31.720  33.024  1.00  0.00     0.031 C 
ATOM     41  C   UNL A   1      39.864  27.914  27.620  1.00  0.00     0.029 A 
ATOM     42  C   UNL A   1      40.744  27.863  28.783  1.00  0.00     0.049 A 
ATOM     43  H   UNL A   1      40.458  28.786  30.630  1.00  0.00     0.167 HD
ATOM     44  C   UNL A   1      39.804  31.008  34.380  1.00  0.00     0.034 A 
ATOM     45  C   UNL A   1      41.904  27.185  28.861  1.00  0.00     0.034 A 
ATOM     46  C   UNL A   1      40.995  30.232  34.593  1.00  0.00     0.049 A 
ATOM     47  C   UNL A   1      42.681  27.227  30.150  1.00  0.00     0.074 A 
ATOM     48  C   UNL A   1      41.779  30.149  35.729  1.00  0.00     0.029 A 
ATOM     49  N   UNL A   1      41.576  29.403  33.643  1.00  0.00    -0.354 N 
ATOM     50  N   UNL A   1      42.388  27.838  31.273  1.00  0.00    -0.248 NA
ATOM     51  C   UNL A   1      43.935  26.462  30.192  1.00  0.00     0.031 C 
ATOM     52  C   UNL A   1      42.845  29.283  35.460  1.00  0.00     0.029 A 
ATOM     53  C   UNL A   1      42.710  28.807  34.165  1.00  0.00     0.049 A 
ATOM     54  H   UNL A   1      41.230  29.260  32.733  1.00  0.00     0.167 HD
ATOM     55  C   UNL A   1      43.394  27.496  32.169  1.00  0.00     0.074 A 
ATOM     56  C   UNL A   1      44.299  26.615  31.458  1.00  0.00     0.031 C 
ATOM     57  C   UNL A   1      43.561  27.884  33.457  1.00  0.00     0.034 A 
BRANCH  44  58
ATOM     58  C   UNL A   1      39.313  31.901  35.489  1.00  0.00     0.023 A 
ATOM     59  C   UNL A   1      38.367  31.419  36.416  1.00  0.00     0.012 A 
ATOM     60  C   UNL A   1      39.804  33.214  35.624  1.00  0.00     0.148 A 
ATOM     61  C   UNL A   1      37.888  32.241  37.435  1.00  0.00     0.002 A 
ATOM     62  C   UNL A   1      39.355  34.013  36.670  1.00  0.00     0.091 A 
ATOM     63  F   UNL A   1      40.680  33.668  34.716  1.00  0.00    -0.205 F 
ATOM     64  C   UNL A   1      38.388  33.533  37.568  1.00  0.00     0.022 A 
BRANCH  62  65
ATOM     65  S   UNL A   1      39.999  35.664  36.962  1.00  0.00     0.127 S 
ATOM     66  O   UNL A   1      39.306  36.039  38.194  1.00  0.00    -0.237 OA
ATOM     67  O   UNL A   1      41.433  35.414  37.122  1.00  0.00    -0.237 OA
ATOM     68  O   UNL A   1      39.652  36.442  35.781  1.00  0.00    -0.744 OA
ENDBRANCH  62  65
ENDBRANCH  44  58
BRANCH  45  69
ATOM     69  C   UNL A   1      42.365  26.364  27.708  1.00  0.00     0.023 A 
ATOM     70  C   UNL A   1      43.287  26.913  26.796  1.00  0.00     0.012 A 
ATOM     71  C   UNL A   1      41.929  25.036  27.530  1.00  0.00     0.148 A 
ATOM     72  C   UNL A   1      43.747  26.163  25.713  1.00  0.00     0.002 A 
ATOM     73  C   UNL A   1      42.431  24.279  26.478  1.00  0.00     0.091 A 
ATOM     74  F   UNL A   1      41.041  24.538  28.401  1.00  0.00    -0.205 F 
ATOM     75  C   UNL A   1      43.329  24.844  25.560  1.00  0.00     0.022 A 
BRANCH  73  76
ATOM     76  S   UNL A   1      42.042  22.537  26.270  1.00  0.00     0.127 S 
ATOM     77  O   UNL A   1      42.729  22.225  25.019  1.00  0.00    -0.237 OA
ATOM     78  O   UNL A   1      42.645  21.948  27.466  1.00  0.00    -0.237 OA
ATOM     79  O   UNL A   1      40.588  22.459  26.229  1.00  0.00    -0.744 OA
ENDBRANCH  73  76
ENDBRANCH  45  69
BRANCH  57  80
ATOM     80  C   UNL A   1      44.740  27.318  34.204  1.00  0.00     0.023 A 
ATOM     81  C   UNL A   1      45.968  28.007  34.208  1.00  0.00     0.012 A 
ATOM     82  C   UNL A   1      44.605  26.138  34.962  1.00  0.00     0.148 A 
ATOM     83  C   UNL A   1      47.055  27.511  34.926  1.00  0.00     0.002 A 
ATOM     84  C   UNL A   1      45.678  25.677  35.716  1.00  0.00     0.091 A 
ATOM     85  F   UNL A   1      43.435  25.484  34.929  1.00  0.00    -0.205 F 
ATOM     86  C   UNL A   1      46.907  26.354  35.689  1.00  0.00     0.022 A 
BRANCH  84  87
ATOM     87  S   UNL A   1      45.537  24.254  36.803  1.00  0.00     0.127 S 
ATOM     88  O   UNL A   1      45.193  23.191  35.861  1.00  0.00    -0.237 OA
ATOM     89  O   UNL A   1      46.884  24.155  37.369  1.00  0.00    -0.237 OA
ATOM     90  O   UNL A   1      44.504  24.597  37.772  1.00  0.00    -0.744 OA
ENDBRANCH  84  87
ENDBRANCH  57  80
ENDBRANCH  31  32
ENDBRANCH  24  26
ENDBRANCH  23  24
ENDBRANCH  22  23
ENDBRANCH   1  22
TORSDOF 18
ENDMDL
