MODEL 1
REMARK VINA RESULT:     -11.3      0.000      0.000
REMARK SMILES CC[C@]1(C(=O)OCCOC(=O)c2ccc(-c3c4nc(c(-c5cccc(S(=O)(=O)[O-])c5F)c5ccc([nH]5)c(-c5cccc(S(=O)(=O)[O-])c5F)c5nc(c(-c6cccc(S(=O)(=O)[O-])c6F)c6ccc3[nH]6)C=C5)C=C4)cc2)CC[N@@H+](Cc2ccc(CC(C)C)cc2)C1
REMARK SMILES IDX 7 1 6 2 4 3 5 4 3 5 75 6 89 7 76 8 77 9 2 11 1 12 78 13
REMARK SMILES IDX 79 14 80 15 88 16 81 17 87 18 82 19 83 20 84 21 85 22 86 23
REMARK SMILES IDX 8 24 9 25 10 26 11 27 12 28 13 29 74 30 14 31 73 32 15 33
REMARK SMILES IDX 16 34 17 35 67 36 18 37 72 38 66 39 68 40 19 41 71 42 65 43
REMARK SMILES IDX 64 44 20 46 52 47 32 48 51 49 33 50 36 51 50 52 69 53 34 54
REMARK SMILES IDX 35 55 49 57 70 58 37 59 21 60 22 61 30 62 23 63 25 64 31 65
REMARK SMILES IDX 24 66 26 67 27 68 28 69 29 70 53 71 54 72 62 73 55 74 57 75
REMARK SMILES IDX 63 76 56 77 58 78 59 79 60 80 61 81 38 82 39 83 47 84 40 85
REMARK SMILES IDX 42 86 48 87 41 88 43 89 44 90 45 91 46 92
REMARK H PARENT 77 10 68 45 36 56
REMARK Flexibility Score: inf
ROOT
ATOM      1  C   UNL A   1      32.077  30.064  26.474  1.00  0.00     0.274 C 
ENDROOT
BRANCH   1   2
ATOM      2  O   UNL A   1      32.042  29.620  25.104  1.00  0.00    -0.461 OA
BRANCH   2   3
ATOM      3  C   UNL A   1      31.836  28.289  24.969  1.00  0.00     0.318 C 
ATOM      4  O   UNL A   1      31.554  27.550  25.912  1.00  0.00    -0.251 OA
BRANCH   3   5
ATOM      5  C   UNL A   1      31.906  27.785  23.532  1.00  0.00     0.122 C 
ATOM      6  C   UNL A   1      33.259  27.746  22.803  1.00  0.00     0.086 C 
ATOM      7  C   UNL A   1      31.506  26.289  23.605  1.00  0.00     0.281 C 
ATOM      8  C   UNL A   1      33.257  26.395  22.093  1.00  0.00     0.263 C 
ATOM      9  N   UNL A   1      32.590  25.482  23.017  1.00  0.00    -0.330 N 
ATOM     10  H   UNL A   1      32.236  24.665  22.518  1.00  0.00     0.348 HD
BRANCH   5  11
ATOM     11  C   UNL A   1      30.927  28.642  22.681  1.00  0.00     0.021 C 
ATOM     12  C   UNL A   1      29.459  28.447  23.071  1.00  0.00     0.005 C 
ENDBRANCH   5  11
BRANCH   9  13
ATOM     13  C   UNL A   1      33.451  24.778  23.996  1.00  0.00     0.299 C 
BRANCH  13  14
ATOM     14  C   UNL A   1      33.361  23.266  24.070  1.00  0.00     0.006 A 
ATOM     15  C   UNL A   1      34.539  22.501  24.128  1.00  0.00     0.010 A 
ATOM     16  C   UNL A   1      32.131  22.611  24.202  1.00  0.00     0.010 A 
ATOM     17  C   UNL A   1      34.495  21.149  24.462  1.00  0.00     0.004 A 
ATOM     18  C   UNL A   1      32.089  21.248  24.521  1.00  0.00     0.004 A 
ATOM     19  C   UNL A   1      33.271  20.520  24.704  1.00  0.00    -0.048 A 
BRANCH  19  20
ATOM     20  C   UNL A   1      33.236  19.097  25.210  1.00  0.00     0.038 C 
BRANCH  20  21
ATOM     21  C   UNL A   1      33.762  18.052  24.212  1.00  0.00    -0.013 C 
ATOM     22  C   UNL A   1      33.926  16.671  24.849  1.00  0.00     0.008 C 
ATOM     23  C   UNL A   1      32.804  17.954  23.021  1.00  0.00     0.008 C 
ENDBRANCH  20  21
ENDBRANCH  19  20
ENDBRANCH  13  14
ENDBRANCH   9  13
ENDBRANCH   3   5
ENDBRANCH   2   3
ENDBRANCH   1   2
BRANCH   1  24
ATOM     24  C   UNL A   1      32.170  31.586  26.547  1.00  0.00     0.275 C 
BRANCH  24  25
ATOM     25  O   UNL A   1      32.635  31.983  27.847  1.00  0.00    -0.458 OA
BRANCH  25  26
ATOM     26  C   UNL A   1      33.597  32.940  27.818  1.00  0.00     0.338 C 
ATOM     27  O   UNL A   1      33.444  34.129  27.619  1.00  0.00    -0.246 OA
BRANCH  26  28
ATOM     28  C   UNL A   1      34.886  32.350  28.218  1.00  0.00     0.060 A 
ATOM     29  C   UNL A   1      34.879  31.011  28.622  1.00  0.00     0.016 A 
ATOM     30  C   UNL A   1      36.068  33.093  28.222  1.00  0.00     0.016 A 
ATOM     31  C   UNL A   1      36.061  30.398  29.013  1.00  0.00     0.010 A 
ATOM     32  C   UNL A   1      37.248  32.492  28.661  1.00  0.00     0.010 A 
ATOM     33  C   UNL A   1      37.240  31.149  29.073  1.00  0.00    -0.014 A 
BRANCH  33  34
ATOM     34  C   UNL A   1      38.400  30.564  29.771  1.00  0.00     0.031 A 
ATOM     35  C   UNL A   1      38.644  30.980  31.191  1.00  0.00     0.074 A 
ATOM     36  C   UNL A   1      39.165  29.637  29.172  1.00  0.00     0.049 A 
ATOM     37  N   UNL A   1      39.537  30.551  32.038  1.00  0.00    -0.248 NA
ATOM     38  C   UNL A   1      37.739  32.010  31.735  1.00  0.00     0.031 C 
ATOM     39  C   UNL A   1      38.980  29.140  27.809  1.00  0.00     0.029 A 
ATOM     40  N   UNL A   1      40.256  28.951  29.638  1.00  0.00    -0.354 N 
ATOM     41  C   UNL A   1      39.311  31.259  33.212  1.00  0.00     0.074 A 
ATOM     42  C   UNL A   1      38.199  32.148  32.969  1.00  0.00     0.031 C 
ATOM     43  C   UNL A   1      39.942  28.240  27.541  1.00  0.00     0.029 A 
ATOM     44  C   UNL A   1      40.817  28.114  28.705  1.00  0.00     0.049 A 
ATOM     45  H   UNL A   1      40.604  29.050  30.554  1.00  0.00     0.167 HD
ATOM     46  C   UNL A   1      39.972  31.170  34.388  1.00  0.00     0.034 A 
ATOM     47  C   UNL A   1      41.924  27.349  28.787  1.00  0.00     0.034 A 
ATOM     48  C   UNL A   1      41.103  30.311  34.601  1.00  0.00     0.049 A 
ATOM     49  C   UNL A   1      42.678  27.316  30.092  1.00  0.00     0.074 A 
ATOM     50  C   UNL A   1      41.870  30.159  35.740  1.00  0.00     0.029 A 
ATOM     51  N   UNL A   1      41.647  29.477  33.636  1.00  0.00    -0.354 N 
ATOM     52  N   UNL A   1      42.405  27.925  31.223  1.00  0.00    -0.248 NA
ATOM     53  C   UNL A   1      43.873  26.464  30.144  1.00  0.00     0.031 C 
ATOM     54  C   UNL A   1      42.902  29.260  35.452  1.00  0.00     0.029 A 
ATOM     55  C   UNL A   1      42.748  28.814  34.147  1.00  0.00     0.049 A 
ATOM     56  H   UNL A   1      41.300  29.370  32.720  1.00  0.00     0.167 HD
ATOM     57  C   UNL A   1      43.370  27.500  32.130  1.00  0.00     0.074 A 
ATOM     58  C   UNL A   1      44.220  26.564  31.421  1.00  0.00     0.031 C 
ATOM     59  C   UNL A   1      43.550  27.857  33.427  1.00  0.00     0.034 A 
BRANCH  46  60
ATOM     60  C   UNL A   1      39.496  32.052  35.510  1.00  0.00     0.023 A 
ATOM     61  C   UNL A   1      38.539  31.571  36.428  1.00  0.00     0.012 A 
ATOM     62  C   UNL A   1      39.990  33.363  35.651  1.00  0.00     0.148 A 
ATOM     63  C   UNL A   1      38.054  32.394  37.445  1.00  0.00     0.002 A 
ATOM     64  C   UNL A   1      39.536  34.162  36.692  1.00  0.00     0.091 A 
ATOM     65  F   UNL A   1      40.877  33.810  34.750  1.00  0.00    -0.205 F 
ATOM     66  C   UNL A   1      38.557  33.685  37.581  1.00  0.00     0.022 A 
BRANCH  64  67
ATOM     67  S   UNL A   1      40.165  35.817  36.989  1.00  0.00     0.127 S 
ATOM     68  O   UNL A   1      41.610  35.587  36.991  1.00  0.00    -0.237 OA
ATOM     69  O   UNL A   1      39.666  36.546  35.823  1.00  0.00    -0.237 OA
ATOM     70  O   UNL A   1      39.602  36.241  38.263  1.00  0.00    -0.744 OA
ENDBRANCH  64  67
ENDBRANCH  46  60
BRANCH  47  71
ATOM     71  C   UNL A   1      42.373  26.541  27.618  1.00  0.00     0.023 A 
ATOM     72  C   UNL A   1      43.166  27.133  26.615  1.00  0.00     0.012 A 
ATOM     73  C   UNL A   1      42.009  25.186  27.489  1.00  0.00     0.148 A 
ATOM     74  C   UNL A   1      43.554  26.404  25.489  1.00  0.00     0.002 A 
ATOM     75  C   UNL A   1      42.445  24.449  26.395  1.00  0.00     0.091 A 
ATOM     76  F   UNL A   1      41.240  24.643  28.444  1.00  0.00    -0.205 F 
ATOM     77  C   UNL A   1      43.201  25.060  25.383  1.00  0.00     0.022 A 
BRANCH  75  78
ATOM     78  S   UNL A   1      42.138  22.687  26.234  1.00  0.00     0.127 S 
ATOM     79  O   UNL A   1      42.787  22.160  27.432  1.00  0.00    -0.237 OA
ATOM     80  O   UNL A   1      40.675  22.635  26.252  1.00  0.00    -0.237 OA
ATOM     81  O   UNL A   1      42.738  22.295  24.967  1.00  0.00    -0.744 OA
ENDBRANCH  75  78
ENDBRANCH  47  71
BRANCH  59  82
ATOM     82  C   UNL A   1      44.682  27.199  34.174  1.00  0.00     0.023 A 
ATOM     83  C   UNL A   1      45.955  27.801  34.206  1.00  0.00     0.012 A 
ATOM     84  C   UNL A   1      44.462  26.008  34.894  1.00  0.00     0.148 A 
ATOM     85  C   UNL A   1      47.005  27.202  34.901  1.00  0.00     0.002 A 
ATOM     86  C   UNL A   1      45.496  25.449  35.632  1.00  0.00     0.091 A 
ATOM     87  F   UNL A   1      43.249  25.440  34.838  1.00  0.00    -0.205 F 
ATOM     88  C   UNL A   1      46.773  26.034  35.624  1.00  0.00     0.022 A 
BRANCH  86  89
ATOM     89  S   UNL A   1      45.254  24.008  36.677  1.00  0.00     0.127 S 
ATOM     90  O   UNL A   1      44.555  24.584  37.824  1.00  0.00    -0.237 OA
ATOM     91  O   UNL A   1      44.430  23.145  35.830  1.00  0.00    -0.237 OA
ATOM     92  O   UNL A   1      46.588  23.486  36.950  1.00  0.00    -0.744 OA
ENDBRANCH  86  89
ENDBRANCH  59  82
ENDBRANCH  33  34
ENDBRANCH  26  28
ENDBRANCH  25  26
ENDBRANCH  24  25
ENDBRANCH   1  24
TORSDOF 19
ENDMDL
MODEL 2
REMARK VINA RESULT:     -10.8      1.703      7.823
REMARK SMILES CC[C@]1(C(=O)OCCOC(=O)c2ccc(-c3c4nc(c(-c5cccc(S(=O)(=O)[O-])c5F)c5ccc([nH]5)c(-c5cccc(S(=O)(=O)[O-])c5F)c5nc(c(-c6cccc(S(=O)(=O)[O-])c6F)c6ccc3[nH]6)C=C5)C=C4)cc2)CC[N@@H+](Cc2ccc(CC(C)C)cc2)C1
REMARK SMILES IDX 7 1 6 2 4 3 5 4 3 5 75 6 89 7 76 8 77 9 2 11 1 12 78 13
REMARK SMILES IDX 79 14 80 15 88 16 81 17 87 18 82 19 83 20 84 21 85 22 86 23
REMARK SMILES IDX 8 24 9 25 10 26 11 27 12 28 13 29 74 30 14 31 73 32 15 33
REMARK SMILES IDX 16 34 17 35 67 36 18 37 72 38 66 39 68 40 19 41 71 42 65 43
REMARK SMILES IDX 64 44 20 46 52 47 32 48 51 49 33 50 36 51 50 52 69 53 34 54
REMARK SMILES IDX 35 55 49 57 70 58 37 59 21 60 22 61 30 62 23 63 25 64 31 65
REMARK SMILES IDX 24 66 26 67 27 68 28 69 29 70 53 71 54 72 62 73 55 74 57 75
REMARK SMILES IDX 63 76 56 77 58 78 59 79 60 80 61 81 38 82 39 83 47 84 40 85
REMARK SMILES IDX 42 86 48 87 41 88 43 89 44 90 45 91 46 92
REMARK H PARENT 77 10 68 45 36 56
REMARK Flexibility Score: inf
ROOT
ATOM      1  C   UNL A   1      32.365  28.905  25.701  1.00  0.00     0.274 C 
ENDROOT
BRANCH   1   2
ATOM      2  O   UNL A   1      31.127  28.577  25.043  1.00  0.00    -0.461 OA
BRANCH   2   3
ATOM      3  C   UNL A   1      30.850  27.252  25.035  1.00  0.00     0.318 C 
ATOM      4  O   UNL A   1      30.890  26.548  26.042  1.00  0.00    -0.251 OA
BRANCH   3   5
ATOM      5  C   UNL A   1      30.407  26.711  23.680  1.00  0.00     0.122 C 
ATOM      6  C   UNL A   1      30.770  27.478  22.397  1.00  0.00     0.086 C 
ATOM      7  C   UNL A   1      31.165  25.369  23.509  1.00  0.00     0.281 C 
ATOM      8  C   UNL A   1      31.221  26.387  21.430  1.00  0.00     0.263 C 
ATOM      9  N   UNL A   1      31.939  25.420  22.257  1.00  0.00    -0.330 N 
ATOM     10  H   UNL A   1      31.980  24.512  21.791  1.00  0.00     0.348 HD
BRANCH   5  11
ATOM     11  C   UNL A   1      28.863  26.544  23.718  1.00  0.00     0.021 C 
ATOM     12  C   UNL A   1      28.107  27.835  23.390  1.00  0.00     0.005 C 
ENDBRANCH   5  11
BRANCH   9  13
ATOM     13  C   UNL A   1      33.395  25.639  22.425  1.00  0.00     0.299 C 
BRANCH  13  14
ATOM     14  C   UNL A   1      34.146  24.741  23.389  1.00  0.00     0.006 A 
ATOM     15  C   UNL A   1      34.418  25.191  24.691  1.00  0.00     0.010 A 
ATOM     16  C   UNL A   1      34.476  23.422  23.055  1.00  0.00     0.010 A 
ATOM     17  C   UNL A   1      34.862  24.308  25.673  1.00  0.00     0.004 A 
ATOM     18  C   UNL A   1      34.939  22.540  24.039  1.00  0.00     0.004 A 
ATOM     19  C   UNL A   1      35.085  22.963  25.366  1.00  0.00    -0.048 A 
BRANCH  19  20
ATOM     20  C   UNL A   1      35.422  21.979  26.462  1.00  0.00     0.038 C 
BRANCH  20  21
ATOM     21  C   UNL A   1      34.200  21.350  27.151  1.00  0.00    -0.013 C 
ATOM     22  C   UNL A   1      33.354  22.387  27.893  1.00  0.00     0.008 C 
ATOM     23  C   UNL A   1      33.334  20.637  26.108  1.00  0.00     0.008 C 
ENDBRANCH  20  21
ENDBRANCH  19  20
ENDBRANCH  13  14
ENDBRANCH   9  13
ENDBRANCH   3   5
ENDBRANCH   2   3
ENDBRANCH   1   2
BRANCH   1  24
ATOM     24  C   UNL A   1      32.468  30.409  25.943  1.00  0.00     0.275 C 
BRANCH  24  25
ATOM     25  O   UNL A   1      32.773  30.660  27.324  1.00  0.00    -0.458 OA
BRANCH  25  26
ATOM     26  C   UNL A   1      33.527  31.769  27.528  1.00  0.00     0.338 C 
ATOM     27  O   UNL A   1      33.170  32.927  27.433  1.00  0.00    -0.246 OA
BRANCH  26  28
ATOM     28  C   UNL A   1      34.849  31.374  28.041  1.00  0.00     0.060 A 
ATOM     29  C   UNL A   1      35.002  30.051  28.466  1.00  0.00     0.016 A 
ATOM     30  C   UNL A   1      35.908  32.281  28.128  1.00  0.00     0.016 A 
ATOM     31  C   UNL A   1      36.223  29.617  28.963  1.00  0.00     0.010 A 
ATOM     32  C   UNL A   1      37.122  31.859  28.672  1.00  0.00     0.010 A 
ATOM     33  C   UNL A   1      37.273  30.531  29.105  1.00  0.00    -0.014 A 
BRANCH  33  34
ATOM     34  C   UNL A   1      38.443  30.124  29.904  1.00  0.00     0.031 A 
ATOM     35  C   UNL A   1      39.402  29.147  29.291  1.00  0.00     0.074 A 
ATOM     36  C   UNL A   1      38.673  30.666  31.111  1.00  0.00     0.049 A 
ATOM     37  N   UNL A   1      40.537  28.700  29.752  1.00  0.00    -0.248 NA
ATOM     38  C   UNL A   1      39.037  28.617  27.963  1.00  0.00     0.031 C 
ATOM     39  C   UNL A   1      37.819  31.653  31.770  1.00  0.00     0.029 A 
ATOM     40  N   UNL A   1      39.697  30.457  31.997  1.00  0.00    -0.354 N 
ATOM     41  C   UNL A   1      41.021  27.834  28.779  1.00  0.00     0.074 A 
ATOM     42  C   UNL A   1      40.056  27.813  27.704  1.00  0.00     0.031 C 
ATOM     43  C   UNL A   1      38.346  31.950  32.971  1.00  0.00     0.029 A 
ATOM     44  C   UNL A   1      39.561  31.160  33.169  1.00  0.00     0.049 A 
ATOM     45  H   UNL A   1      40.458  29.860  31.811  1.00  0.00     0.167 HD
ATOM     46  C   UNL A   1      42.171  27.122  28.784  1.00  0.00     0.034 A 
ATOM     47  C   UNL A   1      40.327  31.149  34.277  1.00  0.00     0.034 A 
ATOM     48  C   UNL A   1      43.100  27.120  29.879  1.00  0.00     0.049 A 
ATOM     49  C   UNL A   1      41.572  30.297  34.278  1.00  0.00     0.074 A 
ATOM     50  C   UNL A   1      44.282  26.417  30.007  1.00  0.00     0.029 A 
ATOM     51  N   UNL A   1      42.932  27.843  31.051  1.00  0.00    -0.354 N 
ATOM     52  N   UNL A   1      42.065  29.548  33.320  1.00  0.00    -0.248 NA
ATOM     53  C   UNL A   1      42.386  30.317  35.501  1.00  0.00     0.031 C 
ATOM     54  C   UNL A   1      44.810  26.685  31.275  1.00  0.00     0.029 A 
ATOM     55  C   UNL A   1      43.981  27.594  31.917  1.00  0.00     0.049 A 
ATOM     56  H   UNL A   1      42.176  28.445  31.240  1.00  0.00     0.167 HD
ATOM     57  C   UNL A   1      43.263  29.038  33.808  1.00  0.00     0.074 A 
ATOM     58  C   UNL A   1      43.432  29.585  35.141  1.00  0.00     0.031 C 
ATOM     59  C   UNL A   1      44.141  28.186  33.220  1.00  0.00     0.034 A 
BRANCH  46  60
ATOM     60  C   UNL A   1      42.454  26.270  27.576  1.00  0.00     0.023 A 
ATOM     61  C   UNL A   1      43.101  26.828  26.455  1.00  0.00     0.012 A 
ATOM     62  C   UNL A   1      42.071  24.915  27.550  1.00  0.00     0.148 A 
ATOM     63  C   UNL A   1      43.328  26.062  25.311  1.00  0.00     0.002 A 
ATOM     64  C   UNL A   1      42.339  24.146  26.425  1.00  0.00     0.091 A 
ATOM     65  F   UNL A   1      41.431  24.412  28.615  1.00  0.00    -0.205 F 
ATOM     66  C   UNL A   1      42.954  24.721  25.299  1.00  0.00     0.022 A 
BRANCH  64  67
ATOM     67  S   UNL A   1      41.952  22.395  26.333  1.00  0.00     0.127 S 
ATOM     68  O   UNL A   1      40.491  22.420  26.255  1.00  0.00    -0.237 OA
ATOM     69  O   UNL A   1      42.622  22.000  25.094  1.00  0.00    -0.237 OA
ATOM     70  O   UNL A   1      42.499  21.797  27.542  1.00  0.00    -0.744 OA
ENDBRANCH  64  67
ENDBRANCH  46  60
BRANCH  47  71
ATOM     71  C   UNL A   1      39.959  31.975  35.461  1.00  0.00     0.023 A 
ATOM     72  C   UNL A   1      40.579  33.223  35.670  1.00  0.00     0.012 A 
ATOM     73  C   UNL A   1      39.001  31.525  36.391  1.00  0.00     0.148 A 
ATOM     74  C   UNL A   1      40.282  33.987  36.800  1.00  0.00     0.002 A 
ATOM     75  C   UNL A   1      38.667  32.316  37.484  1.00  0.00     0.091 A 
ATOM     76  F   UNL A   1      38.433  30.328  36.185  1.00  0.00    -0.205 F 
ATOM     77  C   UNL A   1      39.320  33.538  37.702  1.00  0.00     0.022 A 
BRANCH  75  78
ATOM     78  S   UNL A   1      37.359  31.871  38.632  1.00  0.00     0.127 S 
ATOM     79  O   UNL A   1      37.100  30.481  38.265  1.00  0.00    -0.237 OA
ATOM     80  O   UNL A   1      38.019  32.056  39.925  1.00  0.00    -0.237 OA
ATOM     81  O   UNL A   1      36.272  32.805  38.371  1.00  0.00    -0.744 OA
ENDBRANCH  75  78
ENDBRANCH  47  71
BRANCH  59  82
ATOM     82  C   UNL A   1      45.384  27.830  33.996  1.00  0.00     0.023 A 
ATOM     83  C   UNL A   1      46.537  28.632  33.894  1.00  0.00     0.012 A 
ATOM     84  C   UNL A   1      45.383  26.728  34.873  1.00  0.00     0.148 A 
ATOM     85  C   UNL A   1      47.688  28.313  34.615  1.00  0.00     0.002 A 
ATOM     86  C   UNL A   1      46.512  26.451  35.632  1.00  0.00     0.091 A 
ATOM     87  F   UNL A   1      44.282  25.966  34.944  1.00  0.00    -0.205 F 
ATOM     88  C   UNL A   1      47.671  27.231  35.493  1.00  0.00     0.022 A 
BRANCH  86  89
ATOM     89  S   UNL A   1      46.539  25.144  36.864  1.00  0.00     0.127 S 
ATOM     90  O   UNL A   1      47.889  25.277  37.411  1.00  0.00    -0.237 OA
ATOM     91  O   UNL A   1      45.469  25.553  37.775  1.00  0.00    -0.237 OA
ATOM     92  O   UNL A   1      46.273  23.908  36.140  1.00  0.00    -0.744 OA
ENDBRANCH  86  89
ENDBRANCH  59  82
ENDBRANCH  33  34
ENDBRANCH  26  28
ENDBRANCH  25  26
ENDBRANCH  24  25
ENDBRANCH   1  24
TORSDOF 19
ENDMDL
MODEL 3
REMARK VINA RESULT:     -10.7      4.679     10.521
REMARK SMILES CC[C@]1(C(=O)OCCOC(=O)c2ccc(-c3c4nc(c(-c5cccc(S(=O)(=O)[O-])c5F)c5ccc([nH]5)c(-c5cccc(S(=O)(=O)[O-])c5F)c5nc(c(-c6cccc(S(=O)(=O)[O-])c6F)c6ccc3[nH]6)C=C5)C=C4)cc2)CC[N@@H+](Cc2ccc(CC(C)C)cc2)C1
REMARK SMILES IDX 7 1 6 2 4 3 5 4 3 5 75 6 89 7 76 8 77 9 2 11 1 12 78 13
REMARK SMILES IDX 79 14 80 15 88 16 81 17 87 18 82 19 83 20 84 21 85 22 86 23
REMARK SMILES IDX 8 24 9 25 10 26 11 27 12 28 13 29 74 30 14 31 73 32 15 33
REMARK SMILES IDX 16 34 17 35 67 36 18 37 72 38 66 39 68 40 19 41 71 42 65 43
REMARK SMILES IDX 64 44 20 46 52 47 32 48 51 49 33 50 36 51 50 52 69 53 34 54
REMARK SMILES IDX 35 55 49 57 70 58 37 59 21 60 22 61 30 62 23 63 25 64 31 65
REMARK SMILES IDX 24 66 26 67 27 68 28 69 29 70 53 71 54 72 62 73 55 74 57 75
REMARK SMILES IDX 63 76 56 77 58 78 59 79 60 80 61 81 38 82 39 83 47 84 40 85
REMARK SMILES IDX 42 86 48 87 41 88 43 89 44 90 45 91 46 92
REMARK H PARENT 77 10 68 45 36 56
REMARK Flexibility Score: inf
ROOT
ATOM      1  C   UNL A   1      36.181  20.991  25.778  1.00  0.00     0.274 C 
ENDROOT
BRANCH   1   2
ATOM      2  O   UNL A   1      35.335  20.964  24.612  1.00  0.00    -0.461 OA
BRANCH   2   3
ATOM      3  C   UNL A   1      34.474  19.920  24.589  1.00  0.00     0.318 C 
ATOM      4  O   UNL A   1      34.834  18.746  24.662  1.00  0.00    -0.251 OA
BRANCH   3   5
ATOM      5  C   UNL A   1      33.004  20.319  24.539  1.00  0.00     0.122 C 
ATOM      6  C   UNL A   1      32.299  20.797  25.820  1.00  0.00     0.086 C 
ATOM      7  C   UNL A   1      32.952  21.571  23.625  1.00  0.00     0.281 C 
ATOM      8  C   UNL A   1      31.487  22.006  25.365  1.00  0.00     0.263 C 
ATOM      9  N   UNL A   1      32.324  22.675  24.372  1.00  0.00    -0.330 N 
ATOM     10  H   UNL A   1      31.757  23.274  23.771  1.00  0.00     0.348 HD
BRANCH   5  11
ATOM     11  C   UNL A   1      32.204  19.112  23.974  1.00  0.00     0.021 C 
ATOM     12  C   UNL A   1      32.251  19.019  22.446  1.00  0.00     0.005 C 
ENDBRANCH   5  11
BRANCH   9  13
ATOM     13  C   UNL A   1      33.261  23.705  24.877  1.00  0.00     0.299 C 
BRANCH  13  14
ATOM     14  C   UNL A   1      32.904  25.163  24.663  1.00  0.00     0.006 A 
ATOM     15  C   UNL A   1      31.611  25.615  24.974  1.00  0.00     0.010 A 
ATOM     16  C   UNL A   1      33.865  26.103  24.273  1.00  0.00     0.010 A 
ATOM     17  C   UNL A   1      31.329  26.978  25.043  1.00  0.00     0.004 A 
ATOM     18  C   UNL A   1      33.575  27.472  24.327  1.00  0.00     0.004 A 
ATOM     19  C   UNL A   1      32.322  27.921  24.762  1.00  0.00    -0.048 A 
BRANCH  19  20
ATOM     20  C   UNL A   1      32.057  29.392  24.982  1.00  0.00     0.038 C 
BRANCH  20  21
ATOM     21  C   UNL A   1      32.023  29.819  26.458  1.00  0.00    -0.013 C 
ATOM     22  C   UNL A   1      33.375  29.633  27.148  1.00  0.00     0.008 C 
ATOM     23  C   UNL A   1      31.597  31.287  26.557  1.00  0.00     0.008 C 
ENDBRANCH  20  21
ENDBRANCH  19  20
ENDBRANCH  13  14
ENDBRANCH   9  13
ENDBRANCH   3   5
ENDBRANCH   2   3
ENDBRANCH   1   2
BRANCH   1  24
ATOM     24  C   UNL A   1      37.182  22.141  25.695  1.00  0.00     0.275 C 
BRANCH  24  25
ATOM     25  O   UNL A   1      38.429  21.663  25.167  1.00  0.00    -0.458 OA
BRANCH  25  26
ATOM     26  C   UNL A   1      39.364  21.403  26.115  1.00  0.00     0.338 C 
ATOM     27  O   UNL A   1      39.876  20.329  26.365  1.00  0.00    -0.246 OA
BRANCH  26  28
ATOM     28  C   UNL A   1      39.801  22.667  26.731  1.00  0.00     0.060 A 
ATOM     29  C   UNL A   1      39.267  23.850  26.214  1.00  0.00     0.016 A 
ATOM     30  C   UNL A   1      40.729  22.697  27.774  1.00  0.00     0.016 A 
ATOM     31  C   UNL A   1      39.641  25.075  26.749  1.00  0.00     0.010 A 
ATOM     32  C   UNL A   1      41.144  23.929  28.282  1.00  0.00     0.010 A 
ATOM     33  C   UNL A   1      40.611  25.118  27.756  1.00  0.00    -0.014 A 
BRANCH  33  34
ATOM     34  C   UNL A   1      41.204  26.426  28.091  1.00  0.00     0.031 A 
ATOM     35  C   UNL A   1      42.596  26.706  27.608  1.00  0.00     0.074 A 
ATOM     36  C   UNL A   1      40.489  27.357  28.745  1.00  0.00     0.049 A 
ATOM     37  N   UNL A   1      43.300  27.801  27.699  1.00  0.00    -0.248 NA
ATOM     38  C   UNL A   1      43.280  25.604  26.907  1.00  0.00     0.031 C 
ATOM     39  C   UNL A   1      39.116  27.190  29.217  1.00  0.00     0.029 A 
ATOM     40  N   UNL A   1      40.827  28.629  29.126  1.00  0.00    -0.354 N 
ATOM     41  C   UNL A   1      44.510  27.520  27.076  1.00  0.00     0.074 A 
ATOM     42  C   UNL A   1      44.448  26.153  26.614  1.00  0.00     0.031 C 
ATOM     43  C   UNL A   1      38.734  28.315  29.846  1.00  0.00     0.029 A 
ATOM     44  C   UNL A   1      39.841  29.269  29.836  1.00  0.00     0.049 A 
ATOM     45  H   UNL A   1      41.695  29.043  28.912  1.00  0.00     0.167 HD
ATOM     46  C   UNL A   1      45.575  28.335  26.904  1.00  0.00     0.034 A 
ATOM     47  C   UNL A   1      39.848  30.483  30.420  1.00  0.00     0.034 A 
ATOM     48  C   UNL A   1      45.638  29.678  27.407  1.00  0.00     0.049 A 
ATOM     49  C   UNL A   1      41.074  31.347  30.264  1.00  0.00     0.074 A 
ATOM     50  C   UNL A   1      46.676  30.586  27.318  1.00  0.00     0.029 A 
ATOM     51  N   UNL A   1      44.622  30.296  28.122  1.00  0.00    -0.354 N 
ATOM     52  N   UNL A   1      42.180  31.104  29.600  1.00  0.00    -0.248 NA
ATOM     53  C   UNL A   1      41.039  32.666  30.909  1.00  0.00     0.031 C 
ATOM     54  C   UNL A   1      46.302  31.742  28.013  1.00  0.00     0.029 A 
ATOM     55  C   UNL A   1      45.011  31.571  28.493  1.00  0.00     0.049 A 
ATOM     56  H   UNL A   1      43.751  29.889  28.334  1.00  0.00     0.167 HD
ATOM     57  C   UNL A   1      42.956  32.253  29.714  1.00  0.00     0.074 A 
ATOM     58  C   UNL A   1      42.180  33.199  30.493  1.00  0.00     0.031 C 
ATOM     59  C   UNL A   1      44.200  32.504  29.233  1.00  0.00     0.034 A 
BRANCH  46  60
ATOM     60  C   UNL A   1      46.759  27.768  26.168  1.00  0.00     0.023 A 
ATOM     61  C   UNL A   1      46.878  27.954  24.775  1.00  0.00     0.012 A 
ATOM     62  C   UNL A   1      47.751  27.043  26.855  1.00  0.00     0.148 A 
ATOM     63  C   UNL A   1      47.947  27.395  24.072  1.00  0.00     0.002 A 
ATOM     64  C   UNL A   1      48.834  26.526  26.157  1.00  0.00     0.091 A 
ATOM     65  F   UNL A   1      47.602  26.853  28.174  1.00  0.00    -0.205 F 
ATOM     66  C   UNL A   1      48.926  26.688  24.764  1.00  0.00     0.022 A 
BRANCH  64  67
ATOM     67  S   UNL A   1      50.179  25.653  26.964  1.00  0.00     0.127 S 
ATOM     68  O   UNL A   1      51.106  25.445  25.852  1.00  0.00    -0.237 OA
ATOM     69  O   UNL A   1      50.626  26.631  27.956  1.00  0.00    -0.237 OA
ATOM     70  O   UNL A   1      49.597  24.440  27.521  1.00  0.00    -0.744 OA
ENDBRANCH  64  67
ENDBRANCH  46  60
BRANCH  47  71
ATOM     71  C   UNL A   1      38.660  30.962  31.184  1.00  0.00     0.023 A 
ATOM     72  C   UNL A   1      38.612  30.805  32.583  1.00  0.00     0.012 A 
ATOM     73  C   UNL A   1      37.570  31.565  30.526  1.00  0.00     0.148 A 
ATOM     74  C   UNL A   1      37.487  31.204  33.307  1.00  0.00     0.002 A 
ATOM     75  C   UNL A   1      36.477  32.012  31.259  1.00  0.00     0.091 A 
ATOM     76  F   UNL A   1      37.626  31.691  29.193  1.00  0.00    -0.205 F 
ATOM     77  C   UNL A   1      36.423  31.814  32.646  1.00  0.00     0.022 A 
BRANCH  75  78
ATOM     78  S   UNL A   1      35.116  32.912  30.508  1.00  0.00     0.127 S 
ATOM     79  O   UNL A   1      34.671  31.976  29.478  1.00  0.00    -0.237 OA
ATOM     80  O   UNL A   1      34.199  33.067  31.638  1.00  0.00    -0.237 OA
ATOM     81  O   UNL A   1      35.690  34.159  30.022  1.00  0.00    -0.744 OA
ENDBRANCH  75  78
ENDBRANCH  47  71
BRANCH  59  82
ATOM     82  C   UNL A   1      44.780  33.870  29.497  1.00  0.00     0.023 A 
ATOM     83  C   UNL A   1      45.546  34.103  30.657  1.00  0.00     0.012 A 
ATOM     84  C   UNL A   1      44.611  34.908  28.561  1.00  0.00     0.148 A 
ATOM     85  C   UNL A   1      46.092  35.362  30.904  1.00  0.00     0.002 A 
ATOM     86  C   UNL A   1      45.208  36.141  28.784  1.00  0.00     0.091 A 
ATOM     87  F   UNL A   1      43.865  34.673  27.471  1.00  0.00    -0.205 F 
ATOM     88  C   UNL A   1      45.933  36.377  29.963  1.00  0.00     0.022 A 
BRANCH  86  89
ATOM     89  S   UNL A   1      45.145  37.467  27.574  1.00  0.00     0.127 S 
ATOM     90  O   UNL A   1      45.720  38.583  28.323  1.00  0.00    -0.237 OA
ATOM     91  O   UNL A   1      45.995  36.950  26.502  1.00  0.00    -0.237 OA
ATOM     92  O   UNL A   1      43.740  37.610  27.212  1.00  0.00    -0.744 OA
ENDBRANCH  86  89
ENDBRANCH  59  82
ENDBRANCH  33  34
ENDBRANCH  26  28
ENDBRANCH  25  26
ENDBRANCH  24  25
ENDBRANCH   1  24
TORSDOF 19
ENDMDL
