MODEL 1
REMARK VINA RESULT:     -10.2      0.000      0.000
REMARK SMILES Cc1ccc(C)c(S(=O)(=O)[C@H](C)C(=O)OCCOC(=O)c2ccc(-c3c4nc(c(-c5cccc(S(=O)(=O)[O-])c5F)c5ccc([nH]5)c(-c5cccc(S(=O)(=O)[O-])c5F)c5nc(c(-c6cccc(S(=O)(=O)[O-])c6F)c6ccc3[nH]6)C=C5)C=C4)cc2)c1
REMARK SMILES IDX 17 1 16 2 15 3 13 4 14 5 11 6 12 7 8 8 9 9 10 10 7 11 1 12
REMARK SMILES IDX 2 13 3 14 84 15 4 16 5 17 6 18 18 19 19 20 20 21 21 22 22 23
REMARK SMILES IDX 83 24 23 25 82 26 24 27 25 28 26 29 76 30 27 31 81 32 75 33
REMARK SMILES IDX 77 34 28 35 80 36 74 37 73 38 29 40 61 41 41 42 60 43 42 44
REMARK SMILES IDX 45 45 59 46 78 47 43 48 44 49 58 51 79 52 46 53 30 54 31 55
REMARK SMILES IDX 39 56 32 57 34 58 40 59 33 60 35 61 36 62 37 63 38 64 62 65
REMARK SMILES IDX 63 66 71 67 64 68 66 69 72 70 65 71 67 72 68 73 69 74 70 75
REMARK SMILES IDX 47 76 48 77 56 78 49 79 51 80 57 81 50 82 52 83 53 84 54 85
REMARK SMILES IDX 55 86
REMARK H PARENT 77 39 45 50
REMARK Flexibility Score: inf
ROOT
ATOM      1  C   UNL A   1      41.649  20.263  26.048  1.00  0.00     0.275 C 
ENDROOT
BRANCH   1   2
ATOM      2  C   UNL A   1      43.165  20.322  25.808  1.00  0.00     0.274 C 
BRANCH   2   3
ATOM      3  O   UNL A   1      43.617  21.678  25.928  1.00  0.00    -0.461 OA
BRANCH   3   4
ATOM      4  C   UNL A   1      44.245  22.247  24.852  1.00  0.00     0.324 C 
ATOM      5  O   UNL A   1      44.475  21.655  23.810  1.00  0.00    -0.251 OA
BRANCH   4   6
ATOM      6  C   UNL A   1      44.419  23.721  25.077  1.00  0.00     0.219 C 
ATOM      7  C   UNL A   1      43.055  24.405  25.210  1.00  0.00     0.038 C 
BRANCH   6   8
ATOM      8  S   UNL A   1      45.409  24.042  26.526  1.00  0.00     0.192 S 
ATOM      9  O   UNL A   1      46.179  22.846  26.799  1.00  0.00    -0.223 OA
ATOM     10  O   UNL A   1      44.504  24.540  27.554  1.00  0.00    -0.223 OA
BRANCH   8  11
ATOM     11  C   UNL A   1      46.508  25.445  26.242  1.00  0.00     0.071 A 
ATOM     12  C   UNL A   1      46.886  28.135  23.524  1.00  0.00     0.044 C 
ATOM     13  C   UNL A   1      47.062  27.357  24.796  1.00  0.00    -0.050 A 
ATOM     14  C   UNL A   1      47.898  27.858  25.789  1.00  0.00     0.004 A 
ATOM     15  C   UNL A   1      46.356  26.166  25.037  1.00  0.00     0.024 A 
ATOM     16  C   UNL A   1      48.039  27.171  26.993  1.00  0.00     0.005 A 
ATOM     17  C   UNL A   1      47.352  25.963  27.247  1.00  0.00    -0.032 A 
ATOM     18  C   UNL A   1      47.539  25.418  28.637  1.00  0.00     0.046 C 
ENDBRANCH   8  11
ENDBRANCH   6   8
ENDBRANCH   4   6
ENDBRANCH   3   4
ENDBRANCH   2   3
ENDBRANCH   1   2
BRANCH   1  19
ATOM     19  O   UNL A   1      40.843  21.400  25.593  1.00  0.00    -0.458 OA
BRANCH  19  20
ATOM     20  C   UNL A   1      39.756  21.981  26.161  1.00  0.00     0.338 C 
ATOM     21  O   UNL A   1      38.624  21.555  25.961  1.00  0.00    -0.246 OA
BRANCH  20  22
ATOM     22  C   UNL A   1      39.964  23.098  27.101  1.00  0.00     0.060 A 
ATOM     23  C   UNL A   1      41.016  23.024  28.031  1.00  0.00     0.016 A 
ATOM     24  C   UNL A   1      39.217  24.257  26.966  1.00  0.00     0.016 A 
ATOM     25  C   UNL A   1      41.448  24.178  28.679  1.00  0.00     0.010 A 
ATOM     26  C   UNL A   1      39.728  25.417  27.495  1.00  0.00     0.010 A 
ATOM     27  C   UNL A   1      40.837  25.387  28.355  1.00  0.00    -0.014 A 
BRANCH  27  28
ATOM     28  C   UNL A   1      41.308  26.658  28.897  1.00  0.00     0.031 A 
ATOM     29  C   UNL A   1      42.495  27.349  28.280  1.00  0.00     0.074 A 
ATOM     30  C   UNL A   1      40.447  27.359  29.663  1.00  0.00     0.049 A 
ATOM     31  N   UNL A   1      43.561  27.794  28.873  1.00  0.00    -0.248 NA
ATOM     32  C   UNL A   1      42.504  27.591  26.833  1.00  0.00     0.031 C 
ATOM     33  C   UNL A   1      39.071  27.009  30.053  1.00  0.00     0.029 A 
ATOM     34  N   UNL A   1      40.546  28.655  30.035  1.00  0.00    -0.354 N 
ATOM     35  C   UNL A   1      44.319  28.482  27.907  1.00  0.00     0.074 A 
ATOM     36  C   UNL A   1      43.672  28.213  26.651  1.00  0.00     0.031 C 
ATOM     37  C   UNL A   1      38.382  28.147  30.287  1.00  0.00     0.029 A 
ATOM     38  C   UNL A   1      39.319  29.251  30.280  1.00  0.00     0.049 A 
ATOM     39  H   UNL A   1      41.405  29.128  30.124  1.00  0.00     0.167 HD
ATOM     40  C   UNL A   1      45.333  29.343  28.238  1.00  0.00     0.034 A 
ATOM     41  C   UNL A   1      39.098  30.578  30.382  1.00  0.00     0.034 A 
ATOM     42  C   UNL A   1      45.642  29.254  29.643  1.00  0.00     0.049 A 
ATOM     43  C   UNL A   1      40.398  31.201  30.739  1.00  0.00     0.074 A 
ATOM     44  C   UNL A   1      46.099  28.270  30.495  1.00  0.00     0.029 A 
ATOM     45  N   UNL A   1      45.140  30.239  30.462  1.00  0.00    -0.354 N 
ATOM     46  N   UNL A   1      41.046  30.910  31.839  1.00  0.00    -0.248 NA
ATOM     47  C   UNL A   1      41.206  31.766  29.670  1.00  0.00     0.031 C 
ATOM     48  C   UNL A   1      45.342  28.463  31.690  1.00  0.00     0.029 A 
ATOM     49  C   UNL A   1      44.528  29.585  31.496  1.00  0.00     0.049 A 
ATOM     50  H   UNL A   1      45.205  31.212  30.330  1.00  0.00     0.167 HD
ATOM     51  C   UNL A   1      42.380  30.837  31.456  1.00  0.00     0.074 A 
ATOM     52  C   UNL A   1      42.425  31.478  30.138  1.00  0.00     0.031 C 
ATOM     53  C   UNL A   1      43.276  30.010  32.084  1.00  0.00     0.034 A 
BRANCH  40  54
ATOM     54  C   UNL A   1      45.912  30.500  27.431  1.00  0.00     0.023 A 
ATOM     55  C   UNL A   1      47.295  30.777  27.621  1.00  0.00     0.012 A 
ATOM     56  C   UNL A   1      45.168  31.478  26.739  1.00  0.00     0.148 A 
ATOM     57  C   UNL A   1      47.878  31.992  27.244  1.00  0.00     0.002 A 
ATOM     58  C   UNL A   1      45.770  32.665  26.308  1.00  0.00     0.091 A 
ATOM     59  F   UNL A   1      43.851  31.331  26.585  1.00  0.00    -0.205 F 
ATOM     60  C   UNL A   1      47.112  32.941  26.591  1.00  0.00     0.022 A 
BRANCH  58  61
ATOM     61  S   UNL A   1      44.852  33.930  25.415  1.00  0.00     0.127 S 
ATOM     62  O   UNL A   1      45.921  34.842  25.018  1.00  0.00    -0.237 OA
ATOM     63  O   UNL A   1      44.261  33.161  24.318  1.00  0.00    -0.237 OA
ATOM     64  O   UNL A   1      43.882  34.449  26.369  1.00  0.00    -0.744 OA
ENDBRANCH  58  61
ENDBRANCH  40  54
BRANCH  41  65
ATOM     65  C   UNL A   1      37.912  31.305  29.886  1.00  0.00     0.023 A 
ATOM     66  C   UNL A   1      37.488  31.146  28.558  1.00  0.00     0.012 A 
ATOM     67  C   UNL A   1      37.073  32.019  30.779  1.00  0.00     0.148 A 
ATOM     68  C   UNL A   1      36.267  31.681  28.128  1.00  0.00     0.002 A 
ATOM     69  C   UNL A   1      35.867  32.559  30.344  1.00  0.00     0.091 A 
ATOM     70  F   UNL A   1      37.421  32.098  32.071  1.00  0.00    -0.205 F 
ATOM     71  C   UNL A   1      35.458  32.386  29.017  1.00  0.00     0.022 A 
BRANCH  69  72
ATOM     72  S   UNL A   1      34.782  33.486  31.442  1.00  0.00     0.127 S 
ATOM     73  O   UNL A   1      34.246  32.431  32.304  1.00  0.00    -0.237 OA
ATOM     74  O   UNL A   1      35.716  34.396  32.097  1.00  0.00    -0.237 OA
ATOM     75  O   UNL A   1      33.786  34.110  30.578  1.00  0.00    -0.744 OA
ENDBRANCH  69  72
ENDBRANCH  41  65
BRANCH  53  76
ATOM     76  C   UNL A   1      42.837  29.218  33.299  1.00  0.00     0.023 A 
ATOM     77  C   UNL A   1      42.023  28.073  33.171  1.00  0.00     0.012 A 
ATOM     78  C   UNL A   1      43.468  29.447  34.532  1.00  0.00     0.148 A 
ATOM     79  C   UNL A   1      41.834  27.183  34.231  1.00  0.00     0.002 A 
ATOM     80  C   UNL A   1      43.313  28.539  35.577  1.00  0.00     0.091 A 
ATOM     81  F   UNL A   1      44.257  30.525  34.650  1.00  0.00    -0.205 F 
ATOM     82  C   UNL A   1      42.493  27.408  35.432  1.00  0.00     0.022 A 
BRANCH  80  83
ATOM     83  S   UNL A   1      44.244  28.693  37.103  1.00  0.00     0.127 S 
ATOM     84  O   UNL A   1      43.927  27.439  37.780  1.00  0.00    -0.237 OA
ATOM     85  O   UNL A   1      45.625  28.798  36.625  1.00  0.00    -0.237 OA
ATOM     86  O   UNL A   1      43.750  29.902  37.750  1.00  0.00    -0.744 OA
ENDBRANCH  80  83
ENDBRANCH  53  76
ENDBRANCH  27  28
ENDBRANCH  20  22
ENDBRANCH  19  20
ENDBRANCH   1  19
TORSDOF 16
ENDMDL
MODEL 2
REMARK VINA RESULT:     -10.1      1.746      2.220
REMARK SMILES Cc1ccc(C)c(S(=O)(=O)[C@H](C)C(=O)OCCOC(=O)c2ccc(-c3c4nc(c(-c5cccc(S(=O)(=O)[O-])c5F)c5ccc([nH]5)c(-c5cccc(S(=O)(=O)[O-])c5F)c5nc(c(-c6cccc(S(=O)(=O)[O-])c6F)c6ccc3[nH]6)C=C5)C=C4)cc2)c1
REMARK SMILES IDX 17 1 16 2 15 3 13 4 14 5 11 6 12 7 8 8 9 9 10 10 7 11 1 12
REMARK SMILES IDX 2 13 3 14 84 15 4 16 5 17 6 18 18 19 19 20 20 21 21 22 22 23
REMARK SMILES IDX 83 24 23 25 82 26 24 27 25 28 26 29 76 30 27 31 81 32 75 33
REMARK SMILES IDX 77 34 28 35 80 36 74 37 73 38 29 40 61 41 41 42 60 43 42 44
REMARK SMILES IDX 45 45 59 46 78 47 43 48 44 49 58 51 79 52 46 53 30 54 31 55
REMARK SMILES IDX 39 56 32 57 34 58 40 59 33 60 35 61 36 62 37 63 38 64 62 65
REMARK SMILES IDX 63 66 71 67 64 68 66 69 72 70 65 71 67 72 68 73 69 74 70 75
REMARK SMILES IDX 47 76 48 77 56 78 49 79 51 80 57 81 50 82 52 83 53 84 54 85
REMARK SMILES IDX 55 86
REMARK H PARENT 77 39 45 50
REMARK Flexibility Score: inf
ROOT
ATOM      1  C   UNL A   1      41.019  20.371  26.444  1.00  0.00     0.275 C 
ENDROOT
BRANCH   1   2
ATOM      2  C   UNL A   1      42.540  20.424  26.235  1.00  0.00     0.274 C 
BRANCH   2   3
ATOM      3  O   UNL A   1      42.887  21.634  25.548  1.00  0.00    -0.461 OA
BRANCH   3   4
ATOM      4  C   UNL A   1      43.966  21.611  24.705  1.00  0.00     0.324 C 
ATOM      5  O   UNL A   1      44.414  20.593  24.205  1.00  0.00    -0.251 OA
BRANCH   4   6
ATOM      6  C   UNL A   1      44.370  23.012  24.348  1.00  0.00     0.219 C 
ATOM      7  C   UNL A   1      43.348  24.017  24.886  1.00  0.00     0.038 C 
BRANCH   6   8
ATOM      8  S   UNL A   1      45.995  23.396  24.975  1.00  0.00     0.192 S 
ATOM      9  O   UNL A   1      46.828  23.743  23.841  1.00  0.00    -0.223 OA
ATOM     10  O   UNL A   1      46.396  22.280  25.821  1.00  0.00    -0.223 OA
BRANCH   8  11
ATOM     11  C   UNL A   1      45.914  24.775  26.138  1.00  0.00     0.071 A 
ATOM     12  C   UNL A   1      46.274  28.593  25.902  1.00  0.00     0.044 C 
ATOM     13  C   UNL A   1      46.003  27.216  26.434  1.00  0.00    -0.050 A 
ATOM     14  C   UNL A   1      45.500  27.071  27.723  1.00  0.00     0.004 A 
ATOM     15  C   UNL A   1      46.187  26.069  25.642  1.00  0.00     0.024 A 
ATOM     16  C   UNL A   1      45.203  25.802  28.216  1.00  0.00     0.005 A 
ATOM     17  C   UNL A   1      45.398  24.636  27.443  1.00  0.00    -0.032 A 
ATOM     18  C   UNL A   1      44.922  23.367  28.096  1.00  0.00     0.046 C 
ENDBRANCH   8  11
ENDBRANCH   6   8
ENDBRANCH   4   6
ENDBRANCH   3   4
ENDBRANCH   2   3
ENDBRANCH   1   2
BRANCH   1  19
ATOM     19  O   UNL A   1      40.402  21.442  27.234  1.00  0.00    -0.458 OA
BRANCH  19  20
ATOM     20  C   UNL A   1      39.698  22.529  26.829  1.00  0.00     0.338 C 
ATOM     21  O   UNL A   1      38.604  22.417  26.284  1.00  0.00    -0.246 OA
BRANCH  20  22
ATOM     22  C   UNL A   1      40.234  23.868  27.128  1.00  0.00     0.060 A 
ATOM     23  C   UNL A   1      39.479  25.002  26.780  1.00  0.00     0.016 A 
ATOM     24  C   UNL A   1      41.398  23.992  27.869  1.00  0.00     0.016 A 
ATOM     25  C   UNL A   1      39.784  26.237  27.347  1.00  0.00     0.010 A 
ATOM     26  C   UNL A   1      41.614  25.173  28.537  1.00  0.00     0.010 A 
ATOM     27  C   UNL A   1      40.817  26.301  28.278  1.00  0.00    -0.014 A 
BRANCH  27  28
ATOM     28  C   UNL A   1      41.123  27.527  29.008  1.00  0.00     0.031 A 
ATOM     29  C   UNL A   1      42.078  28.535  28.424  1.00  0.00     0.074 A 
ATOM     30  C   UNL A   1      40.260  27.902  29.974  1.00  0.00     0.049 A 
ATOM     31  N   UNL A   1      43.117  29.074  28.986  1.00  0.00    -0.248 NA
ATOM     32  C   UNL A   1      41.853  29.018  27.057  1.00  0.00     0.031 C 
ATOM     33  C   UNL A   1      39.031  27.225  30.420  1.00  0.00     0.029 A 
ATOM     34  N   UNL A   1      40.176  29.109  30.578  1.00  0.00    -0.354 N 
ATOM     35  C   UNL A   1      43.607  30.054  28.103  1.00  0.00     0.074 A 
ATOM     36  C   UNL A   1      42.859  29.881  26.887  1.00  0.00     0.031 C 
ATOM     37  C   UNL A   1      38.188  28.146  30.934  1.00  0.00     0.029 A 
ATOM     38  C   UNL A   1      38.906  29.399  31.050  1.00  0.00     0.049 A 
ATOM     39  H   UNL A   1      40.942  29.720  30.673  1.00  0.00     0.167 HD
ATOM     40  C   UNL A   1      44.487  31.029  28.494  1.00  0.00     0.034 A 
ATOM     41  C   UNL A   1      38.469  30.619  31.427  1.00  0.00     0.034 A 
ATOM     42  C   UNL A   1      44.989  30.763  29.819  1.00  0.00     0.049 A 
ATOM     43  C   UNL A   1      39.673  31.416  31.770  1.00  0.00     0.074 A 
ATOM     44  C   UNL A   1      45.721  29.758  30.417  1.00  0.00     0.029 A 
ATOM     45  N   UNL A   1      44.432  31.475  30.858  1.00  0.00    -0.354 N 
ATOM     46  N   UNL A   1      40.501  31.076  32.726  1.00  0.00    -0.248 NA
ATOM     47  C   UNL A   1      40.221  32.304  30.758  1.00  0.00     0.031 C 
ATOM     48  C   UNL A   1      45.105  29.590  31.694  1.00  0.00     0.029 A 
ATOM     49  C   UNL A   1      44.088  30.545  31.800  1.00  0.00     0.049 A 
ATOM     50  H   UNL A   1      44.307  32.449  30.910  1.00  0.00     0.167 HD
ATOM     51  C   UNL A   1      41.765  31.335  32.209  1.00  0.00     0.074 A 
ATOM     52  C   UNL A   1      41.523  32.188  31.042  1.00  0.00     0.031 C 
ATOM     53  C   UNL A   1      42.868  30.606  32.577  1.00  0.00     0.034 A 
BRANCH  40  54
ATOM     54  C   UNL A   1      44.742  32.398  27.874  1.00  0.00     0.023 A 
ATOM     55  C   UNL A   1      46.029  32.610  27.306  1.00  0.00     0.012 A 
ATOM     56  C   UNL A   1      43.940  33.546  28.048  1.00  0.00     0.148 A 
ATOM     57  C   UNL A   1      46.530  33.886  27.030  1.00  0.00     0.002 A 
ATOM     58  C   UNL A   1      44.422  34.815  27.712  1.00  0.00     0.091 A 
ATOM     59  F   UNL A   1      42.751  33.446  28.643  1.00  0.00    -0.205 F 
ATOM     60  C   UNL A   1      45.726  34.993  27.239  1.00  0.00     0.022 A 
BRANCH  58  61
ATOM     61  S   UNL A   1      43.423  36.299  27.914  1.00  0.00     0.127 S 
ATOM     62  O   UNL A   1      44.294  37.319  27.336  1.00  0.00    -0.237 OA
ATOM     63  O   UNL A   1      42.237  35.979  27.119  1.00  0.00    -0.237 OA
ATOM     64  O   UNL A   1      43.171  36.402  29.345  1.00  0.00    -0.744 OA
ENDBRANCH  58  61
ENDBRANCH  40  54
BRANCH  41  65
ATOM     65  C   UNL A   1      37.118  31.170  31.197  1.00  0.00     0.023 A 
ATOM     66  C   UNL A   1      36.338  31.605  32.279  1.00  0.00     0.012 A 
ATOM     67  C   UNL A   1      36.661  31.449  29.884  1.00  0.00     0.148 A 
ATOM     68  C   UNL A   1      35.139  32.296  32.064  1.00  0.00     0.002 A 
ATOM     69  C   UNL A   1      35.464  32.124  29.675  1.00  0.00     0.091 A 
ATOM     70  F   UNL A   1      37.442  31.121  28.844  1.00  0.00    -0.205 F 
ATOM     71  C   UNL A   1      34.701  32.556  30.766  1.00  0.00     0.022 A 
BRANCH  69  72
ATOM     72  S   UNL A   1      34.842  32.482  28.024  1.00  0.00     0.127 S 
ATOM     73  O   UNL A   1      35.893  33.344  27.481  1.00  0.00    -0.237 OA
ATOM     74  O   UNL A   1      34.772  31.152  27.429  1.00  0.00    -0.237 OA
ATOM     75  O   UNL A   1      33.564  33.157  28.222  1.00  0.00    -0.744 OA
ENDBRANCH  69  72
ENDBRANCH  41  65
BRANCH  53  76
ATOM     76  C   UNL A   1      42.739  29.547  33.652  1.00  0.00     0.023 A 
ATOM     77  C   UNL A   1      42.208  28.272  33.364  1.00  0.00     0.012 A 
ATOM     78  C   UNL A   1      43.410  29.724  34.873  1.00  0.00     0.148 A 
ATOM     79  C   UNL A   1      42.329  27.207  34.258  1.00  0.00     0.002 A 
ATOM     80  C   UNL A   1      43.567  28.651  35.747  1.00  0.00     0.091 A 
ATOM     81  F   UNL A   1      43.932  30.930  35.141  1.00  0.00    -0.205 F 
ATOM     82  C   UNL A   1      43.025  27.391  35.445  1.00  0.00     0.022 A 
BRANCH  80  83
ATOM     83  S   UNL A   1      44.572  28.783  37.228  1.00  0.00     0.127 S 
ATOM     84  O   UNL A   1      45.906  28.990  36.672  1.00  0.00    -0.237 OA
ATOM     85  O   UNL A   1      44.001  29.955  37.897  1.00  0.00    -0.237 OA
ATOM     86  O   UNL A   1      44.377  27.535  37.955  1.00  0.00    -0.744 OA
ENDBRANCH  80  83
ENDBRANCH  53  76
ENDBRANCH  27  28
ENDBRANCH  20  22
ENDBRANCH  19  20
ENDBRANCH   1  19
TORSDOF 16
ENDMDL
MODEL 3
REMARK VINA RESULT:     -10.0      1.754      2.567
REMARK SMILES Cc1ccc(C)c(S(=O)(=O)[C@H](C)C(=O)OCCOC(=O)c2ccc(-c3c4nc(c(-c5cccc(S(=O)(=O)[O-])c5F)c5ccc([nH]5)c(-c5cccc(S(=O)(=O)[O-])c5F)c5nc(c(-c6cccc(S(=O)(=O)[O-])c6F)c6ccc3[nH]6)C=C5)C=C4)cc2)c1
REMARK SMILES IDX 17 1 16 2 15 3 13 4 14 5 11 6 12 7 8 8 9 9 10 10 7 11 1 12
REMARK SMILES IDX 2 13 3 14 84 15 4 16 5 17 6 18 18 19 19 20 20 21 21 22 22 23
REMARK SMILES IDX 83 24 23 25 82 26 24 27 25 28 26 29 76 30 27 31 81 32 75 33
REMARK SMILES IDX 77 34 28 35 80 36 74 37 73 38 29 40 61 41 41 42 60 43 42 44
REMARK SMILES IDX 45 45 59 46 78 47 43 48 44 49 58 51 79 52 46 53 30 54 31 55
REMARK SMILES IDX 39 56 32 57 34 58 40 59 33 60 35 61 36 62 37 63 38 64 62 65
REMARK SMILES IDX 63 66 71 67 64 68 66 69 72 70 65 71 67 72 68 73 69 74 70 75
REMARK SMILES IDX 47 76 48 77 56 78 49 79 51 80 57 81 50 82 52 83 53 84 54 85
REMARK SMILES IDX 55 86
REMARK H PARENT 77 39 45 50
REMARK Flexibility Score: inf
ROOT
ATOM      1  C   UNL A   1      41.003  20.521  26.165  1.00  0.00     0.275 C 
ENDROOT
BRANCH   1   2
ATOM      2  C   UNL A   1      42.510  20.810  26.236  1.00  0.00     0.274 C 
BRANCH   2   3
ATOM      3  O   UNL A   1      42.794  22.044  25.563  1.00  0.00    -0.461 OA
BRANCH   3   4
ATOM      4  C   UNL A   1      43.930  22.118  24.802  1.00  0.00     0.324 C 
ATOM      5  O   UNL A   1      44.398  21.173  24.189  1.00  0.00    -0.251 OA
BRANCH   4   6
ATOM      6  C   UNL A   1      44.378  23.546  24.683  1.00  0.00     0.219 C 
ATOM      7  C   UNL A   1      43.220  24.497  25.001  1.00  0.00     0.038 C 
BRANCH   6   8
ATOM      8  S   UNL A   1      45.759  23.882  25.760  1.00  0.00     0.192 S 
ATOM      9  O   UNL A   1      46.592  24.869  25.102  1.00  0.00    -0.223 OA
ATOM     10  O   UNL A   1      46.345  22.595  26.110  1.00  0.00    -0.223 OA
BRANCH   8  11
ATOM     11  C   UNL A   1      45.182  24.510  27.351  1.00  0.00     0.071 A 
ATOM     12  C   UNL A   1      44.155  22.953  30.710  1.00  0.00     0.044 C 
ATOM     13  C   UNL A   1      44.512  23.957  29.653  1.00  0.00    -0.050 A 
ATOM     14  C   UNL A   1      44.592  25.304  29.993  1.00  0.00     0.004 A 
ATOM     15  C   UNL A   1      44.829  23.566  28.341  1.00  0.00     0.024 A 
ATOM     16  C   UNL A   1      44.964  26.243  29.034  1.00  0.00     0.005 A 
ATOM     17  C   UNL A   1      45.268  25.873  27.705  1.00  0.00    -0.032 A 
ATOM     18  C   UNL A   1      45.754  27.001  26.837  1.00  0.00     0.046 C 
ENDBRANCH   8  11
ENDBRANCH   6   8
ENDBRANCH   4   6
ENDBRANCH   3   4
ENDBRANCH   2   3
ENDBRANCH   1   2
BRANCH   1  19
ATOM     19  O   UNL A   1      40.110  21.357  26.974  1.00  0.00    -0.458 OA
BRANCH  19  20
ATOM     20  C   UNL A   1      39.448  22.495  26.648  1.00  0.00     0.338 C 
ATOM     21  O   UNL A   1      38.318  22.465  26.172  1.00  0.00    -0.246 OA
BRANCH  20  22
ATOM     22  C   UNL A   1      40.080  23.791  26.952  1.00  0.00     0.060 A 
ATOM     23  C   UNL A   1      39.482  24.973  26.480  1.00  0.00     0.016 A 
ATOM     24  C   UNL A   1      41.167  23.841  27.810  1.00  0.00     0.016 A 
ATOM     25  C   UNL A   1      39.846  26.200  27.029  1.00  0.00     0.010 A 
ATOM     26  C   UNL A   1      41.428  25.028  28.451  1.00  0.00     0.010 A 
ATOM     27  C   UNL A   1      40.778  26.211  28.064  1.00  0.00    -0.014 A 
BRANCH  27  28
ATOM     28  C   UNL A   1      41.126  27.438  28.774  1.00  0.00     0.031 A 
ATOM     29  C   UNL A   1      42.071  28.431  28.149  1.00  0.00     0.074 A 
ATOM     30  C   UNL A   1      40.304  27.829  29.769  1.00  0.00     0.049 A 
ATOM     31  N   UNL A   1      43.137  28.959  28.669  1.00  0.00    -0.248 NA
ATOM     32  C   UNL A   1      41.803  28.909  26.788  1.00  0.00     0.031 C 
ATOM     33  C   UNL A   1      39.084  27.171  30.264  1.00  0.00     0.029 A 
ATOM     34  N   UNL A   1      40.258  29.040  30.368  1.00  0.00    -0.354 N 
ATOM     35  C   UNL A   1      43.607  29.928  27.762  1.00  0.00     0.074 A 
ATOM     36  C   UNL A   1      42.812  29.758  26.576  1.00  0.00     0.031 C 
ATOM     37  C   UNL A   1      38.273  28.105  30.804  1.00  0.00     0.029 A 
ATOM     38  C   UNL A   1      39.010  29.350  30.885  1.00  0.00     0.049 A 
ATOM     39  H   UNL A   1      41.034  29.643  30.431  1.00  0.00     0.167 HD
ATOM     40  C   UNL A   1      44.513  30.893  28.115  1.00  0.00     0.034 A 
ATOM     41  C   UNL A   1      38.602  30.576  31.270  1.00  0.00     0.034 A 
ATOM     42  C   UNL A   1      45.060  30.629  29.423  1.00  0.00     0.049 A 
ATOM     43  C   UNL A   1      39.828  31.360  31.564  1.00  0.00     0.074 A 
ATOM     44  C   UNL A   1      45.800  29.618  29.999  1.00  0.00     0.029 A 
ATOM     45  N   UNL A   1      44.551  31.353  30.476  1.00  0.00    -0.354 N 
ATOM     46  N   UNL A   1      40.687  31.015  32.491  1.00  0.00    -0.248 NA
ATOM     47  C   UNL A   1      40.349  32.236  30.527  1.00  0.00     0.031 C 
ATOM     48  C   UNL A   1      45.230  29.465  31.299  1.00  0.00     0.029 A 
ATOM     49  C   UNL A   1      44.230  30.433  31.436  1.00  0.00     0.049 A 
ATOM     50  H   UNL A   1      44.440  32.330  30.527  1.00  0.00     0.167 HD
ATOM     51  C   UNL A   1      41.934  31.255  31.926  1.00  0.00     0.074 A 
ATOM     52  C   UNL A   1      41.659  32.104  30.764  1.00  0.00     0.031 C 
ATOM     53  C   UNL A   1      43.040  30.515  32.257  1.00  0.00     0.034 A 
BRANCH  40  54
ATOM     54  C   UNL A   1      44.761  32.256  27.478  1.00  0.00     0.023 A 
ATOM     55  C   UNL A   1      43.682  32.818  26.740  1.00  0.00     0.012 A 
ATOM     56  C   UNL A   1      46.017  32.877  27.318  1.00  0.00     0.148 A 
ATOM     57  C   UNL A   1      43.859  33.859  25.821  1.00  0.00     0.002 A 
ATOM     58  C   UNL A   1      46.177  33.958  26.445  1.00  0.00     0.091 A 
ATOM     59  F   UNL A   1      47.096  32.367  27.915  1.00  0.00    -0.205 F 
ATOM     60  C   UNL A   1      45.112  34.426  25.669  1.00  0.00     0.022 A 
BRANCH  58  61
ATOM     61  S   UNL A   1      47.764  34.778  26.224  1.00  0.00     0.127 S 
ATOM     62  O   UNL A   1      48.472  33.823  25.376  1.00  0.00    -0.237 OA
ATOM     63  O   UNL A   1      47.375  36.022  25.557  1.00  0.00    -0.237 OA
ATOM     64  O   UNL A   1      48.294  34.963  27.568  1.00  0.00    -0.744 OA
ENDBRANCH  58  61
ENDBRANCH  40  54
BRANCH  41  65
ATOM     65  C   UNL A   1      37.251  31.144  31.088  1.00  0.00     0.023 A 
ATOM     66  C   UNL A   1      36.504  31.564  32.198  1.00  0.00     0.012 A 
ATOM     67  C   UNL A   1      36.763  31.453  29.793  1.00  0.00     0.148 A 
ATOM     68  C   UNL A   1      35.306  32.269  32.028  1.00  0.00     0.002 A 
ATOM     69  C   UNL A   1      35.566  32.142  29.629  1.00  0.00     0.091 A 
ATOM     70  F   UNL A   1      37.512  31.139  28.726  1.00  0.00    -0.205 F 
ATOM     71  C   UNL A   1      34.836  32.558  30.748  1.00  0.00     0.022 A 
BRANCH  69  72
ATOM     72  S   UNL A   1      34.904  32.538  28.002  1.00  0.00     0.127 S 
ATOM     73  O   UNL A   1      34.902  31.230  27.345  1.00  0.00    -0.237 OA
ATOM     74  O   UNL A   1      33.581  33.061  28.330  1.00  0.00    -0.237 OA
ATOM     75  O   UNL A   1      35.838  33.494  27.418  1.00  0.00    -0.744 OA
ENDBRANCH  69  72
ENDBRANCH  41  65
BRANCH  53  76
ATOM     76  C   UNL A   1      42.938  29.463  33.343  1.00  0.00     0.023 A 
ATOM     77  C   UNL A   1      42.636  28.120  33.035  1.00  0.00     0.012 A 
ATOM     78  C   UNL A   1      43.423  29.755  34.628  1.00  0.00     0.148 A 
ATOM     79  C   UNL A   1      42.803  27.096  33.970  1.00  0.00     0.002 A 
ATOM     80  C   UNL A   1      43.629  28.729  35.548  1.00  0.00     0.091 A 
ATOM     81  F   UNL A   1      43.729  31.028  34.917  1.00  0.00    -0.205 F 
ATOM     82  C   UNL A   1      43.316  27.398  35.225  1.00  0.00     0.022 A 
BRANCH  80  83
ATOM     83  S   UNL A   1      44.418  29.029  37.131  1.00  0.00     0.127 S 
ATOM     84  O   UNL A   1      44.317  27.722  37.774  1.00  0.00    -0.237 OA
ATOM     85  O   UNL A   1      45.776  29.415  36.742  1.00  0.00    -0.237 OA
ATOM     86  O   UNL A   1      43.656  30.102  37.759  1.00  0.00    -0.744 OA
ENDBRANCH  80  83
ENDBRANCH  53  76
ENDBRANCH  27  28
ENDBRANCH  20  22
ENDBRANCH  19  20
ENDBRANCH   1  19
TORSDOF 16
ENDMDL
