MODEL 1
REMARK VINA RESULT:     -10.0      0.000      0.000
REMARK SMILES C[N@@H+]1CCC[C@@H](C[NH2+]CC(=O)OCCOC(=O)c2ccc(-c3c4nc(c(-c5cccc(S(=O)(=O)[O-])c5F)c5ccc([nH]5)c(-c5cccc(S(=O)(=O)[O-])c5F)c5nc(c(-c6cccc(S(=O)(=O)[O-])c6F)c6ccc3[nH]6)C=C5)C=C4)cc2)C1
REMARK SMILES IDX 13 1 12 2 10 3 11 4 9 5 8 6 7 9 6 10 1 11 2 12 3 13 81 14
REMARK SMILES IDX 4 16 5 17 14 18 15 19 16 20 17 21 18 22 19 23 80 24 20 25
REMARK SMILES IDX 79 26 21 27 22 28 23 29 73 30 24 31 78 32 72 33 74 34 25 35
REMARK SMILES IDX 77 36 71 37 70 38 26 40 58 41 38 42 57 43 39 44 42 45 56 46
REMARK SMILES IDX 75 47 40 48 41 49 55 51 76 52 43 53 27 54 28 55 36 56 29 57
REMARK SMILES IDX 31 58 37 59 30 60 32 61 33 62 34 63 35 64 59 65 60 66 68 67
REMARK SMILES IDX 61 68 63 69 69 70 62 71 64 72 65 73 66 74 67 75 44 76 45 77
REMARK SMILES IDX 53 78 46 79 48 80 54 81 47 82 49 83 50 84 51 85 52 86
REMARK H PARENT 8 7 8 8 2 15 74 39 42 50
REMARK Flexibility Score: inf
ROOT
ATOM      1  C   UNL A   1      33.912  34.389  29.564  1.00  0.00     0.274 C 
ENDROOT
BRANCH   1   2
ATOM      2  O   UNL A   1      32.697  34.932  30.111  1.00  0.00    -0.458 OA
BRANCH   2   3
ATOM      3  C   UNL A   1      32.798  35.702  31.225  1.00  0.00     0.361 C 
ATOM      4  O   UNL A   1      32.120  36.702  31.437  1.00  0.00    -0.245 OA
BRANCH   3   5
ATOM      5  C   UNL A   1      33.882  35.208  32.188  1.00  0.00     0.384 C 
BRANCH   5   6
ATOM      6  N   UNL A   1      33.651  33.855  32.749  1.00  0.00    -0.337 N 
ATOM      7  H   UNL A   1      32.780  33.865  33.280  1.00  0.00     0.346 HD
ATOM      8  H   UNL A   1      33.606  33.199  31.970  1.00  0.00     0.346 HD
BRANCH   6   9
ATOM      9  C   UNL A   1      34.735  33.425  33.633  1.00  0.00     0.270 C 
BRANCH   9  10
ATOM     10  C   UNL A   1      36.116  33.377  32.940  1.00  0.00     0.099 C 
ATOM     11  C   UNL A   1      38.195  30.997  35.044  1.00  0.00     0.332 C 
ATOM     12  N   UNL A   1      37.114  31.423  34.153  1.00  0.00    -0.337 N 
ATOM     13  C   UNL A   1      37.073  30.590  32.949  1.00  0.00     0.262 C 
ATOM     14  C   UNL A   1      37.263  32.850  33.825  1.00  0.00     0.271 C 
ATOM     15  H   UNL A   1      36.223  31.300  34.633  1.00  0.00     0.347 HD
ATOM     16  C   UNL A   1      35.944  31.018  32.011  1.00  0.00     0.062 C 
ATOM     17  C   UNL A   1      36.029  32.507  31.672  1.00  0.00     0.021 C 
ENDBRANCH   9  10
ENDBRANCH   6   9
ENDBRANCH   5   6
ENDBRANCH   3   5
ENDBRANCH   2   3
ENDBRANCH   1   2
BRANCH   1  18
ATOM     18  C   UNL A   1      33.733  34.023  28.088  1.00  0.00     0.275 C 
BRANCH  18  19
ATOM     19  O   UNL A   1      34.809  33.191  27.616  1.00  0.00    -0.458 OA
BRANCH  19  20
ATOM     20  C   UNL A   1      34.708  31.884  27.950  1.00  0.00     0.338 C 
ATOM     21  O   UNL A   1      33.705  31.191  27.918  1.00  0.00    -0.246 OA
BRANCH  20  22
ATOM     22  C   UNL A   1      36.026  31.308  28.239  1.00  0.00     0.060 A 
ATOM     23  C   UNL A   1      36.081  29.932  28.485  1.00  0.00     0.016 A 
ATOM     24  C   UNL A   1      37.164  32.105  28.361  1.00  0.00     0.016 A 
ATOM     25  C   UNL A   1      37.277  29.347  28.882  1.00  0.00     0.010 A 
ATOM     26  C   UNL A   1      38.366  31.515  28.755  1.00  0.00     0.010 A 
ATOM     27  C   UNL A   1      38.420  30.139  29.039  1.00  0.00    -0.014 A 
BRANCH  27  28
ATOM     28  C   UNL A   1      39.659  29.526  29.562  1.00  0.00     0.031 A 
ATOM     29  C   UNL A   1      40.355  30.147  30.737  1.00  0.00     0.074 A 
ATOM     30  C   UNL A   1      40.143  28.412  28.983  1.00  0.00     0.049 A 
ATOM     31  N   UNL A   1      41.460  29.777  31.330  1.00  0.00    -0.248 NA
ATOM     32  C   UNL A   1      39.728  31.344  31.321  1.00  0.00     0.031 C 
ATOM     33  C   UNL A   1      39.540  27.729  27.838  1.00  0.00     0.029 A 
ATOM     34  N   UNL A   1      41.259  27.670  29.270  1.00  0.00    -0.354 N 
ATOM     35  C   UNL A   1      41.679  30.711  32.335  1.00  0.00     0.074 A 
ATOM     36  C   UNL A   1      40.598  31.669  32.268  1.00  0.00     0.031 C 
ATOM     37  C   UNL A   1      40.306  26.677  27.507  1.00  0.00     0.029 A 
ATOM     38  C   UNL A   1      41.461  26.627  28.400  1.00  0.00     0.049 A 
ATOM     39  H   UNL A   1      41.859  27.868  30.025  1.00  0.00     0.167 HD
ATOM     40  C   UNL A   1      42.685  30.753  33.240  1.00  0.00     0.034 A 
ATOM     41  C   UNL A   1      42.472  25.740  28.326  1.00  0.00     0.034 A 
ATOM     42  C   UNL A   1      43.736  29.774  33.319  1.00  0.00     0.049 A 
ATOM     43  C   UNL A   1      43.572  25.807  29.350  1.00  0.00     0.074 A 
ATOM     44  C   UNL A   1      44.780  29.705  34.223  1.00  0.00     0.029 A 
ATOM     45  N   UNL A   1      43.877  28.696  32.459  1.00  0.00    -0.354 N 
ATOM     46  N   UNL A   1      43.709  26.631  30.362  1.00  0.00    -0.248 NA
ATOM     47  C   UNL A   1      44.639  24.802  29.245  1.00  0.00     0.031 C 
ATOM     48  C   UNL A   1      45.560  28.588  33.902  1.00  0.00     0.029 A 
ATOM     49  C   UNL A   1      44.993  27.955  32.808  1.00  0.00     0.049 A 
ATOM     50  H   UNL A   1      43.273  28.488  31.710  1.00  0.00     0.167 HD
ATOM     51  C   UNL A   1      44.857  26.225  31.032  1.00  0.00     0.074 A 
ATOM     52  C   UNL A   1      45.366  25.068  30.323  1.00  0.00     0.031 C 
ATOM     53  C   UNL A   1      45.447  26.770  32.124  1.00  0.00     0.034 A 
BRANCH  40  54
ATOM     54  C   UNL A   1      42.674  31.875  34.242  1.00  0.00     0.023 A 
ATOM     55  C   UNL A   1      43.175  33.140  33.873  1.00  0.00     0.012 A 
ATOM     56  C   UNL A   1      42.125  31.697  35.527  1.00  0.00     0.148 A 
ATOM     57  C   UNL A   1      43.156  34.202  34.775  1.00  0.00     0.002 A 
ATOM     58  C   UNL A   1      42.075  32.770  36.408  1.00  0.00     0.091 A 
ATOM     59  F   UNL A   1      41.678  30.480  35.868  1.00  0.00    -0.205 F 
ATOM     60  C   UNL A   1      42.597  34.021  36.038  1.00  0.00     0.022 A 
BRANCH  58  61
ATOM     61  S   UNL A   1      41.315  32.651  38.032  1.00  0.00     0.127 S 
ATOM     62  O   UNL A   1      39.958  32.228  37.692  1.00  0.00    -0.237 OA
ATOM     63  O   UNL A   1      42.129  31.623  38.682  1.00  0.00    -0.237 OA
ATOM     64  O   UNL A   1      41.431  33.977  38.624  1.00  0.00    -0.744 OA
ENDBRANCH  58  61
ENDBRANCH  40  54
BRANCH  41  65
ATOM     65  C   UNL A   1      42.456  24.686  27.274  1.00  0.00     0.023 A 
ATOM     66  C   UNL A   1      43.326  24.795  26.173  1.00  0.00     0.012 A 
ATOM     67  C   UNL A   1      41.615  23.560  27.378  1.00  0.00     0.148 A 
ATOM     68  C   UNL A   1      43.342  23.814  25.181  1.00  0.00     0.002 A 
ATOM     69  C   UNL A   1      41.674  22.561  26.414  1.00  0.00     0.091 A 
ATOM     70  F   UNL A   1      40.779  23.485  28.424  1.00  0.00    -0.205 F 
ATOM     71  C   UNL A   1      42.525  22.692  25.307  1.00  0.00     0.022 A 
BRANCH  69  72
ATOM     72  S   UNL A   1      40.750  21.027  26.568  1.00  0.00     0.127 S 
ATOM     73  O   UNL A   1      41.509  20.132  25.699  1.00  0.00    -0.237 OA
ATOM     74  O   UNL A   1      40.866  20.743  27.999  1.00  0.00    -0.237 OA
ATOM     75  O   UNL A   1      39.397  21.343  26.131  1.00  0.00    -0.744 OA
ENDBRANCH  69  72
ENDBRANCH  41  65
BRANCH  53  76
ATOM     76  C   UNL A   1      46.695  26.108  32.643  1.00  0.00     0.023 A 
ATOM     77  C   UNL A   1      47.957  26.591  32.243  1.00  0.00     0.012 A 
ATOM     78  C   UNL A   1      46.618  25.065  33.587  1.00  0.00     0.148 A 
ATOM     79  C   UNL A   1      49.124  26.027  32.754  1.00  0.00     0.002 A 
ATOM     80  C   UNL A   1      47.787  24.537  34.124  1.00  0.00     0.091 A 
ATOM     81  F   UNL A   1      45.409  24.606  33.939  1.00  0.00    -0.205 F 
ATOM     82  C   UNL A   1      49.039  25.010  33.702  1.00  0.00     0.022 A 
BRANCH  80  83
ATOM     83  S   UNL A   1      47.764  23.291  35.419  1.00  0.00     0.127 S 
ATOM     84  O   UNL A   1      47.230  22.131  34.707  1.00  0.00    -0.237 OA
ATOM     85  O   UNL A   1      49.179  23.186  35.780  1.00  0.00    -0.237 OA
ATOM     86  O   UNL A   1      46.915  23.830  36.473  1.00  0.00    -0.744 OA
ENDBRANCH  80  83
ENDBRANCH  53  76
ENDBRANCH  27  28
ENDBRANCH  20  22
ENDBRANCH  19  20
ENDBRANCH  18  19
ENDBRANCH   1  18
TORSDOF 17
ENDMDL
MODEL 2
REMARK VINA RESULT:      -9.8      5.850     11.211
REMARK SMILES C[N@@H+]1CCC[C@@H](C[NH2+]CC(=O)OCCOC(=O)c2ccc(-c3c4nc(c(-c5cccc(S(=O)(=O)[O-])c5F)c5ccc([nH]5)c(-c5cccc(S(=O)(=O)[O-])c5F)c5nc(c(-c6cccc(S(=O)(=O)[O-])c6F)c6ccc3[nH]6)C=C5)C=C4)cc2)C1
REMARK SMILES IDX 13 1 12 2 10 3 11 4 9 5 8 6 7 9 6 10 1 11 2 12 3 13 81 14
REMARK SMILES IDX 4 16 5 17 14 18 15 19 16 20 17 21 18 22 19 23 80 24 20 25
REMARK SMILES IDX 79 26 21 27 22 28 23 29 73 30 24 31 78 32 72 33 74 34 25 35
REMARK SMILES IDX 77 36 71 37 70 38 26 40 58 41 38 42 57 43 39 44 42 45 56 46
REMARK SMILES IDX 75 47 40 48 41 49 55 51 76 52 43 53 27 54 28 55 36 56 29 57
REMARK SMILES IDX 31 58 37 59 30 60 32 61 33 62 34 63 35 64 59 65 60 66 68 67
REMARK SMILES IDX 61 68 63 69 69 70 62 71 64 72 65 73 66 74 67 75 44 76 45 77
REMARK SMILES IDX 53 78 46 79 48 80 54 81 47 82 49 83 50 84 51 85 52 86
REMARK H PARENT 8 7 8 8 2 15 74 39 42 50
REMARK Flexibility Score: inf
ROOT
ATOM      1  C   UNL A   1      35.311  21.058  24.933  1.00  0.00     0.274 C 
ENDROOT
BRANCH   1   2
ATOM      2  O   UNL A   1      34.334  20.039  24.654  1.00  0.00    -0.458 OA
BRANCH   2   3
ATOM      3  C   UNL A   1      33.059  20.261  25.065  1.00  0.00     0.361 C 
ATOM      4  O   UNL A   1      32.157  19.433  24.996  1.00  0.00    -0.245 OA
BRANCH   3   5
ATOM      5  C   UNL A   1      32.851  21.681  25.602  1.00  0.00     0.384 C 
BRANCH   5   6
ATOM      6  N   UNL A   1      31.466  21.992  26.029  1.00  0.00    -0.337 N 
ATOM      7  H   UNL A   1      30.833  21.313  25.607  1.00  0.00     0.346 HD
ATOM      8  H   UNL A   1      31.438  21.947  27.048  1.00  0.00     0.346 HD
BRANCH   6   9
ATOM      9  C   UNL A   1      31.047  23.336  25.629  1.00  0.00     0.270 C 
BRANCH   9  10
ATOM     10  C   UNL A   1      32.221  24.330  25.474  1.00  0.00     0.099 C 
ATOM     11  C   UNL A   1      31.407  26.345  22.361  1.00  0.00     0.332 C 
ATOM     12  N   UNL A   1      31.249  25.844  23.728  1.00  0.00    -0.337 N 
ATOM     13  C   UNL A   1      31.134  26.951  24.680  1.00  0.00     0.262 C 
ATOM     14  C   UNL A   1      32.364  24.945  24.068  1.00  0.00     0.271 C 
ATOM     15  H   UNL A   1      30.383  25.308  23.785  1.00  0.00     0.347 HD
ATOM     16  C   UNL A   1      30.961  26.442  26.112  1.00  0.00     0.062 C 
ATOM     17  C   UNL A   1      32.075  25.469  26.501  1.00  0.00     0.021 C 
ENDBRANCH   9  10
ENDBRANCH   6   9
ENDBRANCH   5   6
ENDBRANCH   3   5
ENDBRANCH   2   3
ENDBRANCH   1   2
BRANCH   1  18
ATOM     18  C   UNL A   1      36.677  20.438  25.243  1.00  0.00     0.275 C 
BRANCH  18  19
ATOM     19  O   UNL A   1      37.733  21.411  25.144  1.00  0.00    -0.458 OA
BRANCH  19  20
ATOM     20  C   UNL A   1      38.808  21.169  25.928  1.00  0.00     0.338 C 
ATOM     21  O   UNL A   1      39.372  20.100  26.095  1.00  0.00    -0.246 OA
BRANCH  20  22
ATOM     22  C   UNL A   1      39.347  22.414  26.486  1.00  0.00     0.060 A 
ATOM     23  C   UNL A   1      38.736  23.609  26.089  1.00  0.00     0.016 A 
ATOM     24  C   UNL A   1      40.479  22.423  27.301  1.00  0.00     0.016 A 
ATOM     25  C   UNL A   1      39.274  24.826  26.487  1.00  0.00     0.010 A 
ATOM     26  C   UNL A   1      41.016  23.647  27.703  1.00  0.00     0.010 A 
ATOM     27  C   UNL A   1      40.428  24.852  27.278  1.00  0.00    -0.014 A 
BRANCH  27  28
ATOM     28  C   UNL A   1      41.051  26.151  27.607  1.00  0.00     0.031 A 
ATOM     29  C   UNL A   1      42.457  26.432  27.165  1.00  0.00     0.074 A 
ATOM     30  C   UNL A   1      40.346  27.069  28.293  1.00  0.00     0.049 A 
ATOM     31  N   UNL A   1      43.188  27.496  27.371  1.00  0.00    -0.248 NA
ATOM     32  C   UNL A   1      43.132  25.377  26.391  1.00  0.00     0.031 C 
ATOM     33  C   UNL A   1      38.973  26.894  28.766  1.00  0.00     0.029 A 
ATOM     34  N   UNL A   1      40.694  28.323  28.721  1.00  0.00    -0.354 N 
ATOM     35  C   UNL A   1      44.417  27.229  26.782  1.00  0.00     0.074 A 
ATOM     36  C   UNL A   1      44.338  25.900  26.218  1.00  0.00     0.031 C 
ATOM     37  C   UNL A   1      38.601  27.996  29.438  1.00  0.00     0.029 A 
ATOM     38  C   UNL A   1      39.716  28.940  29.461  1.00  0.00     0.049 A 
ATOM     39  H   UNL A   1      41.563  28.741  28.519  1.00  0.00     0.167 HD
ATOM     40  C   UNL A   1      45.507  28.028  26.708  1.00  0.00     0.034 A 
ATOM     41  C   UNL A   1      39.724  30.128  30.096  1.00  0.00     0.034 A 
ATOM     42  C   UNL A   1      45.563  29.362  27.244  1.00  0.00     0.049 A 
ATOM     43  C   UNL A   1      40.947  30.998  29.990  1.00  0.00     0.074 A 
ATOM     44  C   UNL A   1      46.605  30.269  27.188  1.00  0.00     0.029 A 
ATOM     45  N   UNL A   1      44.531  29.979  27.936  1.00  0.00    -0.354 N 
ATOM     46  N   UNL A   1      42.064  30.776  29.338  1.00  0.00    -0.248 NA
ATOM     47  C   UNL A   1      40.900  32.297  30.676  1.00  0.00     0.031 C 
ATOM     48  C   UNL A   1      46.207  31.432  27.857  1.00  0.00     0.029 A 
ATOM     49  C   UNL A   1      44.912  31.254  28.316  1.00  0.00     0.049 A 
ATOM     50  H   UNL A   1      43.657  29.569  28.129  1.00  0.00     0.167 HD
ATOM     51  C   UNL A   1      42.839  31.918  29.509  1.00  0.00     0.074 A 
ATOM     52  C   UNL A   1      42.054  32.838  30.308  1.00  0.00     0.031 C 
ATOM     53  C   UNL A   1      44.092  32.176  29.060  1.00  0.00     0.034 A 
BRANCH  40  54
ATOM     54  C   UNL A   1      46.716  27.494  25.990  1.00  0.00     0.023 A 
ATOM     55  C   UNL A   1      46.822  27.658  24.594  1.00  0.00     0.012 A 
ATOM     56  C   UNL A   1      47.767  26.877  26.696  1.00  0.00     0.148 A 
ATOM     57  C   UNL A   1      47.943  27.192  23.907  1.00  0.00     0.002 A 
ATOM     58  C   UNL A   1      48.897  26.448  26.010  1.00  0.00     0.091 A 
ATOM     59  F   UNL A   1      47.635  26.706  28.019  1.00  0.00    -0.205 F 
ATOM     60  C   UNL A   1      48.984  26.597  24.616  1.00  0.00     0.022 A 
BRANCH  58  61
ATOM     61  S   UNL A   1      50.317  25.730  26.845  1.00  0.00     0.127 S 
ATOM     62  O   UNL A   1      49.776  24.452  27.303  1.00  0.00    -0.237 OA
ATOM     63  O   UNL A   1      51.295  25.625  25.761  1.00  0.00    -0.237 OA
ATOM     64  O   UNL A   1      50.680  26.672  27.895  1.00  0.00    -0.744 OA
ENDBRANCH  58  61
ENDBRANCH  40  54
BRANCH  41  65
ATOM     65  C   UNL A   1      38.516  30.578  30.841  1.00  0.00     0.023 A 
ATOM     66  C   UNL A   1      38.429  30.339  32.226  1.00  0.00     0.012 A 
ATOM     67  C   UNL A   1      37.474  31.273  30.195  1.00  0.00     0.148 A 
ATOM     68  C   UNL A   1      37.314  30.763  32.950  1.00  0.00     0.002 A 
ATOM     69  C   UNL A   1      36.392  31.739  30.932  1.00  0.00     0.091 A 
ATOM     70  F   UNL A   1      37.567  31.471  28.872  1.00  0.00    -0.205 F 
ATOM     71  C   UNL A   1      36.302  31.472  32.307  1.00  0.00     0.022 A 
BRANCH  69  72
ATOM     72  S   UNL A   1      35.112  32.769  30.205  1.00  0.00     0.127 S 
ATOM     73  O   UNL A   1      34.266  33.056  31.361  1.00  0.00    -0.237 OA
ATOM     74  O   UNL A   1      35.882  33.908  29.706  1.00  0.00    -0.237 OA
ATOM     75  O   UNL A   1      34.506  31.955  29.160  1.00  0.00    -0.744 OA
ENDBRANCH  69  72
ENDBRANCH  41  65
BRANCH  53  76
ATOM     76  C   UNL A   1      44.688  33.517  29.395  1.00  0.00     0.023 A 
ATOM     77  C   UNL A   1      45.443  33.667  30.574  1.00  0.00     0.012 A 
ATOM     78  C   UNL A   1      44.568  34.602  28.505  1.00  0.00     0.148 A 
ATOM     79  C   UNL A   1      46.049  34.886  30.875  1.00  0.00     0.002 A 
ATOM     80  C   UNL A   1      45.211  35.801  28.791  1.00  0.00     0.091 A 
ATOM     81  F   UNL A   1      43.827  34.445  27.398  1.00  0.00    -0.205 F 
ATOM     82  C   UNL A   1      45.943  35.947  29.979  1.00  0.00     0.022 A 
BRANCH  80  83
ATOM     83  S   UNL A   1      45.202  37.186  27.646  1.00  0.00     0.127 S 
ATOM     84  O   UNL A   1      45.978  38.185  28.380  1.00  0.00    -0.237 OA
ATOM     85  O   UNL A   1      45.879  36.630  26.474  1.00  0.00    -0.237 OA
ATOM     86  O   UNL A   1      43.799  37.512  27.430  1.00  0.00    -0.744 OA
ENDBRANCH  80  83
ENDBRANCH  53  76
ENDBRANCH  27  28
ENDBRANCH  20  22
ENDBRANCH  19  20
ENDBRANCH  18  19
ENDBRANCH   1  18
TORSDOF 17
ENDMDL
MODEL 3
REMARK VINA RESULT:      -9.6      3.893      9.700
REMARK SMILES C[N@@H+]1CCC[C@@H](C[NH2+]CC(=O)OCCOC(=O)c2ccc(-c3c4nc(c(-c5cccc(S(=O)(=O)[O-])c5F)c5ccc([nH]5)c(-c5cccc(S(=O)(=O)[O-])c5F)c5nc(c(-c6cccc(S(=O)(=O)[O-])c6F)c6ccc3[nH]6)C=C5)C=C4)cc2)C1
REMARK SMILES IDX 13 1 12 2 10 3 11 4 9 5 8 6 7 9 6 10 1 11 2 12 3 13 81 14
REMARK SMILES IDX 4 16 5 17 14 18 15 19 16 20 17 21 18 22 19 23 80 24 20 25
REMARK SMILES IDX 79 26 21 27 22 28 23 29 73 30 24 31 78 32 72 33 74 34 25 35
REMARK SMILES IDX 77 36 71 37 70 38 26 40 58 41 38 42 57 43 39 44 42 45 56 46
REMARK SMILES IDX 75 47 40 48 41 49 55 51 76 52 43 53 27 54 28 55 36 56 29 57
REMARK SMILES IDX 31 58 37 59 30 60 32 61 33 62 34 63 35 64 59 65 60 66 68 67
REMARK SMILES IDX 61 68 63 69 69 70 62 71 64 72 65 73 66 74 67 75 44 76 45 77
REMARK SMILES IDX 53 78 46 79 48 80 54 81 47 82 49 83 50 84 51 85 52 86
REMARK H PARENT 8 7 8 8 2 15 74 39 42 50
REMARK Flexibility Score: inf
ROOT
ATOM      1  C   UNL A   1      32.250  28.676  25.266  1.00  0.00     0.274 C 
ENDROOT
BRANCH   1   2
ATOM      2  O   UNL A   1      31.092  28.786  24.419  1.00  0.00    -0.458 OA
BRANCH   2   3
ATOM      3  C   UNL A   1      30.551  27.635  23.943  1.00  0.00     0.361 C 
ATOM      4  O   UNL A   1      30.055  26.762  24.647  1.00  0.00    -0.245 OA
BRANCH   3   5
ATOM      5  C   UNL A   1      30.655  27.520  22.419  1.00  0.00     0.384 C 
BRANCH   5   6
ATOM      6  N   UNL A   1      31.979  27.087  21.912  1.00  0.00    -0.337 N 
ATOM      7  H   UNL A   1      32.157  27.553  21.022  1.00  0.00     0.346 HD
ATOM      8  H   UNL A   1      32.677  27.339  22.612  1.00  0.00     0.346 HD
BRANCH   6   9
ATOM      9  C   UNL A   1      32.053  25.640  21.707  1.00  0.00     0.270 C 
BRANCH   9  10
ATOM     10  C   UNL A   1      33.302  24.988  22.344  1.00  0.00     0.099 C 
ATOM     11  C   UNL A   1      32.605  24.953  26.076  1.00  0.00     0.332 C 
ATOM     12  N   UNL A   1      32.428  24.609  24.663  1.00  0.00    -0.337 N 
ATOM     13  C   UNL A   1      32.419  23.157  24.477  1.00  0.00     0.262 C 
ATOM     14  C   UNL A   1      33.472  25.257  23.852  1.00  0.00     0.271 C 
ATOM     15  H   UNL A   1      31.523  24.957  24.349  1.00  0.00     0.347 HD
ATOM     16  C   UNL A   1      32.229  22.782  23.006  1.00  0.00     0.062 C 
ATOM     17  C   UNL A   1      33.266  23.465  22.113  1.00  0.00     0.021 C 
ENDBRANCH   9  10
ENDBRANCH   6   9
ENDBRANCH   5   6
ENDBRANCH   3   5
ENDBRANCH   2   3
ENDBRANCH   1   2
BRANCH   1  18
ATOM     18  C   UNL A   1      32.865  30.054  25.533  1.00  0.00     0.275 C 
BRANCH  18  19
ATOM     19  O   UNL A   1      32.485  30.560  26.826  1.00  0.00    -0.458 OA
BRANCH  19  20
ATOM     20  C   UNL A   1      33.159  31.661  27.228  1.00  0.00     0.338 C 
ATOM     21  O   UNL A   1      32.747  32.808  27.254  1.00  0.00    -0.246 OA
BRANCH  20  22
ATOM     22  C   UNL A   1      34.464  31.304  27.795  1.00  0.00     0.060 A 
ATOM     23  C   UNL A   1      34.641  29.979  28.209  1.00  0.00     0.016 A 
ATOM     24  C   UNL A   1      35.459  32.260  28.006  1.00  0.00     0.016 A 
ATOM     25  C   UNL A   1      35.808  29.607  28.862  1.00  0.00     0.010 A 
ATOM     26  C   UNL A   1      36.634  31.883  28.658  1.00  0.00     0.010 A 
ATOM     27  C   UNL A   1      36.802  30.561  29.108  1.00  0.00    -0.014 A 
BRANCH  27  28
ATOM     28  C   UNL A   1      37.993  30.179  29.896  1.00  0.00     0.031 A 
ATOM     29  C   UNL A   1      38.982  29.208  29.321  1.00  0.00     0.074 A 
ATOM     30  C   UNL A   1      38.180  30.714  31.116  1.00  0.00     0.049 A 
ATOM     31  N   UNL A   1      40.074  28.731  29.857  1.00  0.00    -0.248 NA
ATOM     32  C   UNL A   1      38.706  28.706  27.965  1.00  0.00     0.031 C 
ATOM     33  C   UNL A   1      37.279  31.669  31.763  1.00  0.00     0.029 A 
ATOM     34  N   UNL A   1      39.180  30.519  32.031  1.00  0.00    -0.354 N 
ATOM     35  C   UNL A   1      40.599  27.849  28.922  1.00  0.00     0.074 A 
ATOM     36  C   UNL A   1      39.703  27.850  27.787  1.00  0.00     0.031 C 
ATOM     37  C   UNL A   1      37.760  31.961  32.983  1.00  0.00     0.029 A 
ATOM     38  C   UNL A   1      38.985  31.199  33.208  1.00  0.00     0.049 A 
ATOM     39  H   UNL A   1      39.962  29.945  31.862  1.00  0.00     0.167 HD
ATOM     40  C   UNL A   1      41.735  27.116  28.999  1.00  0.00     0.034 A 
ATOM     41  C   UNL A   1      39.708  31.196  34.345  1.00  0.00     0.034 A 
ATOM     42  C   UNL A   1      42.637  27.149  30.119  1.00  0.00     0.049 A 
ATOM     43  C   UNL A   1      40.970  30.378  34.399  1.00  0.00     0.074 A 
ATOM     44  C   UNL A   1      43.834  26.475  30.280  1.00  0.00     0.029 A 
ATOM     45  N   UNL A   1      42.438  27.896  31.271  1.00  0.00    -0.354 N 
ATOM     46  N   UNL A   1      41.511  29.632  33.465  1.00  0.00    -0.248 NA
ATOM     47  C   UNL A   1      41.740  30.427  35.650  1.00  0.00     0.031 C 
ATOM     48  C   UNL A   1      44.354  26.806  31.537  1.00  0.00     0.029 A 
ATOM     49  C   UNL A   1      43.489  27.697  32.150  1.00  0.00     0.049 A 
ATOM     50  H   UNL A   1      41.664  28.480  31.439  1.00  0.00     0.167 HD
ATOM     51  C   UNL A   1      42.699  29.149  34.003  1.00  0.00     0.074 A 
ATOM     52  C   UNL A   1      42.808  29.705  35.336  1.00  0.00     0.031 C 
ATOM     53  C   UNL A   1      43.608  28.309  33.450  1.00  0.00     0.034 A 
BRANCH  40  54
ATOM     54  C   UNL A   1      42.085  26.245  27.823  1.00  0.00     0.023 A 
ATOM     55  C   UNL A   1      42.879  26.770  26.784  1.00  0.00     0.012 A 
ATOM     56  C   UNL A   1      41.673  24.899  27.768  1.00  0.00     0.148 A 
ATOM     57  C   UNL A   1      43.236  25.977  25.694  1.00  0.00     0.002 A 
ATOM     58  C   UNL A   1      42.064  24.104  26.698  1.00  0.00     0.091 A 
ATOM     59  F   UNL A   1      40.896  24.427  28.754  1.00  0.00    -0.205 F 
ATOM     60  C   UNL A   1      42.838  24.643  25.656  1.00  0.00     0.022 A 
BRANCH  58  61
ATOM     61  S   UNL A   1      41.655  22.358  26.593  1.00  0.00     0.127 S 
ATOM     62  O   UNL A   1      40.199  22.401  26.475  1.00  0.00    -0.237 OA
ATOM     63  O   UNL A   1      42.354  21.947  25.375  1.00  0.00    -0.237 OA
ATOM     64  O   UNL A   1      42.169  21.755  27.816  1.00  0.00    -0.744 OA
ENDBRANCH  58  61
ENDBRANCH  40  54
BRANCH  41  65
ATOM     65  C   UNL A   1      39.279  32.036  35.497  1.00  0.00     0.023 A 
ATOM     66  C   UNL A   1      38.446  31.478  36.486  1.00  0.00     0.012 A 
ATOM     67  C   UNL A   1      39.722  33.365  35.640  1.00  0.00     0.148 A 
ATOM     68  C   UNL A   1      38.041  32.239  37.584  1.00  0.00     0.002 A 
ATOM     69  C   UNL A   1      39.358  34.100  36.763  1.00  0.00     0.091 A 
ATOM     70  F   UNL A   1      40.498  33.884  34.677  1.00  0.00    -0.205 F 
ATOM     71  C   UNL A   1      38.506  33.543  37.729  1.00  0.00     0.022 A 
BRANCH  69  72
ATOM     72  S   UNL A   1      40.016  35.739  37.088  1.00  0.00     0.127 S 
ATOM     73  O   UNL A   1      39.654  36.455  35.868  1.00  0.00    -0.237 OA
ATOM     74  O   UNL A   1      39.270  36.138  38.281  1.00  0.00    -0.237 OA
ATOM     75  O   UNL A   1      41.443  35.547  37.313  1.00  0.00    -0.744 OA
ENDBRANCH  69  72
ENDBRANCH  41  65
BRANCH  53  76
ATOM     76  C   UNL A   1      44.819  27.958  34.271  1.00  0.00     0.023 A 
ATOM     77  C   UNL A   1      45.958  28.786  34.220  1.00  0.00     0.012 A 
ATOM     78  C   UNL A   1      44.800  26.857  35.150  1.00  0.00     0.148 A 
ATOM     79  C   UNL A   1      47.070  28.508  35.014  1.00  0.00     0.002 A 
ATOM     80  C   UNL A   1      45.896  26.613  35.969  1.00  0.00     0.091 A 
ATOM     81  F   UNL A   1      43.716  26.069  35.168  1.00  0.00    -0.205 F 
ATOM     82  C   UNL A   1      47.035  27.430  35.895  1.00  0.00     0.022 A 
BRANCH  80  83
ATOM     83  S   UNL A   1      45.896  25.302  37.199  1.00  0.00     0.127 S 
ATOM     84  O   UNL A   1      45.871  24.105  36.360  1.00  0.00    -0.237 OA
ATOM     85  O   UNL A   1      47.160  25.529  37.901  1.00  0.00    -0.237 OA
ATOM     86  O   UNL A   1      44.709  25.524  38.014  1.00  0.00    -0.744 OA
ENDBRANCH  80  83
ENDBRANCH  53  76
ENDBRANCH  27  28
ENDBRANCH  20  22
ENDBRANCH  19  20
ENDBRANCH  18  19
ENDBRANCH   1  18
TORSDOF 17
ENDMDL
