MODEL 1
REMARK VINA RESULT:     -11.3      0.000      0.000
REMARK SMILES C#CCNC(=O)N[C@@]1(C(=O)OCCOC(=O)c2ccc(-c3c4nc(c(-c5cccc(S(=O)(=O)[O-])c5F)c5ccc([nH]5)c(-c5cccc(S(=O)(=O)[O-])c5F)c5nc(c(-c6cccc(S(=O)(=O)[O-])c6F)c6ccc3[nH]6)C=C5)C=C4)cc2)CCc2ccccc21
REMARK SMILES IDX 12 1 11 2 9 3 10 4 8 5 80 6 87 7 81 8 82 9 86 10 83 11 85 12
REMARK SMILES IDX 84 13 7 14 4 15 5 16 6 18 3 20 2 21 1 22 13 23 14 24 15 25
REMARK SMILES IDX 16 26 17 27 18 28 79 29 19 30 78 31 20 32 21 33 22 34 72 35
REMARK SMILES IDX 23 36 77 37 71 38 73 39 24 40 76 41 70 42 69 43 25 45 57 46
REMARK SMILES IDX 37 47 56 48 38 49 41 50 55 51 74 52 39 53 40 54 54 56 75 57
REMARK SMILES IDX 42 58 26 59 27 60 35 61 28 62 30 63 36 64 29 65 31 66 32 67
REMARK SMILES IDX 33 68 34 69 58 70 59 71 67 72 60 73 62 74 68 75 61 76 63 77
REMARK SMILES IDX 64 78 65 79 66 80 43 81 44 82 52 83 45 84 47 85 53 86 46 87
REMARK SMILES IDX 48 88 49 89 50 90 51 91
REMARK H PARENT 4 17 7 19 73 44 41 55
REMARK Flexibility Score: inf
ROOT
ATOM      1  C   UNL A   1      31.776  28.239  27.429  1.00  0.00     0.274 C 
ENDROOT
BRANCH   1   2
ATOM      2  O   UNL A   1      32.529  27.406  26.518  1.00  0.00    -0.460 OA
BRANCH   2   3
ATOM      3  C   UNL A   1      31.881  26.452  25.776  1.00  0.00     0.336 C 
ATOM      4  O   UNL A   1      30.981  25.749  26.215  1.00  0.00    -0.249 OA
BRANCH   3   5
ATOM      5  C   UNL A   1      32.643  26.199  24.432  1.00  0.00     0.165 C 
ATOM      6  C   UNL A   1      31.827  25.550  23.281  1.00  0.00     0.050 C 
ATOM      7  C   UNL A   1      33.614  25.020  24.583  1.00  0.00    -0.008 A 
ATOM      8  C   UNL A   1      32.929  24.989  22.327  1.00  0.00     0.039 C 
ATOM      9  C   UNL A   1      33.878  24.436  23.343  1.00  0.00    -0.042 A 
ATOM     10  C   UNL A   1      34.112  24.415  25.741  1.00  0.00     0.007 A 
ATOM     11  C   UNL A   1      34.829  23.439  23.204  1.00  0.00     0.004 A 
ATOM     12  C   UNL A   1      35.034  23.375  25.624  1.00  0.00     0.000 A 
ATOM     13  C   UNL A   1      35.425  22.921  24.358  1.00  0.00     0.000 A 
BRANCH   5  14
ATOM     14  N   UNL A   1      33.166  27.451  23.775  1.00  0.00    -0.318 N 
ATOM     15  N   UNL A   1      31.537  29.024  23.215  1.00  0.00    -0.327 N 
ATOM     16  C   UNL A   1      32.786  28.599  23.233  1.00  0.00     0.316 C 
ATOM     17  H   UNL A   1      31.382  29.890  22.773  1.00  0.00     0.166 HD
ATOM     18  O   UNL A   1      33.660  29.321  22.750  1.00  0.00    -0.249 OA
ATOM     19  H   UNL A   1      34.148  27.396  23.732  1.00  0.00     0.166 HD
BRANCH  15  20
ATOM     20  C   UNL A   1      30.398  28.394  23.747  1.00  0.00     0.207 C 
BRANCH  20  21
ATOM     21  C   UNL A   1      29.141  28.896  23.055  1.00  0.00    -0.085 C 
ATOM     22  C   UNL A   1      28.062  29.327  22.461  1.00  0.00     0.006 C 
ENDBRANCH  20  21
ENDBRANCH  15  20
ENDBRANCH   5  14
ENDBRANCH   3   5
ENDBRANCH   2   3
ENDBRANCH   1   2
BRANCH   1  23
ATOM     23  C   UNL A   1      31.651  29.653  26.854  1.00  0.00     0.275 C 
BRANCH  23  24
ATOM     24  O   UNL A   1      32.937  30.087  26.394  1.00  0.00    -0.458 OA
BRANCH  24  25
ATOM     25  C   UNL A   1      33.379  31.225  26.991  1.00  0.00     0.338 C 
ATOM     26  O   UNL A   1      32.764  32.255  27.159  1.00  0.00    -0.246 OA
BRANCH  25  27
ATOM     27  C   UNL A   1      34.656  30.904  27.648  1.00  0.00     0.060 A 
ATOM     28  C   UNL A   1      35.515  31.962  27.948  1.00  0.00     0.016 A 
ATOM     29  C   UNL A   1      34.982  29.601  28.003  1.00  0.00     0.016 A 
ATOM     30  C   UNL A   1      36.704  31.738  28.627  1.00  0.00     0.010 A 
ATOM     31  C   UNL A   1      36.179  29.368  28.681  1.00  0.00     0.010 A 
ATOM     32  C   UNL A   1      37.038  30.435  29.002  1.00  0.00    -0.014 A 
BRANCH  32  33
ATOM     33  C   UNL A   1      38.295  30.176  29.732  1.00  0.00     0.031 A 
ATOM     34  C   UNL A   1      39.292  29.218  29.163  1.00  0.00     0.074 A 
ATOM     35  C   UNL A   1      38.496  30.765  30.925  1.00  0.00     0.049 A 
ATOM     36  N   UNL A   1      40.376  28.738  29.710  1.00  0.00    -0.248 NA
ATOM     37  C   UNL A   1      39.033  28.727  27.799  1.00  0.00     0.031 C 
ATOM     38  C   UNL A   1      37.592  31.728  31.555  1.00  0.00     0.029 A 
ATOM     39  N   UNL A   1      39.507  30.605  31.837  1.00  0.00    -0.354 N 
ATOM     40  C   UNL A   1      40.906  27.853  28.781  1.00  0.00     0.074 A 
ATOM     41  C   UNL A   1      40.027  27.866  27.631  1.00  0.00     0.031 C 
ATOM     42  C   UNL A   1      38.068  32.045  32.769  1.00  0.00     0.029 A 
ATOM     43  C   UNL A   1      39.278  31.268  33.020  1.00  0.00     0.049 A 
ATOM     44  H   UNL A   1      40.315  30.069  31.663  1.00  0.00     0.167 HD
ATOM     45  C   UNL A   1      42.026  27.101  28.884  1.00  0.00     0.034 A 
ATOM     46  C   UNL A   1      39.942  31.212  34.190  1.00  0.00     0.034 A 
ATOM     47  C   UNL A   1      42.893  27.109  30.033  1.00  0.00     0.049 A 
ATOM     48  C   UNL A   1      41.158  30.332  34.291  1.00  0.00     0.074 A 
ATOM     49  C   UNL A   1      44.079  26.424  30.218  1.00  0.00     0.029 A 
ATOM     50  N   UNL A   1      42.656  27.823  31.198  1.00  0.00    -0.354 N 
ATOM     51  N   UNL A   1      41.711  29.579  33.370  1.00  0.00    -0.248 NA
ATOM     52  C   UNL A   1      41.853  30.309  35.584  1.00  0.00     0.031 C 
ATOM     53  C   UNL A   1      44.537  26.689  31.514  1.00  0.00     0.029 A 
ATOM     54  C   UNL A   1      43.659  27.574  32.119  1.00  0.00     0.049 A 
ATOM     55  H   UNL A   1      41.886  28.418  31.349  1.00  0.00     0.167 HD
ATOM     56  C   UNL A   1      42.834  29.014  33.964  1.00  0.00     0.074 A 
ATOM     57  C   UNL A   1      42.896  29.536  35.315  1.00  0.00     0.031 C 
ATOM     58  C   UNL A   1      43.724  28.131  33.446  1.00  0.00     0.034 A 
BRANCH  45  59
ATOM     59  C   UNL A   1      42.378  26.203  27.728  1.00  0.00     0.023 A 
ATOM     60  C   UNL A   1      43.231  26.671  26.708  1.00  0.00     0.012 A 
ATOM     61  C   UNL A   1      41.910  24.876  27.686  1.00  0.00     0.148 A 
ATOM     62  C   UNL A   1      43.588  25.840  25.647  1.00  0.00     0.002 A 
ATOM     63  C   UNL A   1      42.308  24.039  26.650  1.00  0.00     0.091 A 
ATOM     64  F   UNL A   1      41.081  24.458  28.653  1.00  0.00    -0.205 F 
ATOM     65  C   UNL A   1      43.137  24.522  25.624  1.00  0.00     0.022 A 
BRANCH  63  66
ATOM     66  S   UNL A   1      41.846  22.305  26.573  1.00  0.00     0.127 S 
ATOM     67  O   UNL A   1      42.379  21.802  27.839  1.00  0.00    -0.237 OA
ATOM     68  O   UNL A   1      40.387  22.380  26.511  1.00  0.00    -0.237 OA
ATOM     69  O   UNL A   1      42.481  21.771  25.376  1.00  0.00    -0.744 OA
ENDBRANCH  63  66
ENDBRANCH  45  59
BRANCH  46  70
ATOM     70  C   UNL A   1      39.469  32.010  35.356  1.00  0.00     0.023 A 
ATOM     71  C   UNL A   1      38.604  31.417  36.295  1.00  0.00     0.012 A 
ATOM     72  C   UNL A   1      39.882  33.343  35.547  1.00  0.00     0.148 A 
ATOM     73  C   UNL A   1      38.133  32.149  37.386  1.00  0.00     0.002 A 
ATOM     74  C   UNL A   1      39.455  34.047  36.666  1.00  0.00     0.091 A 
ATOM     75  F   UNL A   1      40.694  33.893  34.634  1.00  0.00    -0.205 F 
ATOM     76  C   UNL A   1      38.565  33.458  37.578  1.00  0.00     0.022 A 
BRANCH  74  77
ATOM     77  S   UNL A   1      40.059  35.692  37.060  1.00  0.00     0.127 S 
ATOM     78  O   UNL A   1      41.497  35.463  37.181  1.00  0.00    -0.237 OA
ATOM     79  O   UNL A   1      39.653  36.453  35.878  1.00  0.00    -0.237 OA
ATOM     80  O   UNL A   1      39.377  36.080  38.287  1.00  0.00    -0.744 OA
ENDBRANCH  74  77
ENDBRANCH  46  70
BRANCH  58  81
ATOM     81  C   UNL A   1      44.860  27.692  34.333  1.00  0.00     0.023 A 
ATOM     82  C   UNL A   1      46.054  28.440  34.367  1.00  0.00     0.012 A 
ATOM     83  C   UNL A   1      44.720  26.575  35.180  1.00  0.00     0.148 A 
ATOM     84  C   UNL A   1      47.103  28.063  35.204  1.00  0.00     0.002 A 
ATOM     85  C   UNL A   1      45.748  26.238  36.051  1.00  0.00     0.091 A 
ATOM     86  F   UNL A   1      43.582  25.868  35.123  1.00  0.00    -0.205 F 
ATOM     87  C   UNL A   1      46.946  26.972  36.054  1.00  0.00     0.022 A 
BRANCH  85  88
ATOM     88  S   UNL A   1      45.603  24.908  37.250  1.00  0.00     0.127 S 
ATOM     89  O   UNL A   1      46.924  24.926  37.876  1.00  0.00    -0.237 OA
ATOM     90  O   UNL A   1      44.515  25.381  38.105  1.00  0.00    -0.237 OA
ATOM     91  O   UNL A   1      45.295  23.707  36.485  1.00  0.00    -0.744 OA
ENDBRANCH  85  88
ENDBRANCH  58  81
ENDBRANCH  32  33
ENDBRANCH  25  27
ENDBRANCH  24  25
ENDBRANCH  23  24
ENDBRANCH   1  23
TORSDOF 17
ENDMDL
MODEL 2
REMARK VINA RESULT:     -11.2      1.160      2.306
REMARK SMILES C#CCNC(=O)N[C@@]1(C(=O)OCCOC(=O)c2ccc(-c3c4nc(c(-c5cccc(S(=O)(=O)[O-])c5F)c5ccc([nH]5)c(-c5cccc(S(=O)(=O)[O-])c5F)c5nc(c(-c6cccc(S(=O)(=O)[O-])c6F)c6ccc3[nH]6)C=C5)C=C4)cc2)CCc2ccccc21
REMARK SMILES IDX 12 1 11 2 9 3 10 4 8 5 80 6 87 7 81 8 82 9 86 10 83 11 85 12
REMARK SMILES IDX 84 13 7 14 4 15 5 16 6 18 3 20 2 21 1 22 13 23 14 24 15 25
REMARK SMILES IDX 16 26 17 27 18 28 79 29 19 30 78 31 20 32 21 33 22 34 72 35
REMARK SMILES IDX 23 36 77 37 71 38 73 39 24 40 76 41 70 42 69 43 25 45 57 46
REMARK SMILES IDX 37 47 56 48 38 49 41 50 55 51 74 52 39 53 40 54 54 56 75 57
REMARK SMILES IDX 42 58 26 59 27 60 35 61 28 62 30 63 36 64 29 65 31 66 32 67
REMARK SMILES IDX 33 68 34 69 58 70 59 71 67 72 60 73 62 74 68 75 61 76 63 77
REMARK SMILES IDX 64 78 65 79 66 80 43 81 44 82 52 83 45 84 47 85 53 86 46 87
REMARK SMILES IDX 48 88 49 89 50 90 51 91
REMARK H PARENT 4 17 7 19 73 44 41 55
REMARK Flexibility Score: inf
ROOT
ATOM      1  C   UNL A   1      31.268  28.956  24.549  1.00  0.00     0.274 C 
ENDROOT
BRANCH   1   2
ATOM      2  O   UNL A   1      32.211  27.986  24.040  1.00  0.00    -0.460 OA
BRANCH   2   3
ATOM      3  C   UNL A   1      31.817  26.685  23.857  1.00  0.00     0.336 C 
ATOM      4  O   UNL A   1      30.847  26.360  23.186  1.00  0.00    -0.249 OA
BRANCH   3   5
ATOM      5  C   UNL A   1      32.583  25.742  24.845  1.00  0.00     0.165 C 
ATOM      6  C   UNL A   1      33.712  26.390  25.691  1.00  0.00     0.050 C 
ATOM      7  C   UNL A   1      33.521  24.807  24.070  1.00  0.00    -0.008 A 
ATOM      8  C   UNL A   1      34.565  25.167  26.153  1.00  0.00     0.039 C 
ATOM      9  C   UNL A   1      34.568  24.373  24.886  1.00  0.00    -0.042 A 
ATOM     10  C   UNL A   1      33.535  24.480  22.712  1.00  0.00     0.007 A 
ATOM     11  C   UNL A   1      35.471  23.416  24.451  1.00  0.00     0.004 A 
ATOM     12  C   UNL A   1      34.468  23.555  22.242  1.00  0.00     0.000 A 
ATOM     13  C   UNL A   1      35.402  22.991  23.121  1.00  0.00     0.000 A 
BRANCH   5  14
ATOM     14  N   UNL A   1      31.710  25.126  25.909  1.00  0.00    -0.318 N 
ATOM     15  N   UNL A   1      30.659  23.138  25.292  1.00  0.00    -0.327 N 
ATOM     16  C   UNL A   1      30.889  24.115  26.149  1.00  0.00     0.316 C 
ATOM     17  H   UNL A   1      30.019  22.449  25.585  1.00  0.00     0.166 HD
ATOM     18  O   UNL A   1      30.338  24.073  27.250  1.00  0.00    -0.249 OA
ATOM     19  H   UNL A   1      31.773  25.677  26.723  1.00  0.00     0.166 HD
BRANCH  15  20
ATOM     20  C   UNL A   1      31.211  22.958  24.012  1.00  0.00     0.207 C 
BRANCH  20  21
ATOM     21  C   UNL A   1      31.917  21.614  23.922  1.00  0.00    -0.085 C 
ATOM     22  C   UNL A   1      32.522  20.461  23.844  1.00  0.00     0.006 C 
ENDBRANCH  20  21
ENDBRANCH  15  20
ENDBRANCH   5  14
ENDBRANCH   3   5
ENDBRANCH   2   3
ENDBRANCH   1   2
BRANCH   1  23
ATOM     23  C   UNL A   1      31.719  29.441  25.930  1.00  0.00     0.275 C 
BRANCH  23  24
ATOM     24  O   UNL A   1      32.985  30.103  25.802  1.00  0.00    -0.458 OA
BRANCH  24  25
ATOM     25  C   UNL A   1      33.194  31.072  26.731  1.00  0.00     0.338 C 
ATOM     26  O   UNL A   1      32.404  31.908  27.115  1.00  0.00    -0.246 OA
BRANCH  25  27
ATOM     27  C   UNL A   1      34.469  30.767  27.398  1.00  0.00     0.060 A 
ATOM     28  C   UNL A   1      35.322  31.834  27.687  1.00  0.00     0.016 A 
ATOM     29  C   UNL A   1      34.801  29.471  27.773  1.00  0.00     0.016 A 
ATOM     30  C   UNL A   1      36.509  31.626  28.374  1.00  0.00     0.010 A 
ATOM     31  C   UNL A   1      35.995  29.254  28.459  1.00  0.00     0.010 A 
ATOM     32  C   UNL A   1      36.848  30.330  28.768  1.00  0.00    -0.014 A 
BRANCH  32  33
ATOM     33  C   UNL A   1      38.103  30.087  29.507  1.00  0.00     0.031 A 
ATOM     34  C   UNL A   1      39.113  29.136  28.950  1.00  0.00     0.074 A 
ATOM     35  C   UNL A   1      38.291  30.684  30.698  1.00  0.00     0.049 A 
ATOM     36  N   UNL A   1      40.199  28.670  29.506  1.00  0.00    -0.248 NA
ATOM     37  C   UNL A   1      38.867  28.635  27.587  1.00  0.00     0.031 C 
ATOM     38  C   UNL A   1      37.374  31.643  31.317  1.00  0.00     0.029 A 
ATOM     39  N   UNL A   1      39.298  30.540  31.618  1.00  0.00    -0.354 N 
ATOM     40  C   UNL A   1      40.743  27.785  28.585  1.00  0.00     0.074 A 
ATOM     41  C   UNL A   1      39.871  27.783  27.429  1.00  0.00     0.031 C 
ATOM     42  C   UNL A   1      37.839  31.970  32.533  1.00  0.00     0.029 A 
ATOM     43  C   UNL A   1      39.056  31.207  32.795  1.00  0.00     0.049 A 
ATOM     44  H   UNL A   1      40.113  30.011  31.451  1.00  0.00     0.167 HD
ATOM     45  C   UNL A   1      41.870  27.045  28.699  1.00  0.00     0.034 A 
ATOM     46  C   UNL A   1      39.713  31.164  33.969  1.00  0.00     0.034 A 
ATOM     47  C   UNL A   1      42.730  27.069  29.853  1.00  0.00     0.049 A 
ATOM     48  C   UNL A   1      40.937  30.297  34.082  1.00  0.00     0.074 A 
ATOM     49  C   UNL A   1      43.922  26.397  30.049  1.00  0.00     0.029 A 
ATOM     50  N   UNL A   1      42.478  27.786  31.013  1.00  0.00    -0.354 N 
ATOM     51  N   UNL A   1      41.503  29.545  33.169  1.00  0.00    -0.248 NA
ATOM     52  C   UNL A   1      41.625  30.288  35.380  1.00  0.00     0.031 C 
ATOM     53  C   UNL A   1      44.369  26.674  31.346  1.00  0.00     0.029 A 
ATOM     54  C   UNL A   1      43.478  27.552  31.941  1.00  0.00     0.049 A 
ATOM     55  H   UNL A   1      41.702  28.374  31.156  1.00  0.00     0.167 HD
ATOM     56  C   UNL A   1      42.628  28.994  33.773  1.00  0.00     0.074 A 
ATOM     57  C   UNL A   1      42.677  29.525  35.121  1.00  0.00     0.031 C 
ATOM     58  C   UNL A   1      43.530  28.118  33.265  1.00  0.00     0.034 A 
BRANCH  45  59
ATOM     59  C   UNL A   1      42.238  26.145  27.550  1.00  0.00     0.023 A 
ATOM     60  C   UNL A   1      43.092  26.615  26.533  1.00  0.00     0.012 A 
ATOM     61  C   UNL A   1      41.783  24.813  27.512  1.00  0.00     0.148 A 
ATOM     62  C   UNL A   1      43.464  25.782  25.479  1.00  0.00     0.002 A 
ATOM     63  C   UNL A   1      42.196  23.974  26.484  1.00  0.00     0.091 A 
ATOM     64  F   UNL A   1      40.952  24.392  28.476  1.00  0.00    -0.205 F 
ATOM     65  C   UNL A   1      43.027  24.460  25.461  1.00  0.00     0.022 A 
BRANCH  63  66
ATOM     66  S   UNL A   1      41.751  22.235  26.413  1.00  0.00     0.127 S 
ATOM     67  O   UNL A   1      42.479  21.794  25.223  1.00  0.00    -0.237 OA
ATOM     68  O   UNL A   1      42.287  21.731  27.677  1.00  0.00    -0.237 OA
ATOM     69  O   UNL A   1      40.300  22.193  26.304  1.00  0.00    -0.744 OA
ENDBRANCH  63  66
ENDBRANCH  45  59
BRANCH  46  70
ATOM     70  C   UNL A   1      39.225  31.964  35.128  1.00  0.00     0.023 A 
ATOM     71  C   UNL A   1      38.269  31.407  35.999  1.00  0.00     0.012 A 
ATOM     72  C   UNL A   1      39.712  33.262  35.379  1.00  0.00     0.148 A 
ATOM     73  C   UNL A   1      37.783  32.143  37.082  1.00  0.00     0.002 A 
ATOM     74  C   UNL A   1      39.266  33.965  36.491  1.00  0.00     0.091 A 
ATOM     75  F   UNL A   1      40.610  33.778  34.530  1.00  0.00    -0.205 F 
ATOM     76  C   UNL A   1      38.287  33.415  37.334  1.00  0.00     0.022 A 
BRANCH  74  77
ATOM     77  S   UNL A   1      39.952  35.557  36.965  1.00  0.00     0.127 S 
ATOM     78  O   UNL A   1      39.245  35.827  38.215  1.00  0.00    -0.237 OA
ATOM     79  O   UNL A   1      41.372  35.239  37.116  1.00  0.00    -0.237 OA
ATOM     80  O   UNL A   1      39.652  36.460  35.863  1.00  0.00    -0.744 OA
ENDBRANCH  74  77
ENDBRANCH  46  70
BRANCH  58  81
ATOM     81  C   UNL A   1      44.665  27.695  34.161  1.00  0.00     0.023 A 
ATOM     82  C   UNL A   1      45.884  28.402  34.131  1.00  0.00     0.012 A 
ATOM     83  C   UNL A   1      44.502  26.639  35.079  1.00  0.00     0.148 A 
ATOM     84  C   UNL A   1      46.933  28.041  34.975  1.00  0.00     0.002 A 
ATOM     85  C   UNL A   1      45.531  26.321  35.954  1.00  0.00     0.091 A 
ATOM     86  F   UNL A   1      43.339  25.970  35.082  1.00  0.00    -0.205 F 
ATOM     87  C   UNL A   1      46.753  27.010  35.894  1.00  0.00     0.022 A 
BRANCH  85  88
ATOM     88  S   UNL A   1      45.362  25.073  37.236  1.00  0.00     0.127 S 
ATOM     89  O   UNL A   1      46.730  24.976  37.740  1.00  0.00    -0.237 OA
ATOM     90  O   UNL A   1      44.415  25.704  38.155  1.00  0.00    -0.237 OA
ATOM     91  O   UNL A   1      44.858  23.879  36.572  1.00  0.00    -0.744 OA
ENDBRANCH  85  88
ENDBRANCH  58  81
ENDBRANCH  32  33
ENDBRANCH  25  27
ENDBRANCH  24  25
ENDBRANCH  23  24
ENDBRANCH   1  23
TORSDOF 17
ENDMDL
MODEL 3
REMARK VINA RESULT:     -10.5      2.218      3.123
REMARK SMILES C#CCNC(=O)N[C@@]1(C(=O)OCCOC(=O)c2ccc(-c3c4nc(c(-c5cccc(S(=O)(=O)[O-])c5F)c5ccc([nH]5)c(-c5cccc(S(=O)(=O)[O-])c5F)c5nc(c(-c6cccc(S(=O)(=O)[O-])c6F)c6ccc3[nH]6)C=C5)C=C4)cc2)CCc2ccccc21
REMARK SMILES IDX 12 1 11 2 9 3 10 4 8 5 80 6 87 7 81 8 82 9 86 10 83 11 85 12
REMARK SMILES IDX 84 13 7 14 4 15 5 16 6 18 3 20 2 21 1 22 13 23 14 24 15 25
REMARK SMILES IDX 16 26 17 27 18 28 79 29 19 30 78 31 20 32 21 33 22 34 72 35
REMARK SMILES IDX 23 36 77 37 71 38 73 39 24 40 76 41 70 42 69 43 25 45 57 46
REMARK SMILES IDX 37 47 56 48 38 49 41 50 55 51 74 52 39 53 40 54 54 56 75 57
REMARK SMILES IDX 42 58 26 59 27 60 35 61 28 62 30 63 36 64 29 65 31 66 32 67
REMARK SMILES IDX 33 68 34 69 58 70 59 71 67 72 60 73 62 74 68 75 61 76 63 77
REMARK SMILES IDX 64 78 65 79 66 80 43 81 44 82 52 83 45 84 47 85 53 86 46 87
REMARK SMILES IDX 48 88 49 89 50 90 51 91
REMARK H PARENT 4 17 7 19 73 44 41 55
REMARK Flexibility Score: inf
ROOT
ATOM      1  C   UNL A   1      31.727  30.019  25.475  1.00  0.00     0.274 C 
ENDROOT
BRANCH   1   2
ATOM      2  O   UNL A   1      31.724  28.582  25.631  1.00  0.00    -0.460 OA
BRANCH   2   3
ATOM      3  C   UNL A   1      32.620  27.820  24.926  1.00  0.00     0.336 C 
ATOM      4  O   UNL A   1      33.773  28.163  24.704  1.00  0.00    -0.249 OA
BRANCH   3   5
ATOM      5  C   UNL A   1      31.884  26.633  24.217  1.00  0.00     0.165 C 
ATOM      6  C   UNL A   1      30.349  26.777  24.034  1.00  0.00     0.050 C 
ATOM      7  C   UNL A   1      31.789  25.425  25.160  1.00  0.00    -0.008 A 
ATOM      8  C   UNL A   1      29.875  25.309  23.789  1.00  0.00     0.039 C 
ATOM      9  C   UNL A   1      30.718  24.604  24.803  1.00  0.00    -0.042 A 
ATOM     10  C   UNL A   1      32.499  25.148  26.331  1.00  0.00     0.007 A 
ATOM     11  C   UNL A   1      30.509  23.383  25.422  1.00  0.00     0.004 A 
ATOM     12  C   UNL A   1      32.269  23.945  27.000  1.00  0.00     0.000 A 
ATOM     13  C   UNL A   1      31.310  23.047  26.518  1.00  0.00     0.000 A 
BRANCH   5  14
ATOM     14  N   UNL A   1      32.344  26.378  22.805  1.00  0.00    -0.318 N 
ATOM     15  N   UNL A   1      34.212  24.994  22.612  1.00  0.00    -0.327 N 
ATOM     16  C   UNL A   1      33.279  25.769  22.091  1.00  0.00     0.316 C 
ATOM     17  H   UNL A   1      34.856  24.607  21.976  1.00  0.00     0.166 HD
ATOM     18  O   UNL A   1      33.249  25.911  20.867  1.00  0.00    -0.249 OA
ATOM     19  H   UNL A   1      31.725  26.830  22.187  1.00  0.00     0.166 HD
BRANCH  15  20
ATOM     20  C   UNL A   1      34.402  24.654  23.963  1.00  0.00     0.207 C 
BRANCH  20  21
ATOM     21  C   UNL A   1      34.432  23.143  24.131  1.00  0.00    -0.085 C 
ATOM     22  C   UNL A   1      34.458  21.847  24.276  1.00  0.00     0.006 C 
ENDBRANCH  20  21
ENDBRANCH  15  20
ENDBRANCH   5  14
ENDBRANCH   3   5
ENDBRANCH   2   3
ENDBRANCH   1   2
BRANCH   1  23
ATOM     23  C   UNL A   1      32.056  30.685  26.814  1.00  0.00     0.275 C 
BRANCH  23  24
ATOM     24  O   UNL A   1      33.478  30.683  27.001  1.00  0.00    -0.458 OA
BRANCH  24  25
ATOM     25  C   UNL A   1      33.963  31.833  27.538  1.00  0.00     0.338 C 
ATOM     26  O   UNL A   1      33.407  32.909  27.600  1.00  0.00    -0.246 OA
BRANCH  25  27
ATOM     27  C   UNL A   1      35.183  31.484  28.282  1.00  0.00     0.060 A 
ATOM     28  C   UNL A   1      36.177  32.459  28.392  1.00  0.00     0.016 A 
ATOM     29  C   UNL A   1      35.330  30.247  28.897  1.00  0.00     0.016 A 
ATOM     30  C   UNL A   1      37.323  32.221  29.136  1.00  0.00     0.010 A 
ATOM     31  C   UNL A   1      36.483  29.999  29.642  1.00  0.00     0.010 A 
ATOM     32  C   UNL A   1      37.478  30.986  29.769  1.00  0.00    -0.014 A 
BRANCH  32  33
ATOM     33  C   UNL A   1      38.687  30.715  30.572  1.00  0.00     0.031 A 
ATOM     34  C   UNL A   1      39.681  29.707  30.088  1.00  0.00     0.074 A 
ATOM     35  C   UNL A   1      38.846  31.338  31.754  1.00  0.00     0.049 A 
ATOM     36  N   UNL A   1      40.720  29.215  30.707  1.00  0.00    -0.248 NA
ATOM     37  C   UNL A   1      39.476  29.177  28.729  1.00  0.00     0.031 C 
ATOM     38  C   UNL A   1      37.942  32.350  32.304  1.00  0.00     0.029 A 
ATOM     39  N   UNL A   1      39.804  31.180  32.723  1.00  0.00    -0.354 N 
ATOM     40  C   UNL A   1      41.268  28.282  29.837  1.00  0.00     0.074 A 
ATOM     41  C   UNL A   1      40.450  28.282  28.642  1.00  0.00     0.031 C 
ATOM     42  C   UNL A   1      38.366  32.694  33.530  1.00  0.00     0.029 A 
ATOM     43  C   UNL A   1      39.536  31.890  33.869  1.00  0.00     0.049 A 
ATOM     44  H   UNL A   1      40.602  30.615  32.609  1.00  0.00     0.167 HD
ATOM     45  C   UNL A   1      42.356  27.501  30.023  1.00  0.00     0.034 A 
ATOM     46  C   UNL A   1      40.137  31.856  35.073  1.00  0.00     0.034 A 
ATOM     47  C   UNL A   1      43.163  27.523  31.214  1.00  0.00     0.049 A 
ATOM     48  C   UNL A   1      41.317  30.943  35.266  1.00  0.00     0.074 A 
ATOM     49  C   UNL A   1      44.316  26.809  31.484  1.00  0.00     0.029 A 
ATOM     50  N   UNL A   1      42.890  28.284  32.342  1.00  0.00    -0.354 N 
ATOM     51  N   UNL A   1      41.893  30.142  34.402  1.00  0.00    -0.248 NA
ATOM     52  C   UNL A   1      41.945  30.945  36.595  1.00  0.00     0.031 C 
ATOM     53  C   UNL A   1      44.716  27.106  32.792  1.00  0.00     0.029 A 
ATOM     54  C   UNL A   1      43.836  28.037  33.321  1.00  0.00     0.049 A 
ATOM     55  H   UNL A   1      42.133  28.907  32.432  1.00  0.00     0.167 HD
ATOM     56  C   UNL A   1      42.965  29.565  35.072  1.00  0.00     0.074 A 
ATOM     57  C   UNL A   1      42.975  30.132  36.405  1.00  0.00     0.031 C 
ATOM     58  C   UNL A   1      43.851  28.638  34.630  1.00  0.00     0.034 A 
BRANCH  45  59
ATOM     59  C   UNL A   1      42.738  26.553  28.918  1.00  0.00     0.023 A 
ATOM     60  C   UNL A   1      42.087  25.308  28.801  1.00  0.00     0.012 A 
ATOM     61  C   UNL A   1      43.703  26.922  27.961  1.00  0.00     0.148 A 
ATOM     62  C   UNL A   1      42.412  24.434  27.765  1.00  0.00     0.002 A 
ATOM     63  C   UNL A   1      43.988  26.066  26.905  1.00  0.00     0.091 A 
ATOM     64  F   UNL A   1      44.329  28.100  28.104  1.00  0.00    -0.205 F 
ATOM     65  C   UNL A   1      43.352  24.817  26.812  1.00  0.00     0.022 A 
BRANCH  63  66
ATOM     66  S   UNL A   1      45.125  26.499  25.584  1.00  0.00     0.127 S 
ATOM     67  O   UNL A   1      44.518  27.725  25.064  1.00  0.00    -0.237 OA
ATOM     68  O   UNL A   1      46.377  26.700  26.312  1.00  0.00    -0.237 OA
ATOM     69  O   UNL A   1      45.126  25.370  24.665  1.00  0.00    -0.744 OA
ENDBRANCH  63  66
ENDBRANCH  45  59
BRANCH  46  70
ATOM     70  C   UNL A   1      39.631  32.708  36.185  1.00  0.00     0.023 A 
ATOM     71  C   UNL A   1      40.068  34.042  36.290  1.00  0.00     0.012 A 
ATOM     72  C   UNL A   1      38.709  32.210  37.127  1.00  0.00     0.148 A 
ATOM     73  C   UNL A   1      39.621  34.855  37.333  1.00  0.00     0.002 A 
ATOM     74  C   UNL A   1      38.225  33.043  38.129  1.00  0.00     0.091 A 
ATOM     75  F   UNL A   1      38.317  30.933  37.018  1.00  0.00    -0.205 F 
ATOM     76  C   UNL A   1      38.694  34.361  38.245  1.00  0.00     0.022 A 
BRANCH  74  77
ATOM     77  S   UNL A   1      36.936  32.530  39.271  1.00  0.00     0.127 S 
ATOM     78  O   UNL A   1      35.729  32.738  38.473  1.00  0.00    -0.237 OA
ATOM     79  O   UNL A   1      37.284  31.129  39.508  1.00  0.00    -0.237 OA
ATOM     80  O   UNL A   1      37.076  33.390  40.437  1.00  0.00    -0.744 OA
ENDBRANCH  74  77
ENDBRANCH  46  70
BRANCH  58  81
ATOM     81  C   UNL A   1      44.927  28.196  35.589  1.00  0.00     0.023 A 
ATOM     82  C   UNL A   1      46.208  28.780  35.526  1.00  0.00     0.012 A 
ATOM     83  C   UNL A   1      44.648  27.249  36.594  1.00  0.00     0.148 A 
ATOM     84  C   UNL A   1      47.203  28.403  36.425  1.00  0.00     0.002 A 
ATOM     85  C   UNL A   1      45.628  26.919  37.520  1.00  0.00     0.091 A 
ATOM     86  F   UNL A   1      43.428  26.694  36.629  1.00  0.00    -0.205 F 
ATOM     87  C   UNL A   1      46.911  27.483  37.429  1.00  0.00     0.022 A 
BRANCH  85  88
ATOM     88  S   UNL A   1      45.320  25.817  38.905  1.00  0.00     0.127 S 
ATOM     89  O   UNL A   1      44.193  26.475  39.564  1.00  0.00    -0.237 OA
ATOM     90  O   UNL A   1      44.987  24.562  38.232  1.00  0.00    -0.237 OA
ATOM     91  O   UNL A   1      46.555  25.782  39.676  1.00  0.00    -0.744 OA
ENDBRANCH  85  88
ENDBRANCH  58  81
ENDBRANCH  32  33
ENDBRANCH  25  27
ENDBRANCH  24  25
ENDBRANCH  23  24
ENDBRANCH   1  23
TORSDOF 17
ENDMDL
