MODEL 1
REMARK VINA RESULT:     -11.7      0.000      0.000
REMARK SMILES Cc1[nH]ncc1S(=O)(=O)N1CC[C@@H](C(=O)OCCOC(=O)c2ccc(-c3c4nc(c(-c5cccc(S(=O)(=O)[O-])c5F)c5ccc([nH]5)c(-c5cccc(S(=O)(=O)[O-])c5F)c5nc(c(-c6cccc(S(=O)(=O)[O-])c6F)c6ccc3[nH]6)C=C5)C=C4)cc2)[C@@H]1C
REMARK SMILES IDX 18 1 17 2 16 3 14 4 15 5 13 6 10 7 11 8 85 9 12 10 86 11
REMARK SMILES IDX 7 12 8 13 9 14 6 15 1 16 2 17 3 18 4 19 5 21 19 22 20 23
REMARK SMILES IDX 21 24 22 25 23 26 84 27 24 28 83 29 25 30 26 31 27 32 77 33
REMARK SMILES IDX 28 34 82 35 76 36 78 37 29 38 81 39 75 40 74 41 30 43 62 44
REMARK SMILES IDX 42 45 61 46 43 47 46 48 60 49 79 50 44 51 45 52 59 54 80 55
REMARK SMILES IDX 47 56 31 57 32 58 40 59 33 60 35 61 41 62 34 63 36 64 37 65
REMARK SMILES IDX 38 66 39 67 63 68 64 69 72 70 65 71 67 72 73 73 66 74 68 75
REMARK SMILES IDX 69 76 70 77 71 78 48 79 49 80 57 81 50 82 52 83 58 84 51 85
REMARK SMILES IDX 53 86 54 87 55 88 56 89
REMARK H PARENT 3 20 78 42 46 53
REMARK Flexibility Score: inf
ROOT
ATOM      1  C   UNL A   1      31.760  29.766  26.330  1.00  0.00     0.275 C 
ENDROOT
BRANCH   1   2
ATOM      2  C   UNL A   1      31.745  28.537  27.242  1.00  0.00     0.274 C 
BRANCH   2   3
ATOM      3  O   UNL A   1      32.351  27.419  26.562  1.00  0.00    -0.462 OA
BRANCH   3   4
ATOM      4  C   UNL A   1      31.642  26.269  26.459  1.00  0.00     0.310 C 
ATOM      5  O   UNL A   1      30.423  26.197  26.563  1.00  0.00    -0.252 OA
BRANCH   4   6
ATOM      6  C   UNL A   1      32.507  25.071  26.097  1.00  0.00     0.118 C 
ATOM      7  N   UNL A   1      33.064  24.934  23.814  1.00  0.00    -0.194 NA
ATOM      8  C   UNL A   1      34.297  25.382  24.463  1.00  0.00     0.104 C 
ATOM      9  C   UNL A   1      32.128  24.369  24.799  1.00  0.00     0.084 C 
ATOM     10  C   UNL A   1      33.988  25.432  25.953  1.00  0.00     0.034 C 
ATOM     11  C   UNL A   1      32.368  22.860  24.924  1.00  0.00     0.027 C 
BRANCH   7  12
ATOM     12  S   UNL A   1      32.509  25.649  22.410  1.00  0.00     0.246 S 
ATOM     13  O   UNL A   1      31.273  24.988  22.053  1.00  0.00    -0.207 OA
ATOM     14  O   UNL A   1      33.614  25.727  21.473  1.00  0.00    -0.207 OA
BRANCH  12  15
ATOM     15  C   UNL A   1      32.035  27.299  22.592  1.00  0.00     0.123 A 
ATOM     16  C   UNL A   1      34.134  28.866  23.067  1.00  0.00     0.067 C 
ATOM     17  C   UNL A   1      32.730  28.476  22.826  1.00  0.00     0.052 A 
ATOM     18  N   UNL A   1      31.779  29.467  22.770  1.00  0.00    -0.281 N 
ATOM     19  N   UNL A   1      30.541  29.028  22.508  1.00  0.00    -0.183 NA
ATOM     20  H   UNL A   1      31.989  30.418  22.909  1.00  0.00     0.190 HD
ATOM     21  C   UNL A   1      30.702  27.709  22.382  1.00  0.00     0.157 A 
ENDBRANCH  12  15
ENDBRANCH   7  12
ENDBRANCH   4   6
ENDBRANCH   3   4
ENDBRANCH   2   3
ENDBRANCH   1   2
BRANCH   1  22
ATOM     22  O   UNL A   1      33.102  30.262  26.177  1.00  0.00    -0.458 OA
BRANCH  22  23
ATOM     23  C   UNL A   1      33.440  31.242  27.044  1.00  0.00     0.338 C 
ATOM     24  O   UNL A   1      32.715  32.103  27.516  1.00  0.00    -0.246 OA
BRANCH  23  25
ATOM     25  C   UNL A   1      34.799  31.012  27.537  1.00  0.00     0.060 A 
ATOM     26  C   UNL A   1      35.131  29.705  27.883  1.00  0.00     0.016 A 
ATOM     27  C   UNL A   1      35.676  32.060  27.797  1.00  0.00     0.016 A 
ATOM     28  C   UNL A   1      36.270  29.439  28.616  1.00  0.00     0.010 A 
ATOM     29  C   UNL A   1      36.882  31.777  28.442  1.00  0.00     0.010 A 
ATOM     30  C   UNL A   1      37.164  30.472  28.895  1.00  0.00    -0.014 A 
BRANCH  30  31
ATOM     31  C   UNL A   1      38.372  30.176  29.693  1.00  0.00     0.031 A 
ATOM     32  C   UNL A   1      39.417  29.259  29.132  1.00  0.00     0.074 A 
ATOM     33  C   UNL A   1      38.526  30.748  30.901  1.00  0.00     0.049 A 
ATOM     34  N   UNL A   1      40.460  28.742  29.720  1.00  0.00    -0.248 NA
ATOM     35  C   UNL A   1      39.261  28.862  27.722  1.00  0.00     0.031 C 
ATOM     36  C   UNL A   1      37.587  31.693  31.514  1.00  0.00     0.029 A 
ATOM     37  N   UNL A   1      39.515  30.607  31.838  1.00  0.00    -0.354 N 
ATOM     38  C   UNL A   1      41.047  27.905  28.779  1.00  0.00     0.074 A 
ATOM     39  C   UNL A   1      40.247  27.989  27.578  1.00  0.00     0.031 C 
ATOM     40  C   UNL A   1      38.038  32.034  32.729  1.00  0.00     0.029 A 
ATOM     41  C   UNL A   1      39.249  31.276  33.010  1.00  0.00     0.049 A 
ATOM     42  H   UNL A   1      40.332  30.080  31.688  1.00  0.00     0.167 HD
ATOM     43  C   UNL A   1      42.157  27.141  28.911  1.00  0.00     0.034 A 
ATOM     44  C   UNL A   1      39.879  31.234  34.198  1.00  0.00     0.034 A 
ATOM     45  C   UNL A   1      42.957  27.108  30.106  1.00  0.00     0.049 A 
ATOM     46  C   UNL A   1      41.100  30.369  34.326  1.00  0.00     0.074 A 
ATOM     47  C   UNL A   1      44.109  26.386  30.353  1.00  0.00     0.029 A 
ATOM     48  N   UNL A   1      42.684  27.837  31.255  1.00  0.00    -0.354 N 
ATOM     49  N   UNL A   1      41.665  29.608  33.420  1.00  0.00    -0.248 NA
ATOM     50  C   UNL A   1      41.780  30.370  35.626  1.00  0.00     0.031 C 
ATOM     51  C   UNL A   1      44.524  26.667  31.660  1.00  0.00     0.029 A 
ATOM     52  C   UNL A   1      43.645  27.583  32.218  1.00  0.00     0.049 A 
ATOM     53  H   UNL A   1      41.919  28.446  31.370  1.00  0.00     0.167 HD
ATOM     54  C   UNL A   1      42.782  29.053  34.031  1.00  0.00     0.074 A 
ATOM     55  C   UNL A   1      42.824  29.590  35.379  1.00  0.00     0.031 C 
ATOM     56  C   UNL A   1      43.682  28.168  33.535  1.00  0.00     0.034 A 
BRANCH  43  57
ATOM     57  C   UNL A   1      42.557  26.291  27.735  1.00  0.00     0.023 A 
ATOM     58  C   UNL A   1      43.393  26.824  26.733  1.00  0.00     0.012 A 
ATOM     59  C   UNL A   1      42.108  24.960  27.622  1.00  0.00     0.148 A 
ATOM     60  C   UNL A   1      43.742  26.061  25.617  1.00  0.00     0.002 A 
ATOM     61  C   UNL A   1      42.495  24.192  26.529  1.00  0.00     0.091 A 
ATOM     62  F   UNL A   1      41.288  24.479  28.568  1.00  0.00    -0.205 F 
ATOM     63  C   UNL A   1      43.300  24.745  25.521  1.00  0.00     0.022 A 
BRANCH  61  64
ATOM     64  S   UNL A   1      42.033  22.466  26.352  1.00  0.00     0.127 S 
ATOM     65  O   UNL A   1      42.678  22.116  25.087  1.00  0.00    -0.237 OA
ATOM     66  O   UNL A   1      42.643  21.859  27.535  1.00  0.00    -0.237 OA
ATOM     67  O   UNL A   1      40.577  22.440  26.342  1.00  0.00    -0.744 OA
ENDBRANCH  61  64
ENDBRANCH  43  57
BRANCH  44  68
ATOM     68  C   UNL A   1      39.351  32.033  35.339  1.00  0.00     0.023 A 
ATOM     69  C   UNL A   1      38.485  31.431  36.270  1.00  0.00     0.012 A 
ATOM     70  C   UNL A   1      39.764  33.365  35.547  1.00  0.00     0.148 A 
ATOM     71  C   UNL A   1      38.024  32.147  37.378  1.00  0.00     0.002 A 
ATOM     72  C   UNL A   1      39.350  34.052  36.682  1.00  0.00     0.091 A 
ATOM     73  F   UNL A   1      40.578  33.926  34.641  1.00  0.00    -0.205 F 
ATOM     74  C   UNL A   1      38.468  33.450  37.590  1.00  0.00     0.022 A 
BRANCH  72  75
ATOM     75  S   UNL A   1      39.989  35.675  37.111  1.00  0.00     0.127 S 
ATOM     76  O   UNL A   1      41.417  35.407  37.253  1.00  0.00    -0.237 OA
ATOM     77  O   UNL A   1      39.624  36.464  35.933  1.00  0.00    -0.237 OA
ATOM     78  O   UNL A   1      39.293  36.064  38.330  1.00  0.00    -0.744 OA
ENDBRANCH  72  75
ENDBRANCH  44  68
BRANCH  56  79
ATOM     79  C   UNL A   1      44.803  27.749  34.445  1.00  0.00     0.023 A 
ATOM     80  C   UNL A   1      45.979  28.521  34.506  1.00  0.00     0.012 A 
ATOM     81  C   UNL A   1      44.658  26.633  35.291  1.00  0.00     0.148 A 
ATOM     82  C   UNL A   1      47.010  28.169  35.376  1.00  0.00     0.002 A 
ATOM     83  C   UNL A   1      45.667  26.318  36.190  1.00  0.00     0.091 A 
ATOM     84  F   UNL A   1      43.537  25.902  35.199  1.00  0.00    -0.205 F 
ATOM     85  C   UNL A   1      46.849  27.077  36.227  1.00  0.00     0.022 A 
BRANCH  83  86
ATOM     86  S   UNL A   1      45.503  24.990  37.387  1.00  0.00     0.127 S 
ATOM     87  O   UNL A   1      45.406  23.817  36.520  1.00  0.00    -0.237 OA
ATOM     88  O   UNL A   1      46.755  25.092  38.139  1.00  0.00    -0.237 OA
ATOM     89  O   UNL A   1      44.308  25.295  38.163  1.00  0.00    -0.744 OA
ENDBRANCH  83  86
ENDBRANCH  56  79
ENDBRANCH  30  31
ENDBRANCH  23  25
ENDBRANCH  22  23
ENDBRANCH   1  22
TORSDOF 16
ENDMDL
MODEL 2
REMARK VINA RESULT:     -11.6      4.919      9.732
REMARK SMILES Cc1[nH]ncc1S(=O)(=O)N1CC[C@@H](C(=O)OCCOC(=O)c2ccc(-c3c4nc(c(-c5cccc(S(=O)(=O)[O-])c5F)c5ccc([nH]5)c(-c5cccc(S(=O)(=O)[O-])c5F)c5nc(c(-c6cccc(S(=O)(=O)[O-])c6F)c6ccc3[nH]6)C=C5)C=C4)cc2)[C@@H]1C
REMARK SMILES IDX 18 1 17 2 16 3 14 4 15 5 13 6 10 7 11 8 85 9 12 10 86 11
REMARK SMILES IDX 7 12 8 13 9 14 6 15 1 16 2 17 3 18 4 19 5 21 19 22 20 23
REMARK SMILES IDX 21 24 22 25 23 26 84 27 24 28 83 29 25 30 26 31 27 32 77 33
REMARK SMILES IDX 28 34 82 35 76 36 78 37 29 38 81 39 75 40 74 41 30 43 62 44
REMARK SMILES IDX 42 45 61 46 43 47 46 48 60 49 79 50 44 51 45 52 59 54 80 55
REMARK SMILES IDX 47 56 31 57 32 58 40 59 33 60 35 61 41 62 34 63 36 64 37 65
REMARK SMILES IDX 38 66 39 67 63 68 64 69 72 70 65 71 67 72 73 73 66 74 68 75
REMARK SMILES IDX 69 76 70 77 71 78 48 79 49 80 57 81 50 82 52 83 58 84 51 85
REMARK SMILES IDX 53 86 54 87 55 88 56 89
REMARK H PARENT 3 20 78 42 46 53
REMARK Flexibility Score: inf
ROOT
ATOM      1  C   UNL A   1      36.494  20.681  25.035  1.00  0.00     0.275 C 
ENDROOT
BRANCH   1   2
ATOM      2  C   UNL A   1      35.164  21.099  25.664  1.00  0.00     0.274 C 
BRANCH   2   3
ATOM      3  O   UNL A   1      35.236  22.475  26.090  1.00  0.00    -0.462 OA
BRANCH   3   4
ATOM      4  C   UNL A   1      34.191  23.291  25.810  1.00  0.00     0.310 C 
ATOM      5  O   UNL A   1      33.704  24.087  26.604  1.00  0.00    -0.252 OA
BRANCH   4   6
ATOM      6  C   UNL A   1      33.737  23.192  24.362  1.00  0.00     0.118 C 
ATOM      7  N   UNL A   1      32.439  25.014  23.628  1.00  0.00    -0.194 NA
ATOM      8  C   UNL A   1      33.744  25.221  23.000  1.00  0.00     0.104 C 
ATOM      9  C   UNL A   1      32.300  23.628  24.104  1.00  0.00     0.084 C 
ATOM     10  C   UNL A   1      34.597  24.029  23.412  1.00  0.00     0.034 C 
ATOM     11  C   UNL A   1      31.675  22.769  22.999  1.00  0.00     0.027 C 
BRANCH   7  12
ATOM     12  S   UNL A   1      31.620  26.266  24.372  1.00  0.00     0.246 S 
ATOM     13  O   UNL A   1      32.484  26.785  25.409  1.00  0.00    -0.207 OA
ATOM     14  O   UNL A   1      30.276  25.814  24.673  1.00  0.00    -0.207 OA
BRANCH  12  15
ATOM     15  C   UNL A   1      31.352  27.639  23.359  1.00  0.00     0.123 A 
ATOM     16  C   UNL A   1      33.605  28.996  22.945  1.00  0.00     0.067 C 
ATOM     17  C   UNL A   1      32.178  28.627  22.844  1.00  0.00     0.052 A 
ATOM     18  N   UNL A   1      31.366  29.379  22.029  1.00  0.00    -0.281 N 
ATOM     19  N   UNL A   1      30.099  28.950  21.967  1.00  0.00    -0.183 NA
ATOM     20  H   UNL A   1      31.689  30.165  21.532  1.00  0.00     0.190 HD
ATOM     21  C   UNL A   1      30.096  27.879  22.764  1.00  0.00     0.157 A 
ENDBRANCH  12  15
ENDBRANCH   7  12
ENDBRANCH   4   6
ENDBRANCH   3   4
ENDBRANCH   2   3
ENDBRANCH   1   2
BRANCH   1  22
ATOM     22  O   UNL A   1      37.480  21.715  25.210  1.00  0.00    -0.458 OA
BRANCH  22  23
ATOM     23  C   UNL A   1      38.610  21.312  25.830  1.00  0.00     0.338 C 
ATOM     24  O   UNL A   1      39.178  20.236  25.722  1.00  0.00    -0.246 OA
BRANCH  23  25
ATOM     25  C   UNL A   1      39.219  22.447  26.525  1.00  0.00     0.060 A 
ATOM     26  C   UNL A   1      38.758  23.716  26.181  1.00  0.00     0.016 A 
ATOM     27  C   UNL A   1      40.310  22.294  27.374  1.00  0.00     0.016 A 
ATOM     28  C   UNL A   1      39.457  24.845  26.560  1.00  0.00     0.010 A 
ATOM     29  C   UNL A   1      40.954  23.440  27.848  1.00  0.00     0.010 A 
ATOM     30  C   UNL A   1      40.557  24.719  27.407  1.00  0.00    -0.014 A 
BRANCH  30  31
ATOM     31  C   UNL A   1      41.305  25.934  27.793  1.00  0.00     0.031 A 
ATOM     32  C   UNL A   1      40.615  26.997  28.593  1.00  0.00     0.074 A 
ATOM     33  C   UNL A   1      42.596  26.059  27.437  1.00  0.00     0.049 A 
ATOM     34  N   UNL A   1      41.027  28.198  28.894  1.00  0.00    -0.248 NA
ATOM     35  C   UNL A   1      39.278  26.670  29.116  1.00  0.00     0.031 C 
ATOM     36  C   UNL A   1      43.371  25.057  26.699  1.00  0.00     0.029 A 
ATOM     37  N   UNL A   1      43.482  27.086  27.631  1.00  0.00    -0.354 N 
ATOM     38  C   UNL A   1      39.977  28.795  29.580  1.00  0.00     0.074 A 
ATOM     39  C   UNL A   1      38.911  27.822  29.657  1.00  0.00     0.031 C 
ATOM     40  C   UNL A   1      44.609  25.525  26.490  1.00  0.00     0.029 A 
ATOM     41  C   UNL A   1      44.690  26.883  27.007  1.00  0.00     0.049 A 
ATOM     42  H   UNL A   1      43.274  27.888  28.162  1.00  0.00     0.167 HD
ATOM     43  C   UNL A   1      39.916  30.044  30.100  1.00  0.00     0.034 A 
ATOM     44  C   UNL A   1      45.726  27.722  26.822  1.00  0.00     0.034 A 
ATOM     45  C   UNL A   1      41.008  30.978  30.044  1.00  0.00     0.049 A 
ATOM     46  C   UNL A   1      45.631  29.107  27.395  1.00  0.00     0.074 A 
ATOM     47  C   UNL A   1      41.070  32.264  30.547  1.00  0.00     0.029 A 
ATOM     48  N   UNL A   1      42.235  30.720  29.447  1.00  0.00    -0.354 N 
ATOM     49  N   UNL A   1      44.647  29.650  28.071  1.00  0.00    -0.248 NA
ATOM     50  C   UNL A   1      46.790  29.986  27.200  1.00  0.00     0.031 C 
ATOM     51  C   UNL A   1      42.331  32.789  30.240  1.00  0.00     0.029 A 
ATOM     52  C   UNL A   1      43.063  31.822  29.568  1.00  0.00     0.049 A 
ATOM     53  H   UNL A   1      42.480  29.876  29.003  1.00  0.00     0.167 HD
ATOM     54  C   UNL A   1      45.073  30.929  28.402  1.00  0.00     0.074 A 
ATOM     55  C   UNL A   1      46.418  31.067  27.873  1.00  0.00     0.031 C 
ATOM     56  C   UNL A   1      44.413  31.909  29.067  1.00  0.00     0.034 A 
BRANCH  43  57
ATOM     57  C   UNL A   1      38.631  30.455  30.769  1.00  0.00     0.023 A 
ATOM     58  C   UNL A   1      38.399  30.115  32.116  1.00  0.00     0.012 A 
ATOM     59  C   UNL A   1      37.652  31.182  30.062  1.00  0.00     0.148 A 
ATOM     60  C   UNL A   1      37.196  30.455  32.739  1.00  0.00     0.002 A 
ATOM     61  C   UNL A   1      36.475  31.556  30.702  1.00  0.00     0.091 A 
ATOM     62  F   UNL A   1      37.877  31.471  28.772  1.00  0.00    -0.205 F 
ATOM     63  C   UNL A   1      36.241  31.181  32.034  1.00  0.00     0.022 A 
BRANCH  61  64
ATOM     64  S   UNL A   1      35.215  32.552  29.898  1.00  0.00     0.127 S 
ATOM     65  O   UNL A   1      34.767  31.658  28.832  1.00  0.00    -0.237 OA
ATOM     66  O   UNL A   1      34.245  32.750  30.975  1.00  0.00    -0.237 OA
ATOM     67  O   UNL A   1      35.886  33.767  29.458  1.00  0.00    -0.744 OA
ENDBRANCH  61  64
ENDBRANCH  43  57
BRANCH  44  68
ATOM     68  C   UNL A   1      46.919  27.261  26.058  1.00  0.00     0.023 A 
ATOM     69  C   UNL A   1      47.018  27.542  24.683  1.00  0.00     0.012 A 
ATOM     70  C   UNL A   1      47.989  26.610  26.705  1.00  0.00     0.148 A 
ATOM     71  C   UNL A   1      48.154  27.168  23.962  1.00  0.00     0.002 A 
ATOM     72  C   UNL A   1      49.142  26.295  25.994  1.00  0.00     0.091 A 
ATOM     73  F   UNL A   1      47.870  26.339  28.012  1.00  0.00    -0.205 F 
ATOM     74  C   UNL A   1      49.220  26.558  24.620  1.00  0.00     0.022 A 
BRANCH  72  75
ATOM     75  S   UNL A   1      50.616  25.646  26.791  1.00  0.00     0.127 S 
ATOM     76  O   UNL A   1      50.114  24.412  27.390  1.00  0.00    -0.237 OA
ATOM     77  O   UNL A   1      51.516  25.457  25.652  1.00  0.00    -0.237 OA
ATOM     78  O   UNL A   1      51.043  26.677  27.728  1.00  0.00    -0.744 OA
ENDBRANCH  72  75
ENDBRANCH  44  68
BRANCH  56  79
ATOM     79  C   UNL A   1      45.145  33.204  29.284  1.00  0.00     0.023 A 
ATOM     80  C   UNL A   1      45.927  33.380  30.442  1.00  0.00     0.012 A 
ATOM     81  C   UNL A   1      45.116  34.215  28.304  1.00  0.00     0.148 A 
ATOM     82  C   UNL A   1      46.646  34.558  30.636  1.00  0.00     0.002 A 
ATOM     83  C   UNL A   1      45.874  35.363  28.480  1.00  0.00     0.091 A 
ATOM     84  F   UNL A   1      44.347  34.032  27.220  1.00  0.00    -0.205 F 
ATOM     85  C   UNL A   1      46.631  35.543  29.650  1.00  0.00     0.022 A 
BRANCH  83  86
ATOM     86  S   UNL A   1      45.990  36.638  27.221  1.00  0.00     0.127 S 
ATOM     87  O   UNL A   1      46.903  37.593  27.846  1.00  0.00    -0.237 OA
ATOM     88  O   UNL A   1      46.554  35.905  26.087  1.00  0.00    -0.237 OA
ATOM     89  O   UNL A   1      44.630  37.118  27.011  1.00  0.00    -0.744 OA
ENDBRANCH  83  86
ENDBRANCH  56  79
ENDBRANCH  30  31
ENDBRANCH  23  25
ENDBRANCH  22  23
ENDBRANCH   1  22
TORSDOF 16
ENDMDL
MODEL 3
REMARK VINA RESULT:     -11.6      4.985      9.993
REMARK SMILES Cc1[nH]ncc1S(=O)(=O)N1CC[C@@H](C(=O)OCCOC(=O)c2ccc(-c3c4nc(c(-c5cccc(S(=O)(=O)[O-])c5F)c5ccc([nH]5)c(-c5cccc(S(=O)(=O)[O-])c5F)c5nc(c(-c6cccc(S(=O)(=O)[O-])c6F)c6ccc3[nH]6)C=C5)C=C4)cc2)[C@@H]1C
REMARK SMILES IDX 18 1 17 2 16 3 14 4 15 5 13 6 10 7 11 8 85 9 12 10 86 11
REMARK SMILES IDX 7 12 8 13 9 14 6 15 1 16 2 17 3 18 4 19 5 21 19 22 20 23
REMARK SMILES IDX 21 24 22 25 23 26 84 27 24 28 83 29 25 30 26 31 27 32 77 33
REMARK SMILES IDX 28 34 82 35 76 36 78 37 29 38 81 39 75 40 74 41 30 43 62 44
REMARK SMILES IDX 42 45 61 46 43 47 46 48 60 49 79 50 44 51 45 52 59 54 80 55
REMARK SMILES IDX 47 56 31 57 32 58 40 59 33 60 35 61 41 62 34 63 36 64 37 65
REMARK SMILES IDX 38 66 39 67 63 68 64 69 72 70 65 71 67 72 73 73 66 74 68 75
REMARK SMILES IDX 69 76 70 77 71 78 48 79 49 80 57 81 50 82 52 83 58 84 51 85
REMARK SMILES IDX 53 86 54 87 55 88 56 89
REMARK H PARENT 3 20 78 42 46 53
REMARK Flexibility Score: inf
ROOT
ATOM      1  C   UNL A   1      36.555  21.628  24.210  1.00  0.00     0.275 C 
ENDROOT
BRANCH   1   2
ATOM      2  C   UNL A   1      36.238  22.952  23.510  1.00  0.00     0.274 C 
BRANCH   2   3
ATOM      3  O   UNL A   1      34.884  23.349  23.807  1.00  0.00    -0.462 OA
BRANCH   3   4
ATOM      4  C   UNL A   1      34.130  23.860  22.804  1.00  0.00     0.310 C 
ATOM      5  O   UNL A   1      33.987  23.331  21.708  1.00  0.00    -0.252 OA
BRANCH   4   6
ATOM      6  C   UNL A   1      33.386  25.123  23.210  1.00  0.00     0.118 C 
ATOM      7  N   UNL A   1      32.014  24.872  25.106  1.00  0.00    -0.194 NA
ATOM      8  C   UNL A   1      33.167  25.631  25.590  1.00  0.00     0.104 C 
ATOM      9  C   UNL A   1      31.939  24.913  23.637  1.00  0.00     0.084 C 
ATOM     10  C   UNL A   1      34.056  25.858  24.374  1.00  0.00     0.034 C 
ATOM     11  C   UNL A   1      31.079  26.105  23.202  1.00  0.00     0.027 C 
BRANCH   7  12
ATOM     12  S   UNL A   1      31.398  23.578  25.965  1.00  0.00     0.246 S 
ATOM     13  O   UNL A   1      30.478  22.884  25.092  1.00  0.00    -0.207 OA
ATOM     14  O   UNL A   1      30.978  24.058  27.268  1.00  0.00    -0.207 OA
BRANCH  12  15
ATOM     15  C   UNL A   1      32.564  22.365  26.353  1.00  0.00     0.123 A 
ATOM     16  C   UNL A   1      32.778  20.564  24.403  1.00  0.00     0.067 C 
ATOM     17  C   UNL A   1      33.046  21.249  25.684  1.00  0.00     0.052 A 
ATOM     18  N   UNL A   1      34.036  20.750  26.496  1.00  0.00    -0.281 N 
ATOM     19  N   UNL A   1      34.238  21.455  27.616  1.00  0.00    -0.183 NA
ATOM     20  H   UNL A   1      34.554  19.943  26.272  1.00  0.00     0.190 HD
ATOM     21  C   UNL A   1      33.352  22.449  27.519  1.00  0.00     0.157 A 
ENDBRANCH  12  15
ENDBRANCH   7  12
ENDBRANCH   4   6
ENDBRANCH   3   4
ENDBRANCH   2   3
ENDBRANCH   1   2
BRANCH   1  22
ATOM     22  O   UNL A   1      36.990  21.866  25.561  1.00  0.00    -0.458 OA
BRANCH  22  23
ATOM     23  C   UNL A   1      38.275  21.529  25.803  1.00  0.00     0.338 C 
ATOM     24  O   UNL A   1      38.886  20.562  25.378  1.00  0.00    -0.246 OA
BRANCH  23  25
ATOM     25  C   UNL A   1      38.944  22.626  26.506  1.00  0.00     0.060 A 
ATOM     26  C   UNL A   1      38.457  23.910  26.278  1.00  0.00     0.016 A 
ATOM     27  C   UNL A   1      40.105  22.429  27.246  1.00  0.00     0.016 A 
ATOM     28  C   UNL A   1      39.187  25.018  26.658  1.00  0.00     0.010 A 
ATOM     29  C   UNL A   1      40.789  23.547  27.728  1.00  0.00     0.010 A 
ATOM     30  C   UNL A   1      40.357  24.848  27.397  1.00  0.00    -0.014 A 
BRANCH  30  31
ATOM     31  C   UNL A   1      41.137  26.042  27.785  1.00  0.00     0.031 A 
ATOM     32  C   UNL A   1      40.475  27.124  28.584  1.00  0.00     0.074 A 
ATOM     33  C   UNL A   1      42.433  26.131  27.433  1.00  0.00     0.049 A 
ATOM     34  N   UNL A   1      40.920  28.313  28.886  1.00  0.00    -0.248 NA
ATOM     35  C   UNL A   1      39.128  26.833  29.104  1.00  0.00     0.031 C 
ATOM     36  C   UNL A   1      43.181  25.109  26.695  1.00  0.00     0.029 A 
ATOM     37  N   UNL A   1      43.346  27.134  27.629  1.00  0.00    -0.354 N 
ATOM     38  C   UNL A   1      39.885  28.938  29.570  1.00  0.00     0.074 A 
ATOM     39  C   UNL A   1      38.792  27.995  29.644  1.00  0.00     0.031 C 
ATOM     40  C   UNL A   1      44.432  25.542  26.489  1.00  0.00     0.029 A 
ATOM     41  C   UNL A   1      44.550  26.897  27.007  1.00  0.00     0.049 A 
ATOM     42  H   UNL A   1      43.159  27.940  28.159  1.00  0.00     0.167 HD
ATOM     43  C   UNL A   1      39.858  30.188  30.091  1.00  0.00     0.034 A 
ATOM     44  C   UNL A   1      45.609  27.707  26.825  1.00  0.00     0.034 A 
ATOM     45  C   UNL A   1      40.975  31.091  30.037  1.00  0.00     0.049 A 
ATOM     46  C   UNL A   1      45.551  29.094  27.398  1.00  0.00     0.074 A 
ATOM     47  C   UNL A   1      41.072  32.374  30.542  1.00  0.00     0.029 A 
ATOM     48  N   UNL A   1      42.195  30.800  29.444  1.00  0.00    -0.354 N 
ATOM     49  N   UNL A   1      44.580  29.664  28.072  1.00  0.00    -0.248 NA
ATOM     50  C   UNL A   1      46.734  29.940  27.207  1.00  0.00     0.031 C 
ATOM     51  C   UNL A   1      42.347  32.865  30.237  1.00  0.00     0.029 A 
ATOM     52  C   UNL A   1      43.053  31.878  29.566  1.00  0.00     0.049 A 
ATOM     53  H   UNL A   1      42.418  29.950  28.999  1.00  0.00     0.167 HD
ATOM     54  C   UNL A   1      45.041  30.930  28.405  1.00  0.00     0.074 A 
ATOM     55  C   UNL A   1      46.390  31.031  27.879  1.00  0.00     0.031 C 
ATOM     56  C   UNL A   1      44.406  31.928  29.069  1.00  0.00     0.034 A 
BRANCH  43  57
ATOM     57  C   UNL A   1      38.583  30.634  30.757  1.00  0.00     0.023 A 
ATOM     58  C   UNL A   1      38.372  30.365  32.124  1.00  0.00     0.012 A 
ATOM     59  C   UNL A   1      37.593  31.324  30.028  1.00  0.00     0.148 A 
ATOM     60  C   UNL A   1      37.179  30.738  32.746  1.00  0.00     0.002 A 
ATOM     61  C   UNL A   1      36.426  31.730  30.665  1.00  0.00     0.091 A 
ATOM     62  F   UNL A   1      37.798  31.544  28.721  1.00  0.00    -0.205 F 
ATOM     63  C   UNL A   1      36.212  31.427  32.019  1.00  0.00     0.022 A 
BRANCH  61  64
ATOM     64  S   UNL A   1      35.153  32.683  29.830  1.00  0.00     0.127 S 
ATOM     65  O   UNL A   1      34.182  32.885  30.905  1.00  0.00    -0.237 OA
ATOM     66  O   UNL A   1      35.881  33.889  29.433  1.00  0.00    -0.237 OA
ATOM     67  O   UNL A   1      34.699  31.858  28.720  1.00  0.00    -0.744 OA
ENDBRANCH  61  64
ENDBRANCH  43  57
BRANCH  44  68
ATOM     68  C   UNL A   1      46.790  27.214  26.063  1.00  0.00     0.023 A 
ATOM     69  C   UNL A   1      46.880  27.458  24.680  1.00  0.00     0.012 A 
ATOM     70  C   UNL A   1      47.859  26.568  26.718  1.00  0.00     0.148 A 
ATOM     71  C   UNL A   1      48.006  27.053  23.960  1.00  0.00     0.002 A 
ATOM     72  C   UNL A   1      49.002  26.222  26.007  1.00  0.00     0.091 A 
ATOM     73  F   UNL A   1      47.748  26.332  28.033  1.00  0.00    -0.205 F 
ATOM     74  C   UNL A   1      49.071  26.448  24.625  1.00  0.00     0.022 A 
BRANCH  72  75
ATOM     75  S   UNL A   1      50.475  25.578  26.808  1.00  0.00     0.127 S 
ATOM     76  O   UNL A   1      50.901  26.720  27.613  1.00  0.00    -0.237 OA
ATOM     77  O   UNL A   1      49.936  24.452  27.572  1.00  0.00    -0.237 OA
ATOM     78  O   UNL A   1      51.374  25.193  25.728  1.00  0.00    -0.744 OA
ENDBRANCH  72  75
ENDBRANCH  44  68
BRANCH  56  79
ATOM     79  C   UNL A   1      45.174  33.202  29.288  1.00  0.00     0.023 A 
ATOM     80  C   UNL A   1      46.005  33.333  30.417  1.00  0.00     0.012 A 
ATOM     81  C   UNL A   1      45.128  34.238  28.335  1.00  0.00     0.148 A 
ATOM     82  C   UNL A   1      46.755  34.491  30.611  1.00  0.00     0.002 A 
ATOM     83  C   UNL A   1      45.916  35.366  28.509  1.00  0.00     0.091 A 
ATOM     84  F   UNL A   1      44.313  34.098  27.278  1.00  0.00    -0.205 F 
ATOM     85  C   UNL A   1      46.722  35.501  29.652  1.00  0.00     0.022 A 
BRANCH  83  86
ATOM     86  S   UNL A   1      46.008  36.670  27.278  1.00  0.00     0.127 S 
ATOM     87  O   UNL A   1      46.894  37.633  27.929  1.00  0.00    -0.237 OA
ATOM     88  O   UNL A   1      46.598  35.975  26.133  1.00  0.00    -0.237 OA
ATOM     89  O   UNL A   1      44.639  37.121  27.068  1.00  0.00    -0.744 OA
ENDBRANCH  83  86
ENDBRANCH  56  79
ENDBRANCH  30  31
ENDBRANCH  23  25
ENDBRANCH  22  23
ENDBRANCH   1  22
TORSDOF 16
ENDMDL
