MODEL 1
REMARK VINA RESULT:     -11.8      0.000      0.000
REMARK SMILES CCc1cccc(CC)c1N1/C(=[NH+]/C(=O)CCCC(=O)OCCOC(=O)c2ccc(-c3c4nc(c(-c5cccc(S(=O)(=O)[O-])c5F)c5ccc([nH]5)c(-c5cccc(S(=O)(=O)[O-])c5F)c5nc(c(-c6cccc(S(=O)(=O)[O-])c6F)c6ccc3[nH]6)C=C5)C=C4)cc2)S[C@@H]2CS(=O)(=O)C[C@@H]21
REMARK SMILES IDX 22 1 21 2 19 3 20 4 18 5 17 6 16 7 14 8 11 9 12 10 97 11
REMARK SMILES IDX 13 12 90 13 91 14 96 15 92 17 93 18 15 19 94 20 95 21 10 22
REMARK SMILES IDX 3 23 4 24 5 25 7 26 6 27 2 28 1 29 8 30 9 31 23 32 24 33
REMARK SMILES IDX 25 34 26 35 27 36 28 37 89 38 29 39 88 40 30 41 31 42 32 43
REMARK SMILES IDX 82 44 33 45 87 46 81 47 83 48 34 49 86 50 80 51 79 52 35 54
REMARK SMILES IDX 67 55 47 56 66 57 48 58 51 59 65 60 84 61 49 62 50 63 64 65
REMARK SMILES IDX 85 66 52 67 36 68 37 69 45 70 38 71 40 72 46 73 39 74 41 75
REMARK SMILES IDX 42 76 43 77 44 78 68 79 69 80 77 81 70 82 72 83 78 84 71 85
REMARK SMILES IDX 73 86 74 87 75 88 76 89 53 90 54 91 62 92 55 93 57 94 63 95
REMARK SMILES IDX 56 96 58 97 59 98 60 99 61 100
REMARK H PARENT 13 16 83 53 51 64
REMARK Flexibility Score: inf
ROOT
ATOM      1  C   UNL A   1      31.661  28.015  26.670  1.00  0.00     0.274 C 
ENDROOT
BRANCH   1   2
ATOM      2  O   UNL A   1      31.873  27.411  25.383  1.00  0.00    -0.462 OA
BRANCH   2   3
ATOM      3  C   UNL A   1      30.770  27.204  24.625  1.00  0.00     0.305 C 
ATOM      4  O   UNL A   1      30.283  28.040  23.874  1.00  0.00    -0.252 OA
BRANCH   3   5
ATOM      5  C   UNL A   1      30.236  25.787  24.724  1.00  0.00     0.123 C 
BRANCH   5   6
ATOM      6  C   UNL A   1      29.364  25.445  25.926  1.00  0.00     0.024 C 
BRANCH   6   7
ATOM      7  C   UNL A   1      29.568  24.049  26.509  1.00  0.00     0.128 C 
BRANCH   7   8
ATOM      8  C   UNL A   1      31.032  23.710  26.697  1.00  0.00     0.307 C 
ATOM      9  N   UNL A   1      33.339  21.272  25.238  1.00  0.00    -0.216 N 
ATOM     10  C   UNL A   1      32.620  22.095  26.111  1.00  0.00     0.319 C 
ATOM     11  C   UNL A   1      34.701  20.885  25.686  1.00  0.00     0.212 C 
ATOM     12  N   UNL A   1      31.492  22.684  25.894  1.00  0.00    -0.204 N 
ATOM     13  S   UNL A   1      33.548  22.261  27.625  1.00  0.00    -0.029 SA
ATOM     14  C   UNL A   1      35.094  21.862  26.806  1.00  0.00     0.120 C 
ATOM     15  C   UNL A   1      35.779  20.932  24.602  1.00  0.00     0.188 C 
ATOM     16  H   UNL A   1      30.941  22.393  25.132  1.00  0.00     0.316 HD
ATOM     17  C   UNL A   1      35.733  23.076  26.162  1.00  0.00     0.156 C 
ATOM     18  S   UNL A   1      36.828  22.318  24.994  1.00  0.00     0.155 S 
ATOM     19  O   UNL A   1      31.718  24.444  27.408  1.00  0.00    -0.247 OA
ATOM     20  O   UNL A   1      36.981  23.179  23.844  1.00  0.00    -0.229 OA
ATOM     21  O   UNL A   1      37.969  21.818  25.733  1.00  0.00    -0.229 OA
BRANCH   9  22
ATOM     22  C   UNL A   1      32.775  20.473  24.206  1.00  0.00     0.134 A 
ATOM     23  C   UNL A   1      32.525  20.986  22.901  1.00  0.00    -0.001 A 
ATOM     24  C   UNL A   1      32.152  20.085  21.872  1.00  0.00     0.008 A 
ATOM     25  C   UNL A   1      32.073  18.717  22.071  1.00  0.00     0.001 A 
ATOM     26  C   UNL A   1      32.591  19.064  24.423  1.00  0.00    -0.001 A 
ATOM     27  C   UNL A   1      32.296  18.212  23.337  1.00  0.00     0.008 A 
BRANCH  23  28
ATOM     28  C   UNL A   1      32.529  22.428  22.421  1.00  0.00     0.036 C 
ATOM     29  C   UNL A   1      33.760  23.300  22.511  1.00  0.00     0.009 C 
ENDBRANCH  23  28
BRANCH  26  30
ATOM     30  C   UNL A   1      32.731  18.396  25.782  1.00  0.00     0.036 C 
ATOM     31  C   UNL A   1      32.763  16.869  25.742  1.00  0.00     0.009 C 
ENDBRANCH  26  30
ENDBRANCH   9  22
ENDBRANCH   7   8
ENDBRANCH   6   7
ENDBRANCH   5   6
ENDBRANCH   3   5
ENDBRANCH   2   3
ENDBRANCH   1   2
BRANCH   1  32
ATOM     32  C   UNL A   1      31.565  29.534  26.525  1.00  0.00     0.275 C 
BRANCH  32  33
ATOM     33  O   UNL A   1      32.837  30.112  26.173  1.00  0.00    -0.458 OA
BRANCH  33  34
ATOM     34  C   UNL A   1      33.216  31.175  26.919  1.00  0.00     0.338 C 
ATOM     35  O   UNL A   1      32.565  32.175  27.171  1.00  0.00    -0.246 OA
BRANCH  34  36
ATOM     36  C   UNL A   1      34.534  30.917  27.512  1.00  0.00     0.060 A 
ATOM     37  C   UNL A   1      34.863  29.608  27.867  1.00  0.00     0.016 A 
ATOM     38  C   UNL A   1      35.396  31.968  27.814  1.00  0.00     0.016 A 
ATOM     39  C   UNL A   1      36.028  29.340  28.569  1.00  0.00     0.010 A 
ATOM     40  C   UNL A   1      36.595  31.694  28.479  1.00  0.00     0.010 A 
ATOM     41  C   UNL A   1      36.907  30.381  28.877  1.00  0.00    -0.014 A 
BRANCH  41  42
ATOM     42  C   UNL A   1      38.149  30.083  29.627  1.00  0.00     0.031 A 
ATOM     43  C   UNL A   1      39.184  29.177  29.029  1.00  0.00     0.074 A 
ATOM     44  C   UNL A   1      38.331  30.628  30.844  1.00  0.00     0.049 A 
ATOM     45  N   UNL A   1      40.278  28.711  29.568  1.00  0.00    -0.248 NA
ATOM     46  C   UNL A   1      38.956  28.728  27.645  1.00  0.00     0.031 C 
ATOM     47  C   UNL A   1      37.395  31.537  31.512  1.00  0.00     0.029 A 
ATOM     48  N   UNL A   1      39.354  30.481  31.746  1.00  0.00    -0.354 N 
ATOM     49  C   UNL A   1      40.839  27.868  28.618  1.00  0.00     0.074 A 
ATOM     50  C   UNL A   1      39.970  27.895  27.461  1.00  0.00     0.031 C 
ATOM     51  C   UNL A   1      37.879  31.852  32.723  1.00  0.00     0.029 A 
ATOM     52  C   UNL A   1      39.127  31.129  32.938  1.00  0.00     0.049 A 
ATOM     53  H   UNL A   1      40.170  29.964  31.559  1.00  0.00     0.167 HD
ATOM     54  C   UNL A   1      41.980  27.145  28.704  1.00  0.00     0.034 A 
ATOM     55  C   UNL A   1      39.827  31.110  34.088  1.00  0.00     0.034 A 
ATOM     56  C   UNL A   1      42.861  27.169  29.840  1.00  0.00     0.049 A 
ATOM     57  C   UNL A   1      41.093  30.302  34.150  1.00  0.00     0.074 A 
ATOM     58  C   UNL A   1      44.070  26.515  30.004  1.00  0.00     0.029 A 
ATOM     59  N   UNL A   1      42.630  27.882  31.006  1.00  0.00    -0.354 N 
ATOM     60  N   UNL A   1      41.658  29.582  33.211  1.00  0.00    -0.248 NA
ATOM     61  C   UNL A   1      41.833  30.322  35.419  1.00  0.00     0.031 C 
ATOM     62  C   UNL A   1      44.560  26.820  31.278  1.00  0.00     0.029 A 
ATOM     63  C   UNL A   1      43.668  27.678  31.899  1.00  0.00     0.049 A 
ATOM     64  H   UNL A   1      41.844  28.450  31.173  1.00  0.00     0.167 HD
ATOM     65  C   UNL A   1      42.831  29.085  33.765  1.00  0.00     0.074 A 
ATOM     66  C   UNL A   1      42.908  29.609  35.115  1.00  0.00     0.031 C 
ATOM     67  C   UNL A   1      43.751  28.254  33.217  1.00  0.00     0.034 A 
BRANCH  54  68
ATOM     68  C   UNL A   1      42.355  26.280  27.531  1.00  0.00     0.023 A 
ATOM     69  C   UNL A   1      43.079  26.831  26.455  1.00  0.00     0.012 A 
ATOM     70  C   UNL A   1      42.044  24.905  27.525  1.00  0.00     0.148 A 
ATOM     71  C   UNL A   1      43.469  26.032  25.381  1.00  0.00     0.002 A 
ATOM     72  C   UNL A   1      42.471  24.108  26.470  1.00  0.00     0.091 A 
ATOM     73  F   UNL A   1      41.333  24.407  28.546  1.00  0.00    -0.205 F 
ATOM     74  C   UNL A   1      43.175  24.671  25.393  1.00  0.00     0.022 A 
BRANCH  72  75
ATOM     75  S   UNL A   1      42.206  22.332  26.429  1.00  0.00     0.127 S 
ATOM     76  O   UNL A   1      42.697  21.930  27.747  1.00  0.00    -0.237 OA
ATOM     77  O   UNL A   1      40.754  22.241  26.265  1.00  0.00    -0.237 OA
ATOM     78  O   UNL A   1      42.976  21.836  25.297  1.00  0.00    -0.744 OA
ENDBRANCH  72  75
ENDBRANCH  54  68
BRANCH  55  79
ATOM     79  C   UNL A   1      39.348  31.894  35.262  1.00  0.00     0.023 A 
ATOM     80  C   UNL A   1      38.507  31.281  36.208  1.00  0.00     0.012 A 
ATOM     81  C   UNL A   1      39.752  33.228  35.463  1.00  0.00     0.148 A 
ATOM     82  C   UNL A   1      38.054  31.992  37.321  1.00  0.00     0.002 A 
ATOM     83  C   UNL A   1      39.346  33.911  36.604  1.00  0.00     0.091 A 
ATOM     84  F   UNL A   1      40.537  33.803  34.540  1.00  0.00    -0.205 F 
ATOM     85  C   UNL A   1      38.483  33.301  37.526  1.00  0.00     0.022 A 
BRANCH  83  86
ATOM     86  S   UNL A   1      39.970  35.546  37.011  1.00  0.00     0.127 S 
ATOM     87  O   UNL A   1      39.520  36.332  35.867  1.00  0.00    -0.237 OA
ATOM     88  O   UNL A   1      39.277  35.835  38.268  1.00  0.00    -0.237 OA
ATOM     89  O   UNL A   1      41.412  35.388  37.151  1.00  0.00    -0.744 OA
ENDBRANCH  83  86
ENDBRANCH  55  79
BRANCH  67  90
ATOM     90  C   UNL A   1      44.938  27.880  34.064  1.00  0.00     0.023 A 
ATOM     91  C   UNL A   1      46.082  28.704  34.062  1.00  0.00     0.012 A 
ATOM     92  C   UNL A   1      44.892  26.759  34.913  1.00  0.00     0.148 A 
ATOM     93  C   UNL A   1      47.173  28.398  34.873  1.00  0.00     0.002 A 
ATOM     94  C   UNL A   1      45.965  26.487  35.754  1.00  0.00     0.091 A 
ATOM     95  F   UNL A   1      43.802  25.978  34.883  1.00  0.00    -0.205 F 
ATOM     96  C   UNL A   1      47.110  27.300  35.726  1.00  0.00     0.022 A 
BRANCH  94  97
ATOM     97  S   UNL A   1      45.930  25.149  36.951  1.00  0.00     0.127 S 
ATOM     98  O   UNL A   1      45.801  23.978  36.085  1.00  0.00    -0.237 OA
ATOM     99  O   UNL A   1      47.232  25.283  37.606  1.00  0.00    -0.237 OA
ATOM    100  O   UNL A   1      44.790  25.419  37.817  1.00  0.00    -0.744 OA
ENDBRANCH  94  97
ENDBRANCH  67  90
ENDBRANCH  41  42
ENDBRANCH  34  36
ENDBRANCH  33  34
ENDBRANCH  32  33
ENDBRANCH   1  32
TORSDOF 20
ENDMDL
MODEL 2
REMARK VINA RESULT:     -11.5      1.153      2.223
REMARK SMILES CCc1cccc(CC)c1N1/C(=[NH+]/C(=O)CCCC(=O)OCCOC(=O)c2ccc(-c3c4nc(c(-c5cccc(S(=O)(=O)[O-])c5F)c5ccc([nH]5)c(-c5cccc(S(=O)(=O)[O-])c5F)c5nc(c(-c6cccc(S(=O)(=O)[O-])c6F)c6ccc3[nH]6)C=C5)C=C4)cc2)S[C@@H]2CS(=O)(=O)C[C@@H]21
REMARK SMILES IDX 22 1 21 2 19 3 20 4 18 5 17 6 16 7 14 8 11 9 12 10 97 11
REMARK SMILES IDX 13 12 90 13 91 14 96 15 92 17 93 18 15 19 94 20 95 21 10 22
REMARK SMILES IDX 3 23 4 24 5 25 7 26 6 27 2 28 1 29 8 30 9 31 23 32 24 33
REMARK SMILES IDX 25 34 26 35 27 36 28 37 89 38 29 39 88 40 30 41 31 42 32 43
REMARK SMILES IDX 82 44 33 45 87 46 81 47 83 48 34 49 86 50 80 51 79 52 35 54
REMARK SMILES IDX 67 55 47 56 66 57 48 58 51 59 65 60 84 61 49 62 50 63 64 65
REMARK SMILES IDX 85 66 52 67 36 68 37 69 45 70 38 71 40 72 46 73 39 74 41 75
REMARK SMILES IDX 42 76 43 77 44 78 68 79 69 80 77 81 70 82 72 83 78 84 71 85
REMARK SMILES IDX 73 86 74 87 75 88 76 89 53 90 54 91 62 92 55 93 57 94 63 95
REMARK SMILES IDX 56 96 58 97 59 98 60 99 61 100
REMARK H PARENT 13 16 83 53 51 64
REMARK Flexibility Score: inf
ROOT
ATOM      1  C   UNL A   1      31.320  29.203  24.431  1.00  0.00     0.274 C 
ENDROOT
BRANCH   1   2
ATOM      2  O   UNL A   1      30.974  27.889  24.899  1.00  0.00    -0.462 OA
BRANCH   2   3
ATOM      3  C   UNL A   1      30.128  27.173  24.120  1.00  0.00     0.305 C 
ATOM      4  O   UNL A   1      29.740  27.530  23.015  1.00  0.00    -0.252 OA
BRANCH   3   5
ATOM      5  C   UNL A   1      29.770  25.823  24.714  1.00  0.00     0.123 C 
BRANCH   5   6
ATOM      6  C   UNL A   1      29.755  25.702  26.232  1.00  0.00     0.024 C 
BRANCH   6   7
ATOM      7  C   UNL A   1      29.622  24.282  26.777  1.00  0.00     0.128 C 
BRANCH   7   8
ATOM      8  C   UNL A   1      30.909  23.493  26.655  1.00  0.00     0.307 C 
ATOM      9  N   UNL A   1      33.701  23.438  24.290  1.00  0.00    -0.216 N 
ATOM     10  C   UNL A   1      32.665  23.090  25.163  1.00  0.00     0.319 C 
ATOM     11  C   UNL A   1      34.795  22.442  24.154  1.00  0.00     0.212 C 
ATOM     12  N   UNL A   1      31.688  23.832  25.564  1.00  0.00    -0.204 N 
ATOM     13  S   UNL A   1      32.921  21.411  25.705  1.00  0.00    -0.029 SA
ATOM     14  C   UNL A   1      34.680  21.490  25.354  1.00  0.00     0.120 C 
ATOM     15  C   UNL A   1      36.208  23.029  24.135  1.00  0.00     0.188 C 
ATOM     16  H   UNL A   1      31.491  24.665  25.079  1.00  0.00     0.316 HD
ATOM     17  C   UNL A   1      35.468  22.088  26.502  1.00  0.00     0.156 C 
ATOM     18  S   UNL A   1      36.963  22.574  25.685  1.00  0.00     0.155 S 
ATOM     19  O   UNL A   1      31.232  22.750  27.580  1.00  0.00    -0.247 OA
ATOM     20  O   UNL A   1      37.516  23.738  26.339  1.00  0.00    -0.229 OA
ATOM     21  O   UNL A   1      37.745  21.376  25.463  1.00  0.00    -0.229 OA
BRANCH   9  22
ATOM     22  C   UNL A   1      33.618  24.412  23.258  1.00  0.00     0.134 A 
ATOM     23  C   UNL A   1      33.134  24.097  21.956  1.00  0.00    -0.001 A 
ATOM     24  C   UNL A   1      32.890  25.155  21.042  1.00  0.00     0.008 A 
ATOM     25  C   UNL A   1      33.052  26.487  21.384  1.00  0.00     0.001 A 
ATOM     26  C   UNL A   1      33.877  25.793  23.565  1.00  0.00    -0.001 A 
ATOM     27  C   UNL A   1      33.538  26.801  22.638  1.00  0.00     0.008 A 
BRANCH  23  28
ATOM     28  C   UNL A   1      32.885  22.736  21.328  1.00  0.00     0.036 C 
ATOM     29  C   UNL A   1      31.929  21.736  21.937  1.00  0.00     0.009 C 
ENDBRANCH  23  28
BRANCH  26  30
ATOM     30  C   UNL A   1      34.482  26.263  24.879  1.00  0.00     0.036 C 
ATOM     31  C   UNL A   1      33.463  26.566  25.977  1.00  0.00     0.009 C 
ENDBRANCH  26  30
ENDBRANCH   9  22
ENDBRANCH   7   8
ENDBRANCH   6   7
ENDBRANCH   5   6
ENDBRANCH   3   5
ENDBRANCH   2   3
ENDBRANCH   1   2
BRANCH   1  32
ATOM     32  C   UNL A   1      31.516  30.146  25.618  1.00  0.00     0.275 C 
BRANCH  32  33
ATOM     33  O   UNL A   1      32.907  30.264  25.974  1.00  0.00    -0.458 OA
BRANCH  33  34
ATOM     34  C   UNL A   1      33.194  31.233  26.874  1.00  0.00     0.338 C 
ATOM     35  O   UNL A   1      32.468  32.141  27.243  1.00  0.00    -0.246 OA
BRANCH  34  36
ATOM     36  C   UNL A   1      34.513  30.983  27.466  1.00  0.00     0.060 A 
ATOM     37  C   UNL A   1      34.833  29.683  27.862  1.00  0.00     0.016 A 
ATOM     38  C   UNL A   1      35.386  32.035  27.729  1.00  0.00     0.016 A 
ATOM     39  C   UNL A   1      36.000  29.427  28.565  1.00  0.00     0.010 A 
ATOM     40  C   UNL A   1      36.587  31.771  28.394  1.00  0.00     0.010 A 
ATOM     41  C   UNL A   1      36.890  30.469  28.833  1.00  0.00    -0.014 A 
BRANCH  41  42
ATOM     42  C   UNL A   1      38.133  30.184  29.585  1.00  0.00     0.031 A 
ATOM     43  C   UNL A   1      39.181  29.293  28.985  1.00  0.00     0.074 A 
ATOM     44  C   UNL A   1      38.307  30.727  30.805  1.00  0.00     0.049 A 
ATOM     45  N   UNL A   1      40.280  28.839  29.525  1.00  0.00    -0.248 NA
ATOM     46  C   UNL A   1      38.962  28.847  27.599  1.00  0.00     0.031 C 
ATOM     47  C   UNL A   1      37.358  31.621  31.474  1.00  0.00     0.029 A 
ATOM     48  N   UNL A   1      39.329  30.589  31.708  1.00  0.00    -0.354 N 
ATOM     49  C   UNL A   1      40.854  28.007  28.573  1.00  0.00     0.074 A 
ATOM     50  C   UNL A   1      39.988  28.028  27.414  1.00  0.00     0.031 C 
ATOM     51  C   UNL A   1      37.835  31.938  32.687  1.00  0.00     0.029 A 
ATOM     52  C   UNL A   1      39.091  31.230  32.901  1.00  0.00     0.049 A 
ATOM     53  H   UNL A   1      40.153  30.083  31.521  1.00  0.00     0.167 HD
ATOM     54  C   UNL A   1      42.004  27.299  28.659  1.00  0.00     0.034 A 
ATOM     55  C   UNL A   1      39.789  31.215  34.053  1.00  0.00     0.034 A 
ATOM     56  C   UNL A   1      42.882  27.329  29.797  1.00  0.00     0.049 A 
ATOM     57  C   UNL A   1      41.065  30.423  34.115  1.00  0.00     0.074 A 
ATOM     58  C   UNL A   1      44.099  26.691  29.961  1.00  0.00     0.029 A 
ATOM     59  N   UNL A   1      42.640  28.035  30.965  1.00  0.00    -0.354 N 
ATOM     60  N   UNL A   1      41.641  29.714  33.175  1.00  0.00    -0.248 NA
ATOM     61  C   UNL A   1      41.802  30.448  35.386  1.00  0.00     0.031 C 
ATOM     62  C   UNL A   1      44.583  26.996  31.237  1.00  0.00     0.029 A 
ATOM     63  C   UNL A   1      43.678  27.841  31.859  1.00  0.00     0.049 A 
ATOM     64  H   UNL A   1      41.846  28.592  31.133  1.00  0.00     0.167 HD
ATOM     65  C   UNL A   1      42.819  29.229  33.729  1.00  0.00     0.074 A 
ATOM     66  C   UNL A   1      42.887  29.750  35.081  1.00  0.00     0.031 C 
ATOM     67  C   UNL A   1      43.752  28.413  33.180  1.00  0.00     0.034 A 
BRANCH  54  68
ATOM     68  C   UNL A   1      42.392  26.443  27.483  1.00  0.00     0.023 A 
ATOM     69  C   UNL A   1      43.177  26.987  26.447  1.00  0.00     0.012 A 
ATOM     70  C   UNL A   1      42.033  25.081  27.437  1.00  0.00     0.148 A 
ATOM     71  C   UNL A   1      43.579  26.196  25.372  1.00  0.00     0.002 A 
ATOM     72  C   UNL A   1      42.471  24.289  26.383  1.00  0.00     0.091 A 
ATOM     73  F   UNL A   1      41.265  24.590  28.420  1.00  0.00    -0.205 F 
ATOM     74  C   UNL A   1      43.235  24.846  25.345  1.00  0.00     0.022 A 
BRANCH  72  75
ATOM     75  S   UNL A   1      42.143  22.525  26.295  1.00  0.00     0.127 S 
ATOM     76  O   UNL A   1      42.772  22.047  27.526  1.00  0.00    -0.237 OA
ATOM     77  O   UNL A   1      40.680  22.483  26.302  1.00  0.00    -0.237 OA
ATOM     78  O   UNL A   1      42.758  22.063  25.059  1.00  0.00    -0.744 OA
ENDBRANCH  72  75
ENDBRANCH  54  68
BRANCH  55  79
ATOM     79  C   UNL A   1      39.298  31.988  35.229  1.00  0.00     0.023 A 
ATOM     80  C   UNL A   1      38.425  31.376  36.146  1.00  0.00     0.012 A 
ATOM     81  C   UNL A   1      39.721  33.312  35.462  1.00  0.00     0.148 A 
ATOM     82  C   UNL A   1      37.960  32.076  37.260  1.00  0.00     0.002 A 
ATOM     83  C   UNL A   1      39.301  33.983  36.604  1.00  0.00     0.091 A 
ATOM     84  F   UNL A   1      40.537  33.887  34.566  1.00  0.00    -0.205 F 
ATOM     85  C   UNL A   1      38.407  33.373  37.497  1.00  0.00     0.022 A 
BRANCH  83  86
ATOM     86  S   UNL A   1      39.945  35.599  37.053  1.00  0.00     0.127 S 
ATOM     87  O   UNL A   1      41.377  35.333  37.158  1.00  0.00    -0.237 OA
ATOM     88  O   UNL A   1      39.554  36.415  35.902  1.00  0.00    -0.237 OA
ATOM     89  O   UNL A   1      39.269  35.957  38.292  1.00  0.00    -0.744 OA
ENDBRANCH  83  86
ENDBRANCH  55  79
BRANCH  67  90
ATOM     90  C   UNL A   1      44.941  28.051  34.027  1.00  0.00     0.023 A 
ATOM     91  C   UNL A   1      46.086  28.873  34.008  1.00  0.00     0.012 A 
ATOM     92  C   UNL A   1      44.897  26.944  34.895  1.00  0.00     0.148 A 
ATOM     93  C   UNL A   1      47.181  28.579  34.819  1.00  0.00     0.002 A 
ATOM     94  C   UNL A   1      45.973  26.683  35.735  1.00  0.00     0.091 A 
ATOM     95  F   UNL A   1      43.806  26.163  34.882  1.00  0.00    -0.205 F 
ATOM     96  C   UNL A   1      47.119  27.494  35.690  1.00  0.00     0.022 A 
BRANCH  94  97
ATOM     97  S   UNL A   1      45.941  25.365  36.954  1.00  0.00     0.127 S 
ATOM     98  O   UNL A   1      45.165  24.338  36.261  1.00  0.00    -0.237 OA
ATOM     99  O   UNL A   1      47.362  25.052  37.112  1.00  0.00    -0.237 OA
ATOM    100  O   UNL A   1      45.315  25.933  38.140  1.00  0.00    -0.744 OA
ENDBRANCH  94  97
ENDBRANCH  67  90
ENDBRANCH  41  42
ENDBRANCH  34  36
ENDBRANCH  33  34
ENDBRANCH  32  33
ENDBRANCH   1  32
TORSDOF 20
ENDMDL
MODEL 3
REMARK VINA RESULT:     -11.5      1.272      7.356
REMARK SMILES CCc1cccc(CC)c1N1/C(=[NH+]/C(=O)CCCC(=O)OCCOC(=O)c2ccc(-c3c4nc(c(-c5cccc(S(=O)(=O)[O-])c5F)c5ccc([nH]5)c(-c5cccc(S(=O)(=O)[O-])c5F)c5nc(c(-c6cccc(S(=O)(=O)[O-])c6F)c6ccc3[nH]6)C=C5)C=C4)cc2)S[C@@H]2CS(=O)(=O)C[C@@H]21
REMARK SMILES IDX 22 1 21 2 19 3 20 4 18 5 17 6 16 7 14 8 11 9 12 10 97 11
REMARK SMILES IDX 13 12 90 13 91 14 96 15 92 17 93 18 15 19 94 20 95 21 10 22
REMARK SMILES IDX 3 23 4 24 5 25 7 26 6 27 2 28 1 29 8 30 9 31 23 32 24 33
REMARK SMILES IDX 25 34 26 35 27 36 28 37 89 38 29 39 88 40 30 41 31 42 32 43
REMARK SMILES IDX 82 44 33 45 87 46 81 47 83 48 34 49 86 50 80 51 79 52 35 54
REMARK SMILES IDX 67 55 47 56 66 57 48 58 51 59 65 60 84 61 49 62 50 63 64 65
REMARK SMILES IDX 85 66 52 67 36 68 37 69 45 70 38 71 40 72 46 73 39 74 41 75
REMARK SMILES IDX 42 76 43 77 44 78 68 79 69 80 77 81 70 82 72 83 78 84 71 85
REMARK SMILES IDX 73 86 74 87 75 88 76 89 53 90 54 91 62 92 55 93 57 94 63 95
REMARK SMILES IDX 56 96 58 97 59 98 60 99 61 100
REMARK H PARENT 13 16 83 53 51 64
REMARK Flexibility Score: inf
ROOT
ATOM      1  C   UNL A   1      31.561  28.523  25.683  1.00  0.00     0.274 C 
ENDROOT
BRANCH   1   2
ATOM      2  O   UNL A   1      31.259  28.118  24.338  1.00  0.00    -0.462 OA
BRANCH   2   3
ATOM      3  C   UNL A   1      30.219  27.263  24.183  1.00  0.00     0.305 C 
ATOM      4  O   UNL A   1      29.223  27.503  23.513  1.00  0.00    -0.252 OA
BRANCH   3   5
ATOM      5  C   UNL A   1      30.446  25.922  24.857  1.00  0.00     0.123 C 
BRANCH   5   6
ATOM      6  C   UNL A   1      29.470  25.508  25.951  1.00  0.00     0.024 C 
BRANCH   6   7
ATOM      7  C   UNL A   1      29.655  24.095  26.497  1.00  0.00     0.128 C 
BRANCH   7   8
ATOM      8  C   UNL A   1      31.114  23.739  26.693  1.00  0.00     0.307 C 
ATOM      9  N   UNL A   1      33.399  21.272  25.249  1.00  0.00    -0.216 N 
ATOM     10  C   UNL A   1      32.686  22.105  26.117  1.00  0.00     0.319 C 
ATOM     11  C   UNL A   1      34.754  20.869  25.705  1.00  0.00     0.212 C 
ATOM     12  N   UNL A   1      31.565  22.706  25.893  1.00  0.00    -0.204 N 
ATOM     13  S   UNL A   1      33.608  22.261  27.636  1.00  0.00    -0.029 SA
ATOM     14  C   UNL A   1      35.153  21.843  26.825  1.00  0.00     0.120 C 
ATOM     15  C   UNL A   1      35.838  20.901  24.626  1.00  0.00     0.188 C 
ATOM     16  H   UNL A   1      31.016  22.421  25.129  1.00  0.00     0.316 HD
ATOM     17  C   UNL A   1      35.810  23.048  26.183  1.00  0.00     0.156 C 
ATOM     18  S   UNL A   1      36.902  22.276  25.022  1.00  0.00     0.155 S 
ATOM     19  O   UNL A   1      31.805  24.466  27.406  1.00  0.00    -0.247 OA
ATOM     20  O   UNL A   1      37.071  23.133  23.871  1.00  0.00    -0.229 OA
ATOM     21  O   UNL A   1      38.033  21.762  25.767  1.00  0.00    -0.229 OA
BRANCH   9  22
ATOM     22  C   UNL A   1      32.831  20.478  24.215  1.00  0.00     0.134 A 
ATOM     23  C   UNL A   1      32.527  21.012  22.931  1.00  0.00    -0.001 A 
ATOM     24  C   UNL A   1      32.152  20.121  21.891  1.00  0.00     0.008 A 
ATOM     25  C   UNL A   1      32.123  18.748  22.061  1.00  0.00     0.001 A 
ATOM     26  C   UNL A   1      32.698  19.059  24.404  1.00  0.00    -0.001 A 
ATOM     27  C   UNL A   1      32.399  18.223  23.308  1.00  0.00     0.008 A 
BRANCH  23  28
ATOM     28  C   UNL A   1      32.471  22.463  22.483  1.00  0.00     0.036 C 
ATOM     29  C   UNL A   1      33.710  23.325  22.403  1.00  0.00     0.009 C 
ENDBRANCH  23  28
BRANCH  26  30
ATOM     30  C   UNL A   1      32.899  18.366  25.744  1.00  0.00     0.036 C 
ATOM     31  C   UNL A   1      32.677  16.854  25.718  1.00  0.00     0.009 C 
ENDBRANCH  26  30
ENDBRANCH   9  22
ENDBRANCH   7   8
ENDBRANCH   6   7
ENDBRANCH   5   6
ENDBRANCH   3   5
ENDBRANCH   2   3
ENDBRANCH   1   2
BRANCH   1  32
ATOM     32  C   UNL A   1      31.695  30.045  25.753  1.00  0.00     0.275 C 
BRANCH  32  33
ATOM     33  O   UNL A   1      33.070  30.446  25.907  1.00  0.00    -0.458 OA
BRANCH  33  34
ATOM     34  C   UNL A   1      33.318  31.276  26.946  1.00  0.00     0.338 C 
ATOM     35  O   UNL A   1      32.596  32.159  27.380  1.00  0.00    -0.246 OA
BRANCH  34  36
ATOM     36  C   UNL A   1      34.578  30.894  27.595  1.00  0.00     0.060 A 
ATOM     37  C   UNL A   1      34.783  29.552  27.919  1.00  0.00     0.016 A 
ATOM     38  C   UNL A   1      35.504  31.861  27.977  1.00  0.00     0.016 A 
ATOM     39  C   UNL A   1      35.884  29.167  28.668  1.00  0.00     0.010 A 
ATOM     40  C   UNL A   1      36.640  31.469  28.691  1.00  0.00     0.010 A 
ATOM     41  C   UNL A   1      36.825  30.123  29.057  1.00  0.00    -0.014 A 
BRANCH  41  42
ATOM     42  C   UNL A   1      37.998  29.702  29.857  1.00  0.00     0.031 A 
ATOM     43  C   UNL A   1      38.193  30.247  31.241  1.00  0.00     0.074 A 
ATOM     44  C   UNL A   1      38.882  28.836  29.327  1.00  0.00     0.049 A 
ATOM     45  N   UNL A   1      39.204  30.087  32.051  1.00  0.00    -0.248 NA
ATOM     46  C   UNL A   1      37.114  31.090  31.782  1.00  0.00     0.031 C 
ATOM     47  C   UNL A   1      38.778  28.231  27.996  1.00  0.00     0.029 A 
ATOM     48  N   UNL A   1      40.051  28.329  29.833  1.00  0.00    -0.354 N 
ATOM     49  C   UNL A   1      38.916  30.854  33.173  1.00  0.00     0.074 A 
ATOM     50  C   UNL A   1      37.627  31.472  32.944  1.00  0.00     0.031 C 
ATOM     51  C   UNL A   1      39.848  27.450  27.784  1.00  0.00     0.029 A 
ATOM     52  C   UNL A   1      40.735  27.540  28.938  1.00  0.00     0.049 A 
ATOM     53  H   UNL A   1      40.369  28.511  30.746  1.00  0.00     0.167 HD
ATOM     54  C   UNL A   1      39.657  31.019  34.293  1.00  0.00     0.034 A 
ATOM     55  C   UNL A   1      41.959  26.984  29.023  1.00  0.00     0.034 A 
ATOM     56  C   UNL A   1      40.912  30.357  34.529  1.00  0.00     0.049 A 
ATOM     57  C   UNL A   1      42.756  27.180  30.283  1.00  0.00     0.074 A 
ATOM     58  C   UNL A   1      41.715  30.414  35.654  1.00  0.00     0.029 A 
ATOM     59  N   UNL A   1      41.547  29.518  33.626  1.00  0.00    -0.354 N 
ATOM     60  N   UNL A   1      42.429  27.834  31.371  1.00  0.00    -0.248 NA
ATOM     61  C   UNL A   1      44.078  26.543  30.338  1.00  0.00     0.031 C 
ATOM     62  C   UNL A   1      42.846  29.623  35.422  1.00  0.00     0.029 A 
ATOM     63  C   UNL A   1      42.737  29.058  34.162  1.00  0.00     0.049 A 
ATOM     64  H   UNL A   1      41.201  29.285  32.734  1.00  0.00     0.167 HD
ATOM     65  C   UNL A   1      43.491  27.667  32.251  1.00  0.00     0.074 A 
ATOM     66  C   UNL A   1      44.461  26.826  31.576  1.00  0.00     0.031 C 
ATOM     67  C   UNL A   1      43.661  28.178  33.495  1.00  0.00     0.034 A 
BRANCH  54  68
ATOM     68  C   UNL A   1      39.125  31.936  35.360  1.00  0.00     0.023 A 
ATOM     69  C   UNL A   1      39.228  33.332  35.201  1.00  0.00     0.012 A 
ATOM     70  C   UNL A   1      38.464  31.415  36.490  1.00  0.00     0.148 A 
ATOM     71  C   UNL A   1      38.702  34.196  36.162  1.00  0.00     0.002 A 
ATOM     72  C   UNL A   1      37.908  32.282  37.423  1.00  0.00     0.091 A 
ATOM     73  F   UNL A   1      38.399  30.084  36.635  1.00  0.00    -0.205 F 
ATOM     74  C   UNL A   1      38.034  33.671  37.265  1.00  0.00     0.022 A 
BRANCH  72  75
ATOM     75  S   UNL A   1      36.965  31.705  38.839  1.00  0.00     0.127 S 
ATOM     76  O   UNL A   1      36.713  30.310  38.478  1.00  0.00    -0.237 OA
ATOM     77  O   UNL A   1      37.915  31.889  39.937  1.00  0.00    -0.237 OA
ATOM     78  O   UNL A   1      35.785  32.555  38.909  1.00  0.00    -0.744 OA
ENDBRANCH  72  75
ENDBRANCH  54  68
BRANCH  55  79
ATOM     79  C   UNL A   1      42.489  26.179  27.887  1.00  0.00     0.023 A 
ATOM     80  C   UNL A   1      43.340  26.785  26.945  1.00  0.00     0.012 A 
ATOM     81  C   UNL A   1      42.186  24.809  27.757  1.00  0.00     0.148 A 
ATOM     82  C   UNL A   1      43.858  26.049  25.878  1.00  0.00     0.002 A 
ATOM     83  C   UNL A   1      42.753  24.068  26.726  1.00  0.00     0.091 A 
ATOM     84  F   UNL A   1      41.357  24.252  28.652  1.00  0.00    -0.205 F 
ATOM     85  C   UNL A   1      43.576  24.690  25.775  1.00  0.00     0.022 A 
BRANCH  83  86
ATOM     86  S   UNL A   1      42.553  22.286  26.610  1.00  0.00     0.127 S 
ATOM     87  O   UNL A   1      43.625  21.924  25.688  1.00  0.00    -0.237 OA
ATOM     88  O   UNL A   1      42.764  21.863  27.996  1.00  0.00    -0.237 OA
ATOM     89  O   UNL A   1      41.195  22.077  26.126  1.00  0.00    -0.744 OA
ENDBRANCH  83  86
ENDBRANCH  55  79
BRANCH  67  90
ATOM     90  C   UNL A   1      44.928  27.820  34.223  1.00  0.00     0.023 A 
ATOM     91  C   UNL A   1      46.023  28.707  34.193  1.00  0.00     0.012 A 
ATOM     92  C   UNL A   1      45.007  26.646  34.995  1.00  0.00     0.148 A 
ATOM     93  C   UNL A   1      47.189  28.414  34.898  1.00  0.00     0.002 A 
ATOM     94  C   UNL A   1      46.156  26.383  35.733  1.00  0.00     0.091 A 
ATOM     95  F   UNL A   1      43.962  25.806  34.993  1.00  0.00    -0.205 F 
ATOM     96  C   UNL A   1      47.251  27.261  35.677  1.00  0.00     0.022 A 
BRANCH  94  97
ATOM     97  S   UNL A   1      46.285  24.972  36.836  1.00  0.00     0.127 S 
ATOM     98  O   UNL A   1      47.362  25.390  37.731  1.00  0.00    -0.237 OA
ATOM     99  O   UNL A   1      44.958  24.935  37.452  1.00  0.00    -0.237 OA
ATOM    100  O   UNL A   1      46.584  23.828  35.985  1.00  0.00    -0.744 OA
ENDBRANCH  94  97
ENDBRANCH  67  90
ENDBRANCH  41  42
ENDBRANCH  34  36
ENDBRANCH  33  34
ENDBRANCH  32  33
ENDBRANCH   1  32
TORSDOF 20
ENDMDL
