MODEL 1
REMARK VINA RESULT:      -9.8      0.000      0.000
REMARK SMILES CCc1cccc(-c2ccc([C@@H](C)C(=O)OCCOC(=O)c3ccc(-c4c5nc(c(-c6cccc(S(=O)(=O)[O-])c6F)c6ccc([nH]6)c(-c6cccc(S(=O)(=O)[O-])c6F)c6nc(c(-c7cccc(S(=O)(=O)[O-])c7F)c7ccc4[nH]7)C=C6)C=C5)cc3)cc2)c1
REMARK SMILES IDX 17 1 16 2 14 3 15 4 12 5 13 6 11 7 8 8 9 9 86 10 10 11 85 12
REMARK SMILES IDX 7 13 3 14 4 15 87 16 5 17 6 18 2 19 1 20 18 21 19 22 20 23
REMARK SMILES IDX 21 24 22 25 23 26 84 27 24 28 83 29 25 30 26 31 27 32 77 33
REMARK SMILES IDX 28 34 82 35 76 36 78 37 29 38 81 39 75 40 74 41 30 43 62 44
REMARK SMILES IDX 42 45 61 46 43 47 46 48 60 49 79 50 44 51 45 52 59 54 80 55
REMARK SMILES IDX 47 56 31 57 32 58 40 59 33 60 35 61 41 62 34 63 36 64 37 65
REMARK SMILES IDX 38 66 39 67 63 68 64 69 72 70 65 71 67 72 73 73 66 74 68 75
REMARK SMILES IDX 69 76 70 77 71 78 48 79 49 80 57 81 50 82 52 83 58 84 51 85
REMARK SMILES IDX 53 86 54 87 55 88 56 89
REMARK H PARENT 78 42 46 53
REMARK Flexibility Score: inf
ROOT
ATOM      1  C   UNL A   1      34.013  34.406  29.052  1.00  0.00     0.274 C 
ENDROOT
BRANCH   1   2
ATOM      2  O   UNL A   1      33.638  33.940  30.362  1.00  0.00    -0.462 OA
BRANCH   2   3
ATOM      3  C   UNL A   1      34.495  34.226  31.379  1.00  0.00     0.313 C 
ATOM      4  O   UNL A   1      34.433  35.239  32.066  1.00  0.00    -0.252 OA
BRANCH   3   5
ATOM      5  C   UNL A   1      35.602  33.195  31.561  1.00  0.00     0.126 C 
ATOM      6  C   UNL A   1      35.626  32.718  33.013  1.00  0.00     0.025 C 
BRANCH   5   7
ATOM      7  C   UNL A   1      36.983  33.592  31.060  1.00  0.00    -0.034 A 
ATOM      8  C   UNL A   1      39.576  34.244  30.084  1.00  0.00    -0.018 A 
ATOM      9  C   UNL A   1      39.244  34.407  31.438  1.00  0.00     0.009 A 
ATOM     10  C   UNL A   1      38.578  33.770  29.223  1.00  0.00     0.009 A 
ATOM     11  C   UNL A   1      37.971  34.082  31.921  1.00  0.00     0.005 A 
ATOM     12  C   UNL A   1      37.303  33.447  29.702  1.00  0.00     0.005 A 
BRANCH   8  13
ATOM     13  C   UNL A   1      40.939  34.524  29.596  1.00  0.00    -0.018 A 
ATOM     14  C   UNL A   1      43.354  34.070  29.592  1.00  0.00    -0.048 A 
ATOM     15  C   UNL A   1      43.535  35.116  28.678  1.00  0.00     0.004 A 
ATOM     16  C   UNL A   1      42.054  33.793  30.050  1.00  0.00     0.012 A 
ATOM     17  C   UNL A   1      42.447  35.853  28.217  1.00  0.00     0.001 A 
ATOM     18  C   UNL A   1      41.163  35.558  28.672  1.00  0.00     0.009 A 
BRANCH  14  19
ATOM     19  C   UNL A   1      44.560  33.324  30.114  1.00  0.00     0.032 C 
ATOM     20  C   UNL A   1      44.425  31.807  30.116  1.00  0.00     0.009 C 
ENDBRANCH  14  19
ENDBRANCH   8  13
ENDBRANCH   5   7
ENDBRANCH   3   5
ENDBRANCH   2   3
ENDBRANCH   1   2
BRANCH   1  21
ATOM     21  C   UNL A   1      33.991  33.262  28.037  1.00  0.00     0.275 C 
BRANCH  21  22
ATOM     22  O   UNL A   1      34.228  31.998  28.682  1.00  0.00    -0.458 OA
BRANCH  22  23
ATOM     23  C   UNL A   1      34.481  30.963  27.847  1.00  0.00     0.338 C 
ATOM     24  O   UNL A   1      33.830  30.611  26.879  1.00  0.00    -0.246 OA
BRANCH  23  25
ATOM     25  C   UNL A   1      35.759  30.344  28.221  1.00  0.00     0.060 A 
ATOM     26  C   UNL A   1      35.892  29.818  29.509  1.00  0.00     0.016 A 
ATOM     27  C   UNL A   1      36.841  30.354  27.342  1.00  0.00     0.016 A 
ATOM     28  C   UNL A   1      37.118  29.314  29.933  1.00  0.00     0.010 A 
ATOM     29  C   UNL A   1      38.068  29.834  27.764  1.00  0.00     0.010 A 
ATOM     30  C   UNL A   1      38.218  29.326  29.068  1.00  0.00    -0.014 A 
BRANCH  30  31
ATOM     31  C   UNL A   1      39.537  28.833  29.534  1.00  0.00     0.031 A 
ATOM     32  C   UNL A   1      40.248  29.540  30.652  1.00  0.00     0.074 A 
ATOM     33  C   UNL A   1      40.101  27.768  28.935  1.00  0.00     0.049 A 
ATOM     34  N   UNL A   1      41.434  29.307  31.152  1.00  0.00    -0.248 NA
ATOM     35  C   UNL A   1      39.538  30.661  31.290  1.00  0.00     0.031 C 
ATOM     36  C   UNL A   1      39.503  27.001  27.840  1.00  0.00     0.029 A 
ATOM     37  N   UNL A   1      41.312  27.160  29.147  1.00  0.00    -0.354 N 
ATOM     38  C   UNL A   1      41.634  30.277  32.126  1.00  0.00     0.074 A 
ATOM     39  C   UNL A   1      40.443  31.098  32.155  1.00  0.00     0.031 C 
ATOM     40  C   UNL A   1      40.357  26.034  27.466  1.00  0.00     0.029 A 
ATOM     41  C   UNL A   1      41.572  26.134  28.267  1.00  0.00     0.049 A 
ATOM     42  H   UNL A   1      41.935  27.431  29.859  1.00  0.00     0.167 HD
ATOM     43  C   UNL A   1      42.709  30.458  32.929  1.00  0.00     0.034 A 
ATOM     44  C   UNL A   1      42.676  25.376  28.113  1.00  0.00     0.034 A 
ATOM     45  C   UNL A   1      43.867  29.606  32.934  1.00  0.00     0.049 A 
ATOM     46  C   UNL A   1      43.853  25.604  29.024  1.00  0.00     0.074 A 
ATOM     47  C   UNL A   1      44.971  29.663  33.767  1.00  0.00     0.029 A 
ATOM     48  N   UNL A   1      44.074  28.547  32.066  1.00  0.00    -0.354 N 
ATOM     49  N   UNL A   1      43.972  26.442  30.024  1.00  0.00    -0.248 NA
ATOM     50  C   UNL A   1      45.040  24.765  28.798  1.00  0.00     0.031 C 
ATOM     51  C   UNL A   1      45.855  28.647  33.389  1.00  0.00     0.029 A 
ATOM     52  C   UNL A   1      45.295  27.951  32.330  1.00  0.00     0.049 A 
ATOM     53  H   UNL A   1      43.446  28.260  31.364  1.00  0.00     0.167 HD
ATOM     54  C   UNL A   1      45.232  26.211  30.567  1.00  0.00     0.074 A 
ATOM     55  C   UNL A   1      45.828  25.138  29.798  1.00  0.00     0.031 C 
ATOM     56  C   UNL A   1      45.848  26.842  31.596  1.00  0.00     0.034 A 
BRANCH  43  57
ATOM     57  C   UNL A   1      42.677  31.606  33.901  1.00  0.00     0.023 A 
ATOM     58  C   UNL A   1      43.182  32.862  33.512  1.00  0.00     0.012 A 
ATOM     59  C   UNL A   1      42.074  31.462  35.166  1.00  0.00     0.148 A 
ATOM     60  C   UNL A   1      43.102  33.956  34.374  1.00  0.00     0.002 A 
ATOM     61  C   UNL A   1      41.967  32.564  36.006  1.00  0.00     0.091 A 
ATOM     62  F   UNL A   1      41.621  30.252  35.524  1.00  0.00    -0.205 F 
ATOM     63  C   UNL A   1      42.486  33.809  35.615  1.00  0.00     0.022 A 
BRANCH  61  64
ATOM     64  S   UNL A   1      41.131  32.492  37.594  1.00  0.00     0.127 S 
ATOM     65  O   UNL A   1      39.847  31.896  37.225  1.00  0.00    -0.237 OA
ATOM     66  O   UNL A   1      42.010  31.612  38.367  1.00  0.00    -0.237 OA
ATOM     67  O   UNL A   1      41.069  33.863  38.078  1.00  0.00    -0.744 OA
ENDBRANCH  61  64
ENDBRANCH  43  57
BRANCH  44  68
ATOM     68  C   UNL A   1      42.707  24.302  27.080  1.00  0.00     0.023 A 
ATOM     69  C   UNL A   1      43.393  24.530  25.872  1.00  0.00     0.012 A 
ATOM     70  C   UNL A   1      42.078  23.060  27.289  1.00  0.00     0.148 A 
ATOM     71  C   UNL A   1      43.430  23.550  24.879  1.00  0.00     0.002 A 
ATOM     72  C   UNL A   1      42.165  22.068  26.319  1.00  0.00     0.091 A 
ATOM     73  F   UNL A   1      41.406  22.867  28.433  1.00  0.00    -0.205 F 
ATOM     74  C   UNL A   1      42.828  22.315  25.106  1.00  0.00     0.022 A 
BRANCH  72  75
ATOM     75  S   UNL A   1      41.524  20.412  26.597  1.00  0.00     0.127 S 
ATOM     76  O   UNL A   1      40.082  20.641  26.578  1.00  0.00    -0.237 OA
ATOM     77  O   UNL A   1      42.046  19.677  25.445  1.00  0.00    -0.237 OA
ATOM     78  O   UNL A   1      42.091  19.996  27.874  1.00  0.00    -0.744 OA
ENDBRANCH  72  75
ENDBRANCH  44  68
BRANCH  56  79
ATOM     79  C   UNL A   1      47.228  26.378  31.974  1.00  0.00     0.023 A 
ATOM     80  C   UNL A   1      48.347  26.917  31.310  1.00  0.00     0.012 A 
ATOM     81  C   UNL A   1      47.421  25.472  33.035  1.00  0.00     0.148 A 
ATOM     82  C   UNL A   1      49.638  26.543  31.680  1.00  0.00     0.002 A 
ATOM     83  C   UNL A   1      48.712  25.136  33.427  1.00  0.00     0.091 A 
ATOM     84  F   UNL A   1      46.343  24.952  33.639  1.00  0.00    -0.205 F 
ATOM     85  C   UNL A   1      49.821  25.662  32.745  1.00  0.00     0.022 A 
BRANCH  83  86
ATOM     86  S   UNL A   1      49.035  24.083  34.846  1.00  0.00     0.127 S 
ATOM     87  O   UNL A   1      48.715  22.759  34.316  1.00  0.00    -0.237 OA
ATOM     88  O   UNL A   1      50.459  24.313  35.092  1.00  0.00    -0.237 OA
ATOM     89  O   UNL A   1      48.158  24.567  35.905  1.00  0.00    -0.744 OA
ENDBRANCH  83  86
ENDBRANCH  56  79
ENDBRANCH  30  31
ENDBRANCH  23  25
ENDBRANCH  22  23
ENDBRANCH  21  22
ENDBRANCH   1  21
TORSDOF 17
ENDMDL
MODEL 2
REMARK VINA RESULT:      -9.7      5.318     11.339
REMARK SMILES CCc1cccc(-c2ccc([C@@H](C)C(=O)OCCOC(=O)c3ccc(-c4c5nc(c(-c6cccc(S(=O)(=O)[O-])c6F)c6ccc([nH]6)c(-c6cccc(S(=O)(=O)[O-])c6F)c6nc(c(-c7cccc(S(=O)(=O)[O-])c7F)c7ccc4[nH]7)C=C6)C=C5)cc3)cc2)c1
REMARK SMILES IDX 17 1 16 2 14 3 15 4 12 5 13 6 11 7 8 8 9 9 86 10 10 11 85 12
REMARK SMILES IDX 7 13 3 14 4 15 87 16 5 17 6 18 2 19 1 20 18 21 19 22 20 23
REMARK SMILES IDX 21 24 22 25 23 26 84 27 24 28 83 29 25 30 26 31 27 32 77 33
REMARK SMILES IDX 28 34 82 35 76 36 78 37 29 38 81 39 75 40 74 41 30 43 62 44
REMARK SMILES IDX 42 45 61 46 43 47 46 48 60 49 79 50 44 51 45 52 59 54 80 55
REMARK SMILES IDX 47 56 31 57 32 58 40 59 33 60 35 61 41 62 34 63 36 64 37 65
REMARK SMILES IDX 38 66 39 67 63 68 64 69 72 70 65 71 67 72 73 73 66 74 68 75
REMARK SMILES IDX 69 76 70 77 71 78 48 79 49 80 57 81 50 82 52 83 58 84 51 85
REMARK SMILES IDX 53 86 54 87 55 88 56 89
REMARK H PARENT 78 42 46 53
REMARK Flexibility Score: inf
ROOT
ATOM      1  C   UNL A   1      36.028  20.025  24.851  1.00  0.00     0.274 C 
ENDROOT
BRANCH   1   2
ATOM      2  O   UNL A   1      35.549  21.358  25.114  1.00  0.00    -0.462 OA
BRANCH   2   3
ATOM      3  C   UNL A   1      34.579  21.831  24.287  1.00  0.00     0.313 C 
ATOM      4  O   UNL A   1      33.458  21.343  24.191  1.00  0.00    -0.252 OA
BRANCH   3   5
ATOM      5  C   UNL A   1      35.023  23.004  23.423  1.00  0.00     0.126 C 
ATOM      6  C   UNL A   1      36.549  23.043  23.354  1.00  0.00     0.025 C 
BRANCH   5   7
ATOM      7  C   UNL A   1      34.425  24.361  23.765  1.00  0.00    -0.034 A 
ATOM      8  C   UNL A   1      33.252  26.855  24.475  1.00  0.00    -0.018 A 
ATOM      9  C   UNL A   1      33.249  26.399  23.147  1.00  0.00     0.009 A 
ATOM     10  C   UNL A   1      33.874  26.049  25.438  1.00  0.00     0.009 A 
ATOM     11  C   UNL A   1      33.821  25.171  22.797  1.00  0.00     0.005 A 
ATOM     12  C   UNL A   1      34.450  24.821  25.090  1.00  0.00     0.005 A 
BRANCH   8  13
ATOM     13  C   UNL A   1      32.587  28.118  24.847  1.00  0.00    -0.018 A 
ATOM     14  C   UNL A   1      30.862  29.826  24.475  1.00  0.00    -0.048 A 
ATOM     15  C   UNL A   1      31.372  30.557  25.557  1.00  0.00     0.004 A 
ATOM     16  C   UNL A   1      31.486  28.616  24.126  1.00  0.00     0.012 A 
ATOM     17  C   UNL A   1      32.461  30.084  26.283  1.00  0.00     0.001 A 
ATOM     18  C   UNL A   1      33.061  28.875  25.931  1.00  0.00     0.009 A 
BRANCH  14  19
ATOM     19  C   UNL A   1      29.712  30.393  23.673  1.00  0.00     0.032 C 
ATOM     20  C   UNL A   1      29.624  29.892  22.238  1.00  0.00     0.009 C 
ENDBRANCH  14  19
ENDBRANCH   8  13
ENDBRANCH   5   7
ENDBRANCH   3   5
ENDBRANCH   2   3
ENDBRANCH   1   2
BRANCH   1  21
ATOM     21  C   UNL A   1      37.551  19.959  24.967  1.00  0.00     0.275 C 
BRANCH  21  22
ATOM     22  O   UNL A   1      38.033  20.887  25.955  1.00  0.00    -0.458 OA
BRANCH  22  23
ATOM     23  C   UNL A   1      39.360  20.817  26.213  1.00  0.00     0.338 C 
ATOM     24  O   UNL A   1      40.099  19.861  26.056  1.00  0.00    -0.246 OA
BRANCH  23  25
ATOM     25  C   UNL A   1      39.838  22.138  26.641  1.00  0.00     0.060 A 
ATOM     26  C   UNL A   1      39.227  23.273  26.103  1.00  0.00     0.016 A 
ATOM     27  C   UNL A   1      40.930  22.257  27.500  1.00  0.00     0.016 A 
ATOM     28  C   UNL A   1      39.718  24.540  26.407  1.00  0.00     0.010 A 
ATOM     29  C   UNL A   1      41.413  23.530  27.816  1.00  0.00     0.010 A 
ATOM     30  C   UNL A   1      40.821  24.678  27.258  1.00  0.00    -0.014 A 
BRANCH  30  31
ATOM     31  C   UNL A   1      41.374  26.023  27.546  1.00  0.00     0.031 A 
ATOM     32  C   UNL A   1      42.761  26.376  27.088  1.00  0.00     0.074 A 
ATOM     33  C   UNL A   1      40.639  26.913  28.239  1.00  0.00     0.049 A 
ATOM     34  N   UNL A   1      43.445  27.469  27.302  1.00  0.00    -0.248 NA
ATOM     35  C   UNL A   1      43.475  25.367  26.287  1.00  0.00     0.031 C 
ATOM     36  C   UNL A   1      39.281  26.682  28.735  1.00  0.00     0.029 A 
ATOM     37  N   UNL A   1      40.940  28.182  28.666  1.00  0.00    -0.354 N 
ATOM     38  C   UNL A   1      44.685  27.264  26.709  1.00  0.00     0.074 A 
ATOM     39  C   UNL A   1      44.657  25.944  26.117  1.00  0.00     0.031 C 
ATOM     40  C   UNL A   1      38.871  27.767  29.412  1.00  0.00     0.029 A 
ATOM     41  C   UNL A   1      39.947  28.754  29.428  1.00  0.00     0.049 A 
ATOM     42  H   UNL A   1      41.784  28.638  28.449  1.00  0.00     0.167 HD
ATOM     43  C   UNL A   1      45.745  28.104  26.656  1.00  0.00     0.034 A 
ATOM     44  C   UNL A   1      39.919  29.932  30.083  1.00  0.00     0.034 A 
ATOM     45  C   UNL A   1      45.749  29.436  27.199  1.00  0.00     0.049 A 
ATOM     46  C   UNL A   1      41.115  30.842  30.002  1.00  0.00     0.074 A 
ATOM     47  C   UNL A   1      46.749  30.390  27.124  1.00  0.00     0.029 A 
ATOM     48  N   UNL A   1      44.709  30.000  27.919  1.00  0.00    -0.354 N 
ATOM     49  N   UNL A   1      42.228  30.684  29.329  1.00  0.00    -0.248 NA
ATOM     50  C   UNL A   1      41.041  32.104  30.753  1.00  0.00     0.031 C 
ATOM     51  C   UNL A   1      46.318  31.528  27.815  1.00  0.00     0.029 A 
ATOM     52  C   UNL A   1      45.047  31.284  28.309  1.00  0.00     0.049 A 
ATOM     53  H   UNL A   1      43.856  29.554  28.124  1.00  0.00     0.167 HD
ATOM     54  C   UNL A   1      42.974  31.838  29.548  1.00  0.00     0.074 A 
ATOM     55  C   UNL A   1      42.175  32.696  30.400  1.00  0.00     0.031 C 
ATOM     56  C   UNL A   1      44.215  32.151  29.103  1.00  0.00     0.034 A 
BRANCH  43  57
ATOM     57  C   UNL A   1      46.988  27.627  25.957  1.00  0.00     0.023 A 
ATOM     58  C   UNL A   1      47.922  26.837  26.656  1.00  0.00     0.012 A 
ATOM     59  C   UNL A   1      47.191  27.892  24.588  1.00  0.00     0.148 A 
ATOM     60  C   UNL A   1      49.047  26.330  26.008  1.00  0.00     0.002 A 
ATOM     61  C   UNL A   1      48.298  27.355  23.940  1.00  0.00     0.091 A 
ATOM     62  F   UNL A   1      46.303  28.665  23.948  1.00  0.00    -0.205 F 
ATOM     63  C   UNL A   1      49.230  26.579  24.650  1.00  0.00     0.022 A 
BRANCH  61  64
ATOM     64  S   UNL A   1      48.583  27.564  22.179  1.00  0.00     0.127 S 
ATOM     65  O   UNL A   1      49.794  28.384  22.171  1.00  0.00    -0.237 OA
ATOM     66  O   UNL A   1      48.779  26.184  21.731  1.00  0.00    -0.237 OA
ATOM     67  O   UNL A   1      47.388  28.208  21.653  1.00  0.00    -0.744 OA
ENDBRANCH  61  64
ENDBRANCH  43  57
BRANCH  44  68
ATOM     68  C   UNL A   1      38.701  30.337  30.840  1.00  0.00     0.023 A 
ATOM     69  C   UNL A   1      38.604  30.017  32.208  1.00  0.00     0.012 A 
ATOM     70  C   UNL A   1      37.651  31.044  30.225  1.00  0.00     0.148 A 
ATOM     71  C   UNL A   1      37.472  30.370  32.943  1.00  0.00     0.002 A 
ATOM     72  C   UNL A   1      36.550  31.441  30.975  1.00  0.00     0.091 A 
ATOM     73  F   UNL A   1      37.745  31.317  28.916  1.00  0.00    -0.205 F 
ATOM     74  C   UNL A   1      36.451  31.092  32.331  1.00  0.00     0.022 A 
BRANCH  72  75
ATOM     75  S   UNL A   1      35.260  32.483  30.284  1.00  0.00     0.127 S 
ATOM     76  O   UNL A   1      34.352  32.630  31.419  1.00  0.00    -0.237 OA
ATOM     77  O   UNL A   1      35.997  33.695  29.924  1.00  0.00    -0.237 OA
ATOM     78  O   UNL A   1      34.744  31.741  29.141  1.00  0.00    -0.744 OA
ENDBRANCH  72  75
ENDBRANCH  44  68
BRANCH  56  79
ATOM     79  C   UNL A   1      44.783  33.487  29.501  1.00  0.00     0.023 A 
ATOM     80  C   UNL A   1      45.553  33.590  30.676  1.00  0.00     0.012 A 
ATOM     81  C   UNL A   1      44.623  34.616  28.675  1.00  0.00     0.148 A 
ATOM     82  C   UNL A   1      46.134  34.805  31.036  1.00  0.00     0.002 A 
ATOM     83  C   UNL A   1      45.241  35.813  29.018  1.00  0.00     0.091 A 
ATOM     84  F   UNL A   1      43.868  34.503  27.573  1.00  0.00    -0.205 F 
ATOM     85  C   UNL A   1      45.989  35.912  30.202  1.00  0.00     0.022 A 
BRANCH  83  86
ATOM     86  S   UNL A   1      45.180  37.258  27.953  1.00  0.00     0.127 S 
ATOM     87  O   UNL A   1      43.742  37.427  27.758  1.00  0.00    -0.237 OA
ATOM     88  O   UNL A   1      45.807  38.288  28.782  1.00  0.00    -0.237 OA
ATOM     89  O   UNL A   1      45.940  36.903  26.761  1.00  0.00    -0.744 OA
ENDBRANCH  83  86
ENDBRANCH  56  79
ENDBRANCH  30  31
ENDBRANCH  23  25
ENDBRANCH  22  23
ENDBRANCH  21  22
ENDBRANCH   1  21
TORSDOF 17
ENDMDL
MODEL 3
REMARK VINA RESULT:      -9.5      3.650     10.908
REMARK SMILES CCc1cccc(-c2ccc([C@@H](C)C(=O)OCCOC(=O)c3ccc(-c4c5nc(c(-c6cccc(S(=O)(=O)[O-])c6F)c6ccc([nH]6)c(-c6cccc(S(=O)(=O)[O-])c6F)c6nc(c(-c7cccc(S(=O)(=O)[O-])c7F)c7ccc4[nH]7)C=C6)C=C5)cc3)cc2)c1
REMARK SMILES IDX 17 1 16 2 14 3 15 4 12 5 13 6 11 7 8 8 9 9 86 10 10 11 85 12
REMARK SMILES IDX 7 13 3 14 4 15 87 16 5 17 6 18 2 19 1 20 18 21 19 22 20 23
REMARK SMILES IDX 21 24 22 25 23 26 84 27 24 28 83 29 25 30 26 31 27 32 77 33
REMARK SMILES IDX 28 34 82 35 76 36 78 37 29 38 81 39 75 40 74 41 30 43 62 44
REMARK SMILES IDX 42 45 61 46 43 47 46 48 60 49 79 50 44 51 45 52 59 54 80 55
REMARK SMILES IDX 47 56 31 57 32 58 40 59 33 60 35 61 41 62 34 63 36 64 37 65
REMARK SMILES IDX 38 66 39 67 63 68 64 69 72 70 65 71 67 72 73 73 66 74 68 75
REMARK SMILES IDX 69 76 70 77 71 78 48 79 49 80 57 81 50 82 52 83 58 84 51 85
REMARK SMILES IDX 53 86 54 87 55 88 56 89
REMARK H PARENT 78 42 46 53
REMARK Flexibility Score: inf
ROOT
ATOM      1  C   UNL A   1      41.622  20.067  26.496  1.00  0.00     0.274 C 
ENDROOT
BRANCH   1   2
ATOM      2  O   UNL A   1      42.532  20.124  25.381  1.00  0.00    -0.462 OA
BRANCH   2   3
ATOM      3  C   UNL A   1      43.597  20.959  25.505  1.00  0.00     0.313 C 
ATOM      4  O   UNL A   1      44.767  20.594  25.452  1.00  0.00    -0.252 OA
BRANCH   3   5
ATOM      5  C   UNL A   1      43.218  22.408  25.783  1.00  0.00     0.126 C 
ATOM      6  C   UNL A   1      43.801  23.310  24.696  1.00  0.00     0.025 C 
BRANCH   5   7
ATOM      7  C   UNL A   1      43.511  22.926  27.184  1.00  0.00    -0.034 A 
ATOM      8  C   UNL A   1      44.136  23.832  29.808  1.00  0.00    -0.018 A 
ATOM      9  C   UNL A   1      42.847  23.386  29.478  1.00  0.00     0.009 A 
ATOM     10  C   UNL A   1      45.102  23.839  28.793  1.00  0.00     0.009 A 
ATOM     11  C   UNL A   1      42.539  22.935  28.190  1.00  0.00     0.005 A 
ATOM     12  C   UNL A   1      44.796  23.392  27.502  1.00  0.00     0.005 A 
BRANCH   8  13
ATOM     13  C   UNL A   1      44.470  24.242  31.185  1.00  0.00    -0.018 A 
ATOM     14  C   UNL A   1      44.264  23.963  33.617  1.00  0.00    -0.048 A 
ATOM     15  C   UNL A   1      45.092  25.079  33.801  1.00  0.00     0.004 A 
ATOM     16  C   UNL A   1      43.953  23.564  32.306  1.00  0.00     0.012 A 
ATOM     17  C   UNL A   1      45.613  25.765  32.708  1.00  0.00     0.001 A 
ATOM     18  C   UNL A   1      45.305  25.348  31.413  1.00  0.00     0.009 A 
BRANCH  14  19
ATOM     19  C   UNL A   1      43.671  23.273  34.824  1.00  0.00     0.032 C 
ATOM     20  C   UNL A   1      42.770  24.149  35.685  1.00  0.00     0.009 C 
ENDBRANCH  14  19
ENDBRANCH   8  13
ENDBRANCH   5   7
ENDBRANCH   3   5
ENDBRANCH   2   3
ENDBRANCH   1   2
BRANCH   1  21
ATOM     21  C   UNL A   1      40.240  20.589  26.103  1.00  0.00     0.275 C 
BRANCH  21  22
ATOM     22  O   UNL A   1      39.873  21.727  26.904  1.00  0.00    -0.458 OA
BRANCH  22  23
ATOM     23  C   UNL A   1      39.101  22.646  26.280  1.00  0.00     0.338 C 
ATOM     24  O   UNL A   1      38.229  22.447  25.452  1.00  0.00    -0.246 OA
BRANCH  23  25
ATOM     25  C   UNL A   1      39.400  23.977  26.824  1.00  0.00     0.060 A 
ATOM     26  C   UNL A   1      40.015  24.914  25.990  1.00  0.00     0.016 A 
ATOM     27  C   UNL A   1      39.154  24.271  28.164  1.00  0.00     0.016 A 
ATOM     28  C   UNL A   1      40.404  26.150  26.497  1.00  0.00     0.010 A 
ATOM     29  C   UNL A   1      39.532  25.518  28.669  1.00  0.00     0.010 A 
ATOM     30  C   UNL A   1      40.175  26.459  27.844  1.00  0.00    -0.014 A 
BRANCH  30  31
ATOM     31  C   UNL A   1      40.632  27.756  28.397  1.00  0.00     0.031 A 
ATOM     32  C   UNL A   1      42.101  28.027  28.557  1.00  0.00     0.074 A 
ATOM     33  C   UNL A   1      39.725  28.676  28.778  1.00  0.00     0.049 A 
ATOM     34  N   UNL A   1      42.694  29.065  29.085  1.00  0.00    -0.248 NA
ATOM     35  C   UNL A   1      43.026  26.992  28.064  1.00  0.00     0.031 C 
ATOM     36  C   UNL A   1      38.273  28.524  28.670  1.00  0.00     0.029 A 
ATOM     37  N   UNL A   1      39.891  29.910  29.353  1.00  0.00    -0.354 N 
ATOM     38  C   UNL A   1      44.056  28.792  29.034  1.00  0.00     0.074 A 
ATOM     39  C   UNL A   1      44.203  27.492  28.415  1.00  0.00     0.031 C 
ATOM     40  C   UNL A   1      37.680  29.617  29.177  1.00  0.00     0.029 A 
ATOM     41  C   UNL A   1      38.705  30.528  29.676  1.00  0.00     0.049 A 
ATOM     42  H   UNL A   1      40.773  30.314  29.519  1.00  0.00     0.167 HD
ATOM     43  C   UNL A   1      45.088  29.560  29.456  1.00  0.00     0.034 A 
ATOM     44  C   UNL A   1      38.474  31.689  30.322  1.00  0.00     0.034 A 
ATOM     45  C   UNL A   1      44.939  30.875  30.020  1.00  0.00     0.049 A 
ATOM     46  C   UNL A   1      39.644  32.518  30.777  1.00  0.00     0.074 A 
ATOM     47  C   UNL A   1      45.930  31.761  30.404  1.00  0.00     0.029 A 
ATOM     48  N   UNL A   1      43.727  31.489  30.286  1.00  0.00    -0.354 N 
ATOM     49  N   UNL A   1      40.925  32.303  30.605  1.00  0.00    -0.248 NA
ATOM     50  C   UNL A   1      39.336  33.763  31.497  1.00  0.00     0.031 C 
ATOM     51  C   UNL A   1      45.315  32.907  30.918  1.00  0.00     0.029 A 
ATOM     52  C   UNL A   1      43.942  32.737  30.843  1.00  0.00     0.049 A 
ATOM     53  H   UNL A   1      42.842  31.096  30.105  1.00  0.00     0.167 HD
ATOM     54  C   UNL A   1      41.575  33.398  31.164  1.00  0.00     0.074 A 
ATOM     55  C   UNL A   1      40.544  34.286  31.662  1.00  0.00     0.031 C 
ATOM     56  C   UNL A   1      42.904  33.638  31.275  1.00  0.00     0.034 A 
BRANCH  43  57
ATOM     57  C   UNL A   1      46.481  29.018  29.296  1.00  0.00     0.023 A 
ATOM     58  C   UNL A   1      47.074  28.296  30.351  1.00  0.00     0.012 A 
ATOM     59  C   UNL A   1      47.171  29.152  28.075  1.00  0.00     0.148 A 
ATOM     60  C   UNL A   1      48.339  27.730  30.199  1.00  0.00     0.002 A 
ATOM     61  C   UNL A   1      48.416  28.556  27.919  1.00  0.00     0.091 A 
ATOM     62  F   UNL A   1      46.598  29.863  27.093  1.00  0.00    -0.205 F 
ATOM     63  C   UNL A   1      49.005  27.850  28.981  1.00  0.00     0.022 A 
BRANCH  61  64
ATOM     64  S   UNL A   1      49.321  28.597  26.367  1.00  0.00     0.127 S 
ATOM     65  O   UNL A   1      49.852  29.960  26.372  1.00  0.00    -0.237 OA
ATOM     66  O   UNL A   1      50.326  27.552  26.566  1.00  0.00    -0.237 OA
ATOM     67  O   UNL A   1      48.345  28.310  25.326  1.00  0.00    -0.744 OA
ENDBRANCH  61  64
ENDBRANCH  43  57
BRANCH  44  68
ATOM     68  C   UNL A   1      37.075  32.156  30.542  1.00  0.00     0.023 A 
ATOM     69  C   UNL A   1      36.486  31.988  31.809  1.00  0.00     0.012 A 
ATOM     70  C   UNL A   1      36.335  32.773  29.516  1.00  0.00     0.148 A 
ATOM     71  C   UNL A   1      35.175  32.403  32.044  1.00  0.00     0.002 A 
ATOM     72  C   UNL A   1      35.048  33.233  29.772  1.00  0.00     0.091 A 
ATOM     73  F   UNL A   1      36.899  32.901  28.307  1.00  0.00    -0.205 F 
ATOM     74  C   UNL A   1      34.460  33.036  31.031  1.00  0.00     0.022 A 
BRANCH  72  75
ATOM     75  S   UNL A   1      34.118  34.172  28.554  1.00  0.00     0.127 S 
ATOM     76  O   UNL A   1      32.875  34.445  29.270  1.00  0.00    -0.237 OA
ATOM     77  O   UNL A   1      34.974  35.339  28.339  1.00  0.00    -0.237 OA
ATOM     78  O   UNL A   1      34.012  33.292  27.397  1.00  0.00    -0.744 OA
ENDBRANCH  72  75
ENDBRANCH  44  68
BRANCH  56  79
ATOM     79  C   UNL A   1      43.329  34.922  31.936  1.00  0.00     0.023 A 
ATOM     80  C   UNL A   1      43.593  36.055  31.142  1.00  0.00     0.012 A 
ATOM     81  C   UNL A   1      43.387  35.028  33.339  1.00  0.00     0.148 A 
ATOM     82  C   UNL A   1      43.935  37.270  31.735  1.00  0.00     0.002 A 
ATOM     83  C   UNL A   1      43.687  36.253  33.924  1.00  0.00     0.091 A 
ATOM     84  F   UNL A   1      43.155  33.933  34.076  1.00  0.00    -0.205 F 
ATOM     85  C   UNL A   1      43.970  37.372  33.125  1.00  0.00     0.022 A 
BRANCH  83  86
ATOM     86  S   UNL A   1      43.662  36.492  35.704  1.00  0.00     0.127 S 
ATOM     87  O   UNL A   1      44.718  35.582  36.144  1.00  0.00    -0.237 OA
ATOM     88  O   UNL A   1      43.988  37.913  35.837  1.00  0.00    -0.237 OA
ATOM     89  O   UNL A   1      42.312  36.144  36.131  1.00  0.00    -0.744 OA
ENDBRANCH  83  86
ENDBRANCH  56  79
ENDBRANCH  30  31
ENDBRANCH  23  25
ENDBRANCH  22  23
ENDBRANCH  21  22
ENDBRANCH   1  21
TORSDOF 17
ENDMDL
