MODEL 1
REMARK VINA RESULT:     -12.1      0.000      0.000
REMARK SMILES N#CCOc1ccc2[nH]cc([C@H](C(=O)OCCOC(=O)c3ccc(-c4c5nc(c(-c6cccc(S(=O)(=O)[O-])c6F)c6ccc([nH]6)c(-c6cccc(S(=O)(=O)[O-])c6F)c6nc(c(-c7cccc(S(=O)(=O)[O-])c7F)c7ccc4[nH]7)C=C6)C=C5)cc3)[NH+]3CC[NH+]([C@@H]4CCS(=O)(=O)C4)CC3)c2c1
REMARK SMILES IDX 16 1 15 2 13 3 14 4 12 5 11 6 5 7 6 8 98 9 7 10 97 11 8 12
REMARK SMILES IDX 9 13 10 14 4 16 3 17 2 18 1 19 84 20 85 21 96 22 86 24 95 25
REMARK SMILES IDX 87 26 88 28 89 29 94 30 90 31 91 32 92 33 93 34 17 35 18 36
REMARK SMILES IDX 19 37 20 38 21 39 22 40 83 41 23 42 82 43 24 44 25 45 26 46
REMARK SMILES IDX 76 47 27 48 81 49 75 50 77 51 28 52 80 53 74 54 73 55 29 57
REMARK SMILES IDX 61 58 41 59 60 60 42 61 45 62 59 63 78 64 43 65 44 66 58 68
REMARK SMILES IDX 79 69 46 70 30 71 31 72 39 73 32 74 34 75 40 76 33 77 35 78
REMARK SMILES IDX 36 79 37 80 38 81 62 82 63 83 71 84 64 85 66 86 72 87 65 88
REMARK SMILES IDX 67 89 68 90 69 91 70 92 47 93 48 94 56 95 49 96 51 97 57 98
REMARK SMILES IDX 50 99 52 100 53 101 54 102 55 103
REMARK H PARENT 9 15 84 23 87 27 77 56 45 67
REMARK Flexibility Score: inf
ROOT
ATOM      1  C   UNL A   1      33.607  28.294  23.997  1.00  0.00     0.274 C 
ENDROOT
BRANCH   1   2
ATOM      2  O   UNL A   1      33.257  27.985  22.624  1.00  0.00    -0.457 OA
BRANCH   2   3
ATOM      3  C   UNL A   1      32.317  27.028  22.468  1.00  0.00     0.370 C 
ATOM      4  O   UNL A   1      31.968  26.671  21.345  1.00  0.00    -0.245 OA
BRANCH   3   5
ATOM      5  C   UNL A   1      31.598  26.479  23.711  1.00  0.00     0.328 C 
BRANCH   5   6
ATOM      6  C   UNL A   1      30.117  26.698  23.946  1.00  0.00     0.046 A 
ATOM      7  C   UNL A   1      28.917  29.868  22.589  1.00  0.00     0.121 A 
ATOM      8  C   UNL A   1      27.615  29.412  22.343  1.00  0.00     0.048 A 
ATOM      9  C   UNL A   1      29.709  29.210  23.503  1.00  0.00     0.057 A 
ATOM     10  C   UNL A   1      27.081  28.316  23.034  1.00  0.00     0.030 A 
ATOM     11  C   UNL A   1      29.359  27.889  23.777  1.00  0.00     0.013 A 
ATOM     12  C   UNL A   1      28.025  27.513  23.669  1.00  0.00     0.046 A 
ATOM     13  N   UNL A   1      27.933  26.269  24.239  1.00  0.00    -0.361 N 
ATOM     14  C   UNL A   1      29.192  25.736  24.344  1.00  0.00     0.094 A 
ATOM     15  H   UNL A   1      27.100  25.830  24.526  1.00  0.00     0.166 HD
BRANCH   7  16
ATOM     16  O   UNL A   1      29.591  30.767  21.786  1.00  0.00    -0.479 OA
BRANCH  16  17
ATOM     17  C   UNL A   1      28.765  31.807  21.244  1.00  0.00     0.349 C 
BRANCH  17  18
ATOM     18  C   UNL A   1      28.732  32.924  22.274  1.00  0.00     0.104 C 
ATOM     19  N   UNL A   1      28.706  33.850  23.129  1.00  0.00    -0.195 NA
ENDBRANCH  17  18
ENDBRANCH  16  17
ENDBRANCH   7  16
ENDBRANCH   5   6
BRANCH   5  20
ATOM     20  N   UNL A   1      31.967  25.058  23.963  1.00  0.00    -0.310 N 
ATOM     21  C   UNL A   1      33.321  24.644  23.567  1.00  0.00     0.325 C 
ATOM     22  C   UNL A   1      31.648  24.660  25.344  1.00  0.00     0.325 C 
ATOM     23  H   UNL A   1      31.375  24.538  23.316  1.00  0.00     0.349 HD
ATOM     24  C   UNL A   1      34.437  24.641  24.645  1.00  0.00     0.324 C 
ATOM     25  C   UNL A   1      32.773  24.811  26.392  1.00  0.00     0.324 C 
ATOM     26  N   UNL A   1      34.052  24.240  26.002  1.00  0.00    -0.322 N 
ATOM     27  H   UNL A   1      34.739  24.691  26.606  1.00  0.00     0.348 HD
BRANCH  26  28
ATOM     28  C   UNL A   1      34.376  22.890  26.453  1.00  0.00     0.200 C 
ATOM     29  C   UNL A   1      35.443  22.107  25.674  1.00  0.00     0.082 C 
ATOM     30  C   UNL A   1      33.141  21.974  26.586  1.00  0.00     0.201 C 
ATOM     31  C   UNL A   1      34.781  21.265  24.596  1.00  0.00     0.143 C 
ATOM     32  S   UNL A   1      33.170  20.843  25.205  1.00  0.00     0.156 S 
ATOM     33  O   UNL A   1      32.203  21.251  24.207  1.00  0.00    -0.229 OA
ATOM     34  O   UNL A   1      33.234  19.489  25.712  1.00  0.00    -0.229 OA
ENDBRANCH  26  28
ENDBRANCH   5  20
ENDBRANCH   3   5
ENDBRANCH   2   3
ENDBRANCH   1   2
BRANCH   1  35
ATOM     35  C   UNL A   1      33.082  29.651  24.534  1.00  0.00     0.275 C 
BRANCH  35  36
ATOM     36  O   UNL A   1      32.762  29.636  25.943  1.00  0.00    -0.458 OA
BRANCH  36  37
ATOM     37  C   UNL A   1      33.096  30.742  26.666  1.00  0.00     0.338 C 
ATOM     38  O   UNL A   1      32.357  31.679  26.925  1.00  0.00    -0.246 OA
BRANCH  37  39
ATOM     39  C   UNL A   1      34.409  30.524  27.331  1.00  0.00     0.060 A 
ATOM     40  C   UNL A   1      35.187  31.655  27.627  1.00  0.00     0.016 A 
ATOM     41  C   UNL A   1      34.834  29.264  27.745  1.00  0.00     0.016 A 
ATOM     42  C   UNL A   1      36.319  31.556  28.429  1.00  0.00     0.010 A 
ATOM     43  C   UNL A   1      36.020  29.153  28.482  1.00  0.00     0.010 A 
ATOM     44  C   UNL A   1      36.751  30.300  28.849  1.00  0.00    -0.014 A 
BRANCH  44  45
ATOM     45  C   UNL A   1      38.038  30.164  29.564  1.00  0.00     0.031 A 
ATOM     46  C   UNL A   1      39.088  29.273  28.977  1.00  0.00     0.074 A 
ATOM     47  C   UNL A   1      38.255  30.805  30.727  1.00  0.00     0.049 A 
ATOM     48  N   UNL A   1      40.208  28.856  29.501  1.00  0.00    -0.248 NA
ATOM     49  C   UNL A   1      38.841  28.790  27.608  1.00  0.00     0.031 C 
ATOM     50  C   UNL A   1      37.346  31.769  31.346  1.00  0.00     0.029 A 
ATOM     51  N   UNL A   1      39.301  30.709  31.612  1.00  0.00    -0.354 N 
ATOM     52  C   UNL A   1      40.781  28.027  28.547  1.00  0.00     0.074 A 
ATOM     53  C   UNL A   1      39.897  28.015  27.403  1.00  0.00     0.031 C 
ATOM     54  C   UNL A   1      37.847  32.132  32.539  1.00  0.00     0.029 A 
ATOM     55  C   UNL A   1      39.080  31.389  32.788  1.00  0.00     0.049 A 
ATOM     56  H   UNL A   1      40.125  30.203  31.424  1.00  0.00     0.167 HD
ATOM     57  C   UNL A   1      41.939  27.332  28.624  1.00  0.00     0.034 A 
ATOM     58  C   UNL A   1      39.766  31.363  33.948  1.00  0.00     0.034 A 
ATOM     59  C   UNL A   1      42.812  27.355  29.766  1.00  0.00     0.049 A 
ATOM     60  C   UNL A   1      41.003  30.503  34.045  1.00  0.00     0.074 A 
ATOM     61  C   UNL A   1      44.019  26.703  29.938  1.00  0.00     0.029 A 
ATOM     62  N   UNL A   1      42.559  28.050  30.939  1.00  0.00    -0.354 N 
ATOM     63  N   UNL A   1      41.581  29.776  33.118  1.00  0.00    -0.248 NA
ATOM     64  C   UNL A   1      41.690  30.468  35.345  1.00  0.00     0.031 C 
ATOM     65  C   UNL A   1      44.480  26.978  31.229  1.00  0.00     0.029 A 
ATOM     66  C   UNL A   1      43.574  27.823  31.851  1.00  0.00     0.049 A 
ATOM     67  H   UNL A   1      41.774  28.623  31.097  1.00  0.00     0.167 HD
ATOM     68  C   UNL A   1      42.706  29.215  33.714  1.00  0.00     0.074 A 
ATOM     69  C   UNL A   1      42.744  29.708  35.076  1.00  0.00     0.031 C 
ATOM     70  C   UNL A   1      43.617  28.356  33.190  1.00  0.00     0.034 A 
BRANCH  57  71
ATOM     71  C   UNL A   1      42.316  26.479  27.446  1.00  0.00     0.023 A 
ATOM     72  C   UNL A   1      43.019  27.047  26.365  1.00  0.00     0.012 A 
ATOM     73  C   UNL A   1      41.999  25.107  27.424  1.00  0.00     0.148 A 
ATOM     74  C   UNL A   1      43.376  26.267  25.266  1.00  0.00     0.002 A 
ATOM     75  C   UNL A   1      42.394  24.328  26.345  1.00  0.00     0.091 A 
ATOM     76  F   UNL A   1      41.302  24.596  28.450  1.00  0.00    -0.205 F 
ATOM     77  C   UNL A   1      43.073  24.908  25.260  1.00  0.00     0.022 A 
BRANCH  75  78
ATOM     78  S   UNL A   1      42.108  22.557  26.275  1.00  0.00     0.127 S 
ATOM     79  O   UNL A   1      42.767  22.202  25.019  1.00  0.00    -0.237 OA
ATOM     80  O   UNL A   1      42.796  22.087  27.477  1.00  0.00    -0.237 OA
ATOM     81  O   UNL A   1      40.663  22.380  26.292  1.00  0.00    -0.744 OA
ENDBRANCH  75  78
ENDBRANCH  57  71
BRANCH  58  82
ATOM     82  C   UNL A   1      39.290  32.151  35.121  1.00  0.00     0.023 A 
ATOM     83  C   UNL A   1      38.344  31.589  35.998  1.00  0.00     0.012 A 
ATOM     84  C   UNL A   1      39.771  33.452  35.376  1.00  0.00     0.148 A 
ATOM     85  C   UNL A   1      37.866  32.315  37.091  1.00  0.00     0.002 A 
ATOM     86  C   UNL A   1      39.331  34.151  36.495  1.00  0.00     0.091 A 
ATOM     87  F   UNL A   1      40.650  33.984  34.515  1.00  0.00    -0.205 F 
ATOM     88  C   UNL A   1      38.366  33.590  37.345  1.00  0.00     0.022 A 
BRANCH  86  89
ATOM     89  S   UNL A   1      39.996  35.754  36.958  1.00  0.00     0.127 S 
ATOM     90  O   UNL A   1      41.422  35.461  37.091  1.00  0.00    -0.237 OA
ATOM     91  O   UNL A   1      39.645  36.578  35.802  1.00  0.00    -0.237 OA
ATOM     92  O   UNL A   1      39.313  36.127  38.190  1.00  0.00    -0.744 OA
ENDBRANCH  86  89
ENDBRANCH  58  82
BRANCH  70  93
ATOM     93  C   UNL A   1      44.741  27.893  34.080  1.00  0.00     0.023 A 
ATOM     94  C   UNL A   1      45.906  28.677  34.191  1.00  0.00     0.012 A 
ATOM     95  C   UNL A   1      44.602  26.741  34.881  1.00  0.00     0.148 A 
ATOM     96  C   UNL A   1      46.926  28.309  35.067  1.00  0.00     0.002 A 
ATOM     97  C   UNL A   1      45.601  26.408  35.787  1.00  0.00     0.091 A 
ATOM     98  F   UNL A   1      43.489  26.004  34.751  1.00  0.00    -0.205 F 
ATOM     99  C   UNL A   1      46.769  27.184  35.874  1.00  0.00     0.022 A 
BRANCH  97 100
ATOM    100  S   UNL A   1      45.450  25.035  36.936  1.00  0.00     0.127 S 
ATOM    101  O   UNL A   1      46.363  25.438  38.005  1.00  0.00    -0.237 OA
ATOM    102  O   UNL A   1      44.032  25.087  37.293  1.00  0.00    -0.237 OA
ATOM    103  O   UNL A   1      45.846  23.844  36.197  1.00  0.00    -0.744 OA
ENDBRANCH  97 100
ENDBRANCH  70  93
ENDBRANCH  44  45
ENDBRANCH  37  39
ENDBRANCH  36  37
ENDBRANCH  35  36
ENDBRANCH   1  35
TORSDOF 20
ENDMDL
MODEL 2
REMARK VINA RESULT:     -11.9      5.026      9.349
REMARK SMILES N#CCOc1ccc2[nH]cc([C@H](C(=O)OCCOC(=O)c3ccc(-c4c5nc(c(-c6cccc(S(=O)(=O)[O-])c6F)c6ccc([nH]6)c(-c6cccc(S(=O)(=O)[O-])c6F)c6nc(c(-c7cccc(S(=O)(=O)[O-])c7F)c7ccc4[nH]7)C=C6)C=C5)cc3)[NH+]3CC[NH+]([C@@H]4CCS(=O)(=O)C4)CC3)c2c1
REMARK SMILES IDX 16 1 15 2 13 3 14 4 12 5 11 6 5 7 6 8 98 9 7 10 97 11 8 12
REMARK SMILES IDX 9 13 10 14 4 16 3 17 2 18 1 19 84 20 85 21 96 22 86 24 95 25
REMARK SMILES IDX 87 26 88 28 89 29 94 30 90 31 91 32 92 33 93 34 17 35 18 36
REMARK SMILES IDX 19 37 20 38 21 39 22 40 83 41 23 42 82 43 24 44 25 45 26 46
REMARK SMILES IDX 76 47 27 48 81 49 75 50 77 51 28 52 80 53 74 54 73 55 29 57
REMARK SMILES IDX 61 58 41 59 60 60 42 61 45 62 59 63 78 64 43 65 44 66 58 68
REMARK SMILES IDX 79 69 46 70 30 71 31 72 39 73 32 74 34 75 40 76 33 77 35 78
REMARK SMILES IDX 36 79 37 80 38 81 62 82 63 83 71 84 64 85 66 86 72 87 65 88
REMARK SMILES IDX 67 89 68 90 69 91 70 92 47 93 48 94 56 95 49 96 51 97 57 98
REMARK SMILES IDX 50 99 52 100 53 101 54 102 55 103
REMARK H PARENT 9 15 84 23 87 27 77 56 45 67
REMARK Flexibility Score: inf
ROOT
ATOM      1  C   UNL A   1      36.677  22.965  23.487  1.00  0.00     0.274 C 
ENDROOT
BRANCH   1   2
ATOM      2  O   UNL A   1      35.555  23.713  24.022  1.00  0.00    -0.457 OA
BRANCH   2   3
ATOM      3  C   UNL A   1      34.433  23.688  23.272  1.00  0.00     0.370 C 
ATOM      4  O   UNL A   1      34.479  23.355  22.090  1.00  0.00    -0.245 OA
BRANCH   3   5
ATOM      5  C   UNL A   1      33.117  24.203  23.878  1.00  0.00     0.328 C 
BRANCH   5   6
ATOM      6  C   UNL A   1      32.288  25.279  23.205  1.00  0.00     0.046 A 
ATOM      7  C   UNL A   1      31.082  27.811  25.542  1.00  0.00     0.121 A 
ATOM      8  C   UNL A   1      31.055  28.847  24.598  1.00  0.00     0.048 A 
ATOM      9  C   UNL A   1      31.056  26.502  25.118  1.00  0.00     0.057 A 
ATOM     10  C   UNL A   1      30.967  28.583  23.225  1.00  0.00     0.030 A 
ATOM     11  C   UNL A   1      31.471  26.274  23.808  1.00  0.00     0.013 A 
ATOM     12  C   UNL A   1      31.285  27.277  22.862  1.00  0.00     0.046 A 
ATOM     13  N   UNL A   1      31.528  26.699  21.642  1.00  0.00    -0.361 N 
ATOM     14  C   UNL A   1      32.201  25.521  21.837  1.00  0.00     0.094 A 
ATOM     15  H   UNL A   1      31.263  27.070  20.770  1.00  0.00     0.166 HD
BRANCH   7  16
ATOM     16  O   UNL A   1      31.415  27.979  26.871  1.00  0.00    -0.479 OA
BRANCH  16  17
ATOM     17  C   UNL A   1      32.042  29.234  27.168  1.00  0.00     0.349 C 
BRANCH  17  18
ATOM     18  C   UNL A   1      33.541  29.014  27.055  1.00  0.00     0.104 C 
ATOM     19  N   UNL A   1      34.785  28.830  26.961  1.00  0.00    -0.195 NA
ENDBRANCH  17  18
ENDBRANCH  16  17
ENDBRANCH   7  16
ENDBRANCH   5   6
BRANCH   5  20
ATOM     20  N   UNL A   1      32.254  23.076  24.328  1.00  0.00    -0.310 N 
ATOM     21  C   UNL A   1      31.560  22.313  23.280  1.00  0.00     0.325 C 
ATOM     22  C   UNL A   1      32.967  22.199  25.271  1.00  0.00     0.325 C 
ATOM     23  H   UNL A   1      31.486  23.541  24.813  1.00  0.00     0.349 HD
ATOM     24  C   UNL A   1      32.211  21.000  22.770  1.00  0.00     0.324 C 
ATOM     25  C   UNL A   1      33.705  20.982  24.672  1.00  0.00     0.324 C 
ATOM     26  N   UNL A   1      32.911  20.175  23.759  1.00  0.00    -0.322 N 
ATOM     27  H   UNL A   1      33.591  19.645  23.215  1.00  0.00     0.348 HD
BRANCH  26  28
ATOM     28  C   UNL A   1      32.241  18.989  24.285  1.00  0.00     0.200 C 
ATOM     29  C   UNL A   1      32.582  18.544  25.715  1.00  0.00     0.082 C 
ATOM     30  C   UNL A   1      32.380  17.751  23.374  1.00  0.00     0.201 C 
ATOM     31  C   UNL A   1      33.710  17.526  25.684  1.00  0.00     0.143 C 
ATOM     32  S   UNL A   1      33.561  16.656  24.146  1.00  0.00     0.156 S 
ATOM     33  O   UNL A   1      34.837  16.742  23.467  1.00  0.00    -0.229 OA
ATOM     34  O   UNL A   1      32.914  15.391  24.419  1.00  0.00    -0.229 OA
ENDBRANCH  26  28
ENDBRANCH   5  20
ENDBRANCH   3   5
ENDBRANCH   2   3
ENDBRANCH   1   2
BRANCH   1  35
ATOM     35  C   UNL A   1      37.042  21.665  24.251  1.00  0.00     0.275 C 
BRANCH  35  36
ATOM     36  O   UNL A   1      37.353  21.878  25.646  1.00  0.00    -0.458 OA
BRANCH  36  37
ATOM     37  C   UNL A   1      38.618  21.574  26.052  1.00  0.00     0.338 C 
ATOM     38  O   UNL A   1      39.209  20.528  25.833  1.00  0.00    -0.246 OA
BRANCH  37  39
ATOM     39  C   UNL A   1      39.285  22.801  26.564  1.00  0.00     0.060 A 
ATOM     40  C   UNL A   1      40.356  22.638  27.457  1.00  0.00     0.016 A 
ATOM     41  C   UNL A   1      38.944  24.076  26.118  1.00  0.00     0.016 A 
ATOM     42  C   UNL A   1      41.161  23.715  27.815  1.00  0.00     0.010 A 
ATOM     43  C   UNL A   1      39.701  25.173  26.545  1.00  0.00     0.010 A 
ATOM     44  C   UNL A   1      40.827  24.994  27.372  1.00  0.00    -0.014 A 
BRANCH  44  45
ATOM     45  C   UNL A   1      41.577  26.166  27.874  1.00  0.00     0.031 A 
ATOM     46  C   UNL A   1      40.836  27.198  28.667  1.00  0.00     0.074 A 
ATOM     47  C   UNL A   1      42.887  26.317  27.608  1.00  0.00     0.049 A 
ATOM     48  N   UNL A   1      41.225  28.382  29.052  1.00  0.00    -0.248 NA
ATOM     49  C   UNL A   1      39.470  26.841  29.085  1.00  0.00     0.031 C 
ATOM     50  C   UNL A   1      43.732  25.336  26.928  1.00  0.00     0.029 A 
ATOM     51  N   UNL A   1      43.725  27.378  27.848  1.00  0.00    -0.354 N 
ATOM     52  C   UNL A   1      40.140  28.932  29.721  1.00  0.00     0.074 A 
ATOM     53  C   UNL A   1      39.083  27.945  29.707  1.00  0.00     0.031 C 
ATOM     54  C   UNL A   1      44.955  25.865  26.754  1.00  0.00     0.029 A 
ATOM     55  C   UNL A   1      44.962  27.235  27.262  1.00  0.00     0.049 A 
ATOM     56  H   UNL A   1      43.466  28.161  28.385  1.00  0.00     0.167 HD
ATOM     57  C   UNL A   1      40.035  30.156  30.288  1.00  0.00     0.034 A 
ATOM     58  C   UNL A   1      45.957  28.130  27.106  1.00  0.00     0.034 A 
ATOM     59  C   UNL A   1      41.093  31.127  30.298  1.00  0.00     0.049 A 
ATOM     60  C   UNL A   1      45.781  29.523  27.661  1.00  0.00     0.074 A 
ATOM     61  C   UNL A   1      41.097  32.390  30.863  1.00  0.00     0.029 A 
ATOM     62  N   UNL A   1      42.330  30.953  29.695  1.00  0.00    -0.354 N 
ATOM     63  N   UNL A   1      44.782  30.017  28.354  1.00  0.00    -0.248 NA
ATOM     64  C   UNL A   1      46.872  30.480  27.423  1.00  0.00     0.031 C 
ATOM     65  C   UNL A   1      42.325  32.991  30.573  1.00  0.00     0.029 A 
ATOM     66  C   UNL A   1      43.097  32.094  29.850  1.00  0.00     0.049 A 
ATOM     67  H   UNL A   1      42.620  30.136  29.228  1.00  0.00     0.167 HD
ATOM     68  C   UNL A   1      45.131  31.330  28.651  1.00  0.00     0.074 A 
ATOM     69  C   UNL A   1      46.448  31.548  28.085  1.00  0.00     0.031 C 
ATOM     70  C   UNL A   1      44.423  32.278  29.316  1.00  0.00     0.034 A 
BRANCH  57  71
ATOM     71  C   UNL A   1      38.723  30.512  30.928  1.00  0.00     0.023 A 
ATOM     72  C   UNL A   1      38.474  30.148  32.267  1.00  0.00     0.012 A 
ATOM     73  C   UNL A   1      37.749  31.235  30.213  1.00  0.00     0.148 A 
ATOM     74  C   UNL A   1      37.262  30.474  32.874  1.00  0.00     0.002 A 
ATOM     75  C   UNL A   1      36.562  31.592  30.837  1.00  0.00     0.091 A 
ATOM     76  F   UNL A   1      37.996  31.544  28.931  1.00  0.00    -0.205 F 
ATOM     77  C   UNL A   1      36.312  31.203  32.165  1.00  0.00     0.022 A 
BRANCH  75  78
ATOM     78  S   UNL A   1      35.304  32.586  30.029  1.00  0.00     0.127 S 
ATOM     79  O   UNL A   1      36.081  33.744  29.588  1.00  0.00    -0.237 OA
ATOM     80  O   UNL A   1      34.862  31.703  28.950  1.00  0.00    -0.237 OA
ATOM     81  O   UNL A   1      34.295  32.861  31.041  1.00  0.00    -0.744 OA
ENDBRANCH  75  78
ENDBRANCH  57  71
BRANCH  58  82
ATOM     82  C   UNL A   1      47.199  27.754  26.371  1.00  0.00     0.023 A 
ATOM     83  C   UNL A   1      48.302  27.247  27.083  1.00  0.00     0.012 A 
ATOM     84  C   UNL A   1      47.294  27.891  24.970  1.00  0.00     0.148 A 
ATOM     85  C   UNL A   1      49.483  26.907  26.420  1.00  0.00     0.002 A 
ATOM     86  C   UNL A   1      48.454  27.503  24.309  1.00  0.00     0.091 A 
ATOM     87  F   UNL A   1      46.245  28.403  24.310  1.00  0.00    -0.205 F 
ATOM     88  C   UNL A   1      49.556  27.026  25.035  1.00  0.00     0.022 A 
BRANCH  86  89
ATOM     89  S   UNL A   1      48.601  27.523  22.518  1.00  0.00     0.127 S 
ATOM     90  O   UNL A   1      47.412  28.277  22.128  1.00  0.00    -0.237 OA
ATOM     91  O   UNL A   1      49.867  28.228  22.322  1.00  0.00    -0.237 OA
ATOM     92  O   UNL A   1      48.623  26.125  22.106  1.00  0.00    -0.744 OA
ENDBRANCH  86  89
ENDBRANCH  58  82
BRANCH  70  93
ATOM     93  C   UNL A   1      45.049  33.639  29.480  1.00  0.00     0.023 A 
ATOM     94  C   UNL A   1      45.805  33.919  30.636  1.00  0.00     0.012 A 
ATOM     95  C   UNL A   1      44.976  34.598  28.451  1.00  0.00     0.148 A 
ATOM     96  C   UNL A   1      46.458  35.143  30.775  1.00  0.00     0.002 A 
ATOM     97  C   UNL A   1      45.669  35.796  28.574  1.00  0.00     0.091 A 
ATOM     98  F   UNL A   1      44.242  34.314  27.364  1.00  0.00    -0.205 F 
ATOM     99  C   UNL A   1      46.402  36.075  29.740  1.00  0.00     0.022 A 
BRANCH  97 100
ATOM    100  S   UNL A   1      45.737  37.017  27.259  1.00  0.00     0.127 S 
ATOM    101  O   UNL A   1      44.336  37.425  27.156  1.00  0.00    -0.237 OA
ATOM    102  O   UNL A   1      46.627  38.031  27.825  1.00  0.00    -0.237 OA
ATOM    103  O   UNL A   1      46.269  36.326  26.092  1.00  0.00    -0.744 OA
ENDBRANCH  97 100
ENDBRANCH  70  93
ENDBRANCH  44  45
ENDBRANCH  37  39
ENDBRANCH  36  37
ENDBRANCH  35  36
ENDBRANCH   1  35
TORSDOF 20
ENDMDL
MODEL 3
REMARK VINA RESULT:     -11.6      4.789      9.228
REMARK SMILES N#CCOc1ccc2[nH]cc([C@H](C(=O)OCCOC(=O)c3ccc(-c4c5nc(c(-c6cccc(S(=O)(=O)[O-])c6F)c6ccc([nH]6)c(-c6cccc(S(=O)(=O)[O-])c6F)c6nc(c(-c7cccc(S(=O)(=O)[O-])c7F)c7ccc4[nH]7)C=C6)C=C5)cc3)[NH+]3CC[NH+]([C@@H]4CCS(=O)(=O)C4)CC3)c2c1
REMARK SMILES IDX 16 1 15 2 13 3 14 4 12 5 11 6 5 7 6 8 98 9 7 10 97 11 8 12
REMARK SMILES IDX 9 13 10 14 4 16 3 17 2 18 1 19 84 20 85 21 96 22 86 24 95 25
REMARK SMILES IDX 87 26 88 28 89 29 94 30 90 31 91 32 92 33 93 34 17 35 18 36
REMARK SMILES IDX 19 37 20 38 21 39 22 40 83 41 23 42 82 43 24 44 25 45 26 46
REMARK SMILES IDX 76 47 27 48 81 49 75 50 77 51 28 52 80 53 74 54 73 55 29 57
REMARK SMILES IDX 61 58 41 59 60 60 42 61 45 62 59 63 78 64 43 65 44 66 58 68
REMARK SMILES IDX 79 69 46 70 30 71 31 72 39 73 32 74 34 75 40 76 33 77 35 78
REMARK SMILES IDX 36 79 37 80 38 81 62 82 63 83 71 84 64 85 66 86 72 87 65 88
REMARK SMILES IDX 67 89 68 90 69 91 70 92 47 93 48 94 56 95 49 96 51 97 57 98
REMARK SMILES IDX 50 99 52 100 53 101 54 102 55 103
REMARK H PARENT 9 15 84 23 87 27 77 56 45 67
REMARK Flexibility Score: inf
ROOT
ATOM      1  C   UNL A   1      36.178  22.166  23.937  1.00  0.00     0.274 C 
ENDROOT
BRANCH   1   2
ATOM      2  O   UNL A   1      35.426  22.890  24.944  1.00  0.00    -0.457 OA
BRANCH   2   3
ATOM      3  C   UNL A   1      34.106  23.026  24.692  1.00  0.00     0.370 C 
ATOM      4  O   UNL A   1      33.715  23.391  23.586  1.00  0.00    -0.245 OA
BRANCH   3   5
ATOM      5  C   UNL A   1      33.104  22.842  25.843  1.00  0.00     0.328 C 
BRANCH   5   6
ATOM      6  C   UNL A   1      32.098  23.913  26.214  1.00  0.00     0.046 A 
ATOM      7  C   UNL A   1      33.041  27.227  25.006  1.00  0.00     0.121 A 
ATOM      8  C   UNL A   1      31.726  27.689  24.873  1.00  0.00     0.048 A 
ATOM      9  C   UNL A   1      33.310  26.163  25.837  1.00  0.00     0.057 A 
ATOM     10  C   UNL A   1      30.672  27.115  25.597  1.00  0.00     0.030 A 
ATOM     11  C   UNL A   1      32.235  25.326  26.127  1.00  0.00     0.013 A 
ATOM     12  C   UNL A   1      30.952  25.862  26.135  1.00  0.00     0.046 A 
ATOM     13  N   UNL A   1      30.144  24.907  26.698  1.00  0.00    -0.361 N 
ATOM     14  C   UNL A   1      30.803  23.705  26.683  1.00  0.00     0.094 A 
ATOM     15  H   UNL A   1      29.239  25.059  27.054  1.00  0.00     0.166 HD
BRANCH   7  16
ATOM     16  O   UNL A   1      34.075  27.567  24.155  1.00  0.00    -0.479 OA
BRANCH  16  17
ATOM     17  C   UNL A   1      33.649  28.057  22.877  1.00  0.00     0.349 C 
BRANCH  17  18
ATOM     18  C   UNL A   1      33.513  26.847  21.966  1.00  0.00     0.104 C 
ATOM     19  N   UNL A   1      33.402  25.843  21.212  1.00  0.00    -0.195 NA
ENDBRANCH  17  18
ENDBRANCH  16  17
ENDBRANCH   7  16
ENDBRANCH   5   6
BRANCH   5  20
ATOM     20  N   UNL A   1      32.450  21.505  25.780  1.00  0.00    -0.310 N 
ATOM     21  C   UNL A   1      31.715  21.184  24.547  1.00  0.00     0.325 C 
ATOM     22  C   UNL A   1      33.385  20.434  26.162  1.00  0.00     0.325 C 
ATOM     23  H   UNL A   1      31.706  21.569  26.474  1.00  0.00     0.349 HD
ATOM     24  C   UNL A   1      32.442  20.366  23.446  1.00  0.00     0.324 C 
ATOM     25  C   UNL A   1      34.174  19.754  25.021  1.00  0.00     0.324 C 
ATOM     26  N   UNL A   1      33.364  19.318  23.894  1.00  0.00    -0.322 N 
ATOM     27  H   UNL A   1      34.022  19.209  23.123  1.00  0.00     0.348 HD
BRANCH  26  28
ATOM     28  C   UNL A   1      32.918  17.929  23.858  1.00  0.00     0.200 C 
ATOM     29  C   UNL A   1      32.125  17.395  25.060  1.00  0.00     0.082 C 
ATOM     30  C   UNL A   1      34.057  16.925  23.580  1.00  0.00     0.201 C 
ATOM     31  C   UNL A   1      33.071  16.752  26.059  1.00  0.00     0.143 C 
ATOM     32  S   UNL A   1      34.431  16.107  25.123  1.00  0.00     0.156 S 
ATOM     33  O   UNL A   1      35.650  16.647  25.690  1.00  0.00    -0.229 OA
ATOM     34  O   UNL A   1      34.218  14.686  24.961  1.00  0.00    -0.229 OA
ENDBRANCH  26  28
ENDBRANCH   5  20
ENDBRANCH   3   5
ENDBRANCH   2   3
ENDBRANCH   1   2
BRANCH   1  35
ATOM     35  C   UNL A   1      37.507  21.529  24.424  1.00  0.00     0.275 C 
BRANCH  35  36
ATOM     36  O   UNL A   1      37.782  21.752  25.825  1.00  0.00    -0.458 OA
BRANCH  36  37
ATOM     37  C   UNL A   1      39.054  21.517  26.252  1.00  0.00     0.338 C 
ATOM     38  O   UNL A   1      39.693  20.492  26.069  1.00  0.00    -0.246 OA
BRANCH  37  39
ATOM     39  C   UNL A   1      39.660  22.787  26.735  1.00  0.00     0.060 A 
ATOM     40  C   UNL A   1      40.645  22.703  27.732  1.00  0.00     0.016 A 
ATOM     41  C   UNL A   1      39.351  24.022  26.170  1.00  0.00     0.016 A 
ATOM     42  C   UNL A   1      41.403  23.814  28.085  1.00  0.00     0.010 A 
ATOM     43  C   UNL A   1      40.056  25.158  26.586  1.00  0.00     0.010 A 
ATOM     44  C   UNL A   1      41.102  25.053  27.524  1.00  0.00    -0.014 A 
BRANCH  44  45
ATOM     45  C   UNL A   1      41.791  26.269  28.009  1.00  0.00     0.031 A 
ATOM     46  C   UNL A   1      40.989  27.294  28.749  1.00  0.00     0.074 A 
ATOM     47  C   UNL A   1      43.101  26.463  27.772  1.00  0.00     0.049 A 
ATOM     48  N   UNL A   1      41.321  28.504  29.107  1.00  0.00    -0.248 NA
ATOM     49  C   UNL A   1      39.627  26.896  29.142  1.00  0.00     0.031 C 
ATOM     50  C   UNL A   1      44.002  25.496  27.146  1.00  0.00     0.029 A 
ATOM     51  N   UNL A   1      43.891  27.563  28.002  1.00  0.00    -0.354 N 
ATOM     52  C   UNL A   1      40.198  29.031  29.729  1.00  0.00     0.074 A 
ATOM     53  C   UNL A   1      39.180  28.003  29.719  1.00  0.00     0.031 C 
ATOM     54  C   UNL A   1      45.208  26.067  26.989  1.00  0.00     0.029 A 
ATOM     55  C   UNL A   1      45.148  27.451  27.453  1.00  0.00     0.049 A 
ATOM     56  H   UNL A   1      43.587  28.352  28.506  1.00  0.00     0.167 HD
ATOM     57  C   UNL A   1      40.030  30.266  30.254  1.00  0.00     0.034 A 
ATOM     58  C   UNL A   1      46.112  28.380  27.295  1.00  0.00     0.034 A 
ATOM     59  C   UNL A   1      41.049  31.278  30.261  1.00  0.00     0.049 A 
ATOM     60  C   UNL A   1      45.866  29.781  27.802  1.00  0.00     0.074 A 
ATOM     61  C   UNL A   1      40.988  32.556  30.787  1.00  0.00     0.029 A 
ATOM     62  N   UNL A   1      42.309  31.134  29.698  1.00  0.00    -0.354 N 
ATOM     63  N   UNL A   1      44.830  30.256  28.452  1.00  0.00    -0.248 NA
ATOM     64  C   UNL A   1      46.926  30.772  27.562  1.00  0.00     0.031 C 
ATOM     65  C   UNL A   1      42.201  33.197  30.510  1.00  0.00     0.029 A 
ATOM     66  C   UNL A   1      43.026  32.309  29.837  1.00  0.00     0.049 A 
ATOM     67  H   UNL A   1      42.643  30.316  29.264  1.00  0.00     0.167 HD
ATOM     68  C   UNL A   1      45.121  31.590  28.717  1.00  0.00     0.074 A 
ATOM     69  C   UNL A   1      46.443  31.842  28.179  1.00  0.00     0.031 C 
ATOM     70  C   UNL A   1      44.358  32.529  29.332  1.00  0.00     0.034 A 
BRANCH  57  71
ATOM     71  C   UNL A   1      38.688  30.589  30.849  1.00  0.00     0.023 A 
ATOM     72  C   UNL A   1      38.422  30.273  32.196  1.00  0.00     0.012 A 
ATOM     73  C   UNL A   1      37.701  31.236  30.079  1.00  0.00     0.148 A 
ATOM     74  C   UNL A   1      37.183  30.569  32.761  1.00  0.00     0.002 A 
ATOM     75  C   UNL A   1      36.484  31.564  30.661  1.00  0.00     0.091 A 
ATOM     76  F   UNL A   1      37.965  31.500  28.791  1.00  0.00    -0.205 F 
ATOM     77  C   UNL A   1      36.219  31.223  31.998  1.00  0.00     0.022 A 
BRANCH  75  78
ATOM     78  S   UNL A   1      35.203  32.465  29.781  1.00  0.00     0.127 S 
ATOM     79  O   UNL A   1      34.214  32.677  30.836  1.00  0.00    -0.237 OA
ATOM     80  O   UNL A   1      35.912  33.672  29.358  1.00  0.00    -0.237 OA
ATOM     81  O   UNL A   1      34.777  31.598  28.692  1.00  0.00    -0.744 OA
ENDBRANCH  75  78
ENDBRANCH  57  71
BRANCH  58  82
ATOM     82  C   UNL A   1      47.387  28.031  26.605  1.00  0.00     0.023 A 
ATOM     83  C   UNL A   1      48.544  27.782  27.367  1.00  0.00     0.012 A 
ATOM     84  C   UNL A   1      47.461  27.940  25.199  1.00  0.00     0.148 A 
ATOM     85  C   UNL A   1      49.755  27.474  26.744  1.00  0.00     0.002 A 
ATOM     86  C   UNL A   1      48.657  27.582  24.586  1.00  0.00     0.091 A 
ATOM     87  F   UNL A   1      46.357  28.208  24.487  1.00  0.00    -0.205 F 
ATOM     88  C   UNL A   1      49.809  27.365  25.356  1.00  0.00     0.022 A 
BRANCH  86  89
ATOM     89  S   UNL A   1      48.795  27.315  22.815  1.00  0.00     0.127 S 
ATOM     90  O   UNL A   1      50.233  27.455  22.602  1.00  0.00    -0.237 OA
ATOM     91  O   UNL A   1      48.282  25.953  22.669  1.00  0.00    -0.237 OA
ATOM     92  O   UNL A   1      47.964  28.338  22.193  1.00  0.00    -0.744 OA
ENDBRANCH  86  89
ENDBRANCH  58  82
BRANCH  70  93
ATOM     93  C   UNL A   1      44.926  33.918  29.470  1.00  0.00     0.023 A 
ATOM     94  C   UNL A   1      44.716  34.859  28.443  1.00  0.00     0.012 A 
ATOM     95  C   UNL A   1      45.576  34.320  30.654  1.00  0.00     0.148 A 
ATOM     96  C   UNL A   1      45.165  36.171  28.582  1.00  0.00     0.002 A 
ATOM     97  C   UNL A   1      45.978  35.641  30.806  1.00  0.00     0.091 A 
ATOM     98  F   UNL A   1      45.775  33.404  31.615  1.00  0.00    -0.205 F 
ATOM     99  C   UNL A   1      45.783  36.566  29.767  1.00  0.00     0.022 A 
BRANCH  97 100
ATOM    100  S   UNL A   1      46.694  36.268  32.329  1.00  0.00     0.127 S 
ATOM    101  O   UNL A   1      46.979  37.658  31.976  1.00  0.00    -0.237 OA
ATOM    102  O   UNL A   1      45.598  36.093  33.282  1.00  0.00    -0.237 OA
ATOM    103  O   UNL A   1      47.865  35.443  32.595  1.00  0.00    -0.744 OA
ENDBRANCH  97 100
ENDBRANCH  70  93
ENDBRANCH  44  45
ENDBRANCH  37  39
ENDBRANCH  36  37
ENDBRANCH  35  36
ENDBRANCH   1  35
TORSDOF 20
ENDMDL
