MODEL 1
REMARK VINA RESULT:     -10.8      0.000      0.000
REMARK SMILES COc1ccc(-c2nc(NCC(=O)OCCOC(=O)c3ccc(-c4c5nc(c(-c6cccc(S(=O)(=O)[O-])c6F)c6ccc([nH]6)c(-c6cccc(S(=O)(=O)[O-])c6F)c6nc(c(-c7cccc(S(=O)(=O)[O-])c7F)c7ccc4[nH]7)C=C6)C=C5)cc3)sc2-c2ccc(OC)cc2)cc1
REMARK SMILES IDX 15 1 14 2 12 3 13 4 11 5 10 6 9 8 7 9 8 10 84 11 83 12 6 13
REMARK SMILES IDX 3 14 4 15 94 16 5 17 93 18 2 19 1 20 85 21 86 22 92 23 87 24
REMARK SMILES IDX 91 25 88 26 89 27 90 28 16 29 17 30 18 31 19 32 20 33 21 34
REMARK SMILES IDX 82 35 22 36 81 37 23 38 24 39 25 40 75 41 26 42 80 43 74 44
REMARK SMILES IDX 76 45 27 46 79 47 73 48 72 49 28 51 60 52 40 53 59 54 41 55
REMARK SMILES IDX 44 56 58 57 77 58 42 59 43 60 57 62 78 63 45 64 29 65 30 66
REMARK SMILES IDX 38 67 31 68 33 69 39 70 32 71 34 72 35 73 36 74 37 75 61 76
REMARK SMILES IDX 62 77 70 78 63 79 65 80 71 81 64 82 66 83 67 84 68 85 69 86
REMARK SMILES IDX 46 87 47 88 55 89 48 90 50 91 56 92 49 93 51 94 52 95 53 96
REMARK SMILES IDX 54 97
REMARK H PARENT 10 7 76 50 44 61
REMARK Flexibility Score: inf
ROOT
ATOM      1  C   UNL A   1      42.097  19.167  26.560  1.00  0.00     0.274 C 
ENDROOT
BRANCH   1   2
ATOM      2  O   UNL A   1      42.277  20.564  26.848  1.00  0.00    -0.461 OA
BRANCH   2   3
ATOM      3  C   UNL A   1      41.500  21.426  26.135  1.00  0.00     0.325 C 
ATOM      4  O   UNL A   1      41.930  22.297  25.388  1.00  0.00    -0.250 OA
BRANCH   3   5
ATOM      5  C   UNL A   1      40.016  21.232  26.410  1.00  0.00     0.238 C 
BRANCH   5   6
ATOM      6  N   UNL A   1      39.213  22.423  26.153  1.00  0.00    -0.351 N 
ATOM      7  H   UNL A   1      39.632  23.302  26.302  1.00  0.00     0.163 HD
BRANCH   6   8
ATOM      8  C   UNL A   1      37.933  22.396  25.726  1.00  0.00     0.184 A 
ATOM      9  C   UNL A   1      35.924  21.566  25.253  1.00  0.00     0.091 A 
ATOM     10  N   UNL A   1      37.226  21.289  25.648  1.00  0.00    -0.220 NA
ATOM     11  C   UNL A   1      35.628  22.913  25.117  1.00  0.00     0.064 A 
ATOM     12  S   UNL A   1      37.066  23.817  25.274  1.00  0.00    -0.096 S 
BRANCH   9  13
ATOM     13  C   UNL A   1      34.920  20.520  25.097  1.00  0.00     0.002 A 
ATOM     14  C   UNL A   1      33.063  18.413  25.089  1.00  0.00     0.118 A 
ATOM     15  C   UNL A   1      32.684  19.676  25.539  1.00  0.00     0.047 A 
ATOM     16  C   UNL A   1      34.345  18.219  24.572  1.00  0.00     0.047 A 
ATOM     17  C   UNL A   1      33.608  20.724  25.549  1.00  0.00     0.014 A 
ATOM     18  C   UNL A   1      35.271  19.273  24.571  1.00  0.00     0.014 A 
BRANCH  14  19
ATOM     19  O   UNL A   1      32.100  17.444  25.160  1.00  0.00    -0.497 OA
ATOM     20  C   UNL A   1      32.591  16.153  25.504  1.00  0.00     0.278 C 
ENDBRANCH  14  19
ENDBRANCH   9  13
BRANCH  11  21
ATOM     21  C   UNL A   1      34.359  23.621  24.961  1.00  0.00    -0.006 A 
ATOM     22  C   UNL A   1      33.671  24.144  26.060  1.00  0.00     0.013 A 
ATOM     23  C   UNL A   1      33.789  23.736  23.686  1.00  0.00     0.013 A 
ATOM     24  C   UNL A   1      32.431  24.762  25.881  1.00  0.00     0.047 A 
ATOM     25  C   UNL A   1      32.552  24.358  23.509  1.00  0.00     0.047 A 
ATOM     26  C   UNL A   1      31.866  24.873  24.609  1.00  0.00     0.118 A 
BRANCH  26  27
ATOM     27  O   UNL A   1      30.647  25.492  24.572  1.00  0.00    -0.497 OA
ATOM     28  C   UNL A   1      30.640  26.893  24.808  1.00  0.00     0.278 C 
ENDBRANCH  26  27
ENDBRANCH  11  21
ENDBRANCH   6   8
ENDBRANCH   5   6
ENDBRANCH   3   5
ENDBRANCH   2   3
ENDBRANCH   1   2
BRANCH   1  29
ATOM     29  C   UNL A   1      43.227  18.629  25.676  1.00  0.00     0.275 C 
BRANCH  29  30
ATOM     30  O   UNL A   1      43.468  19.459  24.524  1.00  0.00    -0.458 OA
BRANCH  30  31
ATOM     31  C   UNL A   1      44.772  19.734  24.275  1.00  0.00     0.338 C 
ATOM     32  O   UNL A   1      45.571  19.009  23.703  1.00  0.00    -0.246 OA
BRANCH  31  33
ATOM     33  C   UNL A   1      45.091  21.127  24.644  1.00  0.00     0.060 A 
ATOM     34  C   UNL A   1      45.492  21.365  25.962  1.00  0.00     0.016 A 
ATOM     35  C   UNL A   1      44.940  22.191  23.750  1.00  0.00     0.016 A 
ATOM     36  C   UNL A   1      45.732  22.665  26.398  1.00  0.00     0.010 A 
ATOM     37  C   UNL A   1      45.176  23.500  24.192  1.00  0.00     0.010 A 
ATOM     38  C   UNL A   1      45.557  23.746  25.523  1.00  0.00    -0.014 A 
BRANCH  38  39
ATOM     39  C   UNL A   1      45.731  25.124  26.045  1.00  0.00     0.031 A 
ATOM     40  C   UNL A   1      47.101  25.739  26.103  1.00  0.00     0.074 A 
ATOM     41  C   UNL A   1      44.652  25.836  26.422  1.00  0.00     0.049 A 
ATOM     42  N   UNL A   1      47.446  26.946  26.470  1.00  0.00    -0.248 NA
ATOM     43  C   UNL A   1      48.232  24.889  25.698  1.00  0.00     0.031 C 
ATOM     44  C   UNL A   1      43.274  25.342  26.424  1.00  0.00     0.029 A 
ATOM     45  N   UNL A   1      44.547  27.123  26.884  1.00  0.00    -0.354 N 
ATOM     46  C   UNL A   1      48.832  26.993  26.373  1.00  0.00     0.074 A 
ATOM     47  C   UNL A   1      49.266  25.691  25.913  1.00  0.00     0.031 C 
ATOM     48  C   UNL A   1      42.463  26.314  26.873  1.00  0.00     0.029 A 
ATOM     49  C   UNL A   1      43.262  27.491  27.206  1.00  0.00     0.049 A 
ATOM     50  H   UNL A   1      45.319  27.728  26.976  1.00  0.00     0.167 HD
ATOM     51  C   UNL A   1      49.663  28.031  26.626  1.00  0.00     0.034 A 
ATOM     52  C   UNL A   1      42.784  28.643  27.717  1.00  0.00     0.034 A 
ATOM     53  C   UNL A   1      49.226  29.340  27.037  1.00  0.00     0.049 A 
ATOM     54  C   UNL A   1      43.732  29.788  27.956  1.00  0.00     0.074 A 
ATOM     55  C   UNL A   1      49.992  30.471  27.255  1.00  0.00     0.029 A 
ATOM     56  N   UNL A   1      47.911  29.692  27.294  1.00  0.00    -0.354 N 
ATOM     57  N   UNL A   1      45.020  29.857  27.720  1.00  0.00    -0.248 NA
ATOM     58  C   UNL A   1      43.155  31.027  28.496  1.00  0.00     0.031 C 
ATOM     59  C   UNL A   1      49.141  31.506  27.658  1.00  0.00     0.029 A 
ATOM     60  C   UNL A   1      47.844  31.021  27.677  1.00  0.00     0.049 A 
ATOM     61  H   UNL A   1      47.139  29.086  27.216  1.00  0.00     0.167 HD
ATOM     62  C   UNL A   1      45.400  31.152  28.055  1.00  0.00     0.074 A 
ATOM     63  C   UNL A   1      44.200  31.843  28.478  1.00  0.00     0.031 C 
ATOM     64  C   UNL A   1      46.634  31.713  28.038  1.00  0.00     0.034 A 
BRANCH  51  65
ATOM     65  C   UNL A   1      51.140  27.817  26.434  1.00  0.00     0.023 A 
ATOM     66  C   UNL A   1      51.952  27.531  27.549  1.00  0.00     0.012 A 
ATOM     67  C   UNL A   1      51.705  27.807  25.143  1.00  0.00     0.148 A 
ATOM     68  C   UNL A   1      53.307  27.250  27.385  1.00  0.00     0.002 A 
ATOM     69  C   UNL A   1      53.049  27.491  24.984  1.00  0.00     0.091 A 
ATOM     70  F   UNL A   1      50.917  28.103  24.099  1.00  0.00    -0.205 F 
ATOM     71  C   UNL A   1      53.853  27.219  26.103  1.00  0.00     0.022 A 
BRANCH  69  72
ATOM     72  S   UNL A   1      53.831  27.355  23.372  1.00  0.00     0.127 S 
ATOM     73  O   UNL A   1      55.102  26.718  23.712  1.00  0.00    -0.237 OA
ATOM     74  O   UNL A   1      52.893  26.497  22.647  1.00  0.00    -0.237 OA
ATOM     75  O   UNL A   1      53.934  28.715  22.858  1.00  0.00    -0.744 OA
ENDBRANCH  69  72
ENDBRANCH  51  65
BRANCH  52  76
ATOM     76  C   UNL A   1      41.326  28.793  27.993  1.00  0.00     0.023 A 
ATOM     77  C   UNL A   1      40.447  29.114  26.942  1.00  0.00     0.012 A 
ATOM     78  C   UNL A   1      40.808  28.619  29.290  1.00  0.00     0.148 A 
ATOM     79  C   UNL A   1      39.085  29.296  27.183  1.00  0.00     0.002 A 
ATOM     80  C   UNL A   1      39.441  28.745  29.513  1.00  0.00     0.091 A 
ATOM     81  F   UNL A   1      41.660  28.340  30.287  1.00  0.00    -0.205 F 
ATOM     82  C   UNL A   1      38.580  29.100  28.466  1.00  0.00     0.022 A 
BRANCH  80  83
ATOM     83  S   UNL A   1      38.712  28.372  31.113  1.00  0.00     0.127 S 
ATOM     84  O   UNL A   1      37.367  28.922  30.966  1.00  0.00    -0.237 OA
ATOM     85  O   UNL A   1      38.778  26.911  31.153  1.00  0.00    -0.237 OA
ATOM     86  O   UNL A   1      39.575  29.032  32.084  1.00  0.00    -0.744 OA
ENDBRANCH  80  83
ENDBRANCH  52  76
BRANCH  64  87
ATOM     87  C   UNL A   1      46.749  33.152  28.466  1.00  0.00     0.023 A 
ATOM     88  C   UNL A   1      47.146  33.455  29.785  1.00  0.00     0.012 A 
ATOM     89  C   UNL A   1      46.518  34.202  27.557  1.00  0.00     0.148 A 
ATOM     90  C   UNL A   1      47.274  34.780  30.201  1.00  0.00     0.002 A 
ATOM     91  C   UNL A   1      46.690  35.520  27.966  1.00  0.00     0.091 A 
ATOM     92  F   UNL A   1      46.120  33.899  26.313  1.00  0.00    -0.205 F 
ATOM     93  C   UNL A   1      47.057  35.811  29.289  1.00  0.00     0.022 A 
BRANCH  91  94
ATOM     94  S   UNL A   1      46.519  36.897  26.825  1.00  0.00     0.127 S 
ATOM     95  O   UNL A   1      45.089  36.863  26.525  1.00  0.00    -0.237 OA
ATOM     96  O   UNL A   1      46.944  38.038  27.637  1.00  0.00    -0.237 OA
ATOM     97  O   UNL A   1      47.408  36.593  25.711  1.00  0.00    -0.744 OA
ENDBRANCH  91  94
ENDBRANCH  64  87
ENDBRANCH  38  39
ENDBRANCH  31  33
ENDBRANCH  30  31
ENDBRANCH  29  30
ENDBRANCH   1  29
TORSDOF 20
ENDMDL
MODEL 2
REMARK VINA RESULT:     -10.3      1.272      7.511
REMARK SMILES COc1ccc(-c2nc(NCC(=O)OCCOC(=O)c3ccc(-c4c5nc(c(-c6cccc(S(=O)(=O)[O-])c6F)c6ccc([nH]6)c(-c6cccc(S(=O)(=O)[O-])c6F)c6nc(c(-c7cccc(S(=O)(=O)[O-])c7F)c7ccc4[nH]7)C=C6)C=C5)cc3)sc2-c2ccc(OC)cc2)cc1
REMARK SMILES IDX 15 1 14 2 12 3 13 4 11 5 10 6 9 8 7 9 8 10 84 11 83 12 6 13
REMARK SMILES IDX 3 14 4 15 94 16 5 17 93 18 2 19 1 20 85 21 86 22 92 23 87 24
REMARK SMILES IDX 91 25 88 26 89 27 90 28 16 29 17 30 18 31 19 32 20 33 21 34
REMARK SMILES IDX 82 35 22 36 81 37 23 38 24 39 25 40 75 41 26 42 80 43 74 44
REMARK SMILES IDX 76 45 27 46 79 47 73 48 72 49 28 51 60 52 40 53 59 54 41 55
REMARK SMILES IDX 44 56 58 57 77 58 42 59 43 60 57 62 78 63 45 64 29 65 30 66
REMARK SMILES IDX 38 67 31 68 33 69 39 70 32 71 34 72 35 73 36 74 37 75 61 76
REMARK SMILES IDX 62 77 70 78 63 79 65 80 71 81 64 82 66 83 67 84 68 85 69 86
REMARK SMILES IDX 46 87 47 88 55 89 48 90 50 91 56 92 49 93 51 94 52 95 53 96
REMARK SMILES IDX 54 97
REMARK H PARENT 10 7 76 50 44 61
REMARK Flexibility Score: inf
ROOT
ATOM      1  C   UNL A   1      41.814  19.468  27.598  1.00  0.00     0.274 C 
ENDROOT
BRANCH   1   2
ATOM      2  O   UNL A   1      40.927  20.422  26.990  1.00  0.00    -0.461 OA
BRANCH   2   3
ATOM      3  C   UNL A   1      40.994  21.693  27.475  1.00  0.00     0.325 C 
ATOM      4  O   UNL A   1      41.809  22.081  28.303  1.00  0.00    -0.250 OA
BRANCH   3   5
ATOM      5  C   UNL A   1      39.895  22.585  26.915  1.00  0.00     0.238 C 
BRANCH   5   6
ATOM      6  N   UNL A   1      39.336  22.104  25.657  1.00  0.00    -0.351 N 
ATOM      7  H   UNL A   1      39.959  21.746  24.982  1.00  0.00     0.163 HD
BRANCH   6   8
ATOM      8  C   UNL A   1      38.020  22.119  25.357  1.00  0.00     0.184 A 
ATOM      9  C   UNL A   1      35.949  21.353  25.083  1.00  0.00     0.091 A 
ATOM     10  N   UNL A   1      37.275  21.034  25.347  1.00  0.00    -0.220 NA
ATOM     11  C   UNL A   1      35.683  22.710  24.979  1.00  0.00     0.064 A 
ATOM     12  S   UNL A   1      37.157  23.568  24.996  1.00  0.00    -0.096 S 
BRANCH   9  13
ATOM     13  C   UNL A   1      34.902  20.340  25.025  1.00  0.00     0.002 A 
ATOM     14  C   UNL A   1      33.003  18.278  25.187  1.00  0.00     0.118 A 
ATOM     15  C   UNL A   1      32.731  19.522  25.750  1.00  0.00     0.047 A 
ATOM     16  C   UNL A   1      34.189  18.083  24.476  1.00  0.00     0.047 A 
ATOM     17  C   UNL A   1      33.677  20.548  25.676  1.00  0.00     0.014 A 
ATOM     18  C   UNL A   1      35.136  19.115  24.391  1.00  0.00     0.014 A 
BRANCH  14  19
ATOM     19  O   UNL A   1      32.032  17.328  25.351  1.00  0.00    -0.497 OA
ATOM     20  C   UNL A   1      32.522  16.051  25.749  1.00  0.00     0.278 C 
ENDBRANCH  14  19
ENDBRANCH   9  13
BRANCH  11  21
ATOM     21  C   UNL A   1      34.428  23.457  24.951  1.00  0.00    -0.006 A 
ATOM     22  C   UNL A   1      33.938  24.113  26.084  1.00  0.00     0.013 A 
ATOM     23  C   UNL A   1      33.668  23.478  23.773  1.00  0.00     0.013 A 
ATOM     24  C   UNL A   1      32.705  24.767  26.037  1.00  0.00     0.047 A 
ATOM     25  C   UNL A   1      32.438  24.136  23.728  1.00  0.00     0.047 A 
ATOM     26  C   UNL A   1      31.949  24.784  24.862  1.00  0.00     0.118 A 
BRANCH  26  27
ATOM     27  O   UNL A   1      30.759  25.451  24.952  1.00  0.00    -0.497 OA
ATOM     28  C   UNL A   1      29.982  25.206  26.116  1.00  0.00     0.278 C 
ENDBRANCH  26  27
ENDBRANCH  11  21
ENDBRANCH   6   8
ENDBRANCH   5   6
ENDBRANCH   3   5
ENDBRANCH   2   3
ENDBRANCH   1   2
BRANCH   1  29
ATOM     29  C   UNL A   1      42.603  18.687  26.541  1.00  0.00     0.275 C 
BRANCH  29  30
ATOM     30  O   UNL A   1      42.585  19.331  25.253  1.00  0.00    -0.458 OA
BRANCH  30  31
ATOM     31  C   UNL A   1      43.781  19.807  24.830  1.00  0.00     0.338 C 
ATOM     32  O   UNL A   1      44.537  19.273  24.034  1.00  0.00    -0.246 OA
BRANCH  31  33
ATOM     33  C   UNL A   1      44.006  21.175  25.338  1.00  0.00     0.060 A 
ATOM     34  C   UNL A   1      43.481  22.232  24.586  1.00  0.00     0.016 A 
ATOM     35  C   UNL A   1      44.765  21.434  26.482  1.00  0.00     0.016 A 
ATOM     36  C   UNL A   1      43.722  23.549  24.965  1.00  0.00     0.010 A 
ATOM     37  C   UNL A   1      45.012  22.761  26.859  1.00  0.00     0.010 A 
ATOM     38  C   UNL A   1      44.507  23.826  26.093  1.00  0.00    -0.014 A 
BRANCH  38  39
ATOM     39  C   UNL A   1      44.821  25.239  26.416  1.00  0.00     0.031 A 
ATOM     40  C   UNL A   1      43.757  26.137  26.984  1.00  0.00     0.074 A 
ATOM     41  C   UNL A   1      46.074  25.702  26.241  1.00  0.00     0.049 A 
ATOM     42  N   UNL A   1      43.855  27.379  27.383  1.00  0.00    -0.248 NA
ATOM     43  C   UNL A   1      42.408  25.566  27.122  1.00  0.00     0.031 C 
ATOM     44  C   UNL A   1      47.187  24.930  25.684  1.00  0.00     0.029 A 
ATOM     45  N   UNL A   1      46.618  26.932  26.505  1.00  0.00    -0.354 N 
ATOM     46  C   UNL A   1      42.579  27.751  27.788  1.00  0.00     0.074 A 
ATOM     47  C   UNL A   1      41.721  26.603  27.585  1.00  0.00     0.031 C 
ATOM     48  C   UNL A   1      48.280  25.710  25.643  1.00  0.00     0.029 A 
ATOM     49  C   UNL A   1      47.943  27.037  26.152  1.00  0.00     0.049 A 
ATOM     50  H   UNL A   1      46.110  27.672  26.910  1.00  0.00     0.167 HD
ATOM     51  C   UNL A   1      42.165  28.935  28.297  1.00  0.00     0.034 A 
ATOM     52  C   UNL A   1      48.788  28.085  26.226  1.00  0.00     0.034 A 
ATOM     53  C   UNL A   1      43.028  30.059  28.543  1.00  0.00     0.049 A 
ATOM     54  C   UNL A   1      48.302  29.377  26.828  1.00  0.00     0.074 A 
ATOM     55  C   UNL A   1      42.708  31.278  29.117  1.00  0.00     0.029 A 
ATOM     56  N   UNL A   1      44.376  30.107  28.230  1.00  0.00    -0.354 N 
ATOM     57  N   UNL A   1      47.128  29.661  27.337  1.00  0.00    -0.248 NA
ATOM     58  C   UNL A   1      49.269  30.481  26.901  1.00  0.00     0.031 C 
ATOM     59  C   UNL A   1      43.862  32.069  29.137  1.00  0.00     0.029 A 
ATOM     60  C   UNL A   1      44.902  31.336  28.589  1.00  0.00     0.049 A 
ATOM     61  H   UNL A   1      44.885  29.375  27.812  1.00  0.00     0.167 HD
ATOM     62  C   UNL A   1      47.225  30.962  27.816  1.00  0.00     0.074 A 
ATOM     63  C   UNL A   1      48.582  31.400  27.566  1.00  0.00     0.031 C 
ATOM     64  C   UNL A   1      46.271  31.737  28.389  1.00  0.00     0.034 A 
BRANCH  51  65
ATOM     65  C   UNL A   1      40.712  29.076  28.665  1.00  0.00     0.023 A 
ATOM     66  C   UNL A   1      39.759  29.312  27.654  1.00  0.00     0.012 A 
ATOM     67  C   UNL A   1      40.282  28.884  29.993  1.00  0.00     0.148 A 
ATOM     68  C   UNL A   1      38.400  29.367  27.960  1.00  0.00     0.002 A 
ATOM     69  C   UNL A   1      38.923  28.904  30.284  1.00  0.00     0.091 A 
ATOM     70  F   UNL A   1      41.209  28.682  30.941  1.00  0.00    -0.205 F 
ATOM     71  C   UNL A   1      37.982  29.152  29.272  1.00  0.00     0.022 A 
BRANCH  69  72
ATOM     72  S   UNL A   1      38.278  28.569  31.927  1.00  0.00     0.127 S 
ATOM     73  O   UNL A   1      38.529  27.136  32.058  1.00  0.00    -0.237 OA
ATOM     74  O   UNL A   1      39.124  29.417  32.768  1.00  0.00    -0.237 OA
ATOM     75  O   UNL A   1      36.873  28.955  31.895  1.00  0.00    -0.744 OA
ENDBRANCH  69  72
ENDBRANCH  51  65
BRANCH  52  76
ATOM     76  C   UNL A   1      50.197  27.946  25.760  1.00  0.00     0.023 A 
ATOM     77  C   UNL A   1      50.505  28.144  24.400  1.00  0.00     0.012 A 
ATOM     78  C   UNL A   1      51.233  27.617  26.655  1.00  0.00     0.148 A 
ATOM     79  C   UNL A   1      51.810  27.982  23.935  1.00  0.00     0.002 A 
ATOM     80  C   UNL A   1      52.541  27.514  26.194  1.00  0.00     0.091 A 
ATOM     81  F   UNL A   1      50.922  27.404  27.942  1.00  0.00    -0.205 F 
ATOM     82  C   UNL A   1      52.830  27.679  24.832  1.00  0.00     0.022 A 
BRANCH  80  83
ATOM     83  S   UNL A   1      53.917  27.260  27.321  1.00  0.00     0.127 S 
ATOM     84  O   UNL A   1      53.571  25.981  27.935  1.00  0.00    -0.237 OA
ATOM     85  O   UNL A   1      55.062  27.215  26.411  1.00  0.00    -0.237 OA
ATOM     86  O   UNL A   1      53.904  28.421  28.201  1.00  0.00    -0.744 OA
ENDBRANCH  80  83
ENDBRANCH  52  76
BRANCH  64  87
ATOM     87  C   UNL A   1      46.664  33.129  28.807  1.00  0.00     0.023 A 
ATOM     88  C   UNL A   1      47.254  33.333  30.072  1.00  0.00     0.012 A 
ATOM     89  C   UNL A   1      46.503  34.223  27.936  1.00  0.00     0.148 A 
ATOM     90  C   UNL A   1      47.641  34.610  30.477  1.00  0.00     0.002 A 
ATOM     91  C   UNL A   1      46.932  35.487  28.329  1.00  0.00     0.091 A 
ATOM     92  F   UNL A   1      45.921  34.017  26.746  1.00  0.00    -0.205 F 
ATOM     93  C   UNL A   1      47.490  35.684  29.602  1.00  0.00     0.022 A 
BRANCH  91  94
ATOM     94  S   UNL A   1      46.855  36.900  27.223  1.00  0.00     0.127 S 
ATOM     95  O   UNL A   1      47.657  36.440  26.091  1.00  0.00    -0.237 OA
ATOM     96  O   UNL A   1      45.421  37.012  26.948  1.00  0.00    -0.237 OA
ATOM     97  O   UNL A   1      47.406  38.017  27.979  1.00  0.00    -0.744 OA
ENDBRANCH  91  94
ENDBRANCH  64  87
ENDBRANCH  38  39
ENDBRANCH  31  33
ENDBRANCH  30  31
ENDBRANCH  29  30
ENDBRANCH   1  29
TORSDOF 20
ENDMDL
MODEL 3
REMARK VINA RESULT:      -9.9      7.120     12.882
REMARK SMILES COc1ccc(-c2nc(NCC(=O)OCCOC(=O)c3ccc(-c4c5nc(c(-c6cccc(S(=O)(=O)[O-])c6F)c6ccc([nH]6)c(-c6cccc(S(=O)(=O)[O-])c6F)c6nc(c(-c7cccc(S(=O)(=O)[O-])c7F)c7ccc4[nH]7)C=C6)C=C5)cc3)sc2-c2ccc(OC)cc2)cc1
REMARK SMILES IDX 15 1 14 2 12 3 13 4 11 5 10 6 9 8 7 9 8 10 84 11 83 12 6 13
REMARK SMILES IDX 3 14 4 15 94 16 5 17 93 18 2 19 1 20 85 21 86 22 92 23 87 24
REMARK SMILES IDX 91 25 88 26 89 27 90 28 16 29 17 30 18 31 19 32 20 33 21 34
REMARK SMILES IDX 82 35 22 36 81 37 23 38 24 39 25 40 75 41 26 42 80 43 74 44
REMARK SMILES IDX 76 45 27 46 79 47 73 48 72 49 28 51 60 52 40 53 59 54 41 55
REMARK SMILES IDX 44 56 58 57 77 58 42 59 43 60 57 62 78 63 45 64 29 65 30 66
REMARK SMILES IDX 38 67 31 68 33 69 39 70 32 71 34 72 35 73 36 74 37 75 61 76
REMARK SMILES IDX 62 77 70 78 63 79 65 80 71 81 64 82 66 83 67 84 68 85 69 86
REMARK SMILES IDX 46 87 47 88 55 89 48 90 50 91 56 92 49 93 51 94 52 95 53 96
REMARK SMILES IDX 54 97
REMARK H PARENT 10 7 76 50 44 61
REMARK Flexibility Score: inf
ROOT
ATOM      1  C   UNL A   1      33.830  33.853  29.017  1.00  0.00     0.274 C 
ENDROOT
BRANCH   1   2
ATOM      2  O   UNL A   1      34.550  32.654  29.349  1.00  0.00    -0.461 OA
BRANCH   2   3
ATOM      3  C   UNL A   1      35.488  32.252  28.447  1.00  0.00     0.325 C 
ATOM      4  O   UNL A   1      36.572  32.798  28.278  1.00  0.00    -0.250 OA
BRANCH   3   5
ATOM      5  C   UNL A   1      35.021  31.066  27.615  1.00  0.00     0.238 C 
BRANCH   5   6
ATOM      6  N   UNL A   1      33.646  30.664  27.892  1.00  0.00    -0.351 N 
ATOM      7  H   UNL A   1      33.246  30.947  28.746  1.00  0.00     0.163 HD
BRANCH   6   8
ATOM      8  C   UNL A   1      32.889  29.927  27.052  1.00  0.00     0.184 A 
ATOM      9  C   UNL A   1      31.589  29.456  25.308  1.00  0.00     0.091 A 
ATOM     10  N   UNL A   1      32.214  30.450  26.050  1.00  0.00    -0.220 NA
ATOM     11  C   UNL A   1      31.872  28.160  25.712  1.00  0.00     0.064 A 
ATOM     12  S   UNL A   1      32.753  28.212  27.171  1.00  0.00    -0.096 S 
BRANCH   9  13
ATOM     13  C   UNL A   1      30.783  29.755  24.131  1.00  0.00     0.002 A 
ATOM     14  C   UNL A   1      29.028  30.110  21.967  1.00  0.00     0.118 A 
ATOM     15  C   UNL A   1      28.872  30.870  23.125  1.00  0.00     0.047 A 
ATOM     16  C   UNL A   1      30.105  29.228  21.859  1.00  0.00     0.047 A 
ATOM     17  C   UNL A   1      29.740  30.690  24.204  1.00  0.00     0.014 A 
ATOM     18  C   UNL A   1      30.984  29.054  22.937  1.00  0.00     0.014 A 
BRANCH  14  19
ATOM     19  O   UNL A   1      28.101  30.329  20.986  1.00  0.00    -0.497 OA
ATOM     20  C   UNL A   1      27.961  31.693  20.603  1.00  0.00     0.278 C 
ENDBRANCH  14  19
ENDBRANCH   9  13
BRANCH  11  21
ATOM     21  C   UNL A   1      31.624  26.867  25.078  1.00  0.00    -0.006 A 
ATOM     22  C   UNL A   1      32.594  26.238  24.292  1.00  0.00     0.013 A 
ATOM     23  C   UNL A   1      30.368  26.263  25.219  1.00  0.00     0.013 A 
ATOM     24  C   UNL A   1      32.302  25.031  23.652  1.00  0.00     0.047 A 
ATOM     25  C   UNL A   1      30.080  25.054  24.582  1.00  0.00     0.047 A 
ATOM     26  C   UNL A   1      31.048  24.433  23.793  1.00  0.00     0.118 A 
BRANCH  26  27
ATOM     27  O   UNL A   1      30.889  23.259  23.110  1.00  0.00    -0.497 OA
ATOM     28  C   UNL A   1      31.995  22.368  23.116  1.00  0.00     0.278 C 
ENDBRANCH  26  27
ENDBRANCH  11  21
ENDBRANCH   6   8
ENDBRANCH   5   6
ENDBRANCH   3   5
ENDBRANCH   2   3
ENDBRANCH   1   2
BRANCH   1  29
ATOM     29  C   UNL A   1      34.235  35.018  29.927  1.00  0.00     0.275 C 
BRANCH  29  30
ATOM     30  O   UNL A   1      33.103  35.639  30.563  1.00  0.00    -0.458 OA
BRANCH  30  31
ATOM     31  C   UNL A   1      33.075  35.538  31.915  1.00  0.00     0.338 C 
ATOM     32  O   UNL A   1      32.168  35.894  32.652  1.00  0.00    -0.246 OA
BRANCH  31  33
ATOM     33  C   UNL A   1      34.239  34.774  32.404  1.00  0.00     0.060 A 
ATOM     34  C   UNL A   1      35.488  35.399  32.343  1.00  0.00     0.016 A 
ATOM     35  C   UNL A   1      34.134  33.454  32.851  1.00  0.00     0.016 A 
ATOM     36  C   UNL A   1      36.638  34.708  32.714  1.00  0.00     0.010 A 
ATOM     37  C   UNL A   1      35.293  32.757  33.219  1.00  0.00     0.010 A 
ATOM     38  C   UNL A   1      36.553  33.374  33.136  1.00  0.00    -0.014 A 
BRANCH  38  39
ATOM     39  C   UNL A   1      37.805  32.638  33.436  1.00  0.00     0.031 A 
ATOM     40  C   UNL A   1      38.591  32.962  34.676  1.00  0.00     0.074 A 
ATOM     41  C   UNL A   1      38.210  31.648  32.618  1.00  0.00     0.049 A 
ATOM     42  N   UNL A   1      39.673  32.391  35.138  1.00  0.00    -0.248 NA
ATOM     43  C   UNL A   1      38.098  34.074  35.506  1.00  0.00     0.031 C 
ATOM     44  C   UNL A   1      37.540  31.252  31.379  1.00  0.00     0.029 A 
ATOM     45  N   UNL A   1      39.287  30.803  32.701  1.00  0.00    -0.354 N 
ATOM     46  C   UNL A   1      40.012  33.089  36.290  1.00  0.00     0.074 A 
ATOM     47  C   UNL A   1      39.020  34.130  36.459  1.00  0.00     0.031 C 
ATOM     48  C   UNL A   1      38.225  30.243  30.814  1.00  0.00     0.029 A 
ATOM     49  C   UNL A   1      39.390  29.934  31.640  1.00  0.00     0.049 A 
ATOM     50  H   UNL A   1      39.926  30.815  33.451  1.00  0.00     0.167 HD
ATOM     51  C   UNL A   1      41.044  32.872  37.139  1.00  0.00     0.034 A 
ATOM     52  C   UNL A   1      40.321  28.999  31.362  1.00  0.00     0.034 A 
ATOM     53  C   UNL A   1      42.001  31.807  36.996  1.00  0.00     0.049 A 
ATOM     54  C   UNL A   1      41.438  28.763  32.345  1.00  0.00     0.074 A 
ATOM     55  C   UNL A   1      43.043  31.471  37.843  1.00  0.00     0.029 A 
ATOM     56  N   UNL A   1      42.038  30.910  35.942  1.00  0.00    -0.354 N 
ATOM     57  N   UNL A   1      41.656  29.339  33.502  1.00  0.00    -0.248 NA
ATOM     58  C   UNL A   1      42.414  27.719  32.001  1.00  0.00     0.031 C 
ATOM     59  C   UNL A   1      43.720  30.377  37.292  1.00  0.00     0.029 A 
ATOM     60  C   UNL A   1      43.089  30.025  36.110  1.00  0.00     0.049 A 
ATOM     61  H   UNL A   1      41.409  30.903  35.184  1.00  0.00     0.167 HD
ATOM     62  C   UNL A   1      42.775  28.709  34.036  1.00  0.00     0.074 A 
ATOM     63  C   UNL A   1      43.169  27.685  33.091  1.00  0.00     0.031 C 
ATOM     64  C   UNL A   1      43.434  28.971  35.192  1.00  0.00     0.034 A 
BRANCH  51  65
ATOM     65  C   UNL A   1      41.183  33.781  38.331  1.00  0.00     0.023 A 
ATOM     66  C   UNL A   1      40.463  33.497  39.508  1.00  0.00     0.012 A 
ATOM     67  C   UNL A   1      42.093  34.856  38.315  1.00  0.00     0.148 A 
ATOM     68  C   UNL A   1      40.637  34.278  40.649  1.00  0.00     0.002 A 
ATOM     69  C   UNL A   1      42.288  35.607  39.468  1.00  0.00     0.091 A 
ATOM     70  F   UNL A   1      42.751  35.119  37.177  1.00  0.00    -0.205 F 
ATOM     71  C   UNL A   1      41.556  35.324  40.633  1.00  0.00     0.022 A 
BRANCH  69  72
ATOM     72  S   UNL A   1      43.499  36.930  39.572  1.00  0.00     0.127 S 
ATOM     73  O   UNL A   1      42.941  37.915  38.647  1.00  0.00    -0.237 OA
ATOM     74  O   UNL A   1      43.422  37.307  40.984  1.00  0.00    -0.237 OA
ATOM     75  O   UNL A   1      44.771  36.347  39.167  1.00  0.00    -0.744 OA
ENDBRANCH  69  72
ENDBRANCH  51  65
BRANCH  52  76
ATOM     76  C   UNL A   1      40.214  28.181  30.121  1.00  0.00     0.023 A 
ATOM     77  C   UNL A   1      39.248  27.160  30.040  1.00  0.00     0.012 A 
ATOM     78  C   UNL A   1      41.064  28.408  29.022  1.00  0.00     0.148 A 
ATOM     79  C   UNL A   1      39.155  26.357  28.903  1.00  0.00     0.002 A 
ATOM     80  C   UNL A   1      40.926  27.642  27.870  1.00  0.00     0.091 A 
ATOM     81  F   UNL A   1      41.997  29.366  29.122  1.00  0.00    -0.205 F 
ATOM     82  C   UNL A   1      39.985  26.605  27.814  1.00  0.00     0.022 A 
BRANCH  80  83
ATOM     83  S   UNL A   1      41.873  28.000  26.385  1.00  0.00     0.127 S 
ATOM     84  O   UNL A   1      43.245  27.862  26.861  1.00  0.00    -0.237 OA
ATOM     85  O   UNL A   1      41.430  26.946  25.471  1.00  0.00    -0.237 OA
ATOM     86  O   UNL A   1      41.460  29.340  25.988  1.00  0.00    -0.744 OA
ENDBRANCH  80  83
ENDBRANCH  52  76
BRANCH  64  87
ATOM     87  C   UNL A   1      44.635  28.122  35.514  1.00  0.00     0.023 A 
ATOM     88  C   UNL A   1      45.921  28.568  35.145  1.00  0.00     0.012 A 
ATOM     89  C   UNL A   1      44.501  26.914  36.225  1.00  0.00     0.148 A 
ATOM     90  C   UNL A   1      47.050  27.806  35.446  1.00  0.00     0.002 A 
ATOM     91  C   UNL A   1      45.635  26.181  36.561  1.00  0.00     0.091 A 
ATOM     92  F   UNL A   1      43.271  26.492  36.550  1.00  0.00    -0.205 F 
ATOM     93  C   UNL A   1      46.908  26.619  36.162  1.00  0.00     0.022 A 
BRANCH  91  94
ATOM     94  S   UNL A   1      45.540  24.692  37.561  1.00  0.00     0.127 S 
ATOM     95  O   UNL A   1      44.791  23.791  36.688  1.00  0.00    -0.237 OA
ATOM     96  O   UNL A   1      46.949  24.337  37.738  1.00  0.00    -0.237 OA
ATOM     97  O   UNL A   1      44.866  25.091  38.791  1.00  0.00    -0.744 OA
ENDBRANCH  91  94
ENDBRANCH  64  87
ENDBRANCH  38  39
ENDBRANCH  31  33
ENDBRANCH  30  31
ENDBRANCH  29  30
ENDBRANCH   1  29
TORSDOF 20
ENDMDL
