MODEL 1
REMARK VINA RESULT:      -8.0      0.000      0.000
REMARK SMILES CC/C=C/C/C=C/C/C=C/C/C=C/CC/C=C/COCC(=O)OCCOC(=O)c1ccc(-c2c3nc(c(-c4cccc(S(=O)(=O)[O-])c4F)c4ccc([nH]4)c(-c4cccc(S(=O)(=O)[O-])c4F)c4nc(c(-c5cccc(S(=O)(=O)[O-])c5F)c5ccc2[nH]5)C=C4)C=C3)cc1
REMARK SMILES IDX 18 1 17 2 16 3 15 4 14 5 13 6 12 7 11 8 10 9 9 10 8 11 7 12
REMARK SMILES IDX 6 13 5 14 4 15 3 16 2 17 1 18 19 19 20 20 21 21 22 22 23 23
REMARK SMILES IDX 24 24 25 25 26 26 27 27 28 28 29 29 30 30 91 31 31 32 90 33
REMARK SMILES IDX 32 34 33 35 34 36 84 37 35 38 89 39 83 40 85 41 36 42 88 43
REMARK SMILES IDX 82 44 81 45 37 47 69 48 49 49 68 50 50 51 53 52 67 53 86 54
REMARK SMILES IDX 51 55 52 56 66 58 87 59 54 60 38 61 39 62 47 63 40 64 42 65
REMARK SMILES IDX 48 66 41 67 43 68 44 69 45 70 46 71 70 72 71 73 79 74 72 75
REMARK SMILES IDX 74 76 80 77 73 78 75 79 76 80 77 81 78 82 55 83 56 84 64 85
REMARK SMILES IDX 57 86 59 87 65 88 58 89 60 90 61 91 62 92 63 93
REMARK H PARENT 85 46 53 57
REMARK Flexibility Score: inf
ROOT
ATOM      1  C   UNL A   1      45.327  45.051  23.871  1.00  0.00     0.188 C 
ENDROOT
BRANCH   1   2
ATOM      2  C   UNL A   1      44.243  44.564  22.948  1.00  0.00    -0.003 C 
ATOM      3  C   UNL A   1      43.028  44.312  23.447  1.00  0.00    -0.029 C 
BRANCH   3   4
ATOM      4  C   UNL A   1      41.999  43.336  22.932  1.00  0.00     0.031 C 
BRANCH   4   5
ATOM      5  C   UNL A   1      42.325  42.574  21.553  1.00  0.00     0.031 C 
BRANCH   5   6
ATOM      6  C   UNL A   1      42.022  42.903  20.031  1.00  0.00    -0.031 C 
ATOM      7  C   UNL A   1      42.037  44.069  19.325  1.00  0.00    -0.027 C 
BRANCH   7   8
ATOM      8  C   UNL A   1      41.923  44.461  17.854  1.00  0.00     0.054 C 
BRANCH   8   9
ATOM      9  C   UNL A   1      41.832  45.978  17.589  1.00  0.00    -0.027 C 
ATOM     10  C   UNL A   1      42.133  46.686  16.468  1.00  0.00    -0.027 C 
BRANCH  10  11
ATOM     11  C   UNL A   1      41.880  48.188  16.298  1.00  0.00     0.054 C 
BRANCH  11  12
ATOM     12  C   UNL A   1      42.317  49.084  17.448  1.00  0.00    -0.027 C 
ATOM     13  C   UNL A   1      43.443  48.901  18.175  1.00  0.00    -0.027 C 
BRANCH  13  14
ATOM     14  C   UNL A   1      43.971  49.820  19.258  1.00  0.00     0.054 C 
BRANCH  14  15
ATOM     15  C   UNL A   1      45.193  49.251  19.936  1.00  0.00    -0.027 C 
ATOM     16  C   UNL A   1      45.379  47.965  20.288  1.00  0.00    -0.031 C 
BRANCH  16  17
ATOM     17  C   UNL A   1      46.650  47.455  20.918  1.00  0.00     0.023 C 
ATOM     18  C   UNL A   1      46.857  45.966  20.680  1.00  0.00     0.008 C 
ENDBRANCH  16  17
ENDBRANCH  14  15
ENDBRANCH  13  14
ENDBRANCH  11  12
ENDBRANCH  10  11
ENDBRANCH   8   9
ENDBRANCH   7   8
ENDBRANCH   5   6
ENDBRANCH   4   5
ENDBRANCH   3   4
ENDBRANCH   1   2
BRANCH   1  19
ATOM     19  O   UNL A   1      46.408  44.111  23.924  1.00  0.00    -0.366 OA
BRANCH  19  20
ATOM     20  C   UNL A   1      46.273  43.034  24.839  1.00  0.00     0.283 C 
BRANCH  20  21
ATOM     21  C   UNL A   1      45.952  41.594  24.429  1.00  0.00     0.332 C 
ATOM     22  O   UNL A   1      46.821  40.823  24.035  1.00  0.00    -0.250 OA
BRANCH  21  23
ATOM     23  O   UNL A   1      44.661  41.250  24.677  1.00  0.00    -0.460 OA
BRANCH  23  24
ATOM     24  C   UNL A   1      44.377  40.831  26.031  1.00  0.00     0.274 C 
BRANCH  24  25
ATOM     25  C   UNL A   1      44.907  39.413  26.264  1.00  0.00     0.275 C 
BRANCH  25  26
ATOM     26  O   UNL A   1      43.886  38.636  26.923  1.00  0.00    -0.458 OA
BRANCH  26  27
ATOM     27  C   UNL A   1      43.989  38.430  28.261  1.00  0.00     0.338 C 
ATOM     28  O   UNL A   1      44.212  39.305  29.104  1.00  0.00    -0.246 OA
BRANCH  27  29
ATOM     29  C   UNL A   1      43.787  36.981  28.562  1.00  0.00     0.060 A 
ATOM     30  C   UNL A   1      44.887  36.222  28.900  1.00  0.00     0.016 A 
ATOM     31  C   UNL A   1      42.561  36.311  28.544  1.00  0.00     0.016 A 
ATOM     32  C   UNL A   1      44.760  34.874  29.296  1.00  0.00     0.010 A 
ATOM     33  C   UNL A   1      42.458  34.950  29.003  1.00  0.00     0.010 A 
ATOM     34  C   UNL A   1      43.572  34.210  29.462  1.00  0.00    -0.014 A 
BRANCH  34  35
ATOM     35  C   UNL A   1      43.575  32.760  29.961  1.00  0.00     0.031 A 
ATOM     36  C   UNL A   1      43.092  32.551  31.357  1.00  0.00     0.074 A 
ATOM     37  C   UNL A   1      43.718  31.571  29.295  1.00  0.00     0.049 A 
ATOM     38  N   UNL A   1      43.176  31.489  32.107  1.00  0.00    -0.248 NA
ATOM     39  C   UNL A   1      42.319  33.659  31.934  1.00  0.00     0.031 C 
ATOM     40  C   UNL A   1      43.607  31.316  27.875  1.00  0.00     0.029 A 
ATOM     41  N   UNL A   1      44.032  30.293  29.749  1.00  0.00    -0.354 N 
ATOM     42  C   UNL A   1      42.502  31.809  33.264  1.00  0.00     0.074 A 
ATOM     43  C   UNL A   1      42.027  33.171  33.126  1.00  0.00     0.031 C 
ATOM     44  C   UNL A   1      44.105  30.124  27.527  1.00  0.00     0.029 A 
ATOM     45  C   UNL A   1      44.433  29.419  28.742  1.00  0.00     0.049 A 
ATOM     46  H   UNL A   1      43.975  30.029  30.696  1.00  0.00     0.167 HD
ATOM     47  C   UNL A   1      42.273  31.034  34.342  1.00  0.00     0.034 A 
ATOM     48  C   UNL A   1      44.958  28.175  28.737  1.00  0.00     0.034 A 
ATOM     49  C   UNL A   1      42.662  29.663  34.491  1.00  0.00     0.049 A 
ATOM     50  C   UNL A   1      44.968  27.416  30.023  1.00  0.00     0.074 A 
ATOM     51  C   UNL A   1      42.529  28.865  35.611  1.00  0.00     0.029 A 
ATOM     52  N   UNL A   1      43.244  28.881  33.508  1.00  0.00    -0.354 N 
ATOM     53  N   UNL A   1      44.433  27.769  31.160  1.00  0.00    -0.248 NA
ATOM     54  C   UNL A   1      45.553  26.069  30.016  1.00  0.00     0.031 C 
ATOM     55  C   UNL A   1      43.060  27.605  35.320  1.00  0.00     0.029 A 
ATOM     56  C   UNL A   1      43.506  27.613  34.009  1.00  0.00     0.049 A 
ATOM     57  H   UNL A   1      43.442  29.178  32.591  1.00  0.00     0.167 HD
ATOM     58  C   UNL A   1      44.555  26.670  31.990  1.00  0.00     0.074 A 
ATOM     59  C   UNL A   1      45.219  25.633  31.226  1.00  0.00     0.031 C 
ATOM     60  C   UNL A   1      44.137  26.551  33.270  1.00  0.00     0.034 A 
BRANCH  47  61
ATOM     61  C   UNL A   1      41.628  31.733  35.490  1.00  0.00     0.023 A 
ATOM     62  C   UNL A   1      42.392  32.510  36.379  1.00  0.00     0.012 A 
ATOM     63  C   UNL A   1      40.254  31.540  35.710  1.00  0.00     0.148 A 
ATOM     64  C   UNL A   1      41.789  33.071  37.501  1.00  0.00     0.002 A 
ATOM     65  C   UNL A   1      39.654  32.138  36.802  1.00  0.00     0.091 A 
ATOM     66  F   UNL A   1      39.579  30.738  34.875  1.00  0.00    -0.205 F 
ATOM     67  C   UNL A   1      40.420  32.895  37.705  1.00  0.00     0.022 A 
BRANCH  65  68
ATOM     68  S   UNL A   1      37.894  32.002  37.101  1.00  0.00     0.127 S 
ATOM     69  O   UNL A   1      37.709  32.950  38.199  1.00  0.00    -0.237 OA
ATOM     70  O   UNL A   1      37.333  32.430  35.820  1.00  0.00    -0.237 OA
ATOM     71  O   UNL A   1      37.651  30.605  37.432  1.00  0.00    -0.744 OA
ENDBRANCH  65  68
ENDBRANCH  47  61
BRANCH  48  72
ATOM     72  C   UNL A   1      45.426  27.520  27.471  1.00  0.00     0.023 A 
ATOM     73  C   UNL A   1      44.518  26.795  26.673  1.00  0.00     0.012 A 
ATOM     74  C   UNL A   1      46.780  27.576  27.078  1.00  0.00     0.148 A 
ATOM     75  C   UNL A   1      44.952  26.115  25.531  1.00  0.00     0.002 A 
ATOM     76  C   UNL A   1      47.200  26.924  25.918  1.00  0.00     0.091 A 
ATOM     77  F   UNL A   1      47.642  28.241  27.861  1.00  0.00    -0.205 F 
ATOM     78  C   UNL A   1      46.289  26.184  25.151  1.00  0.00     0.022 A 
BRANCH  76  79
ATOM     79  S   UNL A   1      48.889  27.019  25.307  1.00  0.00     0.127 S 
ATOM     80  O   UNL A   1      49.605  26.188  26.272  1.00  0.00    -0.237 OA
ATOM     81  O   UNL A   1      48.764  26.437  23.971  1.00  0.00    -0.237 OA
ATOM     82  O   UNL A   1      49.229  28.436  25.316  1.00  0.00    -0.744 OA
ENDBRANCH  76  79
ENDBRANCH  48  72
BRANCH  60  83
ATOM     83  C   UNL A   1      44.375  25.238  33.957  1.00  0.00     0.023 A 
ATOM     84  C   UNL A   1      43.330  24.297  34.038  1.00  0.00     0.012 A 
ATOM     85  C   UNL A   1      45.645  24.911  34.470  1.00  0.00     0.148 A 
ATOM     86  C   UNL A   1      43.535  23.062  34.648  1.00  0.00     0.002 A 
ATOM     87  C   UNL A   1      45.856  23.658  35.034  1.00  0.00     0.091 A 
ATOM     88  F   UNL A   1      46.618  25.830  34.404  1.00  0.00    -0.205 F 
ATOM     89  C   UNL A   1      44.800  22.737  35.134  1.00  0.00     0.022 A 
BRANCH  87  90
ATOM     90  S   UNL A   1      47.469  23.118  35.606  1.00  0.00     0.127 S 
ATOM     91  O   UNL A   1      48.360  23.770  34.649  1.00  0.00    -0.237 OA
ATOM     92  O   UNL A   1      47.518  23.670  36.960  1.00  0.00    -0.237 OA
ATOM     93  O   UNL A   1      47.450  21.662  35.548  1.00  0.00    -0.744 OA
ENDBRANCH  87  90
ENDBRANCH  60  83
ENDBRANCH  34  35
ENDBRANCH  27  29
ENDBRANCH  26  27
ENDBRANCH  25  26
ENDBRANCH  24  25
ENDBRANCH  23  24
ENDBRANCH  21  23
ENDBRANCH  20  21
ENDBRANCH  19  20
ENDBRANCH   1  19
TORSDOF 27
ENDMDL
MODEL 2
REMARK VINA RESULT:      -7.8     10.624     19.889
REMARK SMILES CC/C=C/C/C=C/C/C=C/C/C=C/CC/C=C/COCC(=O)OCCOC(=O)c1ccc(-c2c3nc(c(-c4cccc(S(=O)(=O)[O-])c4F)c4ccc([nH]4)c(-c4cccc(S(=O)(=O)[O-])c4F)c4nc(c(-c5cccc(S(=O)(=O)[O-])c5F)c5ccc2[nH]5)C=C4)C=C3)cc1
REMARK SMILES IDX 18 1 17 2 16 3 15 4 14 5 13 6 12 7 11 8 10 9 9 10 8 11 7 12
REMARK SMILES IDX 6 13 5 14 4 15 3 16 2 17 1 18 19 19 20 20 21 21 22 22 23 23
REMARK SMILES IDX 24 24 25 25 26 26 27 27 28 28 29 29 30 30 91 31 31 32 90 33
REMARK SMILES IDX 32 34 33 35 34 36 84 37 35 38 89 39 83 40 85 41 36 42 88 43
REMARK SMILES IDX 82 44 81 45 37 47 69 48 49 49 68 50 50 51 53 52 67 53 86 54
REMARK SMILES IDX 51 55 52 56 66 58 87 59 54 60 38 61 39 62 47 63 40 64 42 65
REMARK SMILES IDX 48 66 41 67 43 68 44 69 45 70 46 71 70 72 71 73 79 74 72 75
REMARK SMILES IDX 74 76 80 77 73 78 75 79 76 80 77 81 78 82 55 83 56 84 64 85
REMARK SMILES IDX 57 86 59 87 65 88 58 89 60 90 61 91 62 92 63 93
REMARK H PARENT 85 46 53 57
REMARK Flexibility Score: inf
ROOT
ATOM      1  C   UNL A   1      50.061  19.782  35.319  1.00  0.00     0.188 C 
ENDROOT
BRANCH   1   2
ATOM      2  C   UNL A   1      50.013  20.187  36.768  1.00  0.00    -0.003 C 
ATOM      3  C   UNL A   1      50.280  19.274  37.708  1.00  0.00    -0.029 C 
BRANCH   3   4
ATOM      4  C   UNL A   1      49.776  19.232  39.130  1.00  0.00     0.031 C 
BRANCH   4   5
ATOM      5  C   UNL A   1      48.241  18.808  39.360  1.00  0.00     0.031 C 
BRANCH   5   6
ATOM      6  C   UNL A   1      47.328  18.690  40.653  1.00  0.00    -0.031 C 
ATOM      7  C   UNL A   1      45.997  18.446  40.816  1.00  0.00    -0.027 C 
BRANCH   7   8
ATOM      8  C   UNL A   1      45.073  18.157  41.996  1.00  0.00     0.054 C 
BRANCH   8   9
ATOM      9  C   UNL A   1      43.988  17.093  41.728  1.00  0.00    -0.027 C 
ATOM     10  C   UNL A   1      43.804  15.874  42.300  1.00  0.00    -0.027 C 
BRANCH  10  11
ATOM     11  C   UNL A   1      42.605  14.960  42.025  1.00  0.00     0.054 C 
BRANCH  11  12
ATOM     12  C   UNL A   1      42.520  13.685  42.852  1.00  0.00    -0.027 C 
ATOM     13  C   UNL A   1      41.812  12.588  42.496  1.00  0.00    -0.027 C 
BRANCH  13  14
ATOM     14  C   UNL A   1      41.779  11.264  43.232  1.00  0.00     0.054 C 
BRANCH  14  15
ATOM     15  C   UNL A   1      42.953  11.109  44.168  1.00  0.00    -0.027 C 
ATOM     16  C   UNL A   1      44.139  10.547  43.866  1.00  0.00    -0.031 C 
BRANCH  16  17
ATOM     17  C   UNL A   1      45.289  10.471  44.838  1.00  0.00     0.023 C 
ATOM     18  C   UNL A   1      44.820  10.376  46.282  1.00  0.00     0.008 C 
ENDBRANCH  16  17
ENDBRANCH  14  15
ENDBRANCH  13  14
ENDBRANCH  11  12
ENDBRANCH  10  11
ENDBRANCH   8   9
ENDBRANCH   7   8
ENDBRANCH   5   6
ENDBRANCH   4   5
ENDBRANCH   3   4
ENDBRANCH   1   2
BRANCH   1  19
ATOM     19  O   UNL A   1      51.344  19.237  34.987  1.00  0.00    -0.366 OA
BRANCH  19  20
ATOM     20  C   UNL A   1      52.479  20.007  35.353  1.00  0.00     0.283 C 
BRANCH  20  21
ATOM     21  C   UNL A   1      53.927  19.579  35.100  1.00  0.00     0.332 C 
ATOM     22  O   UNL A   1      54.201  18.552  34.487  1.00  0.00    -0.250 OA
BRANCH  21  23
ATOM     23  O   UNL A   1      54.831  20.508  35.504  1.00  0.00    -0.460 OA
BRANCH  23  24
ATOM     24  C   UNL A   1      54.283  21.802  35.846  1.00  0.00     0.274 C 
BRANCH  24  25
ATOM     25  C   UNL A   1      55.161  22.914  35.266  1.00  0.00     0.275 C 
BRANCH  25  26
ATOM     26  O   UNL A   1      54.351  23.757  34.423  1.00  0.00    -0.458 OA
BRANCH  26  27
ATOM     27  C   UNL A   1      53.668  23.187  33.397  1.00  0.00     0.338 C 
ATOM     28  O   UNL A   1      54.113  22.323  32.634  1.00  0.00    -0.246 OA
BRANCH  27  29
ATOM     29  C   UNL A   1      52.290  23.761  33.330  1.00  0.00     0.060 A 
ATOM     30  C   UNL A   1      52.115  24.970  32.692  1.00  0.00     0.016 A 
ATOM     31  C   UNL A   1      51.139  23.170  33.856  1.00  0.00     0.016 A 
ATOM     32  C   UNL A   1      50.830  25.523  32.501  1.00  0.00     0.010 A 
ATOM     33  C   UNL A   1      49.839  23.734  33.599  1.00  0.00     0.010 A 
ATOM     34  C   UNL A   1      49.651  24.913  32.842  1.00  0.00    -0.014 A 
BRANCH  34  35
ATOM     35  C   UNL A   1      48.319  25.600  32.517  1.00  0.00     0.031 A 
ATOM     36  C   UNL A   1      47.708  26.392  33.623  1.00  0.00     0.074 A 
ATOM     37  C   UNL A   1      47.681  25.826  31.325  1.00  0.00     0.049 A 
ATOM     38  N   UNL A   1      46.510  26.899  33.710  1.00  0.00    -0.248 NA
ATOM     39  C   UNL A   1      48.612  26.743  34.727  1.00  0.00     0.031 C 
ATOM     40  C   UNL A   1      48.223  25.747  29.985  1.00  0.00     0.029 A 
ATOM     41  N   UNL A   1      46.361  26.158  31.035  1.00  0.00    -0.354 N 
ATOM     42  C   UNL A   1      46.499  27.598  34.896  1.00  0.00     0.074 A 
ATOM     43  C   UNL A   1      47.803  27.439  35.506  1.00  0.00     0.031 C 
ATOM     44  C   UNL A   1      47.270  25.721  29.047  1.00  0.00     0.029 A 
ATOM     45  C   UNL A   1      46.007  25.957  29.703  1.00  0.00     0.049 A 
ATOM     46  H   UNL A   1      45.732  26.503  31.710  1.00  0.00     0.167 HD
ATOM     47  C   UNL A   1      45.501  28.332  35.425  1.00  0.00     0.034 A 
ATOM     48  C   UNL A   1      44.838  25.996  29.029  1.00  0.00     0.034 A 
ATOM     49  C   UNL A   1      44.223  28.575  34.823  1.00  0.00     0.049 A 
ATOM     50  C   UNL A   1      43.645  26.552  29.734  1.00  0.00     0.074 A 
ATOM     51  C   UNL A   1      43.144  29.241  35.372  1.00  0.00     0.029 A 
ATOM     52  N   UNL A   1      43.846  28.181  33.550  1.00  0.00    -0.354 N 
ATOM     53  N   UNL A   1      43.604  27.110  30.914  1.00  0.00    -0.248 NA
ATOM     54  C   UNL A   1      42.371  26.579  29.002  1.00  0.00     0.031 C 
ATOM     55  C   UNL A   1      42.098  29.224  34.445  1.00  0.00     0.029 A 
ATOM     56  C   UNL A   1      42.534  28.564  33.310  1.00  0.00     0.049 A 
ATOM     57  H   UNL A   1      44.421  27.702  32.913  1.00  0.00     0.167 HD
ATOM     58  C   UNL A   1      42.323  27.613  31.047  1.00  0.00     0.074 A 
ATOM     59  C   UNL A   1      41.613  27.294  29.825  1.00  0.00     0.031 C 
ATOM     60  C   UNL A   1      41.806  28.288  32.098  1.00  0.00     0.034 A 
BRANCH  47  61
ATOM     61  C   UNL A   1      45.765  28.849  36.798  1.00  0.00     0.023 A 
ATOM     62  C   UNL A   1      45.438  28.081  37.930  1.00  0.00     0.012 A 
ATOM     63  C   UNL A   1      46.278  30.149  36.941  1.00  0.00     0.148 A 
ATOM     64  C   UNL A   1      45.598  28.622  39.203  1.00  0.00     0.002 A 
ATOM     65  C   UNL A   1      46.475  30.662  38.210  1.00  0.00     0.091 A 
ATOM     66  F   UNL A   1      46.512  30.870  35.836  1.00  0.00    -0.205 F 
ATOM     67  C   UNL A   1      46.127  29.906  39.342  1.00  0.00     0.022 A 
BRANCH  65  68
ATOM     68  S   UNL A   1      47.199  32.279  38.470  1.00  0.00     0.127 S 
ATOM     69  O   UNL A   1      46.179  33.154  37.894  1.00  0.00    -0.237 OA
ATOM     70  O   UNL A   1      47.304  32.335  39.928  1.00  0.00    -0.237 OA
ATOM     71  O   UNL A   1      48.477  32.261  37.771  1.00  0.00    -0.744 OA
ENDBRANCH  65  68
ENDBRANCH  47  61
BRANCH  48  72
ATOM     72  C   UNL A   1      44.744  25.596  27.587  1.00  0.00     0.023 A 
ATOM     73  C   UNL A   1      44.683  26.582  26.582  1.00  0.00     0.012 A 
ATOM     74  C   UNL A   1      44.669  24.238  27.210  1.00  0.00     0.148 A 
ATOM     75  C   UNL A   1      44.519  26.229  25.239  1.00  0.00     0.002 A 
ATOM     76  C   UNL A   1      44.540  23.891  25.865  1.00  0.00     0.091 A 
ATOM     77  F   UNL A   1      44.695  23.308  28.176  1.00  0.00    -0.205 F 
ATOM     78  C   UNL A   1      44.453  24.886  24.881  1.00  0.00     0.022 A 
BRANCH  76  79
ATOM     79  S   UNL A   1      44.524  22.183  25.299  1.00  0.00     0.127 S 
ATOM     80  O   UNL A   1      44.315  22.346  23.862  1.00  0.00    -0.237 OA
ATOM     81  O   UNL A   1      45.860  21.723  25.675  1.00  0.00    -0.237 OA
ATOM     82  O   UNL A   1      43.439  21.540  26.027  1.00  0.00    -0.744 OA
ENDBRANCH  76  79
ENDBRANCH  48  72
BRANCH  60  83
ATOM     83  C   UNL A   1      40.381  28.748  31.993  1.00  0.00     0.023 A 
ATOM     84  C   UNL A   1      39.343  27.889  32.403  1.00  0.00     0.012 A 
ATOM     85  C   UNL A   1      40.072  30.046  31.543  1.00  0.00     0.148 A 
ATOM     86  C   UNL A   1      38.015  28.303  32.339  1.00  0.00     0.002 A 
ATOM     87  C   UNL A   1      38.749  30.469  31.527  1.00  0.00     0.091 A 
ATOM     88  F   UNL A   1      41.073  30.837  31.134  1.00  0.00    -0.205 F 
ATOM     89  C   UNL A   1      37.718  29.596  31.914  1.00  0.00     0.022 A 
BRANCH  87  90
ATOM     90  S   UNL A   1      38.277  32.143  31.079  1.00  0.00     0.127 S 
ATOM     91  O   UNL A   1      36.924  31.944  30.562  1.00  0.00    -0.237 OA
ATOM     92  O   UNL A   1      38.344  32.837  32.365  1.00  0.00    -0.237 OA
ATOM     93  O   UNL A   1      39.260  32.590  30.100  1.00  0.00    -0.744 OA
ENDBRANCH  87  90
ENDBRANCH  60  83
ENDBRANCH  34  35
ENDBRANCH  27  29
ENDBRANCH  26  27
ENDBRANCH  25  26
ENDBRANCH  24  25
ENDBRANCH  23  24
ENDBRANCH  21  23
ENDBRANCH  20  21
ENDBRANCH  19  20
ENDBRANCH   1  19
TORSDOF 27
ENDMDL
MODEL 3
REMARK VINA RESULT:      -7.5      6.448     12.617
REMARK SMILES CC/C=C/C/C=C/C/C=C/C/C=C/CC/C=C/COCC(=O)OCCOC(=O)c1ccc(-c2c3nc(c(-c4cccc(S(=O)(=O)[O-])c4F)c4ccc([nH]4)c(-c4cccc(S(=O)(=O)[O-])c4F)c4nc(c(-c5cccc(S(=O)(=O)[O-])c5F)c5ccc2[nH]5)C=C4)C=C3)cc1
REMARK SMILES IDX 18 1 17 2 16 3 15 4 14 5 13 6 12 7 11 8 10 9 9 10 8 11 7 12
REMARK SMILES IDX 6 13 5 14 4 15 3 16 2 17 1 18 19 19 20 20 21 21 22 22 23 23
REMARK SMILES IDX 24 24 25 25 26 26 27 27 28 28 29 29 30 30 91 31 31 32 90 33
REMARK SMILES IDX 32 34 33 35 34 36 84 37 35 38 89 39 83 40 85 41 36 42 88 43
REMARK SMILES IDX 82 44 81 45 37 47 69 48 49 49 68 50 50 51 53 52 67 53 86 54
REMARK SMILES IDX 51 55 52 56 66 58 87 59 54 60 38 61 39 62 47 63 40 64 42 65
REMARK SMILES IDX 48 66 41 67 43 68 44 69 45 70 46 71 70 72 71 73 79 74 72 75
REMARK SMILES IDX 74 76 80 77 73 78 75 79 76 80 77 81 78 82 55 83 56 84 64 85
REMARK SMILES IDX 57 86 59 87 65 88 58 89 60 90 61 91 62 92 63 93
REMARK H PARENT 85 46 53 57
REMARK Flexibility Score: inf
ROOT
ATOM      1  C   UNL A   1      37.789  31.591  33.374  1.00  0.00     0.188 C 
ENDROOT
BRANCH   1   2
ATOM      2  C   UNL A   1      38.608  31.873  32.143  1.00  0.00    -0.003 C 
ATOM      3  C   UNL A   1      37.983  32.194  31.004  1.00  0.00    -0.029 C 
BRANCH   3   4
ATOM      4  C   UNL A   1      38.459  31.969  29.591  1.00  0.00     0.031 C 
BRANCH   4   5
ATOM      5  C   UNL A   1      38.287  30.492  28.976  1.00  0.00     0.031 C 
BRANCH   5   6
ATOM      6  C   UNL A   1      39.287  29.278  28.767  1.00  0.00    -0.031 C 
ATOM      7  C   UNL A   1      39.104  28.010  28.301  1.00  0.00    -0.027 C 
BRANCH   7   8
ATOM      8  C   UNL A   1      40.010  26.843  27.915  1.00  0.00     0.054 C 
BRANCH   8   9
ATOM      9  C   UNL A   1      39.272  25.570  27.453  1.00  0.00    -0.027 C 
ATOM     10  C   UNL A   1      39.630  24.646  26.523  1.00  0.00    -0.027 C 
BRANCH  10  11
ATOM     11  C   UNL A   1      38.855  23.352  26.245  1.00  0.00     0.054 C 
BRANCH  11  12
ATOM     12  C   UNL A   1      37.405  23.510  25.812  1.00  0.00    -0.027 C 
ATOM     13  C   UNL A   1      36.838  22.846  24.778  1.00  0.00    -0.027 C 
BRANCH  13  14
ATOM     14  C   UNL A   1      35.378  22.892  24.375  1.00  0.00     0.054 C 
BRANCH  14  15
ATOM     15  C   UNL A   1      34.863  24.307  24.280  1.00  0.00    -0.027 C 
ATOM     16  C   UNL A   1      33.782  24.714  23.587  1.00  0.00    -0.031 C 
BRANCH  16  17
ATOM     17  C   UNL A   1      33.294  26.140  23.577  1.00  0.00     0.023 C 
ATOM     18  C   UNL A   1      33.659  26.867  22.291  1.00  0.00     0.008 C 
ENDBRANCH  16  17
ENDBRANCH  14  15
ENDBRANCH  13  14
ENDBRANCH  11  12
ENDBRANCH  10  11
ENDBRANCH   8   9
ENDBRANCH   7   8
ENDBRANCH   5   6
ENDBRANCH   4   5
ENDBRANCH   3   4
ENDBRANCH   1   2
BRANCH   1  19
ATOM     19  O   UNL A   1      38.634  31.458  34.524  1.00  0.00    -0.366 OA
BRANCH  19  20
ATOM     20  C   UNL A   1      37.987  31.381  35.786  1.00  0.00     0.283 C 
BRANCH  20  21
ATOM     21  C   UNL A   1      37.803  32.571  36.731  1.00  0.00     0.332 C 
ATOM     22  O   UNL A   1      36.911  33.397  36.568  1.00  0.00    -0.250 OA
BRANCH  21  23
ATOM     23  O   UNL A   1      38.633  32.524  37.806  1.00  0.00    -0.460 OA
BRANCH  23  24
ATOM     24  C   UNL A   1      38.336  33.466  38.863  1.00  0.00     0.274 C 
BRANCH  24  25
ATOM     25  C   UNL A   1      39.518  34.419  39.062  1.00  0.00     0.275 C 
BRANCH  25  26
ATOM     26  O   UNL A   1      39.396  35.515  38.133  1.00  0.00    -0.458 OA
BRANCH  26  27
ATOM     27  C   UNL A   1      40.529  36.058  37.617  1.00  0.00     0.338 C 
ATOM     28  O   UNL A   1      41.118  37.046  38.067  1.00  0.00    -0.246 OA
BRANCH  27  29
ATOM     29  C   UNL A   1      40.960  35.276  36.419  1.00  0.00     0.060 A 
ATOM     30  C   UNL A   1      42.210  34.694  36.432  1.00  0.00     0.016 A 
ATOM     31  C   UNL A   1      40.195  35.065  35.269  1.00  0.00     0.016 A 
ATOM     32  C   UNL A   1      42.645  33.858  35.381  1.00  0.00     0.010 A 
ATOM     33  C   UNL A   1      40.647  34.165  34.239  1.00  0.00     0.010 A 
ATOM     34  C   UNL A   1      41.879  33.476  34.309  1.00  0.00    -0.014 A 
BRANCH  34  35
ATOM     35  C   UNL A   1      42.456  32.507  33.271  1.00  0.00     0.031 A 
ATOM     36  C   UNL A   1      42.572  31.084  33.701  1.00  0.00     0.074 A 
ATOM     37  C   UNL A   1      42.677  32.645  31.925  1.00  0.00     0.049 A 
ATOM     38  N   UNL A   1      43.204  30.098  33.128  1.00  0.00    -0.248 NA
ATOM     39  C   UNL A   1      41.779  30.711  34.881  1.00  0.00     0.031 C 
ATOM     40  C   UNL A   1      42.148  33.646  31.024  1.00  0.00     0.029 A 
ATOM     41  N   UNL A   1      43.468  31.916  31.042  1.00  0.00    -0.354 N 
ATOM     42  C   UNL A   1      42.919  28.992  33.896  1.00  0.00     0.074 A 
ATOM     43  C   UNL A   1      42.071  29.427  34.987  1.00  0.00     0.031 C 
ATOM     44  C   UNL A   1      42.799  33.681  29.856  1.00  0.00     0.029 A 
ATOM     45  C   UNL A   1      43.713  32.565  29.835  1.00  0.00     0.049 A 
ATOM     46  H   UNL A   1      43.823  31.021  31.250  1.00  0.00     0.167 HD
ATOM     47  C   UNL A   1      43.306  27.716  33.702  1.00  0.00     0.034 A 
ATOM     48  C   UNL A   1      44.523  32.314  28.784  1.00  0.00     0.034 A 
ATOM     49  C   UNL A   1      44.083  27.230  32.600  1.00  0.00     0.049 A 
ATOM     50  C   UNL A   1      45.193  30.981  28.723  1.00  0.00     0.074 A 
ATOM     51  C   UNL A   1      44.578  25.953  32.414  1.00  0.00     0.029 A 
ATOM     52  N   UNL A   1      44.473  27.976  31.500  1.00  0.00    -0.354 N 
ATOM     53  N   UNL A   1      45.017  29.963  29.522  1.00  0.00    -0.248 NA
ATOM     54  C   UNL A   1      46.084  30.716  27.586  1.00  0.00     0.031 C 
ATOM     55  C   UNL A   1      45.297  25.930  31.215  1.00  0.00     0.029 A 
ATOM     56  C   UNL A   1      45.232  27.189  30.645  1.00  0.00     0.049 A 
ATOM     57  H   UNL A   1      44.246  28.920  31.348  1.00  0.00     0.167 HD
ATOM     58  C   UNL A   1      45.720  28.916  28.957  1.00  0.00     0.074 A 
ATOM     59  C   UNL A   1      46.330  29.420  27.743  1.00  0.00     0.031 C 
ATOM     60  C   UNL A   1      45.829  27.649  29.418  1.00  0.00     0.034 A 
BRANCH  47  61
ATOM     61  C   UNL A   1      42.941  26.777  34.801  1.00  0.00     0.023 A 
ATOM     62  C   UNL A   1      41.732  26.060  34.761  1.00  0.00     0.012 A 
ATOM     63  C   UNL A   1      43.793  26.680  35.914  1.00  0.00     0.148 A 
ATOM     64  C   UNL A   1      41.363  25.266  35.843  1.00  0.00     0.002 A 
ATOM     65  C   UNL A   1      43.440  25.855  36.965  1.00  0.00     0.091 A 
ATOM     66  F   UNL A   1      44.901  27.433  35.939  1.00  0.00    -0.205 F 
ATOM     67  C   UNL A   1      42.221  25.155  36.938  1.00  0.00     0.022 A 
BRANCH  65  68
ATOM     68  S   UNL A   1      44.512  25.619  38.380  1.00  0.00     0.127 S 
ATOM     69  O   UNL A   1      44.527  24.162  38.497  1.00  0.00    -0.237 OA
ATOM     70  O   UNL A   1      45.766  26.211  37.913  1.00  0.00    -0.237 OA
ATOM     71  O   UNL A   1      43.880  26.331  39.483  1.00  0.00    -0.744 OA
ENDBRANCH  65  68
ENDBRANCH  47  61
BRANCH  48  72
ATOM     72  C   UNL A   1      44.677  33.288  27.654  1.00  0.00     0.023 A 
ATOM     73  C   UNL A   1      43.940  33.113  26.465  1.00  0.00     0.012 A 
ATOM     74  C   UNL A   1      45.585  34.364  27.736  1.00  0.00     0.148 A 
ATOM     75  C   UNL A   1      44.126  33.966  25.373  1.00  0.00     0.002 A 
ATOM     76  C   UNL A   1      45.741  35.233  26.657  1.00  0.00     0.091 A 
ATOM     77  F   UNL A   1      46.305  34.503  28.859  1.00  0.00    -0.205 F 
ATOM     78  C   UNL A   1      45.021  35.028  25.471  1.00  0.00     0.022 A 
BRANCH  76  79
ATOM     79  S   UNL A   1      46.815  36.675  26.716  1.00  0.00     0.127 S 
ATOM     80  O   UNL A   1      46.584  37.275  25.404  1.00  0.00    -0.237 OA
ATOM     81  O   UNL A   1      46.257  37.426  27.840  1.00  0.00    -0.237 OA
ATOM     82  O   UNL A   1      48.156  36.155  26.946  1.00  0.00    -0.744 OA
ENDBRANCH  76  79
ENDBRANCH  48  72
BRANCH  60  83
ATOM     83  C   UNL A   1      46.645  26.685  28.607  1.00  0.00     0.023 A 
ATOM     84  C   UNL A   1      47.978  26.422  28.977  1.00  0.00     0.012 A 
ATOM     85  C   UNL A   1      46.078  25.997  27.517  1.00  0.00     0.148 A 
ATOM     86  C   UNL A   1      48.747  25.511  28.256  1.00  0.00     0.002 A 
ATOM     87  C   UNL A   1      46.835  25.055  26.832  1.00  0.00     0.091 A 
ATOM     88  F   UNL A   1      44.816  26.281  27.168  1.00  0.00    -0.205 F 
ATOM     89  C   UNL A   1      48.172  24.819  27.192  1.00  0.00     0.022 A 
BRANCH  87  90
ATOM     90  S   UNL A   1      46.156  24.052  25.507  1.00  0.00     0.127 S 
ATOM     91  O   UNL A   1      46.985  24.455  24.372  1.00  0.00    -0.237 OA
ATOM     92  O   UNL A   1      46.401  22.693  25.990  1.00  0.00    -0.237 OA
ATOM     93  O   UNL A   1      44.747  24.413  25.409  1.00  0.00    -0.744 OA
ENDBRANCH  87  90
ENDBRANCH  60  83
ENDBRANCH  34  35
ENDBRANCH  27  29
ENDBRANCH  26  27
ENDBRANCH  25  26
ENDBRANCH  24  25
ENDBRANCH  23  24
ENDBRANCH  21  23
ENDBRANCH  20  21
ENDBRANCH  19  20
ENDBRANCH   1  19
TORSDOF 27
ENDMDL
