MODEL 1
REMARK VINA RESULT:     -12.1      0.000      0.000
REMARK SMILES O=C(OCCOC(=O)c1cn(C2CC2)c2cc(N3CC[NH2+]CC3)ccc2c1=O)c1ccc(-c2c3nc(c(-c4cccc(S(=O)(=O)[O-])c4F)c4ccc([nH]4)c(-c4cccc(S(=O)(=O)[O-])c4F)c4nc(c(-c5cccc(S(=O)(=O)[O-])c5F)c5ccc2[nH]5)C=C4)C=C3)cc1
REMARK SMILES IDX 4 1 3 2 2 3 1 4 29 5 30 6 91 7 31 8 90 9 32 10 33 11 34 12
REMARK SMILES IDX 84 13 35 14 89 15 83 16 85 17 36 18 88 19 82 20 81 21 37 23
REMARK SMILES IDX 69 24 49 25 68 26 50 27 53 28 67 29 86 30 51 31 52 32 66 34
REMARK SMILES IDX 87 35 54 36 38 37 39 38 47 39 40 40 42 41 48 42 41 43 43 44
REMARK SMILES IDX 44 45 45 46 46 47 70 48 71 49 79 50 72 51 74 52 80 53 73 54
REMARK SMILES IDX 75 55 76 56 77 57 78 58 55 59 56 60 64 61 57 62 59 63 65 64
REMARK SMILES IDX 58 65 60 66 61 67 62 68 63 69 5 70 6 71 7 72 8 73 9 74 10 75
REMARK SMILES IDX 27 76 11 77 26 78 28 79 15 80 25 81 16 82 24 83 17 84 12 85
REMARK SMILES IDX 13 86 14 87 18 88 19 89 23 90 20 91 22 92 21 93
REMARK H PARENT 85 22 53 33 21 94 21 95
REMARK Flexibility Score: inf
ROOT
ATOM      1  C   UNL A   1      33.465  28.769  25.867  1.00  0.00     0.275 C 
ENDROOT
BRANCH   1   2
ATOM      2  O   UNL A   1      33.706  30.157  26.152  1.00  0.00    -0.458 OA
BRANCH   2   3
ATOM      3  C   UNL A   1      34.290  30.718  27.241  1.00  0.00     0.338 C 
ATOM      4  O   UNL A   1      33.914  31.830  27.608  1.00  0.00    -0.246 OA
BRANCH   3   5
ATOM      5  C   UNL A   1      35.481  30.121  27.923  1.00  0.00     0.060 A 
ATOM      6  C   UNL A   1      36.670  30.080  27.178  1.00  0.00     0.016 A 
ATOM      7  C   UNL A   1      35.525  29.638  29.233  1.00  0.00     0.016 A 
ATOM      8  C   UNL A   1      37.827  29.482  27.696  1.00  0.00     0.010 A 
ATOM      9  C   UNL A   1      36.685  29.045  29.754  1.00  0.00     0.010 A 
ATOM     10  C   UNL A   1      37.843  28.931  28.985  1.00  0.00    -0.014 A 
BRANCH  10  11
ATOM     11  C   UNL A   1      39.113  28.449  29.584  1.00  0.00     0.031 A 
ATOM     12  C   UNL A   1      39.833  29.138  30.707  1.00  0.00     0.074 A 
ATOM     13  C   UNL A   1      39.716  27.395  29.005  1.00  0.00     0.049 A 
ATOM     14  N   UNL A   1      40.734  28.640  31.519  1.00  0.00    -0.248 NA
ATOM     15  C   UNL A   1      39.540  30.556  30.953  1.00  0.00     0.031 C 
ATOM     16  C   UNL A   1      39.246  26.711  27.801  1.00  0.00     0.029 A 
ATOM     17  N   UNL A   1      40.892  26.768  29.314  1.00  0.00    -0.354 N 
ATOM     18  C   UNL A   1      41.000  29.633  32.450  1.00  0.00     0.074 A 
ATOM     19  C   UNL A   1      40.298  30.811  32.015  1.00  0.00     0.031 C 
ATOM     20  C   UNL A   1      40.153  25.794  27.441  1.00  0.00     0.029 A 
ATOM     21  C   UNL A   1      41.262  25.829  28.388  1.00  0.00     0.049 A 
ATOM     22  H   UNL A   1      41.419  26.972  30.120  1.00  0.00     0.167 HD
ATOM     23  C   UNL A   1      41.739  29.550  33.580  1.00  0.00     0.034 A 
ATOM     24  C   UNL A   1      42.386  25.097  28.296  1.00  0.00     0.034 A 
ATOM     25  C   UNL A   1      42.739  28.544  33.784  1.00  0.00     0.049 A 
ATOM     26  C   UNL A   1      43.417  25.192  29.377  1.00  0.00     0.074 A 
ATOM     27  C   UNL A   1      43.640  28.420  34.826  1.00  0.00     0.029 A 
ATOM     28  N   UNL A   1      43.084  27.600  32.832  1.00  0.00    -0.354 N 
ATOM     29  N   UNL A   1      43.377  25.886  30.487  1.00  0.00    -0.248 NA
ATOM     30  C   UNL A   1      44.630  24.380  29.214  1.00  0.00     0.031 C 
ATOM     31  C   UNL A   1      44.609  27.487  34.439  1.00  0.00     0.029 A 
ATOM     32  C   UNL A   1      44.263  26.983  33.194  1.00  0.00     0.049 A 
ATOM     33  H   UNL A   1      42.564  27.399  32.021  1.00  0.00     0.167 HD
ATOM     34  C   UNL A   1      44.547  25.579  31.170  1.00  0.00     0.074 A 
ATOM     35  C   UNL A   1      45.274  24.634  30.348  1.00  0.00     0.031 C 
ATOM     36  C   UNL A   1      44.972  26.038  32.371  1.00  0.00     0.034 A 
BRANCH  23  37
ATOM     37  C   UNL A   1      41.516  30.547  34.682  1.00  0.00     0.023 A 
ATOM     38  C   UNL A   1      42.582  31.417  35.002  1.00  0.00     0.012 A 
ATOM     39  C   UNL A   1      40.260  30.749  35.277  1.00  0.00     0.148 A 
ATOM     40  C   UNL A   1      42.401  32.475  35.893  1.00  0.00     0.002 A 
ATOM     41  C   UNL A   1      40.084  31.811  36.161  1.00  0.00     0.091 A 
ATOM     42  F   UNL A   1      39.263  29.917  34.950  1.00  0.00    -0.205 F 
ATOM     43  C   UNL A   1      41.150  32.675  36.468  1.00  0.00     0.022 A 
BRANCH  41  44
ATOM     44  S   UNL A   1      38.513  32.168  36.954  1.00  0.00     0.127 S 
ATOM     45  O   UNL A   1      38.085  30.831  37.370  1.00  0.00    -0.237 OA
ATOM     46  O   UNL A   1      38.916  33.050  38.047  1.00  0.00    -0.237 OA
ATOM     47  O   UNL A   1      37.679  32.781  35.930  1.00  0.00    -0.744 OA
ENDBRANCH  41  44
ENDBRANCH  23  37
BRANCH  24  48
ATOM     48  C   UNL A   1      42.529  24.192  27.130  1.00  0.00     0.023 A 
ATOM     49  C   UNL A   1      43.312  24.597  26.037  1.00  0.00     0.012 A 
ATOM     50  C   UNL A   1      42.025  22.876  27.181  1.00  0.00     0.148 A 
ATOM     51  C   UNL A   1      43.604  23.699  25.012  1.00  0.00     0.002 A 
ATOM     52  C   UNL A   1      42.351  21.977  26.176  1.00  0.00     0.091 A 
ATOM     53  F   UNL A   1      41.282  22.522  28.239  1.00  0.00    -0.205 F 
ATOM     54  C   UNL A   1      43.138  22.388  25.088  1.00  0.00     0.022 A 
BRANCH  52  55
ATOM     55  S   UNL A   1      41.900  20.240  26.256  1.00  0.00     0.127 S 
ATOM     56  O   UNL A   1      42.646  19.689  25.127  1.00  0.00    -0.237 OA
ATOM     57  O   UNL A   1      42.404  19.856  27.574  1.00  0.00    -0.237 OA
ATOM     58  O   UNL A   1      40.450  20.202  26.131  1.00  0.00    -0.744 OA
ENDBRANCH  52  55
ENDBRANCH  24  48
BRANCH  36  59
ATOM     59  C   UNL A   1      46.287  25.548  32.897  1.00  0.00     0.023 A 
ATOM     60  C   UNL A   1      47.458  26.286  32.644  1.00  0.00     0.012 A 
ATOM     61  C   UNL A   1      46.327  24.446  33.771  1.00  0.00     0.148 A 
ATOM     62  C   UNL A   1      48.657  25.930  33.260  1.00  0.00     0.002 A 
ATOM     63  C   UNL A   1      47.513  24.126  34.414  1.00  0.00     0.091 A 
ATOM     64  F   UNL A   1      45.195  23.757  33.980  1.00  0.00    -0.205 F 
ATOM     65  C   UNL A   1      48.681  24.862  34.157  1.00  0.00     0.022 A 
BRANCH  63  66
ATOM     66  S   UNL A   1      47.608  22.833  35.656  1.00  0.00     0.127 S 
ATOM     67  O   UNL A   1      46.553  23.237  36.584  1.00  0.00    -0.237 OA
ATOM     68  O   UNL A   1      47.313  21.632  34.875  1.00  0.00    -0.237 OA
ATOM     69  O   UNL A   1      48.962  22.889  36.192  1.00  0.00    -0.744 OA
ENDBRANCH  63  66
ENDBRANCH  36  59
ENDBRANCH  10  11
ENDBRANCH   3   5
ENDBRANCH   2   3
ENDBRANCH   1   2
BRANCH   1  70
ATOM     70  C   UNL A   1      33.756  28.361  24.422  1.00  0.00     0.275 C 
BRANCH  70  71
ATOM     71  O   UNL A   1      32.984  27.231  23.995  1.00  0.00    -0.458 OA
BRANCH  71  72
ATOM     72  C   UNL A   1      33.605  26.371  23.137  1.00  0.00     0.343 C 
ATOM     73  O   UNL A   1      34.055  26.670  22.040  1.00  0.00    -0.246 OA
BRANCH  72  74
ATOM     74  C   UNL A   1      33.667  25.030  23.741  1.00  0.00     0.124 A 
ATOM     75  C   UNL A   1      34.768  24.648  24.401  1.00  0.00     0.106 A 
ATOM     76  C   UNL A   1      32.553  24.062  23.674  1.00  0.00     0.203 A 
ATOM     77  N   UNL A   1      34.975  23.425  25.017  1.00  0.00    -0.343 N 
ATOM     78  C   UNL A   1      32.853  22.660  24.067  1.00  0.00     0.047 A 
ATOM     79  O   UNL A   1      31.447  24.362  23.240  1.00  0.00    -0.288 OA
ATOM     80  C   UNL A   1      34.052  22.363  24.747  1.00  0.00     0.054 A 
ATOM     81  C   UNL A   1      31.970  21.649  23.669  1.00  0.00     0.016 A 
ATOM     82  C   UNL A   1      34.299  21.010  25.049  1.00  0.00     0.053 A 
ATOM     83  C   UNL A   1      32.275  20.315  23.933  1.00  0.00     0.027 A 
ATOM     84  C   UNL A   1      33.432  19.971  24.636  1.00  0.00     0.039 A 
BRANCH  77  85
ATOM     85  C   UNL A   1      36.074  23.292  26.008  1.00  0.00     0.087 C 
ATOM     86  C   UNL A   1      37.400  22.591  25.782  1.00  0.00     0.027 C 
ATOM     87  C   UNL A   1      37.346  24.083  25.817  1.00  0.00     0.027 C 
ENDBRANCH  77  85
BRANCH  84  88
ATOM     88  N   UNL A   1      33.728  18.655  24.922  1.00  0.00    -0.360 N 
ATOM     89  C   UNL A   1      32.975  17.952  25.964  1.00  0.00     0.178 C 
ATOM     90  C   UNL A   1      34.518  17.806  24.019  1.00  0.00     0.178 C 
ATOM     91  C   UNL A   1      32.149  16.803  25.333  1.00  0.00     0.282 C 
ATOM     92  C   UNL A   1      33.668  16.632  23.473  1.00  0.00     0.282 C 
ATOM     93  N   UNL A   1      32.949  15.863  24.514  1.00  0.00    -0.343 N 
ATOM     94  H   UNL A   1      32.332  15.181  24.073  1.00  0.00     0.346 HD
ATOM     95  H   UNL A   1      33.618  15.370  25.107  1.00  0.00     0.346 HD
ENDBRANCH  84  88
ENDBRANCH  72  74
ENDBRANCH  71  72
ENDBRANCH  70  71
ENDBRANCH   1  70
TORSDOF 16
ENDMDL
MODEL 2
REMARK VINA RESULT:     -12.0      5.250      9.195
REMARK SMILES O=C(OCCOC(=O)c1cn(C2CC2)c2cc(N3CC[NH2+]CC3)ccc2c1=O)c1ccc(-c2c3nc(c(-c4cccc(S(=O)(=O)[O-])c4F)c4ccc([nH]4)c(-c4cccc(S(=O)(=O)[O-])c4F)c4nc(c(-c5cccc(S(=O)(=O)[O-])c5F)c5ccc2[nH]5)C=C4)C=C3)cc1
REMARK SMILES IDX 4 1 3 2 2 3 1 4 29 5 30 6 91 7 31 8 90 9 32 10 33 11 34 12
REMARK SMILES IDX 84 13 35 14 89 15 83 16 85 17 36 18 88 19 82 20 81 21 37 23
REMARK SMILES IDX 69 24 49 25 68 26 50 27 53 28 67 29 86 30 51 31 52 32 66 34
REMARK SMILES IDX 87 35 54 36 38 37 39 38 47 39 40 40 42 41 48 42 41 43 43 44
REMARK SMILES IDX 44 45 45 46 46 47 70 48 71 49 79 50 72 51 74 52 80 53 73 54
REMARK SMILES IDX 75 55 76 56 77 57 78 58 55 59 56 60 64 61 57 62 59 63 65 64
REMARK SMILES IDX 58 65 60 66 61 67 62 68 63 69 5 70 6 71 7 72 8 73 9 74 10 75
REMARK SMILES IDX 27 76 11 77 26 78 28 79 15 80 25 81 16 82 24 83 17 84 12 85
REMARK SMILES IDX 13 86 14 87 18 88 19 89 23 90 20 91 22 92 21 93
REMARK H PARENT 85 22 53 33 21 94 21 95
REMARK Flexibility Score: inf
ROOT
ATOM      1  C   UNL A   1      37.013  22.990  24.339  1.00  0.00     0.275 C 
ENDROOT
BRANCH   1   2
ATOM      2  O   UNL A   1      37.463  22.564  25.636  1.00  0.00    -0.458 OA
BRANCH   2   3
ATOM      3  C   UNL A   1      38.684  22.710  26.209  1.00  0.00     0.338 C 
ATOM      4  O   UNL A   1      39.391  21.716  26.361  1.00  0.00    -0.246 OA
BRANCH   3   5
ATOM      5  C   UNL A   1      39.150  23.999  26.814  1.00  0.00     0.060 A 
ATOM      6  C   UNL A   1      39.899  24.843  25.980  1.00  0.00     0.016 A 
ATOM      7  C   UNL A   1      38.878  24.448  28.108  1.00  0.00     0.016 A 
ATOM      8  C   UNL A   1      40.440  26.043  26.463  1.00  0.00     0.010 A 
ATOM      9  C   UNL A   1      39.414  25.651  28.591  1.00  0.00     0.010 A 
ATOM     10  C   UNL A   1      40.227  26.451  27.788  1.00  0.00    -0.014 A 
BRANCH  10  11
ATOM     11  C   UNL A   1      40.663  27.795  28.242  1.00  0.00     0.031 A 
ATOM     12  C   UNL A   1      39.733  28.950  28.484  1.00  0.00     0.074 A 
ATOM     13  C   UNL A   1      41.985  28.027  28.328  1.00  0.00     0.049 A 
ATOM     14  N   UNL A   1      39.950  30.031  29.192  1.00  0.00    -0.248 NA
ATOM     15  C   UNL A   1      38.408  28.918  27.850  1.00  0.00     0.031 C 
ATOM     16  C   UNL A   1      43.033  27.073  27.965  1.00  0.00     0.029 A 
ATOM     17  N   UNL A   1      42.664  29.162  28.678  1.00  0.00    -0.354 N 
ATOM     18  C   UNL A   1      38.749  30.726  29.206  1.00  0.00     0.074 A 
ATOM     19  C   UNL A   1      37.860  30.039  28.309  1.00  0.00     0.031 C 
ATOM     20  C   UNL A   1      44.224  27.681  28.059  1.00  0.00     0.029 A 
ATOM     21  C   UNL A   1      44.017  29.061  28.488  1.00  0.00     0.049 A 
ATOM     22  H   UNL A   1      42.226  29.969  29.031  1.00  0.00     0.167 HD
ATOM     23  C   UNL A   1      38.420  31.820  29.931  1.00  0.00     0.034 A 
ATOM     24  C   UNL A   1      44.984  29.986  28.616  1.00  0.00     0.034 A 
ATOM     25  C   UNL A   1      39.397  32.714  30.479  1.00  0.00     0.049 A 
ATOM     26  C   UNL A   1      44.634  31.350  29.125  1.00  0.00     0.074 A 
ATOM     27  C   UNL A   1      39.197  33.920  31.127  1.00  0.00     0.029 A 
ATOM     28  N   UNL A   1      40.759  32.579  30.279  1.00  0.00    -0.354 N 
ATOM     29  N   UNL A   1      43.471  31.798  29.530  1.00  0.00    -0.248 NA
ATOM     30  C   UNL A   1      45.728  32.323  29.230  1.00  0.00     0.031 C 
ATOM     31  C   UNL A   1      40.433  34.573  31.196  1.00  0.00     0.029 A 
ATOM     32  C   UNL A   1      41.403  33.737  30.661  1.00  0.00     0.049 A 
ATOM     33  H   UNL A   1      41.201  31.777  29.918  1.00  0.00     0.167 HD
ATOM     34  C   UNL A   1      43.695  33.099  29.960  1.00  0.00     0.074 A 
ATOM     35  C   UNL A   1      45.106  33.366  29.769  1.00  0.00     0.031 C 
ATOM     36  C   UNL A   1      42.808  33.986  30.473  1.00  0.00     0.034 A 
BRANCH  23  37
ATOM     37  C   UNL A   1      36.971  32.129  30.183  1.00  0.00     0.023 A 
ATOM     38  C   UNL A   1      36.407  31.674  31.396  1.00  0.00     0.012 A 
ATOM     39  C   UNL A   1      36.223  32.977  29.351  1.00  0.00     0.148 A 
ATOM     40  C   UNL A   1      35.123  32.062  31.778  1.00  0.00     0.002 A 
ATOM     41  C   UNL A   1      34.943  33.365  29.741  1.00  0.00     0.091 A 
ATOM     42  F   UNL A   1      36.784  33.403  28.211  1.00  0.00    -0.205 F 
ATOM     43  C   UNL A   1      34.393  32.912  30.953  1.00  0.00     0.022 A 
BRANCH  41  44
ATOM     44  S   UNL A   1      33.917  34.464  28.759  1.00  0.00     0.127 S 
ATOM     45  O   UNL A   1      34.821  35.597  28.548  1.00  0.00    -0.237 OA
ATOM     46  O   UNL A   1      33.657  33.658  27.568  1.00  0.00    -0.237 OA
ATOM     47  O   UNL A   1      32.752  34.762  29.580  1.00  0.00    -0.744 OA
ENDBRANCH  41  44
ENDBRANCH  23  37
BRANCH  24  48
ATOM     48  C   UNL A   1      46.372  29.590  28.278  1.00  0.00     0.023 A 
ATOM     49  C   UNL A   1      46.898  29.935  27.022  1.00  0.00     0.012 A 
ATOM     50  C   UNL A   1      47.211  29.021  29.257  1.00  0.00     0.148 A 
ATOM     51  C   UNL A   1      48.249  29.729  26.748  1.00  0.00     0.002 A 
ATOM     52  C   UNL A   1      48.562  28.854  28.990  1.00  0.00     0.091 A 
ATOM     53  F   UNL A   1      46.676  28.704  30.444  1.00  0.00    -0.205 F 
ATOM     54  C   UNL A   1      49.083  29.204  27.734  1.00  0.00     0.022 A 
BRANCH  52  55
ATOM     55  S   UNL A   1      49.729  28.304  30.240  1.00  0.00     0.127 S 
ATOM     56  O   UNL A   1      49.125  27.048  30.677  1.00  0.00    -0.237 OA
ATOM     57  O   UNL A   1      50.960  28.158  29.463  1.00  0.00    -0.237 OA
ATOM     58  O   UNL A   1      49.769  29.365  31.237  1.00  0.00    -0.744 OA
ENDBRANCH  52  55
ENDBRANCH  24  48
BRANCH  36  59
ATOM     59  C   UNL A   1      43.306  35.344  30.867  1.00  0.00     0.023 A 
ATOM     60  C   UNL A   1      43.878  35.536  32.138  1.00  0.00     0.012 A 
ATOM     61  C   UNL A   1      43.349  36.380  29.915  1.00  0.00     0.148 A 
ATOM     62  C   UNL A   1      44.489  36.749  32.456  1.00  0.00     0.002 A 
ATOM     63  C   UNL A   1      43.997  37.566  30.223  1.00  0.00     0.091 A 
ATOM     64  F   UNL A   1      42.783  36.167  28.718  1.00  0.00    -0.205 F 
ATOM     65  C   UNL A   1      44.563  37.756  31.494  1.00  0.00     0.022 A 
BRANCH  63  66
ATOM     66  S   UNL A   1      44.226  38.873  29.013  1.00  0.00     0.127 S 
ATOM     67  O   UNL A   1      44.969  39.865  29.787  1.00  0.00    -0.237 OA
ATOM     68  O   UNL A   1      45.003  38.198  27.973  1.00  0.00    -0.237 OA
ATOM     69  O   UNL A   1      42.889  39.279  28.601  1.00  0.00    -0.744 OA
ENDBRANCH  63  66
ENDBRANCH  36  59
ENDBRANCH  10  11
ENDBRANCH   3   5
ENDBRANCH   2   3
ENDBRANCH   1   2
BRANCH   1  70
ATOM     70  C   UNL A   1      35.576  23.513  24.309  1.00  0.00     0.275 C 
BRANCH  70  71
ATOM     71  O   UNL A   1      35.387  24.672  25.131  1.00  0.00    -0.458 OA
BRANCH  71  72
ATOM     72  C   UNL A   1      34.185  24.763  25.770  1.00  0.00     0.343 C 
ATOM     73  O   UNL A   1      33.795  24.013  26.654  1.00  0.00    -0.246 OA
BRANCH  72  74
ATOM     74  C   UNL A   1      33.433  25.915  25.244  1.00  0.00     0.124 A 
ATOM     75  C   UNL A   1      33.536  27.107  25.846  1.00  0.00     0.106 A 
ATOM     76  C   UNL A   1      32.563  25.836  24.053  1.00  0.00     0.203 A 
ATOM     77  N   UNL A   1      32.893  28.275  25.473  1.00  0.00    -0.343 N 
ATOM     78  C   UNL A   1      31.649  26.983  23.808  1.00  0.00     0.047 A 
ATOM     79  O   UNL A   1      32.523  24.845  23.334  1.00  0.00    -0.288 OA
ATOM     80  C   UNL A   1      31.837  28.192  24.509  1.00  0.00     0.054 A 
ATOM     81  C   UNL A   1      30.562  26.801  22.944  1.00  0.00     0.016 A 
ATOM     82  C   UNL A   1      30.910  29.223  24.266  1.00  0.00     0.053 A 
ATOM     83  C   UNL A   1      29.631  27.823  22.773  1.00  0.00     0.027 A 
ATOM     84  C   UNL A   1      29.792  29.053  23.416  1.00  0.00     0.039 A 
BRANCH  77  85
ATOM     85  C   UNL A   1      33.390  29.573  26.000  1.00  0.00     0.087 C 
ATOM     86  C   UNL A   1      32.815  30.336  27.177  1.00  0.00     0.027 C 
ATOM     87  C   UNL A   1      34.110  29.610  27.327  1.00  0.00     0.027 C 
ENDBRANCH  77  85
BRANCH  84  88
ATOM     88  N   UNL A   1      28.887  30.077  23.233  1.00  0.00    -0.360 N 
ATOM     89  C   UNL A   1      29.107  31.366  23.897  1.00  0.00     0.178 C 
ATOM     90  C   UNL A   1      27.897  30.076  22.148  1.00  0.00     0.178 C 
ATOM     91  C   UNL A   1      29.365  32.466  22.836  1.00  0.00     0.282 C 
ATOM     92  C   UNL A   1      28.154  31.237  21.157  1.00  0.00     0.282 C 
ATOM     93  N   UNL A   1      28.313  32.563  21.798  1.00  0.00    -0.343 N 
ATOM     94  H   UNL A   1      28.586  33.253  21.097  1.00  0.00     0.346 HD
ATOM     95  H   UNL A   1      27.432  32.852  22.223  1.00  0.00     0.346 HD
ENDBRANCH  84  88
ENDBRANCH  72  74
ENDBRANCH  71  72
ENDBRANCH  70  71
ENDBRANCH   1  70
TORSDOF 16
ENDMDL
MODEL 3
REMARK VINA RESULT:     -11.9      5.393     10.589
REMARK SMILES O=C(OCCOC(=O)c1cn(C2CC2)c2cc(N3CC[NH2+]CC3)ccc2c1=O)c1ccc(-c2c3nc(c(-c4cccc(S(=O)(=O)[O-])c4F)c4ccc([nH]4)c(-c4cccc(S(=O)(=O)[O-])c4F)c4nc(c(-c5cccc(S(=O)(=O)[O-])c5F)c5ccc2[nH]5)C=C4)C=C3)cc1
REMARK SMILES IDX 4 1 3 2 2 3 1 4 29 5 30 6 91 7 31 8 90 9 32 10 33 11 34 12
REMARK SMILES IDX 84 13 35 14 89 15 83 16 85 17 36 18 88 19 82 20 81 21 37 23
REMARK SMILES IDX 69 24 49 25 68 26 50 27 53 28 67 29 86 30 51 31 52 32 66 34
REMARK SMILES IDX 87 35 54 36 38 37 39 38 47 39 40 40 42 41 48 42 41 43 43 44
REMARK SMILES IDX 44 45 45 46 46 47 70 48 71 49 79 50 72 51 74 52 80 53 73 54
REMARK SMILES IDX 75 55 76 56 77 57 78 58 55 59 56 60 64 61 57 62 59 63 65 64
REMARK SMILES IDX 58 65 60 66 61 67 62 68 63 69 5 70 6 71 7 72 8 73 9 74 10 75
REMARK SMILES IDX 27 76 11 77 26 78 28 79 15 80 25 81 16 82 24 83 17 84 12 85
REMARK SMILES IDX 13 86 14 87 18 88 19 89 23 90 20 91 22 92 21 93
REMARK H PARENT 85 22 53 33 21 94 21 95
REMARK Flexibility Score: inf
ROOT
ATOM      1  C   UNL A   1      37.179  22.709  24.407  1.00  0.00     0.275 C 
ENDROOT
BRANCH   1   2
ATOM      2  O   UNL A   1      37.623  22.349  25.727  1.00  0.00    -0.458 OA
BRANCH   2   3
ATOM      3  C   UNL A   1      38.818  22.589  26.322  1.00  0.00     0.338 C 
ATOM      4  O   UNL A   1      39.485  21.634  26.717  1.00  0.00    -0.246 OA
BRANCH   3   5
ATOM      5  C   UNL A   1      39.292  23.966  26.668  1.00  0.00     0.060 A 
ATOM      6  C   UNL A   1      38.957  24.438  27.946  1.00  0.00     0.016 A 
ATOM      7  C   UNL A   1      40.062  24.801  25.854  1.00  0.00     0.016 A 
ATOM      8  C   UNL A   1      39.293  25.739  28.348  1.00  0.00     0.010 A 
ATOM      9  C   UNL A   1      40.404  26.100  26.258  1.00  0.00     0.010 A 
ATOM     10  C   UNL A   1      40.000  26.599  27.497  1.00  0.00    -0.014 A 
BRANCH  10  11
ATOM     11  C   UNL A   1      40.492  27.910  27.990  1.00  0.00     0.031 A 
ATOM     12  C   UNL A   1      41.940  28.239  28.216  1.00  0.00     0.074 A 
ATOM     13  C   UNL A   1      39.576  28.819  28.369  1.00  0.00     0.049 A 
ATOM     14  N   UNL A   1      42.498  29.422  28.308  1.00  0.00    -0.248 NA
ATOM     15  C   UNL A   1      42.886  27.128  28.383  1.00  0.00     0.031 C 
ATOM     16  C   UNL A   1      38.130  28.605  28.379  1.00  0.00     0.029 A 
ATOM     17  N   UNL A   1      39.737  30.076  28.886  1.00  0.00    -0.354 N 
ATOM     18  C   UNL A   1      43.865  29.193  28.394  1.00  0.00     0.074 A 
ATOM     19  C   UNL A   1      44.043  27.771  28.511  1.00  0.00     0.031 C 
ATOM     20  C   UNL A   1      37.537  29.673  28.929  1.00  0.00     0.029 A 
ATOM     21  C   UNL A   1      38.562  30.640  29.307  1.00  0.00     0.049 A 
ATOM     22  H   UNL A   1      40.609  30.528  28.950  1.00  0.00     0.167 HD
ATOM     23  C   UNL A   1      44.871  30.096  28.349  1.00  0.00     0.034 A 
ATOM     24  C   UNL A   1      38.337  31.797  29.953  1.00  0.00     0.034 A 
ATOM     25  C   UNL A   1      44.686  31.485  28.645  1.00  0.00     0.049 A 
ATOM     26  C   UNL A   1      39.481  32.723  30.224  1.00  0.00     0.074 A 
ATOM     27  C   UNL A   1      45.642  32.480  28.754  1.00  0.00     0.029 A 
ATOM     28  N   UNL A   1      43.483  32.028  29.058  1.00  0.00    -0.354 N 
ATOM     29  N   UNL A   1      40.737  32.597  29.871  1.00  0.00    -0.248 NA
ATOM     30  C   UNL A   1      39.177  33.965  30.946  1.00  0.00     0.031 C 
ATOM     31  C   UNL A   1      45.034  33.585  29.361  1.00  0.00     0.029 A 
ATOM     32  C   UNL A   1      43.690  33.298  29.554  1.00  0.00     0.049 A 
ATOM     33  H   UNL A   1      42.610  31.576  29.005  1.00  0.00     0.167 HD
ATOM     34  C   UNL A   1      41.372  33.752  30.308  1.00  0.00     0.074 A 
ATOM     35  C   UNL A   1      40.361  34.568  30.949  1.00  0.00     0.031 C 
ATOM     36  C   UNL A   1      42.674  34.103  30.181  1.00  0.00     0.034 A 
BRANCH  23  37
ATOM     37  C   UNL A   1      46.253  29.640  27.971  1.00  0.00     0.023 A 
ATOM     38  C   UNL A   1      47.251  29.679  28.971  1.00  0.00     0.012 A 
ATOM     39  C   UNL A   1      46.539  29.034  26.737  1.00  0.00     0.148 A 
ATOM     40  C   UNL A   1      48.509  29.120  28.749  1.00  0.00     0.002 A 
ATOM     41  C   UNL A   1      47.795  28.473  26.524  1.00  0.00     0.091 A 
ATOM     42  F   UNL A   1      45.573  29.001  25.809  1.00  0.00    -0.205 F 
ATOM     43  C   UNL A   1      48.779  28.511  27.528  1.00  0.00     0.022 A 
BRANCH  41  44
ATOM     44  S   UNL A   1      48.250  27.655  24.991  1.00  0.00     0.127 S 
ATOM     45  O   UNL A   1      47.395  28.348  24.026  1.00  0.00    -0.237 OA
ATOM     46  O   UNL A   1      49.673  27.972  24.886  1.00  0.00    -0.237 OA
ATOM     47  O   UNL A   1      47.936  26.247  25.181  1.00  0.00    -0.744 OA
ENDBRANCH  41  44
ENDBRANCH  23  37
BRANCH  24  48
ATOM     48  C   UNL A   1      36.940  32.116  30.336  1.00  0.00     0.023 A 
ATOM     49  C   UNL A   1      36.517  31.878  31.654  1.00  0.00     0.012 A 
ATOM     50  C   UNL A   1      36.093  32.803  29.442  1.00  0.00     0.148 A 
ATOM     51  C   UNL A   1      35.270  32.329  32.082  1.00  0.00     0.002 A 
ATOM     52  C   UNL A   1      34.870  33.282  29.886  1.00  0.00     0.091 A 
ATOM     53  F   UNL A   1      36.529  33.014  28.192  1.00  0.00    -0.205 F 
ATOM     54  C   UNL A   1      34.454  33.043  31.206  1.00  0.00     0.022 A 
BRANCH  52  55
ATOM     55  S   UNL A   1      33.814  34.317  28.866  1.00  0.00     0.127 S 
ATOM     56  O   UNL A   1      32.842  34.802  29.843  1.00  0.00    -0.237 OA
ATOM     57  O   UNL A   1      34.756  35.325  28.380  1.00  0.00    -0.237 OA
ATOM     58  O   UNL A   1      33.283  33.440  27.831  1.00  0.00    -0.744 OA
ENDBRANCH  52  55
ENDBRANCH  24  48
BRANCH  36  59
ATOM     59  C   UNL A   1      43.116  35.420  30.744  1.00  0.00     0.023 A 
ATOM     60  C   UNL A   1      43.592  35.489  32.066  1.00  0.00     0.012 A 
ATOM     61  C   UNL A   1      43.206  36.547  29.906  1.00  0.00     0.148 A 
ATOM     62  C   UNL A   1      44.155  36.671  32.547  1.00  0.00     0.002 A 
ATOM     63  C   UNL A   1      43.807  37.704  30.378  1.00  0.00     0.091 A 
ATOM     64  F   UNL A   1      42.731  36.450  28.656  1.00  0.00    -0.205 F 
ATOM     65  C   UNL A   1      44.278  37.771  31.699  1.00  0.00     0.022 A 
BRANCH  63  66
ATOM     66  S   UNL A   1      44.096  39.129  29.325  1.00  0.00     0.127 S 
ATOM     67  O   UNL A   1      42.746  39.673  29.188  1.00  0.00    -0.237 OA
ATOM     68  O   UNL A   1      45.004  39.936  30.139  1.00  0.00    -0.237 OA
ATOM     69  O   UNL A   1      44.684  38.609  28.097  1.00  0.00    -0.744 OA
ENDBRANCH  63  66
ENDBRANCH  36  59
ENDBRANCH  10  11
ENDBRANCH   3   5
ENDBRANCH   2   3
ENDBRANCH   1   2
BRANCH   1  70
ATOM     70  C   UNL A   1      35.691  23.052  24.314  1.00  0.00     0.275 C 
BRANCH  70  71
ATOM     71  O   UNL A   1      35.389  24.363  24.809  1.00  0.00    -0.458 OA
BRANCH  71  72
ATOM     72  C   UNL A   1      34.282  24.464  25.601  1.00  0.00     0.343 C 
ATOM     73  O   UNL A   1      33.985  23.692  26.502  1.00  0.00    -0.246 OA
BRANCH  72  74
ATOM     74  C   UNL A   1      33.507  25.655  25.216  1.00  0.00     0.124 A 
ATOM     75  C   UNL A   1      33.272  26.616  26.118  1.00  0.00     0.106 A 
ATOM     76  C   UNL A   1      32.973  25.865  23.855  1.00  0.00     0.203 A 
ATOM     77  N   UNL A   1      32.562  27.786  25.908  1.00  0.00    -0.343 N 
ATOM     78  C   UNL A   1      31.975  26.954  23.683  1.00  0.00     0.047 A 
ATOM     79  O   UNL A   1      33.263  25.135  22.915  1.00  0.00    -0.288 OA
ATOM     80  C   UNL A   1      31.796  27.909  24.704  1.00  0.00     0.054 A 
ATOM     81  C   UNL A   1      31.171  26.951  22.536  1.00  0.00     0.016 A 
ATOM     82  C   UNL A   1      30.802  28.887  24.500  1.00  0.00     0.053 A 
ATOM     83  C   UNL A   1      30.159  27.898  22.394  1.00  0.00     0.027 A 
ATOM     84  C   UNL A   1      29.964  28.888  23.361  1.00  0.00     0.039 A 
BRANCH  77  85
ATOM     85  C   UNL A   1      32.706  28.903  26.878  1.00  0.00     0.087 C 
ATOM     86  C   UNL A   1      34.011  29.439  27.433  1.00  0.00     0.027 C 
ATOM     87  C   UNL A   1      33.261  30.226  26.410  1.00  0.00     0.027 C 
ENDBRANCH  77  85
BRANCH  84  88
ATOM     88  N   UNL A   1      28.979  29.843  23.216  1.00  0.00    -0.360 N 
ATOM     89  C   UNL A   1      29.153  31.162  23.830  1.00  0.00     0.178 C 
ATOM     90  C   UNL A   1      27.920  29.742  22.202  1.00  0.00     0.178 C 
ATOM     91  C   UNL A   1      29.262  32.246  22.727  1.00  0.00     0.282 C 
ATOM     92  C   UNL A   1      28.029  30.888  21.167  1.00  0.00     0.282 C 
ATOM     93  N   UNL A   1      28.138  32.240  21.762  1.00  0.00    -0.343 N 
ATOM     94  H   UNL A   1      28.314  32.926  21.028  1.00  0.00     0.346 HD
ATOM     95  H   UNL A   1      27.270  32.481  22.240  1.00  0.00     0.346 HD
ENDBRANCH  84  88
ENDBRANCH  72  74
ENDBRANCH  71  72
ENDBRANCH  70  71
ENDBRANCH   1  70
TORSDOF 16
ENDMDL
