MODEL 1
REMARK VINA RESULT:     -10.0      0.000      0.000
REMARK SMILES COC[C@@H](C)N(C)c1nc(C(C)C)c(C(=O)OCCOC(=O)c2ccc(-c3c4nc(c(-c5cccc(S(=O)(=O)[O-])c5F)c5ccc([nH]5)c(-c5cccc(S(=O)(=O)[O-])c5F)c5nc(c(-c6cccc(S(=O)(=O)[O-])c6F)c6ccc3[nH]6)C=C5)C=C4)cc2)s1
REMARK SMILES IDX 18 1 17 2 15 3 16 4 14 5 8 6 9 7 86 8 10 9 6 10 7 11 4 12
REMARK SMILES IDX 5 13 3 14 2 15 1 16 11 17 12 18 13 19 19 20 20 21 21 22
REMARK SMILES IDX 22 23 23 24 24 25 85 26 25 27 84 28 26 29 27 30 28 31 78 32
REMARK SMILES IDX 29 33 83 34 77 35 79 36 30 37 82 38 76 39 75 40 31 42 63 43
REMARK SMILES IDX 43 44 62 45 44 46 47 47 61 48 80 49 45 50 46 51 60 53 81 54
REMARK SMILES IDX 48 55 32 56 33 57 41 58 34 59 36 60 42 61 35 62 37 63 38 64
REMARK SMILES IDX 39 65 40 66 64 67 65 68 73 69 66 70 68 71 74 72 67 73 69 74
REMARK SMILES IDX 70 75 71 76 72 77 49 78 50 79 58 80 51 81 53 82 59 83 52 84
REMARK SMILES IDX 54 85 55 86 56 87 57 88
REMARK H PARENT 79 41 47 52
REMARK Flexibility Score: inf
ROOT
ATOM      1  C   UNL A   1      35.508  21.537  25.392  1.00  0.00     0.275 C 
ENDROOT
BRANCH   1   2
ATOM      2  O   UNL A   1      34.920  22.195  24.251  1.00  0.00    -0.458 OA
BRANCH   2   3
ATOM      3  C   UNL A   1      33.583  22.442  24.280  1.00  0.00     0.350 C 
ATOM      4  O   UNL A   1      32.732  21.620  23.942  1.00  0.00    -0.245 OA
BRANCH   3   5
ATOM      5  C   UNL A   1      33.312  23.753  24.824  1.00  0.00     0.137 A 
ATOM      6  C   UNL A   1      33.199  26.188  25.094  1.00  0.00     0.186 A 
ATOM      7  N   UNL A   1      32.510  25.586  26.036  1.00  0.00    -0.224 NA
ATOM      8  S   UNL A   1      34.081  25.107  24.098  1.00  0.00    -0.089 S 
ATOM      9  C   UNL A   1      32.551  24.197  25.898  1.00  0.00     0.071 A 
BRANCH   6  10
ATOM     10  N   UNL A   1      33.337  27.540  24.987  1.00  0.00    -0.346 N 
ATOM     11  C   UNL A   1      33.833  28.297  26.129  1.00  0.00     0.146 C 
BRANCH  10  12
ATOM     12  C   UNL A   1      32.535  28.258  23.979  1.00  0.00     0.107 C 
ATOM     13  C   UNL A   1      33.453  29.072  23.060  1.00  0.00     0.033 C 
BRANCH  12  14
ATOM     14  C   UNL A   1      31.417  29.091  24.647  1.00  0.00     0.184 C 
BRANCH  14  15
ATOM     15  O   UNL A   1      30.432  29.582  23.730  1.00  0.00    -0.383 OA
ATOM     16  C   UNL A   1      29.577  28.570  23.217  1.00  0.00     0.194 C 
ENDBRANCH  14  15
ENDBRANCH  12  14
ENDBRANCH  10  12
ENDBRANCH   6  10
BRANCH   9  17
ATOM     17  C   UNL A   1      31.836  23.404  26.961  1.00  0.00     0.034 C 
ATOM     18  C   UNL A   1      30.579  22.707  26.444  1.00  0.00     0.014 C 
ATOM     19  C   UNL A   1      32.768  22.455  27.718  1.00  0.00     0.014 C 
ENDBRANCH   9  17
ENDBRANCH   3   5
ENDBRANCH   2   3
ENDBRANCH   1   2
BRANCH   1  20
ATOM     20  C   UNL A   1      36.675  20.646  24.962  1.00  0.00     0.275 C 
BRANCH  20  21
ATOM     21  O   UNL A   1      37.904  21.393  24.938  1.00  0.00    -0.458 OA
BRANCH  21  22
ATOM     22  C   UNL A   1      38.852  20.959  25.799  1.00  0.00     0.338 C 
ATOM     23  O   UNL A   1      39.255  19.817  25.941  1.00  0.00    -0.246 OA
BRANCH  22  24
ATOM     24  C   UNL A   1      39.496  22.118  26.431  1.00  0.00     0.060 A 
ATOM     25  C   UNL A   1      39.045  23.371  26.037  1.00  0.00     0.016 A 
ATOM     26  C   UNL A   1      40.575  22.004  27.301  1.00  0.00     0.016 A 
ATOM     27  C   UNL A   1      39.703  24.525  26.429  1.00  0.00     0.010 A 
ATOM     28  C   UNL A   1      41.194  23.171  27.763  1.00  0.00     0.010 A 
ATOM     29  C   UNL A   1      40.781  24.441  27.310  1.00  0.00    -0.014 A 
BRANCH  29  30
ATOM     30  C   UNL A   1      41.479  25.683  27.730  1.00  0.00     0.031 A 
ATOM     31  C   UNL A   1      40.740  26.726  28.518  1.00  0.00     0.074 A 
ATOM     32  C   UNL A   1      42.776  25.867  27.410  1.00  0.00     0.049 A 
ATOM     33  N   UNL A   1      41.120  27.931  28.853  1.00  0.00    -0.248 NA
ATOM     34  C   UNL A   1      39.390  26.370  28.989  1.00  0.00     0.031 C 
ATOM     35  C   UNL A   1      43.614  24.907  26.686  1.00  0.00     0.029 A 
ATOM     36  N   UNL A   1      43.615  26.928  27.640  1.00  0.00    -0.354 N 
ATOM     37  C   UNL A   1      40.036  28.502  29.509  1.00  0.00     0.074 A 
ATOM     38  C   UNL A   1      38.985  27.508  29.534  1.00  0.00     0.031 C 
ATOM     39  C   UNL A   1      44.842  25.422  26.530  1.00  0.00     0.029 A 
ATOM     40  C   UNL A   1      44.859  26.776  27.071  1.00  0.00     0.049 A 
ATOM     41  H   UNL A   1      43.353  27.722  28.161  1.00  0.00     0.167 HD
ATOM     42  C   UNL A   1      39.931  29.742  30.044  1.00  0.00     0.034 A 
ATOM     43  C   UNL A   1      45.881  27.644  26.952  1.00  0.00     0.034 A 
ATOM     44  C   UNL A   1      41.000  30.704  30.051  1.00  0.00     0.049 A 
ATOM     45  C   UNL A   1      45.725  29.025  27.526  1.00  0.00     0.074 A 
ATOM     46  C   UNL A   1      41.009  31.976  30.595  1.00  0.00     0.029 A 
ATOM     47  N   UNL A   1      42.251  30.503  29.486  1.00  0.00    -0.354 N 
ATOM     48  N   UNL A   1      44.713  29.534  28.185  1.00  0.00    -0.248 NA
ATOM     49  C   UNL A   1      46.858  29.945  27.356  1.00  0.00     0.031 C 
ATOM     50  C   UNL A   1      42.255  32.555  30.333  1.00  0.00     0.029 A 
ATOM     51  C   UNL A   1      43.036  31.630  29.658  1.00  0.00     0.049 A 
ATOM     52  H   UNL A   1      42.538  29.679  29.030  1.00  0.00     0.167 HD
ATOM     53  C   UNL A   1      45.097  30.824  28.533  1.00  0.00     0.074 A 
ATOM     54  C   UNL A   1      46.444  31.007  28.032  1.00  0.00     0.031 C 
ATOM     55  C   UNL A   1      44.392  31.776  29.195  1.00  0.00     0.034 A 
BRANCH  42  56
ATOM     56  C   UNL A   1      38.614  30.129  30.665  1.00  0.00     0.023 A 
ATOM     57  C   UNL A   1      38.325  29.765  31.995  1.00  0.00     0.012 A 
ATOM     58  C   UNL A   1      37.678  30.896  29.941  1.00  0.00     0.148 A 
ATOM     59  C   UNL A   1      37.113  30.126  32.584  1.00  0.00     0.002 A 
ATOM     60  C   UNL A   1      36.493  31.292  30.550  1.00  0.00     0.091 A 
ATOM     61  F   UNL A   1      37.960  31.215  28.670  1.00  0.00    -0.205 F 
ATOM     62  C   UNL A   1      36.203  30.897  31.866  1.00  0.00     0.022 A 
BRANCH  60  63
ATOM     63  S   UNL A   1      35.292  32.351  29.735  1.00  0.00     0.127 S 
ATOM     64  O   UNL A   1      34.808  31.479  28.665  1.00  0.00    -0.237 OA
ATOM     65  O   UNL A   1      34.324  32.596  30.805  1.00  0.00    -0.237 OA
ATOM     66  O   UNL A   1      36.025  33.529  29.295  1.00  0.00    -0.744 OA
ENDBRANCH  60  63
ENDBRANCH  42  56
BRANCH  43  67
ATOM     67  C   UNL A   1      47.135  27.233  26.259  1.00  0.00     0.023 A 
ATOM     68  C   UNL A   1      47.327  27.576  24.908  1.00  0.00     0.012 A 
ATOM     69  C   UNL A   1      48.150  26.528  26.939  1.00  0.00     0.148 A 
ATOM     70  C   UNL A   1      48.493  27.202  24.237  1.00  0.00     0.002 A 
ATOM     71  C   UNL A   1      49.334  26.213  26.283  1.00  0.00     0.091 A 
ATOM     72  F   UNL A   1      47.943  26.195  28.221  1.00  0.00    -0.205 F 
ATOM     73  C   UNL A   1      49.500  26.532  24.927  1.00  0.00     0.022 A 
BRANCH  71  74
ATOM     74  S   UNL A   1      50.735  25.469  27.126  1.00  0.00     0.127 S 
ATOM     75  O   UNL A   1      50.124  24.291  27.738  1.00  0.00    -0.237 OA
ATOM     76  O   UNL A   1      51.640  25.185  26.013  1.00  0.00    -0.237 OA
ATOM     77  O   UNL A   1      51.221  26.482  28.052  1.00  0.00    -0.744 OA
ENDBRANCH  71  74
ENDBRANCH  43  67
BRANCH  55  78
ATOM     78  C   UNL A   1      45.079  33.089  29.458  1.00  0.00     0.023 A 
ATOM     79  C   UNL A   1      44.953  34.147  28.537  1.00  0.00     0.012 A 
ATOM     80  C   UNL A   1      45.791  33.293  30.656  1.00  0.00     0.148 A 
ATOM     81  C   UNL A   1      45.552  35.380  28.790  1.00  0.00     0.002 A 
ATOM     82  C   UNL A   1      46.340  34.540  30.926  1.00  0.00     0.091 A 
ATOM     83  F   UNL A   1      45.915  32.267  31.510  1.00  0.00    -0.205 F 
ATOM     84  C   UNL A   1      46.233  35.580  29.988  1.00  0.00     0.022 A 
BRANCH  82  85
ATOM     85  S   UNL A   1      47.148  34.921  32.484  1.00  0.00     0.127 S 
ATOM     86  O   UNL A   1      48.350  34.092  32.406  1.00  0.00    -0.237 OA
ATOM     87  O   UNL A   1      47.390  36.360  32.363  1.00  0.00    -0.237 OA
ATOM     88  O   UNL A   1      46.203  34.553  33.529  1.00  0.00    -0.744 OA
ENDBRANCH  82  85
ENDBRANCH  55  78
ENDBRANCH  29  30
ENDBRANCH  22  24
ENDBRANCH  21  22
ENDBRANCH  20  21
ENDBRANCH   1  20
TORSDOF 19
ENDMDL
MODEL 2
REMARK VINA RESULT:      -9.9      4.935      9.930
REMARK SMILES COC[C@@H](C)N(C)c1nc(C(C)C)c(C(=O)OCCOC(=O)c2ccc(-c3c4nc(c(-c5cccc(S(=O)(=O)[O-])c5F)c5ccc([nH]5)c(-c5cccc(S(=O)(=O)[O-])c5F)c5nc(c(-c6cccc(S(=O)(=O)[O-])c6F)c6ccc3[nH]6)C=C5)C=C4)cc2)s1
REMARK SMILES IDX 18 1 17 2 15 3 16 4 14 5 8 6 9 7 86 8 10 9 6 10 7 11 4 12
REMARK SMILES IDX 5 13 3 14 2 15 1 16 11 17 12 18 13 19 19 20 20 21 21 22
REMARK SMILES IDX 22 23 23 24 24 25 85 26 25 27 84 28 26 29 27 30 28 31 78 32
REMARK SMILES IDX 29 33 83 34 77 35 79 36 30 37 82 38 76 39 75 40 31 42 63 43
REMARK SMILES IDX 43 44 62 45 44 46 47 47 61 48 80 49 45 50 46 51 60 53 81 54
REMARK SMILES IDX 48 55 32 56 33 57 41 58 34 59 36 60 42 61 35 62 37 63 38 64
REMARK SMILES IDX 39 65 40 66 64 67 65 68 73 69 66 70 68 71 74 72 67 73 69 74
REMARK SMILES IDX 70 75 71 76 72 77 49 78 50 79 58 80 51 81 53 82 59 83 52 84
REMARK SMILES IDX 54 85 55 86 56 87 57 88
REMARK H PARENT 79 41 47 52
REMARK Flexibility Score: inf
ROOT
ATOM      1  C   UNL A   1      31.912  29.346  26.614  1.00  0.00     0.275 C 
ENDROOT
BRANCH   1   2
ATOM      2  O   UNL A   1      32.732  28.163  26.510  1.00  0.00    -0.458 OA
BRANCH   2   3
ATOM      3  C   UNL A   1      32.109  26.978  26.271  1.00  0.00     0.350 C 
ATOM      4  O   UNL A   1      30.990  26.699  26.698  1.00  0.00    -0.245 OA
BRANCH   3   5
ATOM      5  C   UNL A   1      32.906  26.144  25.400  1.00  0.00     0.137 A 
ATOM      6  C   UNL A   1      34.257  24.284  24.548  1.00  0.00     0.186 A 
ATOM      7  N   UNL A   1      33.971  25.127  23.583  1.00  0.00    -0.224 NA
ATOM      8  S   UNL A   1      33.755  24.823  26.095  1.00  0.00    -0.089 S 
ATOM      9  C   UNL A   1      33.193  26.192  24.042  1.00  0.00     0.071 A 
BRANCH   6  10
ATOM     10  N   UNL A   1      35.008  23.157  24.387  1.00  0.00    -0.346 N 
ATOM     11  C   UNL A   1      36.050  23.136  23.369  1.00  0.00     0.146 C 
BRANCH  10  12
ATOM     12  C   UNL A   1      34.454  21.866  24.836  1.00  0.00     0.107 C 
ATOM     13  C   UNL A   1      35.574  20.825  24.949  1.00  0.00     0.033 C 
BRANCH  12  14
ATOM     14  C   UNL A   1      33.276  21.423  23.939  1.00  0.00     0.184 C 
BRANCH  14  15
ATOM     15  O   UNL A   1      32.392  20.483  24.562  1.00  0.00    -0.383 OA
ATOM     16  C   UNL A   1      32.416  19.195  23.960  1.00  0.00     0.194 C 
ENDBRANCH  14  15
ENDBRANCH  12  14
ENDBRANCH  10  12
ENDBRANCH   6  10
BRANCH   9  17
ATOM     17  C   UNL A   1      32.852  27.250  23.025  1.00  0.00     0.034 C 
ATOM     18  C   UNL A   1      31.353  27.524  22.925  1.00  0.00     0.014 C 
ATOM     19  C   UNL A   1      33.676  28.528  23.202  1.00  0.00     0.014 C 
ENDBRANCH   9  17
ENDBRANCH   3   5
ENDBRANCH   2   3
ENDBRANCH   1   2
BRANCH   1  20
ATOM     20  C   UNL A   1      32.756  30.609  26.432  1.00  0.00     0.275 C 
BRANCH  20  21
ATOM     21  O   UNL A   1      32.876  31.323  27.674  1.00  0.00    -0.458 OA
BRANCH  21  22
ATOM     22  C   UNL A   1      33.729  32.372  27.649  1.00  0.00     0.338 C 
ATOM     23  O   UNL A   1      33.460  33.540  27.424  1.00  0.00    -0.246 OA
BRANCH  22  24
ATOM     24  C   UNL A   1      35.044  31.936  28.137  1.00  0.00     0.060 A 
ATOM     25  C   UNL A   1      35.107  30.671  28.708  1.00  0.00     0.016 A 
ATOM     26  C   UNL A   1      36.163  32.761  28.141  1.00  0.00     0.016 A 
ATOM     27  C   UNL A   1      36.247  30.235  29.362  1.00  0.00     0.010 A 
ATOM     28  C   UNL A   1      37.344  32.294  28.732  1.00  0.00     0.010 A 
ATOM     29  C   UNL A   1      37.388  31.038  29.371  1.00  0.00    -0.014 A 
BRANCH  29  30
ATOM     30  C   UNL A   1      38.608  30.562  30.071  1.00  0.00     0.031 A 
ATOM     31  C   UNL A   1      39.515  29.569  29.403  1.00  0.00     0.074 A 
ATOM     32  C   UNL A   1      38.905  31.031  31.300  1.00  0.00     0.049 A 
ATOM     33  N   UNL A   1      40.540  28.925  29.896  1.00  0.00    -0.248 NA
ATOM     34  C   UNL A   1      39.227  29.251  27.994  1.00  0.00     0.031 C 
ATOM     35  C   UNL A   1      38.126  32.032  32.036  1.00  0.00     0.029 A 
ATOM     36  N   UNL A   1      39.932  30.720  32.156  1.00  0.00    -0.354 N 
ATOM     37  C   UNL A   1      40.976  28.076  28.885  1.00  0.00     0.074 A 
ATOM     38  C   UNL A   1      40.109  28.293  27.747  1.00  0.00     0.031 C 
ATOM     39  C   UNL A   1      38.701  32.251  33.228  1.00  0.00     0.029 A 
ATOM     40  C   UNL A   1      39.839  31.352  33.375  1.00  0.00     0.049 A 
ATOM     41  H   UNL A   1      40.664  30.105  31.921  1.00  0.00     0.167 HD
ATOM     42  C   UNL A   1      42.007  27.199  28.906  1.00  0.00     0.034 A 
ATOM     43  C   UNL A   1      40.556  31.191  34.503  1.00  0.00     0.034 A 
ATOM     44  C   UNL A   1      42.889  27.027  30.029  1.00  0.00     0.049 A 
ATOM     45  C   UNL A   1      41.675  30.186  34.509  1.00  0.00     0.074 A 
ATOM     46  C   UNL A   1      43.984  26.189  30.143  1.00  0.00     0.029 A 
ATOM     47  N   UNL A   1      42.776  27.701  31.236  1.00  0.00    -0.354 N 
ATOM     48  N   UNL A   1      42.105  29.426  33.532  1.00  0.00    -0.248 NA
ATOM     49  C   UNL A   1      42.418  30.030  35.767  1.00  0.00     0.031 C 
ATOM     50  C   UNL A   1      44.515  26.336  31.428  1.00  0.00     0.029 A 
ATOM     51  C   UNL A   1      43.774  27.292  32.103  1.00  0.00     0.049 A 
ATOM     52  H   UNL A   1      42.087  28.373  31.445  1.00  0.00     0.167 HD
ATOM     53  C   UNL A   1      43.187  28.721  34.047  1.00  0.00     0.074 A 
ATOM     54  C   UNL A   1      43.360  29.165  35.415  1.00  0.00     0.031 C 
ATOM     55  C   UNL A   1      43.959  27.782  33.446  1.00  0.00     0.034 A 
BRANCH  42  56
ATOM     56  C   UNL A   1      42.239  26.358  27.677  1.00  0.00     0.023 A 
ATOM     57  C   UNL A   1      42.942  26.890  26.578  1.00  0.00     0.012 A 
ATOM     58  C   UNL A   1      41.796  25.021  27.631  1.00  0.00     0.148 A 
ATOM     59  C   UNL A   1      43.171  26.118  25.440  1.00  0.00     0.002 A 
ATOM     60  C   UNL A   1      42.068  24.242  26.512  1.00  0.00     0.091 A 
ATOM     61  F   UNL A   1      41.110  24.538  28.677  1.00  0.00    -0.205 F 
ATOM     62  C   UNL A   1      42.744  24.793  25.411  1.00  0.00     0.022 A 
BRANCH  60  63
ATOM     63  S   UNL A   1      41.629  22.504  26.410  1.00  0.00     0.127 S 
ATOM     64  O   UNL A   1      42.332  22.092  25.196  1.00  0.00    -0.237 OA
ATOM     65  O   UNL A   1      42.193  21.972  27.652  1.00  0.00    -0.237 OA
ATOM     66  O   UNL A   1      40.176  22.458  26.334  1.00  0.00    -0.744 OA
ENDBRANCH  60  63
ENDBRANCH  42  56
BRANCH  43  67
ATOM     67  C   UNL A   1      40.235  31.995  35.716  1.00  0.00     0.023 A 
ATOM     68  C   UNL A   1      41.060  33.078  36.071  1.00  0.00     0.012 A 
ATOM     69  C   UNL A   1      39.101  31.710  36.505  1.00  0.00     0.148 A 
ATOM     70  C   UNL A   1      40.780  33.846  37.202  1.00  0.00     0.002 A 
ATOM     71  C   UNL A   1      38.793  32.515  37.595  1.00  0.00     0.091 A 
ATOM     72  F   UNL A   1      38.335  30.663  36.162  1.00  0.00    -0.205 F 
ATOM     73  C   UNL A   1      39.641  33.572  37.956  1.00  0.00     0.022 A 
BRANCH  71  74
ATOM     74  S   UNL A   1      37.280  32.318  38.542  1.00  0.00     0.127 S 
ATOM     75  O   UNL A   1      37.596  33.051  39.766  1.00  0.00    -0.237 OA
ATOM     76  O   UNL A   1      36.295  32.965  37.674  1.00  0.00    -0.237 OA
ATOM     77  O   UNL A   1      37.094  30.882  38.695  1.00  0.00    -0.744 OA
ENDBRANCH  71  74
ENDBRANCH  43  67
BRANCH  55  78
ATOM     78  C   UNL A   1      45.092  27.199  34.248  1.00  0.00     0.023 A 
ATOM     79  C   UNL A   1      46.357  27.817  34.234  1.00  0.00     0.012 A 
ATOM     80  C   UNL A   1      44.877  26.077  35.074  1.00  0.00     0.148 A 
ATOM     81  C   UNL A   1      47.401  27.309  35.005  1.00  0.00     0.002 A 
ATOM     82  C   UNL A   1      45.906  25.609  35.879  1.00  0.00     0.091 A 
ATOM     83  F   UNL A   1      43.670  25.493  35.058  1.00  0.00    -0.205 F 
ATOM     84  C   UNL A   1      47.173  26.215  35.835  1.00  0.00     0.022 A 
BRANCH  82  85
ATOM     85  S   UNL A   1      45.678  24.270  37.054  1.00  0.00     0.127 S 
ATOM     86  O   UNL A   1      44.569  24.771  37.864  1.00  0.00    -0.237 OA
ATOM     87  O   UNL A   1      45.336  23.147  36.179  1.00  0.00    -0.237 OA
ATOM     88  O   UNL A   1      46.947  24.127  37.754  1.00  0.00    -0.744 OA
ENDBRANCH  82  85
ENDBRANCH  55  78
ENDBRANCH  29  30
ENDBRANCH  22  24
ENDBRANCH  21  22
ENDBRANCH  20  21
ENDBRANCH   1  20
TORSDOF 19
ENDMDL
MODEL 3
REMARK VINA RESULT:      -9.7      2.007      7.967
REMARK SMILES COC[C@@H](C)N(C)c1nc(C(C)C)c(C(=O)OCCOC(=O)c2ccc(-c3c4nc(c(-c5cccc(S(=O)(=O)[O-])c5F)c5ccc([nH]5)c(-c5cccc(S(=O)(=O)[O-])c5F)c5nc(c(-c6cccc(S(=O)(=O)[O-])c6F)c6ccc3[nH]6)C=C5)C=C4)cc2)s1
REMARK SMILES IDX 18 1 17 2 15 3 16 4 14 5 8 6 9 7 86 8 10 9 6 10 7 11 4 12
REMARK SMILES IDX 5 13 3 14 2 15 1 16 11 17 12 18 13 19 19 20 20 21 21 22
REMARK SMILES IDX 22 23 23 24 24 25 85 26 25 27 84 28 26 29 27 30 28 31 78 32
REMARK SMILES IDX 29 33 83 34 77 35 79 36 30 37 82 38 76 39 75 40 31 42 63 43
REMARK SMILES IDX 43 44 62 45 44 46 47 47 61 48 80 49 45 50 46 51 60 53 81 54
REMARK SMILES IDX 48 55 32 56 33 57 41 58 34 59 36 60 42 61 35 62 37 63 38 64
REMARK SMILES IDX 39 65 40 66 64 67 65 68 73 69 66 70 68 71 74 72 67 73 69 74
REMARK SMILES IDX 70 75 71 76 72 77 49 78 50 79 58 80 51 81 53 82 59 83 52 84
REMARK SMILES IDX 54 85 55 86 56 87 57 88
REMARK H PARENT 79 41 47 52
REMARK Flexibility Score: inf
ROOT
ATOM      1  C   UNL A   1      35.584  20.909  25.497  1.00  0.00     0.275 C 
ENDROOT
BRANCH   1   2
ATOM      2  O   UNL A   1      35.396  22.297  25.152  1.00  0.00    -0.458 OA
BRANCH   2   3
ATOM      3  C   UNL A   1      34.596  23.048  25.955  1.00  0.00     0.350 C 
ATOM      4  O   UNL A   1      34.655  23.031  27.183  1.00  0.00    -0.245 OA
BRANCH   3   5
ATOM      5  C   UNL A   1      33.735  23.903  25.169  1.00  0.00     0.137 A 
ATOM      6  C   UNL A   1      32.867  25.836  23.935  1.00  0.00     0.186 A 
ATOM      7  N   UNL A   1      32.085  24.795  23.772  1.00  0.00    -0.224 NA
ATOM      8  S   UNL A   1      34.125  25.573  25.069  1.00  0.00    -0.089 S 
ATOM      9  C   UNL A   1      32.565  23.677  24.458  1.00  0.00     0.071 A 
BRANCH   6  10
ATOM     10  N   UNL A   1      32.639  27.063  23.385  1.00  0.00    -0.346 N 
ATOM     11  C   UNL A   1      33.710  27.723  22.649  1.00  0.00     0.146 C 
BRANCH  10  12
ATOM     12  C   UNL A   1      31.568  27.905  23.948  1.00  0.00     0.107 C 
ATOM     13  C   UNL A   1      31.874  28.235  25.414  1.00  0.00     0.033 C 
BRANCH  12  14
ATOM     14  C   UNL A   1      30.179  27.262  23.727  1.00  0.00     0.184 C 
BRANCH  14  15
ATOM     15  O   UNL A   1      29.301  28.043  22.909  1.00  0.00    -0.383 OA
ATOM     16  C   UNL A   1      29.908  29.214  22.379  1.00  0.00     0.194 C 
ENDBRANCH  14  15
ENDBRANCH  12  14
ENDBRANCH  10  12
ENDBRANCH   6  10
BRANCH   9  17
ATOM     17  C   UNL A   1      31.711  22.437  24.382  1.00  0.00     0.034 C 
ATOM     18  C   UNL A   1      32.429  21.255  23.734  1.00  0.00     0.014 C 
ATOM     19  C   UNL A   1      31.073  22.075  25.726  1.00  0.00     0.014 C 
ENDBRANCH   9  17
ENDBRANCH   3   5
ENDBRANCH   2   3
ENDBRANCH   1   2
BRANCH   1  20
ATOM     20  C   UNL A   1      36.924  20.395  24.965  1.00  0.00     0.275 C 
BRANCH  20  21
ATOM     21  O   UNL A   1      37.943  21.402  25.094  1.00  0.00    -0.458 OA
BRANCH  21  22
ATOM     22  C   UNL A   1      38.939  21.098  25.956  1.00  0.00     0.338 C 
ATOM     23  O   UNL A   1      39.430  20.001  26.162  1.00  0.00    -0.246 OA
BRANCH  22  24
ATOM     24  C   UNL A   1      39.509  22.340  26.493  1.00  0.00     0.060 A 
ATOM     25  C   UNL A   1      38.926  23.526  26.066  1.00  0.00     0.016 A 
ATOM     26  C   UNL A   1      40.638  22.368  27.303  1.00  0.00     0.016 A 
ATOM     27  C   UNL A   1      39.495  24.753  26.363  1.00  0.00     0.010 A 
ATOM     28  C   UNL A   1      41.173  23.609  27.672  1.00  0.00     0.010 A 
ATOM     29  C   UNL A   1      40.622  24.811  27.183  1.00  0.00    -0.014 A 
BRANCH  29  30
ATOM     30  C   UNL A   1      41.226  26.130  27.501  1.00  0.00     0.031 A 
ATOM     31  C   UNL A   1      42.623  26.443  27.047  1.00  0.00     0.074 A 
ATOM     32  C   UNL A   1      40.514  27.048  28.187  1.00  0.00     0.049 A 
ATOM     33  N   UNL A   1      43.377  27.468  27.342  1.00  0.00    -0.248 NA
ATOM     34  C   UNL A   1      43.261  25.469  26.145  1.00  0.00     0.031 C 
ATOM     35  C   UNL A   1      39.132  26.879  28.644  1.00  0.00     0.029 A 
ATOM     36  N   UNL A   1      40.858  28.300  28.633  1.00  0.00    -0.354 N 
ATOM     37  C   UNL A   1      44.599  27.232  26.723  1.00  0.00     0.074 A 
ATOM     38  C   UNL A   1      44.482  25.968  26.028  1.00  0.00     0.031 C 
ATOM     39  C   UNL A   1      38.747  27.982  29.305  1.00  0.00     0.029 A 
ATOM     40  C   UNL A   1      39.876  28.901  29.387  1.00  0.00     0.049 A 
ATOM     41  H   UNL A   1      41.723  28.726  28.433  1.00  0.00     0.167 HD
ATOM     42  C   UNL A   1      45.713  28.000  26.733  1.00  0.00     0.034 A 
ATOM     43  C   UNL A   1      39.896  30.038  30.107  1.00  0.00     0.034 A 
ATOM     44  C   UNL A   1      45.799  29.277  27.392  1.00  0.00     0.049 A 
ATOM     45  C   UNL A   1      41.157  30.857  30.127  1.00  0.00     0.074 A 
ATOM     46  C   UNL A   1      46.871  30.151  27.437  1.00  0.00     0.029 A 
ATOM     47  N   UNL A   1      44.777  29.861  28.125  1.00  0.00    -0.354 N 
ATOM     48  N   UNL A   1      42.288  30.644  29.499  1.00  0.00    -0.248 NA
ATOM     49  C   UNL A   1      41.140  32.080  30.941  1.00  0.00     0.031 C 
ATOM     50  C   UNL A   1      46.505  31.250  28.221  1.00  0.00     0.029 A 
ATOM     51  C   UNL A   1      45.193  31.078  28.634  1.00  0.00     0.049 A 
ATOM     52  H   UNL A   1      43.885  29.467  28.262  1.00  0.00     0.167 HD
ATOM     53  C   UNL A   1      43.108  31.721  29.818  1.00  0.00     0.074 A 
ATOM     54  C   UNL A   1      42.333  32.594  30.675  1.00  0.00     0.031 C 
ATOM     55  C   UNL A   1      44.391  31.957  29.446  1.00  0.00     0.034 A 
BRANCH  42  56
ATOM     56  C   UNL A   1      46.930  27.484  26.010  1.00  0.00     0.023 A 
ATOM     57  C   UNL A   1      47.841  26.639  26.675  1.00  0.00     0.012 A 
ATOM     58  C   UNL A   1      47.146  27.802  24.654  1.00  0.00     0.148 A 
ATOM     59  C   UNL A   1      48.967  26.148  26.013  1.00  0.00     0.002 A 
ATOM     60  C   UNL A   1      48.245  27.272  23.988  1.00  0.00     0.091 A 
ATOM     61  F   UNL A   1      46.280  28.625  24.045  1.00  0.00    -0.205 F 
ATOM     62  C   UNL A   1      49.162  26.455  24.669  1.00  0.00     0.022 A 
BRANCH  60  63
ATOM     63  S   UNL A   1      48.541  27.545  22.238  1.00  0.00     0.127 S 
ATOM     64  O   UNL A   1      47.264  28.109  21.807  1.00  0.00    -0.237 OA
ATOM     65  O   UNL A   1      49.652  28.498  22.260  1.00  0.00    -0.237 OA
ATOM     66  O   UNL A   1      48.869  26.243  21.675  1.00  0.00    -0.744 OA
ENDBRANCH  60  63
ENDBRANCH  42  56
BRANCH  43  67
ATOM     67  C   UNL A   1      38.687  30.465  30.867  1.00  0.00     0.023 A 
ATOM     68  C   UNL A   1      38.596  30.184  32.243  1.00  0.00     0.012 A 
ATOM     69  C   UNL A   1      37.640  31.171  30.240  1.00  0.00     0.148 A 
ATOM     70  C   UNL A   1      37.473  30.573  32.976  1.00  0.00     0.002 A 
ATOM     71  C   UNL A   1      36.553  31.609  30.988  1.00  0.00     0.091 A 
ATOM     72  F   UNL A   1      37.735  31.415  28.925  1.00  0.00    -0.205 F 
ATOM     73  C   UNL A   1      36.459  31.295  32.352  1.00  0.00     0.022 A 
BRANCH  71  74
ATOM     74  S   UNL A   1      35.267  32.655  30.298  1.00  0.00     0.127 S 
ATOM     75  O   UNL A   1      34.737  31.813  29.229  1.00  0.00    -0.237 OA
ATOM     76  O   UNL A   1      34.374  32.829  31.444  1.00  0.00    -0.237 OA
ATOM     77  O   UNL A   1      35.938  33.874  29.869  1.00  0.00    -0.744 OA
ENDBRANCH  71  74
ENDBRANCH  43  67
BRANCH  55  78
ATOM     78  C   UNL A   1      45.027  33.233  29.927  1.00  0.00     0.023 A 
ATOM     79  C   UNL A   1      45.788  33.239  31.113  1.00  0.00     0.012 A 
ATOM     80  C   UNL A   1      44.929  34.412  29.161  1.00  0.00     0.148 A 
ATOM     81  C   UNL A   1      46.415  34.406  31.545  1.00  0.00     0.002 A 
ATOM     82  C   UNL A   1      45.600  35.557  29.571  1.00  0.00     0.091 A 
ATOM     83  F   UNL A   1      44.185  34.390  28.046  1.00  0.00    -0.205 F 
ATOM     84  C   UNL A   1      46.332  35.560  30.770  1.00  0.00     0.022 A 
BRANCH  82  85
ATOM     85  S   UNL A   1      45.633  37.059  28.587  1.00  0.00     0.127 S 
ATOM     86  O   UNL A   1      46.583  37.882  29.333  1.00  0.00    -0.237 OA
ATOM     87  O   UNL A   1      46.127  36.573  27.298  1.00  0.00    -0.237 OA
ATOM     88  O   UNL A   1      44.263  37.555  28.562  1.00  0.00    -0.744 OA
ENDBRANCH  82  85
ENDBRANCH  55  78
ENDBRANCH  29  30
ENDBRANCH  22  24
ENDBRANCH  21  22
ENDBRANCH  20  21
ENDBRANCH   1  20
TORSDOF 19
ENDMDL
