MODEL 1
REMARK VINA RESULT:      -9.5      0.000      0.000
REMARK SMILES C/C=C/c1cncc(-c2ccc([C@@H](C)C(=O)OCCOC(=O)c3ccc(-c4c5nc(c(-c6cccc(S(=O)(=O)[O-])c6F)c6ccc([nH]6)c(-c6cccc(S(=O)(=O)[O-])c6F)c6nc(c(-c7cccc(S(=O)(=O)[O-])c7F)c7ccc4[nH]7)C=C6)C=C5)cc3)cc2)c1
REMARK SMILES IDX 18 1 17 2 15 3 16 4 13 5 14 6 12 7 9 8 10 9 87 10 11 11
REMARK SMILES IDX 86 12 8 13 4 14 5 15 88 16 6 17 7 18 3 19 1 20 2 21 19 22
REMARK SMILES IDX 20 23 21 24 22 25 23 26 24 27 85 28 25 29 84 30 26 31 27 32
REMARK SMILES IDX 28 33 78 34 29 35 83 36 77 37 79 38 30 39 82 40 76 41 75 42
REMARK SMILES IDX 31 44 63 45 43 46 62 47 44 48 47 49 61 50 80 51 45 52 46 53
REMARK SMILES IDX 60 55 81 56 48 57 32 58 33 59 41 60 34 61 36 62 42 63 35 64
REMARK SMILES IDX 37 65 38 66 39 67 40 68 64 69 65 70 73 71 66 72 68 73 74 74
REMARK SMILES IDX 67 75 69 76 70 77 71 78 72 79 49 80 50 81 58 82 51 83 53 84
REMARK SMILES IDX 59 85 52 86 54 87 55 88 56 89 57 90
REMARK H PARENT 79 43 47 54
REMARK Flexibility Score: inf
ROOT
ATOM      1  C   UNL A   1      33.964  34.146  28.572  1.00  0.00     0.274 C 
ENDROOT
BRANCH   1   2
ATOM      2  O   UNL A   1      33.446  34.343  29.901  1.00  0.00    -0.462 OA
BRANCH   2   3
ATOM      3  C   UNL A   1      34.350  34.356  30.915  1.00  0.00     0.313 C 
ATOM      4  O   UNL A   1      34.401  35.223  31.781  1.00  0.00    -0.252 OA
BRANCH   3   5
ATOM      5  C   UNL A   1      35.355  33.212  30.861  1.00  0.00     0.126 C 
ATOM      6  C   UNL A   1      35.228  32.358  32.122  1.00  0.00     0.025 C 
BRANCH   5   7
ATOM      7  C   UNL A   1      36.796  33.602  30.562  1.00  0.00    -0.034 A 
ATOM      8  C   UNL A   1      39.492  34.278  29.971  1.00  0.00    -0.017 A 
ATOM      9  C   UNL A   1      38.959  34.475  31.253  1.00  0.00     0.009 A 
ATOM     10  C   UNL A   1      38.650  33.753  28.982  1.00  0.00     0.009 A 
ATOM     11  C   UNL A   1      37.634  34.140  31.546  1.00  0.00     0.005 A 
ATOM     12  C   UNL A   1      37.322  33.416  29.274  1.00  0.00     0.005 A 
BRANCH   8  13
ATOM     13  C   UNL A   1      40.901  34.580  29.693  1.00  0.00     0.001 A 
ATOM     14  C   UNL A   1      43.261  33.998  29.657  1.00  0.00    -0.007 A 
ATOM     15  C   UNL A   1      43.503  35.261  29.123  1.00  0.00     0.119 A 
ATOM     16  C   UNL A   1      41.933  33.669  29.956  1.00  0.00     0.020 A 
ATOM     17  N   UNL A   1      42.545  36.177  28.853  1.00  0.00    -0.263 NA
ATOM     18  C   UNL A   1      41.275  35.809  29.145  1.00  0.00     0.119 A 
BRANCH  14  19
ATOM     19  C   UNL A   1      44.388  33.094  29.911  1.00  0.00     0.005 C 
ATOM     20  C   UNL A   1      45.443  30.836  30.099  1.00  0.00     0.035 C 
ATOM     21  C   UNL A   1      44.285  31.757  29.888  1.00  0.00    -0.030 C 
ENDBRANCH  14  19
ENDBRANCH   8  13
ENDBRANCH   5   7
ENDBRANCH   3   5
ENDBRANCH   2   3
ENDBRANCH   1   2
BRANCH   1  22
ATOM     22  C   UNL A   1      33.460  32.827  27.986  1.00  0.00     0.275 C 
BRANCH  22  23
ATOM     23  O   UNL A   1      34.540  32.096  27.381  1.00  0.00    -0.458 OA
BRANCH  23  24
ATOM     24  C   UNL A   1      34.490  30.753  27.529  1.00  0.00     0.338 C 
ATOM     25  O   UNL A   1      33.593  29.998  27.202  1.00  0.00    -0.246 OA
BRANCH  24  26
ATOM     26  C   UNL A   1      35.767  30.293  28.090  1.00  0.00     0.060 A 
ATOM     27  C   UNL A   1      36.911  30.371  27.295  1.00  0.00     0.016 A 
ATOM     28  C   UNL A   1      35.820  29.731  29.364  1.00  0.00     0.016 A 
ATOM     29  C   UNL A   1      38.123  29.874  27.767  1.00  0.00     0.010 A 
ATOM     30  C   UNL A   1      37.040  29.252  29.846  1.00  0.00     0.010 A 
ATOM     31  C   UNL A   1      38.196  29.310  29.046  1.00  0.00    -0.014 A 
BRANCH  31  32
ATOM     32  C   UNL A   1      39.484  28.780  29.552  1.00  0.00     0.031 A 
ATOM     33  C   UNL A   1      40.214  29.496  30.649  1.00  0.00     0.074 A 
ATOM     34  C   UNL A   1      40.012  27.676  28.992  1.00  0.00     0.049 A 
ATOM     35  N   UNL A   1      41.392  29.244  31.157  1.00  0.00    -0.248 NA
ATOM     36  C   UNL A   1      39.531  30.651  31.252  1.00  0.00     0.031 C 
ATOM     37  C   UNL A   1      39.397  26.907  27.910  1.00  0.00     0.029 A 
ATOM     38  N   UNL A   1      41.200  27.032  29.231  1.00  0.00    -0.354 N 
ATOM     39  C   UNL A   1      41.613  30.232  32.109  1.00  0.00     0.074 A 
ATOM     40  C   UNL A   1      40.446  31.088  32.107  1.00  0.00     0.031 C 
ATOM     41  C   UNL A   1      40.227  25.913  27.555  1.00  0.00     0.029 A 
ATOM     42  C   UNL A   1      41.444  26.000  28.357  1.00  0.00     0.049 A 
ATOM     43  H   UNL A   1      41.816  27.285  29.957  1.00  0.00     0.167 HD
ATOM     44  C   UNL A   1      42.684  30.398  32.921  1.00  0.00     0.034 A 
ATOM     45  C   UNL A   1      42.540  25.233  28.193  1.00  0.00     0.034 A 
ATOM     46  C   UNL A   1      43.826  29.523  32.939  1.00  0.00     0.049 A 
ATOM     47  C   UNL A   1      43.719  25.440  29.101  1.00  0.00     0.074 A 
ATOM     48  C   UNL A   1      44.933  29.570  33.769  1.00  0.00     0.029 A 
ATOM     49  N   UNL A   1      44.015  28.451  32.081  1.00  0.00    -0.354 N 
ATOM     50  N   UNL A   1      43.864  26.301  30.080  1.00  0.00    -0.248 NA
ATOM     51  C   UNL A   1      44.876  24.554  28.904  1.00  0.00     0.031 C 
ATOM     52  C   UNL A   1      45.800  28.534  33.399  1.00  0.00     0.029 A 
ATOM     53  C   UNL A   1      45.226  27.834  32.349  1.00  0.00     0.049 A 
ATOM     54  H   UNL A   1      43.380  28.167  31.384  1.00  0.00     0.167 HD
ATOM     55  C   UNL A   1      45.119  26.054  30.623  1.00  0.00     0.074 A 
ATOM     56  C   UNL A   1      45.682  24.942  29.885  1.00  0.00     0.031 C 
ATOM     57  C   UNL A   1      45.757  26.704  31.630  1.00  0.00     0.034 A 
BRANCH  44  58
ATOM     58  C   UNL A   1      42.650  31.556  33.881  1.00  0.00     0.023 A 
ATOM     59  C   UNL A   1      43.205  32.793  33.496  1.00  0.00     0.012 A 
ATOM     60  C   UNL A   1      42.045  31.435  35.147  1.00  0.00     0.148 A 
ATOM     61  C   UNL A   1      43.190  33.881  34.368  1.00  0.00     0.002 A 
ATOM     62  C   UNL A   1      42.002  32.534  35.998  1.00  0.00     0.091 A 
ATOM     63  F   UNL A   1      41.548  30.243  35.509  1.00  0.00    -0.205 F 
ATOM     64  C   UNL A   1      42.581  33.754  35.614  1.00  0.00     0.022 A 
BRANCH  62  65
ATOM     65  S   UNL A   1      41.179  32.475  37.594  1.00  0.00     0.127 S 
ATOM     66  O   UNL A   1      42.039  31.555  38.336  1.00  0.00    -0.237 OA
ATOM     67  O   UNL A   1      41.253  33.868  38.038  1.00  0.00    -0.237 OA
ATOM     68  O   UNL A   1      39.829  32.002  37.323  1.00  0.00    -0.744 OA
ENDBRANCH  62  65
ENDBRANCH  44  58
BRANCH  45  69
ATOM     69  C   UNL A   1      42.546  24.192  27.130  1.00  0.00     0.023 A 
ATOM     70  C   UNL A   1      43.236  24.430  25.927  1.00  0.00     0.012 A 
ATOM     71  C   UNL A   1      41.938  22.937  27.338  1.00  0.00     0.148 A 
ATOM     72  C   UNL A   1      43.311  23.441  24.944  1.00  0.00     0.002 A 
ATOM     73  C   UNL A   1      42.064  21.938  26.381  1.00  0.00     0.091 A 
ATOM     74  F   UNL A   1      41.269  22.738  28.483  1.00  0.00    -0.205 F 
ATOM     75  C   UNL A   1      42.740  22.192  25.177  1.00  0.00     0.022 A 
BRANCH  73  76
ATOM     76  S   UNL A   1      41.484  20.260  26.659  1.00  0.00     0.127 S 
ATOM     77  O   UNL A   1      42.027  19.559  25.500  1.00  0.00    -0.237 OA
ATOM     78  O   UNL A   1      42.120  19.927  27.934  1.00  0.00    -0.237 OA
ATOM     79  O   UNL A   1      40.031  20.353  26.721  1.00  0.00    -0.744 OA
ENDBRANCH  73  76
ENDBRANCH  45  69
BRANCH  57  80
ATOM     80  C   UNL A   1      47.140  26.233  31.993  1.00  0.00     0.023 A 
ATOM     81  C   UNL A   1      48.250  26.753  31.300  1.00  0.00     0.012 A 
ATOM     82  C   UNL A   1      47.347  25.341  33.062  1.00  0.00     0.148 A 
ATOM     83  C   UNL A   1      49.546  26.374  31.649  1.00  0.00     0.002 A 
ATOM     84  C   UNL A   1      48.644  24.999  33.432  1.00  0.00     0.091 A 
ATOM     85  F   UNL A   1      46.276  24.840  33.696  1.00  0.00    -0.205 F 
ATOM     86  C   UNL A   1      49.742  25.507  32.721  1.00  0.00     0.022 A 
BRANCH  84  87
ATOM     87  S   UNL A   1      48.994  23.958  34.854  1.00  0.00     0.127 S 
ATOM     88  O   UNL A   1      48.659  22.630  34.341  1.00  0.00    -0.237 OA
ATOM     89  O   UNL A   1      50.423  24.188  35.067  1.00  0.00    -0.237 OA
ATOM     90  O   UNL A   1      48.139  24.448  35.927  1.00  0.00    -0.744 OA
ENDBRANCH  84  87
ENDBRANCH  57  80
ENDBRANCH  31  32
ENDBRANCH  24  26
ENDBRANCH  23  24
ENDBRANCH  22  23
ENDBRANCH   1  22
TORSDOF 17
ENDMDL
MODEL 2
REMARK VINA RESULT:      -9.4      1.353      2.107
REMARK SMILES C/C=C/c1cncc(-c2ccc([C@@H](C)C(=O)OCCOC(=O)c3ccc(-c4c5nc(c(-c6cccc(S(=O)(=O)[O-])c6F)c6ccc([nH]6)c(-c6cccc(S(=O)(=O)[O-])c6F)c6nc(c(-c7cccc(S(=O)(=O)[O-])c7F)c7ccc4[nH]7)C=C6)C=C5)cc3)cc2)c1
REMARK SMILES IDX 18 1 17 2 15 3 16 4 13 5 14 6 12 7 9 8 10 9 87 10 11 11
REMARK SMILES IDX 86 12 8 13 4 14 5 15 88 16 6 17 7 18 3 19 1 20 2 21 19 22
REMARK SMILES IDX 20 23 21 24 22 25 23 26 24 27 85 28 25 29 84 30 26 31 27 32
REMARK SMILES IDX 28 33 78 34 29 35 83 36 77 37 79 38 30 39 82 40 76 41 75 42
REMARK SMILES IDX 31 44 63 45 43 46 62 47 44 48 47 49 61 50 80 51 45 52 46 53
REMARK SMILES IDX 60 55 81 56 48 57 32 58 33 59 41 60 34 61 36 62 42 63 35 64
REMARK SMILES IDX 37 65 38 66 39 67 40 68 64 69 65 70 73 71 66 72 68 73 74 74
REMARK SMILES IDX 67 75 69 76 70 77 71 78 72 79 49 80 50 81 58 82 51 83 53 84
REMARK SMILES IDX 59 85 52 86 54 87 55 88 56 89 57 90
REMARK H PARENT 79 43 47 54
REMARK Flexibility Score: inf
ROOT
ATOM      1  C   UNL A   1      33.989  34.388  29.174  1.00  0.00     0.274 C 
ENDROOT
BRANCH   1   2
ATOM      2  O   UNL A   1      33.770  33.748  30.446  1.00  0.00    -0.462 OA
BRANCH   2   3
ATOM      3  C   UNL A   1      34.507  34.200  31.493  1.00  0.00     0.313 C 
ATOM      4  O   UNL A   1      34.329  35.280  32.048  1.00  0.00    -0.252 OA
BRANCH   3   5
ATOM      5  C   UNL A   1      35.637  33.261  31.904  1.00  0.00     0.126 C 
ATOM      6  C   UNL A   1      35.630  33.084  33.422  1.00  0.00     0.025 C 
BRANCH   5   7
ATOM      7  C   UNL A   1      37.018  33.601  31.362  1.00  0.00    -0.034 A 
ATOM      8  C   UNL A   1      39.596  34.183  30.318  1.00  0.00    -0.017 A 
ATOM      9  C   UNL A   1      39.283  34.438  31.661  1.00  0.00     0.009 A 
ATOM     10  C   UNL A   1      38.593  33.648  29.499  1.00  0.00     0.009 A 
ATOM     11  C   UNL A   1      38.016  34.150  32.177  1.00  0.00     0.005 A 
ATOM     12  C   UNL A   1      37.324  33.358  30.014  1.00  0.00     0.005 A 
BRANCH   8  13
ATOM     13  C   UNL A   1      40.947  34.437  29.804  1.00  0.00     0.001 A 
ATOM     14  C   UNL A   1      42.548  35.723  28.503  1.00  0.00    -0.007 A 
ATOM     15  C   UNL A   1      43.520  34.814  28.912  1.00  0.00     0.119 A 
ATOM     16  C   UNL A   1      41.239  35.512  28.953  1.00  0.00     0.020 A 
ATOM     17  N   UNL A   1      43.291  33.761  29.730  1.00  0.00    -0.263 NA
ATOM     18  C   UNL A   1      42.014  33.605  30.151  1.00  0.00     0.119 A 
BRANCH  14  19
ATOM     19  C   UNL A   1      42.921  36.823  27.607  1.00  0.00     0.005 C 
ATOM     20  C   UNL A   1      42.650  39.118  26.654  1.00  0.00     0.035 C 
ATOM     21  C   UNL A   1      42.243  37.978  27.531  1.00  0.00    -0.030 C 
ENDBRANCH  14  19
ENDBRANCH   8  13
ENDBRANCH   5   7
ENDBRANCH   3   5
ENDBRANCH   2   3
ENDBRANCH   1   2
BRANCH   1  22
ATOM     22  C   UNL A   1      33.628  33.446  28.026  1.00  0.00     0.275 C 
BRANCH  22  23
ATOM     23  O   UNL A   1      34.742  32.602  27.693  1.00  0.00    -0.458 OA
BRANCH  23  24
ATOM     24  C   UNL A   1      34.522  31.272  27.809  1.00  0.00     0.338 C 
ATOM     25  O   UNL A   1      33.515  30.653  27.516  1.00  0.00    -0.246 OA
BRANCH  24  26
ATOM     26  C   UNL A   1      35.755  30.630  28.282  1.00  0.00     0.060 A 
ATOM     27  C   UNL A   1      35.716  29.910  29.476  1.00  0.00     0.016 A 
ATOM     28  C   UNL A   1      36.950  30.792  27.584  1.00  0.00     0.016 A 
ATOM     29  C   UNL A   1      36.883  29.353  29.993  1.00  0.00     0.010 A 
ATOM     30  C   UNL A   1      38.117  30.215  28.090  1.00  0.00     0.010 A 
ATOM     31  C   UNL A   1      38.093  29.502  29.303  1.00  0.00    -0.014 A 
BRANCH  31  32
ATOM     32  C   UNL A   1      39.336  28.910  29.849  1.00  0.00     0.031 A 
ATOM     33  C   UNL A   1      39.996  29.519  31.051  1.00  0.00     0.074 A 
ATOM     34  C   UNL A   1      39.891  27.850  29.233  1.00  0.00     0.049 A 
ATOM     35  N   UNL A   1      41.132  29.206  31.615  1.00  0.00    -0.248 NA
ATOM     36  C   UNL A   1      39.284  30.630  31.703  1.00  0.00     0.031 C 
ATOM     37  C   UNL A   1      39.345  27.185  28.050  1.00  0.00     0.029 A 
ATOM     38  N   UNL A   1      41.052  27.168  29.497  1.00  0.00    -0.354 N 
ATOM     39  C   UNL A   1      41.297  30.104  32.661  1.00  0.00     0.074 A 
ATOM     40  C   UNL A   1      40.142  30.977  32.653  1.00  0.00     0.031 C 
ATOM     41  C   UNL A   1      40.188  26.212  27.669  1.00  0.00     0.029 A 
ATOM     42  C   UNL A   1      41.346  26.211  28.557  1.00  0.00     0.049 A 
ATOM     43  H   UNL A   1      41.619  27.348  30.283  1.00  0.00     0.167 HD
ATOM     44  C   UNL A   1      42.310  30.184  33.556  1.00  0.00     0.034 A 
ATOM     45  C   UNL A   1      42.443  25.442  28.403  1.00  0.00     0.034 A 
ATOM     46  C   UNL A   1      43.440  29.292  33.577  1.00  0.00     0.049 A 
ATOM     47  C   UNL A   1      43.558  25.551  29.405  1.00  0.00     0.074 A 
ATOM     48  C   UNL A   1      44.486  29.251  34.482  1.00  0.00     0.029 A 
ATOM     49  N   UNL A   1      43.676  28.293  32.646  1.00  0.00    -0.354 N 
ATOM     50  N   UNL A   1      43.643  26.324  30.462  1.00  0.00    -0.248 NA
ATOM     51  C   UNL A   1      44.716  24.667  29.212  1.00  0.00     0.031 C 
ATOM     52  C   UNL A   1      45.366  28.236  34.086  1.00  0.00     0.029 A 
ATOM     53  C   UNL A   1      44.860  27.636  32.942  1.00  0.00     0.049 A 
ATOM     54  H   UNL A   1      43.089  28.081  31.884  1.00  0.00     0.167 HD
ATOM     55  C   UNL A   1      44.855  26.012  31.067  1.00  0.00     0.074 A 
ATOM     56  C   UNL A   1      45.456  24.957  30.275  1.00  0.00     0.031 C 
ATOM     57  C   UNL A   1      45.427  26.563  32.166  1.00  0.00     0.034 A 
BRANCH  44  58
ATOM     58  C   UNL A   1      42.221  31.257  34.608  1.00  0.00     0.023 A 
ATOM     59  C   UNL A   1      41.625  30.963  35.850  1.00  0.00     0.012 A 
ATOM     60  C   UNL A   1      42.753  32.542  34.383  1.00  0.00     0.148 A 
ATOM     61  C   UNL A   1      41.527  31.940  36.841  1.00  0.00     0.002 A 
ATOM     62  C   UNL A   1      42.683  33.501  35.388  1.00  0.00     0.091 A 
ATOM     63  F   UNL A   1      43.290  32.814  33.185  1.00  0.00    -0.205 F 
ATOM     64  C   UNL A   1      42.064  33.204  36.613  1.00  0.00     0.022 A 
BRANCH  62  65
ATOM     65  S   UNL A   1      43.407  35.134  35.202  1.00  0.00     0.127 S 
ATOM     66  O   UNL A   1      43.107  35.741  36.498  1.00  0.00    -0.237 OA
ATOM     67  O   UNL A   1      44.822  34.828  34.986  1.00  0.00    -0.237 OA
ATOM     68  O   UNL A   1      42.740  35.731  34.053  1.00  0.00    -0.744 OA
ENDBRANCH  62  65
ENDBRANCH  44  58
BRANCH  45  69
ATOM     69  C   UNL A   1      42.513  24.495  27.258  1.00  0.00     0.023 A 
ATOM     70  C   UNL A   1      43.180  24.876  26.080  1.00  0.00     0.012 A 
ATOM     71  C   UNL A   1      41.988  23.190  27.361  1.00  0.00     0.148 A 
ATOM     72  C   UNL A   1      43.315  23.979  25.018  1.00  0.00     0.002 A 
ATOM     73  C   UNL A   1      42.175  22.284  26.324  1.00  0.00     0.091 A 
ATOM     74  F   UNL A   1      41.339  22.854  28.484  1.00  0.00    -0.205 F 
ATOM     75  C   UNL A   1      42.827  22.680  25.146  1.00  0.00     0.022 A 
BRANCH  73  76
ATOM     76  S   UNL A   1      41.707  20.555  26.462  1.00  0.00     0.127 S 
ATOM     77  O   UNL A   1      40.263  20.619  26.257  1.00  0.00    -0.237 OA
ATOM     78  O   UNL A   1      42.459  19.948  25.364  1.00  0.00    -0.237 OA
ATOM     79  O   UNL A   1      42.141  20.136  27.789  1.00  0.00    -0.744 OA
ENDBRANCH  73  76
ENDBRANCH  45  69
BRANCH  57  80
ATOM     80  C   UNL A   1      46.777  26.040  32.582  1.00  0.00     0.023 A 
ATOM     81  C   UNL A   1      47.940  26.636  32.055  1.00  0.00     0.012 A 
ATOM     82  C   UNL A   1      46.896  25.019  33.543  1.00  0.00     0.148 A 
ATOM     83  C   UNL A   1      49.203  26.206  32.461  1.00  0.00     0.002 A 
ATOM     84  C   UNL A   1      48.158  24.624  33.975  1.00  0.00     0.091 A 
ATOM     85  F   UNL A   1      45.778  24.450  34.017  1.00  0.00    -0.205 F 
ATOM     86  C   UNL A   1      49.311  25.210  33.428  1.00  0.00     0.022 A 
BRANCH  84  87
ATOM     87  S   UNL A   1      48.392  23.410  35.278  1.00  0.00     0.127 S 
ATOM     88  O   UNL A   1      47.800  22.214  34.681  1.00  0.00    -0.237 OA
ATOM     89  O   UNL A   1      49.848  23.369  35.412  1.00  0.00    -0.237 OA
ATOM     90  O   UNL A   1      47.695  23.938  36.444  1.00  0.00    -0.744 OA
ENDBRANCH  84  87
ENDBRANCH  57  80
ENDBRANCH  31  32
ENDBRANCH  24  26
ENDBRANCH  23  24
ENDBRANCH  22  23
ENDBRANCH   1  22
TORSDOF 17
ENDMDL
MODEL 3
REMARK VINA RESULT:      -9.1      3.089     10.607
REMARK SMILES C/C=C/c1cncc(-c2ccc([C@@H](C)C(=O)OCCOC(=O)c3ccc(-c4c5nc(c(-c6cccc(S(=O)(=O)[O-])c6F)c6ccc([nH]6)c(-c6cccc(S(=O)(=O)[O-])c6F)c6nc(c(-c7cccc(S(=O)(=O)[O-])c7F)c7ccc4[nH]7)C=C6)C=C5)cc3)cc2)c1
REMARK SMILES IDX 18 1 17 2 15 3 16 4 13 5 14 6 12 7 9 8 10 9 87 10 11 11
REMARK SMILES IDX 86 12 8 13 4 14 5 15 88 16 6 17 7 18 3 19 1 20 2 21 19 22
REMARK SMILES IDX 20 23 21 24 22 25 23 26 24 27 85 28 25 29 84 30 26 31 27 32
REMARK SMILES IDX 28 33 78 34 29 35 83 36 77 37 79 38 30 39 82 40 76 41 75 42
REMARK SMILES IDX 31 44 63 45 43 46 62 47 44 48 47 49 61 50 80 51 45 52 46 53
REMARK SMILES IDX 60 55 81 56 48 57 32 58 33 59 41 60 34 61 36 62 42 63 35 64
REMARK SMILES IDX 37 65 38 66 39 67 40 68 64 69 65 70 73 71 66 72 68 73 74 74
REMARK SMILES IDX 67 75 69 76 70 77 71 78 72 79 49 80 50 81 58 82 51 83 53 84
REMARK SMILES IDX 59 85 52 86 54 87 55 88 56 89 57 90
REMARK H PARENT 79 43 47 54
REMARK Flexibility Score: inf
ROOT
ATOM      1  C   UNL A   1      42.279  20.582  26.655  1.00  0.00     0.274 C 
ENDROOT
BRANCH   1   2
ATOM      2  O   UNL A   1      43.141  20.914  25.549  1.00  0.00    -0.462 OA
BRANCH   2   3
ATOM      3  C   UNL A   1      43.319  22.234  25.286  1.00  0.00     0.313 C 
ATOM      4  O   UNL A   1      42.526  22.924  24.652  1.00  0.00    -0.252 OA
BRANCH   3   5
ATOM      5  C   UNL A   1      44.637  22.796  25.806  1.00  0.00     0.126 C 
ATOM      6  C   UNL A   1      45.736  21.744  25.657  1.00  0.00     0.025 C 
BRANCH   5   7
ATOM      7  C   UNL A   1      44.600  23.407  27.200  1.00  0.00    -0.034 A 
ATOM      8  C   UNL A   1      44.475  24.575  29.787  1.00  0.00    -0.017 A 
ATOM      9  C   UNL A   1      45.681  24.525  29.071  1.00  0.00     0.009 A 
ATOM     10  C   UNL A   1      43.335  24.015  29.196  1.00  0.00     0.009 A 
ATOM     11  C   UNL A   1      45.743  23.953  27.797  1.00  0.00     0.005 A 
ATOM     12  C   UNL A   1      43.395  23.443  27.920  1.00  0.00     0.005 A 
BRANCH   8  13
ATOM     13  C   UNL A   1      44.413  25.229  31.100  1.00  0.00     0.001 A 
ATOM     14  C   UNL A   1      43.888  27.114  32.542  1.00  0.00    -0.007 A 
ATOM     15  C   UNL A   1      44.340  26.345  33.611  1.00  0.00     0.119 A 
ATOM     16  C   UNL A   1      43.944  26.540  31.266  1.00  0.00     0.020 A 
ATOM     17  N   UNL A   1      44.803  25.078  33.504  1.00  0.00    -0.263 NA
ATOM     18  C   UNL A   1      44.825  24.560  32.254  1.00  0.00     0.119 A 
BRANCH  14  19
ATOM     19  C   UNL A   1      43.414  28.481  32.786  1.00  0.00     0.005 C 
ATOM     20  C   UNL A   1      43.726  30.954  32.974  1.00  0.00     0.035 C 
ATOM     21  C   UNL A   1      44.216  29.556  32.774  1.00  0.00    -0.030 C 
ENDBRANCH  14  19
ENDBRANCH   8  13
ENDBRANCH   5   7
ENDBRANCH   3   5
ENDBRANCH   2   3
ENDBRANCH   1   2
BRANCH   1  22
ATOM     22  C   UNL A   1      40.811  20.741  26.261  1.00  0.00     0.275 C 
BRANCH  22  23
ATOM     23  O   UNL A   1      40.165  21.717  27.096  1.00  0.00    -0.458 OA
BRANCH  23  24
ATOM     24  C   UNL A   1      39.354  22.588  26.453  1.00  0.00     0.338 C 
ATOM     25  O   UNL A   1      38.445  22.335  25.683  1.00  0.00    -0.246 OA
BRANCH  24  26
ATOM     26  C   UNL A   1      39.679  23.949  26.897  1.00  0.00     0.060 A 
ATOM     27  C   UNL A   1      40.111  24.876  25.947  1.00  0.00     0.016 A 
ATOM     28  C   UNL A   1      39.618  24.287  28.248  1.00  0.00     0.016 A 
ATOM     29  C   UNL A   1      40.500  26.152  26.345  1.00  0.00     0.010 A 
ATOM     30  C   UNL A   1      39.987  25.575  28.644  1.00  0.00     0.010 A 
ATOM     31  C   UNL A   1      40.442  26.510  27.697  1.00  0.00    -0.014 A 
BRANCH  31  32
ATOM     32  C   UNL A   1      40.854  27.868  28.124  1.00  0.00     0.031 A 
ATOM     33  C   UNL A   1      42.308  28.235  28.165  1.00  0.00     0.074 A 
ATOM     34  C   UNL A   1      39.919  28.753  28.512  1.00  0.00     0.049 A 
ATOM     35  N   UNL A   1      42.870  29.333  28.599  1.00  0.00    -0.248 NA
ATOM     36  C   UNL A   1      43.257  27.232  27.656  1.00  0.00     0.031 C 
ATOM     37  C   UNL A   1      38.478  28.501  28.526  1.00  0.00     0.029 A 
ATOM     38  N   UNL A   1      40.042  30.029  29.002  1.00  0.00    -0.354 N 
ATOM     39  C   UNL A   1      44.238  29.141  28.457  1.00  0.00     0.074 A 
ATOM     40  C   UNL A   1      44.422  27.819  27.896  1.00  0.00     0.031 C 
ATOM     41  C   UNL A   1      37.851  29.575  29.032  1.00  0.00     0.029 A 
ATOM     42  C   UNL A   1      38.848  30.572  29.412  1.00  0.00     0.049 A 
ATOM     43  H   UNL A   1      40.902  30.507  29.056  1.00  0.00     0.167 HD
ATOM     44  C   UNL A   1      45.246  29.995  28.750  1.00  0.00     0.034 A 
ATOM     45  C   UNL A   1      38.587  31.727  30.055  1.00  0.00     0.034 A 
ATOM     46  C   UNL A   1      45.053  31.321  29.278  1.00  0.00     0.049 A 
ATOM     47  C   UNL A   1      39.722  32.658  30.376  1.00  0.00     0.074 A 
ATOM     48  C   UNL A   1      46.007  32.286  29.549  1.00  0.00     0.029 A 
ATOM     49  N   UNL A   1      43.825  31.863  29.624  1.00  0.00    -0.354 N 
ATOM     50  N   UNL A   1      41.001  32.515  30.124  1.00  0.00    -0.248 NA
ATOM     51  C   UNL A   1      39.380  33.920  31.047  1.00  0.00     0.031 C 
ATOM     52  C   UNL A   1      45.355  33.407  30.077  1.00  0.00     0.029 A 
ATOM     53  C   UNL A   1      43.994  33.145  30.121  1.00  0.00     0.049 A 
ATOM     54  H   UNL A   1      42.959  31.404  29.530  1.00  0.00     0.167 HD
ATOM     55  C   UNL A   1      41.615  33.670  30.591  1.00  0.00     0.074 A 
ATOM     56  C   UNL A   1      40.563  34.518  31.115  1.00  0.00     0.031 C 
ATOM     57  C   UNL A   1      42.933  33.992  30.605  1.00  0.00     0.034 A 
BRANCH  44  58
ATOM     58  C   UNL A   1      46.650  29.529  28.475  1.00  0.00     0.023 A 
ATOM     59  C   UNL A   1      47.283  29.906  27.273  1.00  0.00     0.012 A 
ATOM     60  C   UNL A   1      47.355  28.748  29.411  1.00  0.00     0.148 A 
ATOM     61  C   UNL A   1      48.583  29.484  26.992  1.00  0.00     0.002 A 
ATOM     62  C   UNL A   1      48.663  28.361  29.139  1.00  0.00     0.091 A 
ATOM     63  F   UNL A   1      46.728  28.373  30.536  1.00  0.00    -0.205 F 
ATOM     64  C   UNL A   1      49.275  28.721  27.928  1.00  0.00     0.022 A 
BRANCH  62  65
ATOM     65  S   UNL A   1      49.649  27.431  30.319  1.00  0.00     0.127 S 
ATOM     66  O   UNL A   1      49.678  28.342  31.462  1.00  0.00    -0.237 OA
ATOM     67  O   UNL A   1      48.843  26.226  30.521  1.00  0.00    -0.237 OA
ATOM     68  O   UNL A   1      50.927  27.195  29.663  1.00  0.00    -0.744 OA
ENDBRANCH  62  65
ENDBRANCH  44  58
BRANCH  45  69
ATOM     69  C   UNL A   1      37.181  32.059  30.412  1.00  0.00     0.023 A 
ATOM     70  C   UNL A   1      36.700  31.752  31.698  1.00  0.00     0.012 A 
ATOM     71  C   UNL A   1      36.344  32.747  29.509  1.00  0.00     0.148 A 
ATOM     72  C   UNL A   1      35.405  32.114  32.076  1.00  0.00     0.002 A 
ATOM     73  C   UNL A   1      35.078  33.154  29.912  1.00  0.00     0.091 A 
ATOM     74  F   UNL A   1      36.816  33.012  28.283  1.00  0.00    -0.205 F 
ATOM     75  C   UNL A   1      34.601  32.828  31.190  1.00  0.00     0.022 A 
BRANCH  73  76
ATOM     76  S   UNL A   1      34.034  34.199  28.888  1.00  0.00     0.127 S 
ATOM     77  O   UNL A   1      33.535  33.247  27.900  1.00  0.00    -0.237 OA
ATOM     78  O   UNL A   1      33.037  34.668  29.850  1.00  0.00    -0.237 OA
ATOM     79  O   UNL A   1      34.910  35.245  28.374  1.00  0.00    -0.744 OA
ENDBRANCH  73  76
ENDBRANCH  45  69
BRANCH  57  80
ATOM     80  C   UNL A   1      43.318  35.317  31.208  1.00  0.00     0.023 A 
ATOM     81  C   UNL A   1      43.584  36.409  30.359  1.00  0.00     0.012 A 
ATOM     82  C   UNL A   1      43.343  35.501  32.603  1.00  0.00     0.148 A 
ATOM     83  C   UNL A   1      43.893  37.661  30.890  1.00  0.00     0.002 A 
ATOM     84  C   UNL A   1      43.610  36.763  33.125  1.00  0.00     0.091 A 
ATOM     85  F   UNL A   1      43.107  34.444  33.394  1.00  0.00    -0.205 F 
ATOM     86  C   UNL A   1      43.894  37.840  32.271  1.00  0.00     0.022 A 
BRANCH  84  87
ATOM     87  S   UNL A   1      43.548  37.105  34.888  1.00  0.00     0.127 S 
ATOM     88  O   UNL A   1      42.134  36.881  35.185  1.00  0.00    -0.237 OA
ATOM     89  O   UNL A   1      44.454  36.096  35.436  1.00  0.00    -0.237 OA
ATOM     90  O   UNL A   1      44.010  38.478  35.044  1.00  0.00    -0.744 OA
ENDBRANCH  84  87
ENDBRANCH  57  80
ENDBRANCH  31  32
ENDBRANCH  24  26
ENDBRANCH  23  24
ENDBRANCH  22  23
ENDBRANCH   1  22
TORSDOF 17
ENDMDL
