MODEL 1
REMARK VINA RESULT:     -10.5      0.000      0.000
REMARK SMILES CCCCCCNC(=O)Oc1cccc(-c2ccc(CC(=O)OCCOC(=O)c3ccc(-c4c5nc(c(-c6cccc(S(=O)(=O)[O-])c6F)c6ccc([nH]6)c(-c6cccc(S(=O)(=O)[O-])c6F)c6nc(c(-c7cccc(S(=O)(=O)[O-])c7F)c7ccc4[nH]7)C=C6)C=C5)cc3)cc2F)c1
REMARK SMILES IDX 20 1 19 2 16 3 17 4 93 5 18 6 92 7 94 8 15 9 11 10 12 11
REMARK SMILES IDX 95 12 13 13 14 14 10 15 8 16 7 17 9 19 6 20 5 21 4 22 3 23
REMARK SMILES IDX 2 24 1 25 21 26 22 27 23 28 24 29 25 30 26 31 27 32 28 33
REMARK SMILES IDX 29 34 30 35 91 36 31 37 90 38 32 39 33 40 34 41 84 42 35 43
REMARK SMILES IDX 89 44 83 45 85 46 36 47 88 48 82 49 81 50 37 52 69 53 49 54
REMARK SMILES IDX 68 55 50 56 53 57 67 58 86 59 51 60 52 61 66 63 87 64 54 65
REMARK SMILES IDX 38 66 39 67 47 68 40 69 42 70 48 71 41 72 43 73 44 74 45 75
REMARK SMILES IDX 46 76 70 77 71 78 79 79 72 80 74 81 80 82 73 83 75 84 76 85
REMARK SMILES IDX 77 86 78 87 55 88 56 89 64 90 57 91 59 92 65 93 58 94 60 95
REMARK SMILES IDX 61 96 62 97 63 98
REMARK H PARENT 7 18 85 51 53 62
REMARK Flexibility Score: inf
ROOT
ATOM      1  C   UNL A   1      35.045  31.315  28.526  1.00  0.00     0.158 C 
ENDROOT
BRANCH   1   2
ATOM      2  C   UNL A   1      34.113  30.675  27.527  1.00  0.00    -0.034 A 
ATOM      3  C   UNL A   1      32.352  29.407  25.699  1.00  0.00     0.018 A 
ATOM      4  C   UNL A   1      31.992  30.606  26.328  1.00  0.00     0.012 A 
ATOM      5  C   UNL A   1      33.606  28.862  26.007  1.00  0.00     0.131 A 
ATOM      6  C   UNL A   1      32.859  31.228  27.234  1.00  0.00     0.005 A 
ATOM      7  C   UNL A   1      34.477  29.480  26.899  1.00  0.00     0.044 A 
ATOM      8  F   UNL A   1      34.004  27.714  25.434  1.00  0.00    -0.206 F 
BRANCH   3   9
ATOM      9  C   UNL A   1      31.449  28.742  24.752  1.00  0.00    -0.012 A 
ATOM     10  C   UNL A   1      30.715  26.745  23.590  1.00  0.00     0.133 A 
ATOM     11  C   UNL A   1      29.800  27.483  22.845  1.00  0.00     0.047 A 
ATOM     12  C   UNL A   1      31.544  27.362  24.527  1.00  0.00     0.056 A 
ATOM     13  C   UNL A   1      29.684  28.853  23.072  1.00  0.00     0.004 A 
ATOM     14  C   UNL A   1      30.500  29.477  24.021  1.00  0.00     0.009 A 
BRANCH  10  15
ATOM     15  O   UNL A   1      30.869  25.390  23.264  1.00  0.00    -0.410 OA
BRANCH  15  16
ATOM     16  C   UNL A   1      31.907  25.048  22.410  1.00  0.00     0.412 C 
ATOM     17  N   UNL A   1      32.216  23.715  22.450  1.00  0.00    -0.321 N 
ATOM     18  H   UNL A   1      32.961  23.419  21.877  1.00  0.00     0.167 HD
ATOM     19  O   UNL A   1      32.525  25.811  21.679  1.00  0.00    -0.224 OA
BRANCH  17  20
ATOM     20  C   UNL A   1      31.563  22.695  23.243  1.00  0.00     0.119 C 
BRANCH  20  21
ATOM     21  C   UNL A   1      32.480  21.500  23.508  1.00  0.00     0.021 C 
BRANCH  21  22
ATOM     22  C   UNL A   1      32.200  20.751  24.816  1.00  0.00     0.002 C 
BRANCH  22  23
ATOM     23  C   UNL A   1      33.209  19.657  25.183  1.00  0.00    -0.000 C 
BRANCH  23  24
ATOM     24  C   UNL A   1      32.874  18.254  24.674  1.00  0.00    -0.003 C 
ATOM     25  C   UNL A   1      33.978  17.638  23.829  1.00  0.00     0.004 C 
ENDBRANCH  23  24
ENDBRANCH  22  23
ENDBRANCH  21  22
ENDBRANCH  20  21
ENDBRANCH  17  20
ENDBRANCH  15  16
ENDBRANCH  10  15
ENDBRANCH   3   9
ENDBRANCH   1   2
BRANCH   1  26
ATOM     26  C   UNL A   1      35.235  32.811  28.435  1.00  0.00     0.310 C 
ATOM     27  O   UNL A   1      36.018  33.312  27.635  1.00  0.00    -0.252 OA
BRANCH  26  28
ATOM     28  O   UNL A   1      34.427  33.519  29.267  1.00  0.00    -0.462 OA
BRANCH  28  29
ATOM     29  C   UNL A   1      34.070  34.841  28.818  1.00  0.00     0.274 C 
BRANCH  29  30
ATOM     30  C   UNL A   1      32.824  35.348  29.540  1.00  0.00     0.275 C 
BRANCH  30  31
ATOM     31  O   UNL A   1      33.196  36.177  30.655  1.00  0.00    -0.458 OA
BRANCH  31  32
ATOM     32  C   UNL A   1      32.824  35.720  31.870  1.00  0.00     0.338 C 
ATOM     33  O   UNL A   1      31.732  35.820  32.404  1.00  0.00    -0.246 OA
BRANCH  32  34
ATOM     34  C   UNL A   1      33.952  35.018  32.497  1.00  0.00     0.060 A 
ATOM     35  C   UNL A   1      35.241  35.542  32.383  1.00  0.00     0.016 A 
ATOM     36  C   UNL A   1      33.739  33.775  33.088  1.00  0.00     0.016 A 
ATOM     37  C   UNL A   1      36.335  34.795  32.813  1.00  0.00     0.010 A 
ATOM     38  C   UNL A   1      34.832  33.054  33.574  1.00  0.00     0.010 A 
ATOM     39  C   UNL A   1      36.140  33.545  33.414  1.00  0.00    -0.014 A 
BRANCH  39  40
ATOM     40  C   UNL A   1      37.299  32.734  33.868  1.00  0.00     0.031 A 
ATOM     41  C   UNL A   1      38.046  33.118  35.115  1.00  0.00     0.074 A 
ATOM     42  C   UNL A   1      37.707  31.683  33.131  1.00  0.00     0.049 A 
ATOM     43  N   UNL A   1      39.156  32.623  35.598  1.00  0.00    -0.248 NA
ATOM     44  C   UNL A   1      37.477  34.211  35.920  1.00  0.00     0.031 C 
ATOM     45  C   UNL A   1      37.067  31.216  31.901  1.00  0.00     0.029 A 
ATOM     46  N   UNL A   1      38.775  30.837  33.295  1.00  0.00    -0.354 N 
ATOM     47  C   UNL A   1      39.447  33.373  36.730  1.00  0.00     0.074 A 
ATOM     48  C   UNL A   1      38.396  34.359  36.865  1.00  0.00     0.031 C 
ATOM     49  C   UNL A   1      37.765  30.179  31.411  1.00  0.00     0.029 A 
ATOM     50  C   UNL A   1      38.924  29.938  32.264  1.00  0.00     0.049 A 
ATOM     51  H   UNL A   1      39.376  30.870  34.074  1.00  0.00     0.167 HD
ATOM     52  C   UNL A   1      40.488  33.244  37.587  1.00  0.00     0.034 A 
ATOM     53  C   UNL A   1      39.900  29.045  32.016  1.00  0.00     0.034 A 
ATOM     54  C   UNL A   1      41.504  32.231  37.478  1.00  0.00     0.049 A 
ATOM     55  C   UNL A   1      41.041  28.918  32.987  1.00  0.00     0.074 A 
ATOM     56  C   UNL A   1      42.569  31.984  38.328  1.00  0.00     0.029 A 
ATOM     57  N   UNL A   1      41.582  31.295  36.458  1.00  0.00    -0.354 N 
ATOM     58  N   UNL A   1      41.248  29.571  34.106  1.00  0.00    -0.248 NA
ATOM     59  C   UNL A   1      42.069  27.915  32.678  1.00  0.00     0.031 C 
ATOM     60  C   UNL A   1      43.297  30.905  37.814  1.00  0.00     0.029 A 
ATOM     61  C   UNL A   1      42.678  30.471  36.653  1.00  0.00     0.049 A 
ATOM     62  H   UNL A   1      40.950  31.226  35.706  1.00  0.00     0.167 HD
ATOM     63  C   UNL A   1      42.413  29.040  34.646  1.00  0.00     0.074 A 
ATOM     64  C   UNL A   1      42.853  27.995  33.744  1.00  0.00     0.031 C 
ATOM     65  C   UNL A   1      43.071  29.398  35.777  1.00  0.00     0.034 A 
BRANCH  52  66
ATOM     66  C   UNL A   1      40.565  34.202  38.747  1.00  0.00     0.023 A 
ATOM     67  C   UNL A   1      41.448  35.299  38.684  1.00  0.00     0.012 A 
ATOM     68  C   UNL A   1      39.725  34.054  39.868  1.00  0.00     0.148 A 
ATOM     69  C   UNL A   1      41.512  36.220  39.730  1.00  0.00     0.002 A 
ATOM     70  C   UNL A   1      39.767  34.996  40.891  1.00  0.00     0.091 A 
ATOM     71  F   UNL A   1      38.910  32.990  39.922  1.00  0.00    -0.205 F 
ATOM     72  C   UNL A   1      40.666  36.074  40.827  1.00  0.00     0.022 A 
BRANCH  70  73
ATOM     73  S   UNL A   1      38.666  34.933  42.308  1.00  0.00     0.127 S 
ATOM     74  O   UNL A   1      39.084  33.690  42.953  1.00  0.00    -0.237 OA
ATOM     75  O   UNL A   1      39.027  36.149  43.037  1.00  0.00    -0.237 OA
ATOM     76  O   UNL A   1      37.315  34.935  41.764  1.00  0.00    -0.744 OA
ENDBRANCH  70  73
ENDBRANCH  52  66
BRANCH  53  77
ATOM     77  C   UNL A   1      39.818  28.177  30.808  1.00  0.00     0.023 A 
ATOM     78  C   UNL A   1      38.949  27.070  30.812  1.00  0.00     0.012 A 
ATOM     79  C   UNL A   1      40.557  28.466  29.644  1.00  0.00     0.148 A 
ATOM     80  C   UNL A   1      38.834  26.252  29.688  1.00  0.00     0.002 A 
ATOM     81  C   UNL A   1      40.396  27.681  28.508  1.00  0.00     0.091 A 
ATOM     82  F   UNL A   1      41.395  29.513  29.666  1.00  0.00    -0.205 F 
ATOM     83  C   UNL A   1      39.548  26.564  28.534  1.00  0.00     0.022 A 
BRANCH  81  84
ATOM     84  S   UNL A   1      41.172  28.094  26.941  1.00  0.00     0.127 S 
ATOM     85  O   UNL A   1      42.571  28.244  27.330  1.00  0.00    -0.237 OA
ATOM     86  O   UNL A   1      40.882  26.908  26.135  1.00  0.00    -0.237 OA
ATOM     87  O   UNL A   1      40.503  29.304  26.483  1.00  0.00    -0.744 OA
ENDBRANCH  81  84
ENDBRANCH  53  77
BRANCH  65  88
ATOM     88  C   UNL A   1      44.324  28.640  36.123  1.00  0.00     0.023 A 
ATOM     89  C   UNL A   1      45.576  29.144  35.720  1.00  0.00     0.012 A 
ATOM     90  C   UNL A   1      44.268  27.470  36.905  1.00  0.00     0.148 A 
ATOM     91  C   UNL A   1      46.752  28.481  36.068  1.00  0.00     0.002 A 
ATOM     92  C   UNL A   1      45.447  26.838  37.284  1.00  0.00     0.091 A 
ATOM     93  F   UNL A   1      43.065  26.992  37.259  1.00  0.00    -0.205 F 
ATOM     94  C   UNL A   1      46.689  27.336  36.859  1.00  0.00     0.022 A 
BRANCH  92  95
ATOM     95  S   UNL A   1      45.459  25.410  38.375  1.00  0.00     0.127 S 
ATOM     96  O   UNL A   1      46.891  25.147  38.507  1.00  0.00    -0.237 OA
ATOM     97  O   UNL A   1      44.823  25.934  39.585  1.00  0.00    -0.237 OA
ATOM     98  O   UNL A   1      44.691  24.379  37.690  1.00  0.00    -0.744 OA
ENDBRANCH  92  95
ENDBRANCH  65  88
ENDBRANCH  39  40
ENDBRANCH  32  34
ENDBRANCH  31  32
ENDBRANCH  30  31
ENDBRANCH  29  30
ENDBRANCH  28  29
ENDBRANCH  26  28
ENDBRANCH   1  26
TORSDOF 23
ENDMDL
MODEL 2
REMARK VINA RESULT:     -10.3      5.522      9.671
REMARK SMILES CCCCCCNC(=O)Oc1cccc(-c2ccc(CC(=O)OCCOC(=O)c3ccc(-c4c5nc(c(-c6cccc(S(=O)(=O)[O-])c6F)c6ccc([nH]6)c(-c6cccc(S(=O)(=O)[O-])c6F)c6nc(c(-c7cccc(S(=O)(=O)[O-])c7F)c7ccc4[nH]7)C=C6)C=C5)cc3)cc2F)c1
REMARK SMILES IDX 20 1 19 2 16 3 17 4 93 5 18 6 92 7 94 8 15 9 11 10 12 11
REMARK SMILES IDX 95 12 13 13 14 14 10 15 8 16 7 17 9 19 6 20 5 21 4 22 3 23
REMARK SMILES IDX 2 24 1 25 21 26 22 27 23 28 24 29 25 30 26 31 27 32 28 33
REMARK SMILES IDX 29 34 30 35 91 36 31 37 90 38 32 39 33 40 34 41 84 42 35 43
REMARK SMILES IDX 89 44 83 45 85 46 36 47 88 48 82 49 81 50 37 52 69 53 49 54
REMARK SMILES IDX 68 55 50 56 53 57 67 58 86 59 51 60 52 61 66 63 87 64 54 65
REMARK SMILES IDX 38 66 39 67 47 68 40 69 42 70 48 71 41 72 43 73 44 74 45 75
REMARK SMILES IDX 46 76 70 77 71 78 79 79 72 80 74 81 80 82 73 83 75 84 76 85
REMARK SMILES IDX 77 86 78 87 55 88 56 89 64 90 57 91 59 92 65 93 58 94 60 95
REMARK SMILES IDX 61 96 62 97 63 98
REMARK H PARENT 7 18 85 51 53 62
REMARK Flexibility Score: inf
ROOT
ATOM      1  C   UNL A   1      36.448  33.488  29.562  1.00  0.00     0.158 C 
ENDROOT
BRANCH   1   2
ATOM      2  C   UNL A   1      37.169  32.192  29.282  1.00  0.00    -0.034 A 
ATOM      3  C   UNL A   1      38.515  29.768  28.675  1.00  0.00     0.018 A 
ATOM      4  C   UNL A   1      39.190  30.829  29.294  1.00  0.00     0.012 A 
ATOM      5  C   UNL A   1      37.159  29.951  28.369  1.00  0.00     0.131 A 
ATOM      6  C   UNL A   1      38.527  32.027  29.588  1.00  0.00     0.005 A 
ATOM      7  C   UNL A   1      36.491  31.135  28.667  1.00  0.00     0.044 A 
ATOM      8  F   UNL A   1      36.462  28.968  27.775  1.00  0.00    -0.206 F 
BRANCH   3   9
ATOM      9  C   UNL A   1      39.200  28.511  28.357  1.00  0.00    -0.012 A 
ATOM     10  C   UNL A   1      40.580  27.182  26.871  1.00  0.00     0.133 A 
ATOM     11  C   UNL A   1      40.419  26.061  27.681  1.00  0.00     0.047 A 
ATOM     12  C   UNL A   1      39.971  28.395  27.191  1.00  0.00     0.056 A 
ATOM     13  C   UNL A   1      39.670  26.169  28.851  1.00  0.00     0.004 A 
ATOM     14  C   UNL A   1      39.069  27.386  29.188  1.00  0.00     0.009 A 
BRANCH  10  15
ATOM     15  O   UNL A   1      41.258  27.008  25.655  1.00  0.00    -0.410 OA
BRANCH  15  16
ATOM     16  C   UNL A   1      42.263  27.911  25.344  1.00  0.00     0.412 C 
ATOM     17  N   UNL A   1      43.519  27.395  25.517  1.00  0.00    -0.321 N 
ATOM     18  H   UNL A   1      44.273  28.001  25.331  1.00  0.00     0.167 HD
ATOM     19  O   UNL A   1      42.109  29.062  24.959  1.00  0.00    -0.224 OA
BRANCH  17  20
ATOM     20  C   UNL A   1      43.855  26.053  25.944  1.00  0.00     0.119 C 
BRANCH  20  21
ATOM     21  C   UNL A   1      44.117  25.978  27.449  1.00  0.00     0.021 C 
BRANCH  21  22
ATOM     22  C   UNL A   1      44.307  24.560  28.001  1.00  0.00     0.002 C 
BRANCH  22  23
ATOM     23  C   UNL A   1      45.590  23.845  27.563  1.00  0.00    -0.000 C 
BRANCH  23  24
ATOM     24  C   UNL A   1      45.411  22.774  26.485  1.00  0.00    -0.003 C 
ATOM     25  C   UNL A   1      43.974  22.296  26.343  1.00  0.00     0.004 C 
ENDBRANCH  23  24
ENDBRANCH  22  23
ENDBRANCH  21  22
ENDBRANCH  20  21
ENDBRANCH  17  20
ENDBRANCH  15  16
ENDBRANCH  10  15
ENDBRANCH   3   9
ENDBRANCH   1   2
BRANCH   1  26
ATOM     26  C   UNL A   1      35.311  33.446  30.555  1.00  0.00     0.310 C 
ATOM     27  O   UNL A   1      34.140  33.495  30.193  1.00  0.00    -0.252 OA
BRANCH  26  28
ATOM     28  O   UNL A   1      35.713  33.292  31.844  1.00  0.00    -0.462 OA
BRANCH  28  29
ATOM     29  C   UNL A   1      35.313  34.337  32.753  1.00  0.00     0.274 C 
BRANCH  29  30
ATOM     30  C   UNL A   1      35.924  34.125  34.136  1.00  0.00     0.275 C 
BRANCH  30  31
ATOM     31  O   UNL A   1      36.219  32.733  34.342  1.00  0.00    -0.458 OA
BRANCH  31  32
ATOM     32  C   UNL A   1      37.252  32.473  35.172  1.00  0.00     0.338 C 
ATOM     33  O   UNL A   1      37.265  32.526  36.390  1.00  0.00    -0.246 OA
BRANCH  32  34
ATOM     34  C   UNL A   1      38.422  32.063  34.384  1.00  0.00     0.060 A 
ATOM     35  C   UNL A   1      38.274  31.115  33.369  1.00  0.00     0.016 A 
ATOM     36  C   UNL A   1      39.685  32.529  34.743  1.00  0.00     0.016 A 
ATOM     37  C   UNL A   1      39.400  30.587  32.742  1.00  0.00     0.010 A 
ATOM     38  C   UNL A   1      40.809  32.042  34.071  1.00  0.00     0.010 A 
ATOM     39  C   UNL A   1      40.678  31.047  33.086  1.00  0.00    -0.014 A 
BRANCH  39  40
ATOM     40  C   UNL A   1      41.887  30.484  32.433  1.00  0.00     0.031 A 
ATOM     41  C   UNL A   1      42.527  31.207  31.280  1.00  0.00     0.074 A 
ATOM     42  C   UNL A   1      42.379  29.300  32.846  1.00  0.00     0.049 A 
ATOM     43  N   UNL A   1      43.499  30.815  30.497  1.00  0.00    -0.248 NA
ATOM     44  C   UNL A   1      41.998  32.542  30.957  1.00  0.00     0.031 C 
ATOM     45  C   UNL A   1      41.842  28.503  33.950  1.00  0.00     0.029 A 
ATOM     46  N   UNL A   1      43.421  28.549  32.366  1.00  0.00    -0.354 N 
ATOM     47  C   UNL A   1      43.663  31.826  29.559  1.00  0.00     0.074 A 
ATOM     48  C   UNL A   1      42.691  32.854  29.870  1.00  0.00     0.031 C 
ATOM     49  C   UNL A   1      42.547  27.365  34.051  1.00  0.00     0.029 A 
ATOM     50  C   UNL A   1      43.553  27.332  32.994  1.00  0.00     0.049 A 
ATOM     51  H   UNL A   1      44.017  28.850  31.643  1.00  0.00     0.167 HD
ATOM     52  C   UNL A   1      44.552  31.900  28.540  1.00  0.00     0.034 A 
ATOM     53  C   UNL A   1      44.367  26.292  32.728  1.00  0.00     0.034 A 
ATOM     54  C   UNL A   1      45.549  30.900  28.264  1.00  0.00     0.049 A 
ATOM     55  C   UNL A   1      45.348  26.403  31.594  1.00  0.00     0.074 A 
ATOM     56  C   UNL A   1      46.531  30.909  27.287  1.00  0.00     0.029 A 
ATOM     57  N   UNL A   1      45.695  29.713  28.965  1.00  0.00    -0.354 N 
ATOM     58  N   UNL A   1      45.555  27.408  30.777  1.00  0.00    -0.248 NA
ATOM     59  C   UNL A   1      46.225  25.248  31.358  1.00  0.00     0.031 C 
ATOM     60  C   UNL A   1      47.262  29.721  27.392  1.00  0.00     0.029 A 
ATOM     61  C   UNL A   1      46.747  28.980  28.442  1.00  0.00     0.049 A 
ATOM     62  H   UNL A   1      45.134  29.433  29.724  1.00  0.00     0.167 HD
ATOM     63  C   UNL A   1      46.603  27.018  29.952  1.00  0.00     0.074 A 
ATOM     64  C   UNL A   1      47.003  25.694  30.382  1.00  0.00     0.031 C 
ATOM     65  C   UNL A   1      47.170  27.687  28.917  1.00  0.00     0.034 A 
BRANCH  52  66
ATOM     66  C   UNL A   1      44.513  33.123  27.662  1.00  0.00     0.023 A 
ATOM     67  C   UNL A   1      43.872  33.058  26.408  1.00  0.00     0.012 A 
ATOM     68  C   UNL A   1      45.055  34.348  28.099  1.00  0.00     0.148 A 
ATOM     69  C   UNL A   1      43.792  34.187  25.592  1.00  0.00     0.002 A 
ATOM     70  C   UNL A   1      44.939  35.478  27.296  1.00  0.00     0.091 A 
ATOM     71  F   UNL A   1      45.683  34.384  29.283  1.00  0.00    -0.205 F 
ATOM     72  C   UNL A   1      44.317  35.397  26.040  1.00  0.00     0.022 A 
BRANCH  70  73
ATOM     73  S   UNL A   1      45.518  37.096  27.819  1.00  0.00     0.127 S 
ATOM     74  O   UNL A   1      45.115  37.934  26.692  1.00  0.00    -0.237 OA
ATOM     75  O   UNL A   1      44.753  37.318  29.047  1.00  0.00    -0.237 OA
ATOM     76  O   UNL A   1      46.954  36.960  28.021  1.00  0.00    -0.744 OA
ENDBRANCH  70  73
ENDBRANCH  52  66
BRANCH  53  77
ATOM     77  C   UNL A   1      44.307  25.070  33.578  1.00  0.00     0.023 A 
ATOM     78  C   UNL A   1      43.708  23.904  33.067  1.00  0.00     0.012 A 
ATOM     79  C   UNL A   1      44.876  25.043  34.866  1.00  0.00     0.148 A 
ATOM     80  C   UNL A   1      43.657  22.738  33.831  1.00  0.00     0.002 A 
ATOM     81  C   UNL A   1      44.873  23.863  35.600  1.00  0.00     0.091 A 
ATOM     82  F   UNL A   1      45.424  26.170  35.343  1.00  0.00    -0.205 F 
ATOM     83  C   UNL A   1      44.249  22.714  35.091  1.00  0.00     0.022 A 
BRANCH  81  84
ATOM     84  S   UNL A   1      45.732  23.710  37.171  1.00  0.00     0.127 S 
ATOM     85  O   UNL A   1      44.828  24.413  38.076  1.00  0.00    -0.237 OA
ATOM     86  O   UNL A   1      45.779  22.259  37.353  1.00  0.00    -0.237 OA
ATOM     87  O   UNL A   1      47.035  24.327  36.962  1.00  0.00    -0.744 OA
ENDBRANCH  81  84
ENDBRANCH  53  77
BRANCH  65  88
ATOM     88  C   UNL A   1      48.303  27.014  28.191  1.00  0.00     0.023 A 
ATOM     89  C   UNL A   1      48.034  26.243  27.044  1.00  0.00     0.012 A 
ATOM     90  C   UNL A   1      49.638  27.204  28.600  1.00  0.00     0.148 A 
ATOM     91  C   UNL A   1      49.073  25.648  26.330  1.00  0.00     0.002 A 
ATOM     92  C   UNL A   1      50.672  26.643  27.859  1.00  0.00     0.091 A 
ATOM     93  F   UNL A   1      49.873  27.923  29.708  1.00  0.00    -0.205 F 
ATOM     94  C   UNL A   1      50.391  25.857  26.730  1.00  0.00     0.022 A 
BRANCH  92  95
ATOM     95  S   UNL A   1      52.400  26.936  28.253  1.00  0.00     0.127 S 
ATOM     96  O   UNL A   1      53.077  26.268  27.142  1.00  0.00    -0.237 OA
ATOM     97  O   UNL A   1      52.484  28.397  28.227  1.00  0.00    -0.237 OA
ATOM     98  O   UNL A   1      52.614  26.345  29.567  1.00  0.00    -0.744 OA
ENDBRANCH  92  95
ENDBRANCH  65  88
ENDBRANCH  39  40
ENDBRANCH  32  34
ENDBRANCH  31  32
ENDBRANCH  30  31
ENDBRANCH  29  30
ENDBRANCH  28  29
ENDBRANCH  26  28
ENDBRANCH   1  26
TORSDOF 23
ENDMDL
MODEL 3
REMARK VINA RESULT:     -10.1      5.755      9.778
REMARK SMILES CCCCCCNC(=O)Oc1cccc(-c2ccc(CC(=O)OCCOC(=O)c3ccc(-c4c5nc(c(-c6cccc(S(=O)(=O)[O-])c6F)c6ccc([nH]6)c(-c6cccc(S(=O)(=O)[O-])c6F)c6nc(c(-c7cccc(S(=O)(=O)[O-])c7F)c7ccc4[nH]7)C=C6)C=C5)cc3)cc2F)c1
REMARK SMILES IDX 20 1 19 2 16 3 17 4 93 5 18 6 92 7 94 8 15 9 11 10 12 11
REMARK SMILES IDX 95 12 13 13 14 14 10 15 8 16 7 17 9 19 6 20 5 21 4 22 3 23
REMARK SMILES IDX 2 24 1 25 21 26 22 27 23 28 24 29 25 30 26 31 27 32 28 33
REMARK SMILES IDX 29 34 30 35 91 36 31 37 90 38 32 39 33 40 34 41 84 42 35 43
REMARK SMILES IDX 89 44 83 45 85 46 36 47 88 48 82 49 81 50 37 52 69 53 49 54
REMARK SMILES IDX 68 55 50 56 53 57 67 58 86 59 51 60 52 61 66 63 87 64 54 65
REMARK SMILES IDX 38 66 39 67 47 68 40 69 42 70 48 71 41 72 43 73 44 74 45 75
REMARK SMILES IDX 46 76 70 77 71 78 79 79 72 80 74 81 80 82 73 83 75 84 76 85
REMARK SMILES IDX 77 86 78 87 55 88 56 89 64 90 57 91 59 92 65 93 58 94 60 95
REMARK SMILES IDX 61 96 62 97 63 98
REMARK H PARENT 7 18 85 51 53 62
REMARK Flexibility Score: inf
ROOT
ATOM      1  C   UNL A   1      36.408  33.561  30.014  1.00  0.00     0.158 C 
ENDROOT
BRANCH   1   2
ATOM      2  C   UNL A   1      37.171  32.307  29.662  1.00  0.00    -0.034 A 
ATOM      3  C   UNL A   1      38.573  29.953  28.925  1.00  0.00     0.018 A 
ATOM      4  C   UNL A   1      39.264  31.125  29.261  1.00  0.00     0.012 A 
ATOM      5  C   UNL A   1      37.172  29.989  28.967  1.00  0.00     0.131 A 
ATOM      6  C   UNL A   1      38.571  32.288  29.618  1.00  0.00     0.005 A 
ATOM      7  C   UNL A   1      36.477  31.139  29.332  1.00  0.00     0.044 A 
ATOM      8  F   UNL A   1      36.458  28.896  28.656  1.00  0.00    -0.206 F 
BRANCH   3   9
ATOM      9  C   UNL A   1      39.287  28.730  28.543  1.00  0.00    -0.012 A 
ATOM     10  C   UNL A   1      40.534  27.443  26.910  1.00  0.00     0.133 A 
ATOM     11  C   UNL A   1      40.556  26.339  27.759  1.00  0.00     0.047 A 
ATOM     12  C   UNL A   1      39.898  28.626  27.286  1.00  0.00     0.056 A 
ATOM     13  C   UNL A   1      39.968  26.436  29.018  1.00  0.00     0.004 A 
ATOM     14  C   UNL A   1      39.342  27.624  29.408  1.00  0.00     0.009 A 
BRANCH  10  15
ATOM     15  O   UNL A   1      41.051  27.273  25.618  1.00  0.00    -0.410 OA
BRANCH  15  16
ATOM     16  C   UNL A   1      42.190  27.991  25.281  1.00  0.00     0.412 C 
ATOM     17  N   UNL A   1      43.290  27.197  25.105  1.00  0.00    -0.321 N 
ATOM     18  H   UNL A   1      44.133  27.656  24.884  1.00  0.00     0.167 HD
ATOM     19  O   UNL A   1      42.267  29.205  25.147  1.00  0.00    -0.224 OA
BRANCH  17  20
ATOM     20  C   UNL A   1      43.346  25.754  25.207  1.00  0.00     0.119 C 
BRANCH  20  21
ATOM     21  C   UNL A   1      43.997  25.296  26.513  1.00  0.00     0.021 C 
BRANCH  21  22
ATOM     22  C   UNL A   1      43.647  23.867  26.943  1.00  0.00     0.002 C 
BRANCH  22  23
ATOM     23  C   UNL A   1      44.163  22.753  26.026  1.00  0.00    -0.000 C 
BRANCH  23  24
ATOM     24  C   UNL A   1      45.657  22.811  25.697  1.00  0.00    -0.003 C 
ATOM     25  C   UNL A   1      45.945  22.860  24.205  1.00  0.00     0.004 C 
ENDBRANCH  23  24
ENDBRANCH  22  23
ENDBRANCH  21  22
ENDBRANCH  20  21
ENDBRANCH  17  20
ENDBRANCH  15  16
ENDBRANCH  10  15
ENDBRANCH   3   9
ENDBRANCH   1   2
BRANCH   1  26
ATOM     26  C   UNL A   1      35.280  33.429  31.010  1.00  0.00     0.310 C 
ATOM     27  O   UNL A   1      34.106  33.443  30.656  1.00  0.00    -0.252 OA
BRANCH  26  28
ATOM     28  O   UNL A   1      35.697  33.238  32.289  1.00  0.00    -0.462 OA
BRANCH  28  29
ATOM     29  C   UNL A   1      35.463  34.334  33.194  1.00  0.00     0.274 C 
BRANCH  29  30
ATOM     30  C   UNL A   1      36.082  34.059  34.562  1.00  0.00     0.275 C 
BRANCH  30  31
ATOM     31  O   UNL A   1      36.251  32.644  34.757  1.00  0.00    -0.458 OA
BRANCH  31  32
ATOM     32  C   UNL A   1      37.346  32.279  35.459  1.00  0.00     0.338 C 
ATOM     33  O   UNL A   1      37.439  32.105  36.662  1.00  0.00    -0.246 OA
BRANCH  32  34
ATOM     34  C   UNL A   1      38.472  32.074  34.538  1.00  0.00     0.060 A 
ATOM     35  C   UNL A   1      38.316  31.240  33.430  1.00  0.00     0.016 A 
ATOM     36  C   UNL A   1      39.718  32.613  34.853  1.00  0.00     0.016 A 
ATOM     37  C   UNL A   1      39.423  30.896  32.658  1.00  0.00     0.010 A 
ATOM     38  C   UNL A   1      40.815  32.316  34.042  1.00  0.00     0.010 A 
ATOM     39  C   UNL A   1      40.683  31.432  32.956  1.00  0.00    -0.014 A 
BRANCH  39  40
ATOM     40  C   UNL A   1      41.873  31.064  32.147  1.00  0.00     0.031 A 
ATOM     41  C   UNL A   1      42.416  32.024  31.125  1.00  0.00     0.074 A 
ATOM     42  C   UNL A   1      42.433  29.850  32.299  1.00  0.00     0.049 A 
ATOM     43  N   UNL A   1      43.354  31.838  30.233  1.00  0.00    -0.248 NA
ATOM     44  C   UNL A   1      41.817  33.369  31.092  1.00  0.00     0.031 C 
ATOM     45  C   UNL A   1      41.994  28.831  33.254  1.00  0.00     0.029 A 
ATOM     46  N   UNL A   1      43.475  29.256  31.632  1.00  0.00    -0.354 N 
ATOM     47  C   UNL A   1      43.424  33.016  29.501  1.00  0.00     0.074 A 
ATOM     48  C   UNL A   1      42.433  33.916  30.053  1.00  0.00     0.031 C 
ATOM     49  C   UNL A   1      42.747  27.731  33.098  1.00  0.00     0.029 A 
ATOM     50  C   UNL A   1      43.690  27.949  32.006  1.00  0.00     0.049 A 
ATOM     51  H   UNL A   1      44.015  29.718  30.952  1.00  0.00     0.167 HD
ATOM     52  C   UNL A   1      44.249  33.326  28.472  1.00  0.00     0.034 A 
ATOM     53  C   UNL A   1      44.527  27.021  31.504  1.00  0.00     0.034 A 
ATOM     54  C   UNL A   1      45.267  32.448  27.960  1.00  0.00     0.049 A 
ATOM     55  C   UNL A   1      45.436  27.395  30.366  1.00  0.00     0.074 A 
ATOM     56  C   UNL A   1      46.188  32.691  26.956  1.00  0.00     0.029 A 
ATOM     57  N   UNL A   1      45.500  31.158  28.411  1.00  0.00    -0.354 N 
ATOM     58  N   UNL A   1      45.556  28.546  29.749  1.00  0.00    -0.248 NA
ATOM     59  C   UNL A   1      46.342  26.350  29.868  1.00  0.00     0.031 C 
ATOM     60  C   UNL A   1      46.971  31.543  26.793  1.00  0.00     0.029 A 
ATOM     61  C   UNL A   1      46.547  30.590  27.705  1.00  0.00     0.049 A 
ATOM     62  H   UNL A   1      44.995  30.711  29.129  1.00  0.00     0.167 HD
ATOM     63  C   UNL A   1      46.568  28.373  28.813  1.00  0.00     0.074 A 
ATOM     64  C   UNL A   1      47.044  27.012  28.959  1.00  0.00     0.031 C 
ATOM     65  C   UNL A   1      47.047  29.254  27.900  1.00  0.00     0.034 A 
BRANCH  52  66
ATOM     66  C   UNL A   1      44.111  34.691  27.850  1.00  0.00     0.023 A 
ATOM     67  C   UNL A   1      43.224  34.876  26.770  1.00  0.00     0.012 A 
ATOM     68  C   UNL A   1      44.810  35.799  28.369  1.00  0.00     0.148 A 
ATOM     69  C   UNL A   1      43.053  36.137  26.199  1.00  0.00     0.002 A 
ATOM     70  C   UNL A   1      44.606  37.061  27.819  1.00  0.00     0.091 A 
ATOM     71  F   UNL A   1      45.668  35.599  29.379  1.00  0.00    -0.205 F 
ATOM     72  C   UNL A   1      43.736  37.229  26.730  1.00  0.00     0.022 A 
BRANCH  70  73
ATOM     73  S   UNL A   1      45.384  38.538  28.481  1.00  0.00     0.127 S 
ATOM     74  O   UNL A   1      45.034  38.449  29.897  1.00  0.00    -0.237 OA
ATOM     75  O   UNL A   1      46.799  38.302  28.188  1.00  0.00    -0.237 OA
ATOM     76  O   UNL A   1      44.798  39.657  27.756  1.00  0.00    -0.744 OA
ENDBRANCH  70  73
ENDBRANCH  52  66
BRANCH  53  77
ATOM     77  C   UNL A   1      44.565  25.658  32.104  1.00  0.00     0.023 A 
ATOM     78  C   UNL A   1      44.020  24.575  31.390  1.00  0.00     0.012 A 
ATOM     79  C   UNL A   1      45.173  25.422  33.353  1.00  0.00     0.148 A 
ATOM     80  C   UNL A   1      44.061  23.284  31.916  1.00  0.00     0.002 A 
ATOM     81  C   UNL A   1      45.261  24.126  33.846  1.00  0.00     0.091 A 
ATOM     82  F   UNL A   1      45.668  26.470  34.028  1.00  0.00    -0.205 F 
ATOM     83  C   UNL A   1      44.691  23.058  33.137  1.00  0.00     0.022 A 
BRANCH  81  84
ATOM     84  S   UNL A   1      46.174  23.731  35.342  1.00  0.00     0.127 S 
ATOM     85  O   UNL A   1      45.407  24.445  36.359  1.00  0.00    -0.237 OA
ATOM     86  O   UNL A   1      46.058  22.273  35.395  1.00  0.00    -0.237 OA
ATOM     87  O   UNL A   1      47.529  24.213  35.109  1.00  0.00    -0.744 OA
ENDBRANCH  81  84
ENDBRANCH  53  77
BRANCH  65  88
ATOM     88  C   UNL A   1      48.162  28.789  27.002  1.00  0.00     0.023 A 
ATOM     89  C   UNL A   1      49.492  28.843  27.461  1.00  0.00     0.012 A 
ATOM     90  C   UNL A   1      47.887  28.233  25.737  1.00  0.00     0.148 A 
ATOM     91  C   UNL A   1      50.536  28.375  26.664  1.00  0.00     0.002 A 
ATOM     92  C   UNL A   1      48.928  27.730  24.966  1.00  0.00     0.091 A 
ATOM     93  F   UNL A   1      46.616  28.211  25.309  1.00  0.00    -0.205 F 
ATOM     94  C   UNL A   1      50.254  27.809  25.422  1.00  0.00     0.022 A 
BRANCH  92  95
ATOM     95  S   UNL A   1      48.644  26.904  23.396  1.00  0.00     0.127 S 
ATOM     96  O   UNL A   1      47.814  27.879  22.691  1.00  0.00    -0.237 OA
ATOM     97  O   UNL A   1      50.000  26.763  22.865  1.00  0.00    -0.237 OA
ATOM     98  O   UNL A   1      47.992  25.643  23.722  1.00  0.00    -0.744 OA
ENDBRANCH  92  95
ENDBRANCH  65  88
ENDBRANCH  39  40
ENDBRANCH  32  34
ENDBRANCH  31  32
ENDBRANCH  30  31
ENDBRANCH  29  30
ENDBRANCH  28  29
ENDBRANCH  26  28
ENDBRANCH   1  26
TORSDOF 23
ENDMDL
