MODEL 1
REMARK VINA RESULT:     -10.3      0.000      0.000
REMARK SMILES O=C(COc1ccc2c(c1)CCC2)N[C@@H](CO)C(=O)OCCOC(=O)c1ccc(-c2c3nc(c(-c4cccc(S(=O)(=O)[O-])c4F)c4ccc([nH]4)c(-c4cccc(S(=O)(=O)[O-])c4F)c4nc(c(-c5cccc(S(=O)(=O)[O-])c5F)c5ccc2[nH]5)C=C4)C=C3)cc1
REMARK SMILES IDX 21 1 20 2 18 3 19 4 15 5 14 6 1 7 2 8 3 10 4 11 5 12 6 13
REMARK SMILES IDX 10 14 7 15 9 16 8 17 11 18 13 19 12 20 16 21 17 22 22 24
REMARK SMILES IDX 23 25 24 26 25 27 26 28 27 29 88 30 28 31 87 32 29 33 30 34
REMARK SMILES IDX 31 35 81 36 32 37 86 38 80 39 82 40 33 41 85 42 79 43 78 44
REMARK SMILES IDX 34 46 66 47 46 48 65 49 47 50 50 51 64 52 83 53 48 54 49 55
REMARK SMILES IDX 63 57 84 58 51 59 35 60 36 61 44 62 37 63 39 64 45 65 38 66
REMARK SMILES IDX 40 67 41 68 42 69 43 70 67 71 68 72 76 73 69 74 71 75 77 76
REMARK SMILES IDX 70 77 72 78 73 79 74 80 75 81 52 82 53 83 61 84 54 85 56 86
REMARK SMILES IDX 62 87 55 88 57 89 58 90 59 91 60 92
REMARK H PARENT 14 9 17 23 82 45 50 56
REMARK Flexibility Score: inf
ROOT
ATOM      1  C   UNL A   1      33.931  34.248  28.645  1.00  0.00     0.274 C 
ENDROOT
BRANCH   1   2
ATOM      2  O   UNL A   1      32.883  34.710  29.523  1.00  0.00    -0.460 OA
BRANCH   2   3
ATOM      3  C   UNL A   1      33.002  35.985  29.985  1.00  0.00     0.331 C 
ATOM      4  O   UNL A   1      32.871  36.989  29.294  1.00  0.00    -0.250 OA
BRANCH   3   5
ATOM      5  C   UNL A   1      33.331  36.044  31.483  1.00  0.00     0.218 C 
BRANCH   5   6
ATOM      6  N   UNL A   1      34.559  35.346  31.911  1.00  0.00    -0.338 N 
ATOM      7  O   UNL A   1      33.392  33.690  32.951  1.00  0.00    -0.271 OA
ATOM      8  C   UNL A   1      34.477  34.152  32.594  1.00  0.00     0.258 C 
ATOM      9  H   UNL A   1      35.440  35.736  31.709  1.00  0.00     0.164 HD
BRANCH   8  10
ATOM     10  C   UNL A   1      35.797  33.459  32.978  1.00  0.00     0.329 C 
BRANCH  10  11
ATOM     11  O   UNL A   1      36.711  34.130  33.826  1.00  0.00    -0.484 OA
BRANCH  11  12
ATOM     12  C   UNL A   1      37.948  34.382  33.289  1.00  0.00     0.120 A 
ATOM     13  C   UNL A   1      39.105  34.582  34.058  1.00  0.00     0.047 A 
ATOM     14  C   UNL A   1      38.039  34.330  31.894  1.00  0.00     0.050 A 
ATOM     15  C   UNL A   1      40.366  34.637  33.456  1.00  0.00     0.008 A 
ATOM     16  C   UNL A   1      39.292  34.420  31.303  1.00  0.00    -0.041 A 
ATOM     17  C   UNL A   1      40.447  34.529  32.081  1.00  0.00    -0.045 A 
ATOM     18  C   UNL A   1      39.638  34.455  29.849  1.00  0.00     0.036 C 
ATOM     19  C   UNL A   1      41.678  34.529  31.229  1.00  0.00     0.036 C 
ATOM     20  C   UNL A   1      41.116  34.040  29.885  1.00  0.00     0.010 C 
ENDBRANCH  11  12
ENDBRANCH  10  11
ENDBRANCH   8  10
ENDBRANCH   5   6
BRANCH   5  21
ATOM     21  C   UNL A   1      33.306  37.510  31.931  1.00  0.00     0.193 C 
BRANCH  21  22
ATOM     22  O   UNL A   1      34.604  37.957  32.328  1.00  0.00    -0.394 OA
ATOM     23  H   UNL A   1      34.766  38.843  31.967  1.00  0.00     0.210 HD
ENDBRANCH  21  22
ENDBRANCH   5  21
ENDBRANCH   3   5
ENDBRANCH   2   3
ENDBRANCH   1   2
BRANCH   1  24
ATOM     24  C   UNL A   1      33.619  32.845  28.105  1.00  0.00     0.275 C 
BRANCH  24  25
ATOM     25  O   UNL A   1      34.805  32.131  27.697  1.00  0.00    -0.458 OA
BRANCH  25  26
ATOM     26  C   UNL A   1      34.715  30.791  27.858  1.00  0.00     0.338 C 
ATOM     27  O   UNL A   1      33.720  30.114  27.659  1.00  0.00    -0.246 OA
BRANCH  26  28
ATOM     28  C   UNL A   1      36.018  30.185  28.177  1.00  0.00     0.060 A 
ATOM     29  C   UNL A   1      36.196  29.674  29.466  1.00  0.00     0.016 A 
ATOM     30  C   UNL A   1      37.092  30.235  27.287  1.00  0.00     0.016 A 
ATOM     31  C   UNL A   1      37.442  29.220  29.880  1.00  0.00     0.010 A 
ATOM     32  C   UNL A   1      38.347  29.772  27.701  1.00  0.00     0.010 A 
ATOM     33  C   UNL A   1      38.531  29.270  29.002  1.00  0.00    -0.014 A 
BRANCH  33  34
ATOM     34  C   UNL A   1      39.851  28.773  29.456  1.00  0.00     0.031 A 
ATOM     35  C   UNL A   1      40.596  29.470  30.557  1.00  0.00     0.074 A 
ATOM     36  C   UNL A   1      40.374  27.682  28.870  1.00  0.00     0.049 A 
ATOM     37  N   UNL A   1      41.775  29.200  31.052  1.00  0.00    -0.248 NA
ATOM     38  C   UNL A   1      39.927  30.621  31.182  1.00  0.00     0.031 C 
ATOM     39  C   UNL A   1      39.735  26.919  27.796  1.00  0.00     0.029 A 
ATOM     40  N   UNL A   1      41.566  27.038  29.077  1.00  0.00    -0.354 N 
ATOM     41  C   UNL A   1      42.008  30.161  32.028  1.00  0.00     0.074 A 
ATOM     42  C   UNL A   1      40.846  31.026  32.051  1.00  0.00     0.031 C 
ATOM     43  C   UNL A   1      40.554  25.925  27.421  1.00  0.00     0.029 A 
ATOM     44  C   UNL A   1      41.785  26.001  28.203  1.00  0.00     0.049 A 
ATOM     45  H   UNL A   1      42.203  27.294  29.784  1.00  0.00     0.167 HD
ATOM     46  C   UNL A   1      43.084  30.301  32.837  1.00  0.00     0.034 A 
ATOM     47  C   UNL A   1      42.866  25.216  28.031  1.00  0.00     0.034 A 
ATOM     48  C   UNL A   1      44.223  29.420  32.829  1.00  0.00     0.049 A 
ATOM     49  C   UNL A   1      44.053  25.398  28.933  1.00  0.00     0.074 A 
ATOM     50  C   UNL A   1      45.342  29.452  33.643  1.00  0.00     0.029 A 
ATOM     51  N   UNL A   1      44.393  28.354  31.959  1.00  0.00    -0.354 N 
ATOM     52  N   UNL A   1      44.216  26.246  29.921  1.00  0.00    -0.248 NA
ATOM     53  C   UNL A   1      45.196  24.499  28.718  1.00  0.00     0.031 C 
ATOM     54  C   UNL A   1      46.195  28.413  33.255  1.00  0.00     0.029 A 
ATOM     55  C   UNL A   1      45.603  27.726  32.207  1.00  0.00     0.049 A 
ATOM     56  H   UNL A   1      43.749  28.082  31.266  1.00  0.00     0.167 HD
ATOM     57  C   UNL A   1      45.467  25.971  30.458  1.00  0.00     0.074 A 
ATOM     58  C   UNL A   1      46.011  24.861  29.701  1.00  0.00     0.031 C 
ATOM     59  C   UNL A   1      46.115  26.595  31.473  1.00  0.00     0.034 A 
BRANCH  46  60
ATOM     60  C   UNL A   1      43.066  31.436  33.826  1.00  0.00     0.023 A 
ATOM     61  C   UNL A   1      43.637  32.674  33.471  1.00  0.00     0.012 A 
ATOM     62  C   UNL A   1      42.450  31.295  35.084  1.00  0.00     0.148 A 
ATOM     63  C   UNL A   1      43.621  33.746  34.364  1.00  0.00     0.002 A 
ATOM     64  C   UNL A   1      42.408  32.378  35.956  1.00  0.00     0.091 A 
ATOM     65  F   UNL A   1      41.937  30.101  35.419  1.00  0.00    -0.205 F 
ATOM     66  C   UNL A   1      42.998  33.601  35.601  1.00  0.00     0.022 A 
BRANCH  64  67
ATOM     67  S   UNL A   1      41.570  32.292  37.544  1.00  0.00     0.127 S 
ATOM     68  O   UNL A   1      42.336  31.251  38.226  1.00  0.00    -0.237 OA
ATOM     69  O   UNL A   1      41.765  33.640  38.078  1.00  0.00    -0.237 OA
ATOM     70  O   UNL A   1      40.185  31.963  37.238  1.00  0.00    -0.744 OA
ENDBRANCH  64  67
ENDBRANCH  46  60
BRANCH  47  71
ATOM     71  C   UNL A   1      42.841  24.167  26.975  1.00  0.00     0.023 A 
ATOM     72  C   UNL A   1      43.562  24.363  25.783  1.00  0.00     0.012 A 
ATOM     73  C   UNL A   1      42.172  22.943  27.184  1.00  0.00     0.148 A 
ATOM     74  C   UNL A   1      43.610  23.363  24.812  1.00  0.00     0.002 A 
ATOM     75  C   UNL A   1      42.271  21.931  26.238  1.00  0.00     0.091 A 
ATOM     76  F   UNL A   1      41.477  22.785  28.320  1.00  0.00    -0.205 F 
ATOM     77  C   UNL A   1      42.979  22.143  25.045  1.00  0.00     0.022 A 
BRANCH  75  78
ATOM     78  S   UNL A   1      41.610  20.284  26.522  1.00  0.00     0.127 S 
ATOM     79  O   UNL A   1      42.131  19.551  25.371  1.00  0.00    -0.237 OA
ATOM     80  O   UNL A   1      42.217  19.929  27.805  1.00  0.00    -0.237 OA
ATOM     81  O   UNL A   1      40.163  20.446  26.568  1.00  0.00    -0.744 OA
ENDBRANCH  75  78
ENDBRANCH  47  71
BRANCH  59  82
ATOM     82  C   UNL A   1      47.487  26.091  31.833  1.00  0.00     0.023 A 
ATOM     83  C   UNL A   1      48.605  26.556  31.113  1.00  0.00     0.012 A 
ATOM     84  C   UNL A   1      47.678  25.215  32.920  1.00  0.00     0.148 A 
ATOM     85  C   UNL A   1      49.891  26.137  31.453  1.00  0.00     0.002 A 
ATOM     86  C   UNL A   1      48.967  24.834  33.277  1.00  0.00     0.091 A 
ATOM     87  F   UNL A   1      46.600  24.765  33.578  1.00  0.00    -0.205 F 
ATOM     88  C   UNL A   1      50.073  25.287  32.541  1.00  0.00     0.022 A 
BRANCH  86  89
ATOM     89  S   UNL A   1      49.296  23.810  34.716  1.00  0.00     0.127 S 
ATOM     90  O   UNL A   1      50.747  23.648  34.644  1.00  0.00    -0.237 OA
ATOM     91  O   UNL A   1      48.830  24.654  35.817  1.00  0.00    -0.237 OA
ATOM     92  O   UNL A   1      48.516  22.594  34.524  1.00  0.00    -0.744 OA
ENDBRANCH  86  89
ENDBRANCH  59  82
ENDBRANCH  33  34
ENDBRANCH  26  28
ENDBRANCH  25  26
ENDBRANCH  24  25
ENDBRANCH   1  24
TORSDOF 20
ENDMDL
MODEL 2
REMARK VINA RESULT:     -10.3      4.275     12.232
REMARK SMILES O=C(COc1ccc2c(c1)CCC2)N[C@@H](CO)C(=O)OCCOC(=O)c1ccc(-c2c3nc(c(-c4cccc(S(=O)(=O)[O-])c4F)c4ccc([nH]4)c(-c4cccc(S(=O)(=O)[O-])c4F)c4nc(c(-c5cccc(S(=O)(=O)[O-])c5F)c5ccc2[nH]5)C=C4)C=C3)cc1
REMARK SMILES IDX 21 1 20 2 18 3 19 4 15 5 14 6 1 7 2 8 3 10 4 11 5 12 6 13
REMARK SMILES IDX 10 14 7 15 9 16 8 17 11 18 13 19 12 20 16 21 17 22 22 24
REMARK SMILES IDX 23 25 24 26 25 27 26 28 27 29 88 30 28 31 87 32 29 33 30 34
REMARK SMILES IDX 31 35 81 36 32 37 86 38 80 39 82 40 33 41 85 42 79 43 78 44
REMARK SMILES IDX 34 46 66 47 46 48 65 49 47 50 50 51 64 52 83 53 48 54 49 55
REMARK SMILES IDX 63 57 84 58 51 59 35 60 36 61 44 62 37 63 39 64 45 65 38 66
REMARK SMILES IDX 40 67 41 68 42 69 43 70 67 71 68 72 76 73 69 74 71 75 77 76
REMARK SMILES IDX 70 77 72 78 73 79 74 80 75 81 52 82 53 83 61 84 54 85 56 86
REMARK SMILES IDX 62 87 55 88 57 89 58 90 59 91 60 92
REMARK H PARENT 14 9 17 23 82 45 50 56
REMARK Flexibility Score: inf
ROOT
ATOM      1  C   UNL A   1      41.183  19.991  26.486  1.00  0.00     0.274 C 
ENDROOT
BRANCH   1   2
ATOM      2  O   UNL A   1      42.614  19.856  26.607  1.00  0.00    -0.460 OA
BRANCH   2   3
ATOM      3  C   UNL A   1      43.226  19.062  25.686  1.00  0.00     0.331 C 
ATOM      4  O   UNL A   1      42.874  17.921  25.409  1.00  0.00    -0.250 OA
BRANCH   3   5
ATOM      5  C   UNL A   1      44.428  19.746  25.021  1.00  0.00     0.218 C 
BRANCH   5   6
ATOM      6  N   UNL A   1      44.793  21.079  25.540  1.00  0.00    -0.338 N 
ATOM      7  O   UNL A   1      44.168  22.126  23.617  1.00  0.00    -0.271 OA
ATOM      8  C   UNL A   1      44.574  22.205  24.777  1.00  0.00     0.258 C 
ATOM      9  H   UNL A   1      45.195  21.163  26.434  1.00  0.00     0.164 HD
BRANCH   8  10
ATOM     10  C   UNL A   1      44.943  23.566  25.394  1.00  0.00     0.329 C 
BRANCH  10  11
ATOM     11  O   UNL A   1      46.249  23.764  25.907  1.00  0.00    -0.484 OA
BRANCH  11  12
ATOM     12  C   UNL A   1      46.321  24.150  27.222  1.00  0.00     0.120 A 
ATOM     13  C   UNL A   1      47.346  24.955  27.741  1.00  0.00     0.047 A 
ATOM     14  C   UNL A   1      45.241  23.784  28.033  1.00  0.00     0.050 A 
ATOM     15  C   UNL A   1      47.261  25.478  29.036  1.00  0.00     0.008 A 
ATOM     16  C   UNL A   1      45.183  24.280  29.329  1.00  0.00    -0.041 A 
ATOM     17  C   UNL A   1      46.163  25.153  29.808  1.00  0.00    -0.045 A 
ATOM     18  C   UNL A   1      44.179  23.986  30.398  1.00  0.00     0.036 C 
ATOM     19  C   UNL A   1      45.845  25.615  31.197  1.00  0.00     0.036 C 
ATOM     20  C   UNL A   1      44.375  25.191  31.329  1.00  0.00     0.010 C 
ENDBRANCH  11  12
ENDBRANCH  10  11
ENDBRANCH   8  10
ENDBRANCH   5   6
BRANCH   5  21
ATOM     21  C   UNL A   1      45.611  18.771  25.031  1.00  0.00     0.193 C 
BRANCH  21  22
ATOM     22  O   UNL A   1      45.445  17.759  26.025  1.00  0.00    -0.394 OA
ATOM     23  H   UNL A   1      44.803  18.058  26.688  1.00  0.00     0.210 HD
ENDBRANCH  21  22
ENDBRANCH   5  21
ENDBRANCH   3   5
ENDBRANCH   2   3
ENDBRANCH   1   2
BRANCH   1  24
ATOM     24  C   UNL A   1      40.699  21.310  27.105  1.00  0.00     0.275 C 
BRANCH  24  25
ATOM     25  O   UNL A   1      40.454  22.331  26.115  1.00  0.00    -0.458 OA
BRANCH  25  26
ATOM     26  C   UNL A   1      39.306  23.019  26.317  1.00  0.00     0.338 C 
ATOM     27  O   UNL A   1      38.178  22.597  26.127  1.00  0.00    -0.246 OA
BRANCH  26  28
ATOM     28  C   UNL A   1      39.552  24.329  26.942  1.00  0.00     0.060 A 
ATOM     29  C   UNL A   1      40.185  25.306  26.168  1.00  0.00     0.016 A 
ATOM     30  C   UNL A   1      39.299  24.560  28.295  1.00  0.00     0.016 A 
ATOM     31  C   UNL A   1      40.577  26.513  26.735  1.00  0.00     0.010 A 
ATOM     32  C   UNL A   1      39.689  25.778  28.866  1.00  0.00     0.010 A 
ATOM     33  C   UNL A   1      40.337  26.757  28.092  1.00  0.00    -0.014 A 
BRANCH  33  34
ATOM     34  C   UNL A   1      40.753  28.052  28.679  1.00  0.00     0.031 A 
ATOM     35  C   UNL A   1      42.205  28.375  28.875  1.00  0.00     0.074 A 
ATOM     36  C   UNL A   1      39.808  28.942  29.032  1.00  0.00     0.049 A 
ATOM     37  N   UNL A   1      42.748  29.437  29.409  1.00  0.00    -0.248 NA
ATOM     38  C   UNL A   1      43.174  27.371  28.410  1.00  0.00     0.031 C 
ATOM     39  C   UNL A   1      38.367  28.739  28.880  1.00  0.00     0.029 A 
ATOM     40  N   UNL A   1      39.915  30.181  29.609  1.00  0.00    -0.354 N 
ATOM     41  C   UNL A   1      44.120  29.223  29.373  1.00  0.00     0.074 A 
ATOM     42  C   UNL A   1      44.327  27.923  28.767  1.00  0.00     0.031 C 
ATOM     43  C   UNL A   1      37.722  29.806  29.375  1.00  0.00     0.029 A 
ATOM     44  C   UNL A   1      38.702  30.750  29.908  1.00  0.00     0.049 A 
ATOM     45  H   UNL A   1      40.778  30.620  29.791  1.00  0.00     0.167 HD
ATOM     46  C   UNL A   1      45.114  30.040  29.794  1.00  0.00     0.034 A 
ATOM     47  C   UNL A   1      38.407  31.891  30.560  1.00  0.00     0.034 A 
ATOM     48  C   UNL A   1      44.904  31.343  30.369  1.00  0.00     0.049 A 
ATOM     49  C   UNL A   1      39.527  32.775  31.029  1.00  0.00     0.074 A 
ATOM     50  C   UNL A   1      45.849  32.265  30.783  1.00  0.00     0.029 A 
ATOM     51  N   UNL A   1      43.661  31.907  30.618  1.00  0.00    -0.354 N 
ATOM     52  N   UNL A   1      40.821  32.607  30.894  1.00  0.00    -0.248 NA
ATOM     53  C   UNL A   1      39.151  34.019  31.715  1.00  0.00     0.031 C 
ATOM     54  C   UNL A   1      45.178  33.381  31.296  1.00  0.00     0.029 A 
ATOM     55  C   UNL A   1      43.813  33.159  31.191  1.00  0.00     0.049 A 
ATOM     56  H   UNL A   1      42.797  31.480  30.417  1.00  0.00     0.167 HD
ATOM     57  C   UNL A   1      41.414  33.730  31.459  1.00  0.00     0.074 A 
ATOM     58  C   UNL A   1      40.335  34.584  31.916  1.00  0.00     0.031 C 
ATOM     59  C   UNL A   1      42.731  34.018  31.603  1.00  0.00     0.034 A 
BRANCH  46  60
ATOM     60  C   UNL A   1      46.530  29.558  29.618  1.00  0.00     0.023 A 
ATOM     61  C   UNL A   1      47.206  28.978  30.711  1.00  0.00     0.012 A 
ATOM     62  C   UNL A   1      47.176  29.637  28.370  1.00  0.00     0.148 A 
ATOM     63  C   UNL A   1      48.513  28.510  30.570  1.00  0.00     0.002 A 
ATOM     64  C   UNL A   1      48.467  29.138  28.229  1.00  0.00     0.091 A 
ATOM     65  F   UNL A   1      46.530  30.218  27.348  1.00  0.00    -0.205 F 
ATOM     66  C   UNL A   1      49.139  28.581  29.329  1.00  0.00     0.022 A 
BRANCH  64  67
ATOM     67  S   UNL A   1      49.320  29.135  26.648  1.00  0.00     0.127 S 
ATOM     68  O   UNL A   1      48.265  28.686  25.743  1.00  0.00    -0.237 OA
ATOM     69  O   UNL A   1      49.700  30.539  26.491  1.00  0.00    -0.237 OA
ATOM     70  O   UNL A   1      50.446  28.225  26.812  1.00  0.00    -0.744 OA
ENDBRANCH  64  67
ENDBRANCH  46  60
BRANCH  47  71
ATOM     71  C   UNL A   1      36.981  32.261  30.769  1.00  0.00     0.023 A 
ATOM     72  C   UNL A   1      36.394  32.082  32.035  1.00  0.00     0.012 A 
ATOM     73  C   UNL A   1      36.230  32.864  29.740  1.00  0.00     0.148 A 
ATOM     74  C   UNL A   1      35.081  32.489  32.272  1.00  0.00     0.002 A 
ATOM     75  C   UNL A   1      34.943  33.318  29.998  1.00  0.00     0.091 A 
ATOM     76  F   UNL A   1      36.803  33.008  28.536  1.00  0.00    -0.205 F 
ATOM     77  C   UNL A   1      34.360  33.120  31.259  1.00  0.00     0.022 A 
BRANCH  75  78
ATOM     78  S   UNL A   1      34.000  34.265  28.796  1.00  0.00     0.127 S 
ATOM     79  O   UNL A   1      33.732  33.262  27.769  1.00  0.00    -0.237 OA
ATOM     80  O   UNL A   1      32.832  34.672  29.579  1.00  0.00    -0.237 OA
ATOM     81  O   UNL A   1      34.866  35.366  28.398  1.00  0.00    -0.744 OA
ENDBRANCH  75  78
ENDBRANCH  47  71
BRANCH  59  82
ATOM     82  C   UNL A   1      43.086  35.314  32.280  1.00  0.00     0.023 A 
ATOM     83  C   UNL A   1      43.060  35.391  33.686  1.00  0.00     0.012 A 
ATOM     84  C   UNL A   1      43.510  36.432  31.534  1.00  0.00     0.148 A 
ATOM     85  C   UNL A   1      43.424  36.568  34.340  1.00  0.00     0.002 A 
ATOM     86  C   UNL A   1      43.911  37.589  32.194  1.00  0.00     0.091 A 
ATOM     87  F   UNL A   1      43.507  36.348  30.195  1.00  0.00    -0.205 F 
ATOM     88  C   UNL A   1      43.861  37.661  33.595  1.00  0.00     0.022 A 
BRANCH  86  89
ATOM     89  S   UNL A   1      44.566  39.012  31.316  1.00  0.00     0.127 S 
ATOM     90  O   UNL A   1      43.460  39.346  30.420  1.00  0.00    -0.237 OA
ATOM     91  O   UNL A   1      44.787  39.975  32.396  1.00  0.00    -0.237 OA
ATOM     92  O   UNL A   1      45.786  38.551  30.667  1.00  0.00    -0.744 OA
ENDBRANCH  86  89
ENDBRANCH  59  82
ENDBRANCH  33  34
ENDBRANCH  26  28
ENDBRANCH  25  26
ENDBRANCH  24  25
ENDBRANCH   1  24
TORSDOF 20
ENDMDL
MODEL 3
REMARK VINA RESULT:     -10.2      1.621      2.379
REMARK SMILES O=C(COc1ccc2c(c1)CCC2)N[C@@H](CO)C(=O)OCCOC(=O)c1ccc(-c2c3nc(c(-c4cccc(S(=O)(=O)[O-])c4F)c4ccc([nH]4)c(-c4cccc(S(=O)(=O)[O-])c4F)c4nc(c(-c5cccc(S(=O)(=O)[O-])c5F)c5ccc2[nH]5)C=C4)C=C3)cc1
REMARK SMILES IDX 21 1 20 2 18 3 19 4 15 5 14 6 1 7 2 8 3 10 4 11 5 12 6 13
REMARK SMILES IDX 10 14 7 15 9 16 8 17 11 18 13 19 12 20 16 21 17 22 22 24
REMARK SMILES IDX 23 25 24 26 25 27 26 28 27 29 88 30 28 31 87 32 29 33 30 34
REMARK SMILES IDX 31 35 81 36 32 37 86 38 80 39 82 40 33 41 85 42 79 43 78 44
REMARK SMILES IDX 34 46 66 47 46 48 65 49 47 50 50 51 64 52 83 53 48 54 49 55
REMARK SMILES IDX 63 57 84 58 51 59 35 60 36 61 44 62 37 63 39 64 45 65 38 66
REMARK SMILES IDX 40 67 41 68 42 69 43 70 67 71 68 72 76 73 69 74 71 75 77 76
REMARK SMILES IDX 70 77 72 78 73 79 74 80 75 81 52 82 53 83 61 84 54 85 56 86
REMARK SMILES IDX 62 87 55 88 57 89 58 90 59 91 60 92
REMARK H PARENT 14 9 17 23 82 45 50 56
REMARK Flexibility Score: inf
ROOT
ATOM      1  C   UNL A   1      33.877  34.893  28.770  1.00  0.00     0.274 C 
ENDROOT
BRANCH   1   2
ATOM      2  O   UNL A   1      33.034  34.672  29.920  1.00  0.00    -0.460 OA
BRANCH   2   3
ATOM      3  C   UNL A   1      32.935  35.704  30.803  1.00  0.00     0.331 C 
ATOM      4  O   UNL A   1      32.463  36.803  30.536  1.00  0.00    -0.250 OA
BRANCH   3   5
ATOM      5  C   UNL A   1      33.491  35.352  32.189  1.00  0.00     0.218 C 
BRANCH   5   6
ATOM      6  N   UNL A   1      34.789  34.649  32.215  1.00  0.00    -0.338 N 
ATOM      7  O   UNL A   1      34.006  33.013  33.592  1.00  0.00    -0.271 OA
ATOM      8  C   UNL A   1      34.923  33.463  32.904  1.00  0.00     0.258 C 
ATOM      9  H   UNL A   1      35.561  35.030  31.739  1.00  0.00     0.164 HD
BRANCH   8  10
ATOM     10  C   UNL A   1      36.294  32.764  32.859  1.00  0.00     0.329 C 
BRANCH  10  11
ATOM     11  O   UNL A   1      36.872  32.293  34.063  1.00  0.00    -0.484 OA
BRANCH  11  12
ATOM     12  C   UNL A   1      37.768  33.139  34.666  1.00  0.00     0.120 A 
ATOM     13  C   UNL A   1      38.569  34.053  33.965  1.00  0.00     0.047 A 
ATOM     14  C   UNL A   1      37.781  33.130  36.065  1.00  0.00     0.050 A 
ATOM     15  C   UNL A   1      39.314  35.023  34.643  1.00  0.00     0.008 A 
ATOM     16  C   UNL A   1      38.551  34.074  36.731  1.00  0.00    -0.041 A 
ATOM     17  C   UNL A   1      39.275  35.037  36.024  1.00  0.00    -0.045 A 
ATOM     18  C   UNL A   1      38.779  34.226  38.201  1.00  0.00     0.036 C 
ATOM     19  C   UNL A   1      39.959  35.992  36.954  1.00  0.00     0.036 C 
ATOM     20  C   UNL A   1      39.248  35.686  38.280  1.00  0.00     0.010 C 
ENDBRANCH  11  12
ENDBRANCH  10  11
ENDBRANCH   8  10
ENDBRANCH   5   6
BRANCH   5  21
ATOM     21  C   UNL A   1      33.497  36.621  33.049  1.00  0.00     0.193 C 
BRANCH  21  22
ATOM     22  O   UNL A   1      32.170  37.038  33.374  1.00  0.00    -0.394 OA
ATOM     23  H   UNL A   1      32.203  37.881  33.853  1.00  0.00     0.210 HD
ENDBRANCH  21  22
ENDBRANCH   5  21
ENDBRANCH   3   5
ENDBRANCH   2   3
ENDBRANCH   1   2
BRANCH   1  24
ATOM     24  C   UNL A   1      34.049  33.602  27.956  1.00  0.00     0.275 C 
BRANCH  24  25
ATOM     25  O   UNL A   1      34.272  32.446  28.791  1.00  0.00    -0.458 OA
BRANCH  25  26
ATOM     26  C   UNL A   1      34.497  31.308  28.093  1.00  0.00     0.338 C 
ATOM     27  O   UNL A   1      33.802  30.877  27.189  1.00  0.00    -0.246 OA
BRANCH  26  28
ATOM     28  C   UNL A   1      35.783  30.687  28.451  1.00  0.00     0.060 A 
ATOM     29  C   UNL A   1      35.776  29.725  29.466  1.00  0.00     0.016 A 
ATOM     30  C   UNL A   1      36.991  31.127  27.909  1.00  0.00     0.016 A 
ATOM     31  C   UNL A   1      36.968  29.204  29.953  1.00  0.00     0.010 A 
ATOM     32  C   UNL A   1      38.193  30.598  28.395  1.00  0.00     0.010 A 
ATOM     33  C   UNL A   1      38.189  29.640  29.425  1.00  0.00    -0.014 A 
BRANCH  33  34
ATOM     34  C   UNL A   1      39.451  29.067  29.949  1.00  0.00     0.031 A 
ATOM     35  C   UNL A   1      40.098  29.633  31.178  1.00  0.00     0.074 A 
ATOM     36  C   UNL A   1      40.009  28.025  29.308  1.00  0.00     0.049 A 
ATOM     37  N   UNL A   1      41.220  29.286  31.753  1.00  0.00    -0.248 NA
ATOM     38  C   UNL A   1      39.392  30.735  31.850  1.00  0.00     0.031 C 
ATOM     39  C   UNL A   1      39.464  27.389  28.109  1.00  0.00     0.029 A 
ATOM     40  N   UNL A   1      41.166  27.334  29.561  1.00  0.00    -0.354 N 
ATOM     41  C   UNL A   1      41.374  30.141  32.837  1.00  0.00     0.074 A 
ATOM     42  C   UNL A   1      40.229  31.029  32.837  1.00  0.00     0.031 C 
ATOM     43  C   UNL A   1      40.299  26.415  27.714  1.00  0.00     0.029 A 
ATOM     44  C   UNL A   1      41.451  26.383  28.612  1.00  0.00     0.049 A 
ATOM     45  H   UNL A   1      41.736  27.503  30.346  1.00  0.00     0.167 HD
ATOM     46  C   UNL A   1      42.369  30.173  33.753  1.00  0.00     0.034 A 
ATOM     47  C   UNL A   1      42.530  25.590  28.464  1.00  0.00     0.034 A 
ATOM     48  C   UNL A   1      43.490  29.269  33.764  1.00  0.00     0.049 A 
ATOM     49  C   UNL A   1      43.628  25.652  29.487  1.00  0.00     0.074 A 
ATOM     50  C   UNL A   1      44.525  29.192  34.679  1.00  0.00     0.029 A 
ATOM     51  N   UNL A   1      43.725  28.288  32.812  1.00  0.00    -0.354 N 
ATOM     52  N   UNL A   1      43.709  26.395  30.565  1.00  0.00    -0.248 NA
ATOM     53  C   UNL A   1      44.772  24.750  29.292  1.00  0.00     0.031 C 
ATOM     54  C   UNL A   1      45.395  28.174  34.271  1.00  0.00     0.029 A 
ATOM     55  C   UNL A   1      44.895  27.609  33.108  1.00  0.00     0.049 A 
ATOM     56  H   UNL A   1      43.146  28.102  32.038  1.00  0.00     0.167 HD
ATOM     57  C   UNL A   1      44.899  26.037  31.188  1.00  0.00     0.074 A 
ATOM     58  C   UNL A   1      45.494  24.993  30.378  1.00  0.00     0.031 C 
ATOM     59  C   UNL A   1      45.456  26.542  32.316  1.00  0.00     0.034 A 
BRANCH  46  60
ATOM     60  C   UNL A   1      42.276  31.206  34.845  1.00  0.00     0.023 A 
ATOM     61  C   UNL A   1      41.645  30.875  36.061  1.00  0.00     0.012 A 
ATOM     62  C   UNL A   1      42.845  32.484  34.688  1.00  0.00     0.148 A 
ATOM     63  C   UNL A   1      41.558  31.809  37.093  1.00  0.00     0.002 A 
ATOM     64  C   UNL A   1      42.784  33.399  35.734  1.00  0.00     0.091 A 
ATOM     65  F   UNL A   1      43.416  32.794  33.514  1.00  0.00    -0.205 F 
ATOM     66  C   UNL A   1      42.135  33.066  36.933  1.00  0.00     0.022 A 
BRANCH  64  67
ATOM     67  S   UNL A   1      43.557  35.018  35.631  1.00  0.00     0.127 S 
ATOM     68  O   UNL A   1      43.381  35.517  36.993  1.00  0.00    -0.237 OA
ATOM     69  O   UNL A   1      44.938  34.687  35.277  1.00  0.00    -0.237 OA
ATOM     70  O   UNL A   1      42.828  35.734  34.593  1.00  0.00    -0.744 OA
ENDBRANCH  64  67
ENDBRANCH  46  60
BRANCH  47  71
ATOM     71  C   UNL A   1      42.589  24.651  27.312  1.00  0.00     0.023 A 
ATOM     72  C   UNL A   1      43.279  25.025  26.144  1.00  0.00     0.012 A 
ATOM     73  C   UNL A   1      42.034  23.358  27.400  1.00  0.00     0.148 A 
ATOM     74  C   UNL A   1      43.408  24.132  25.080  1.00  0.00     0.002 A 
ATOM     75  C   UNL A   1      42.214  22.455  26.361  1.00  0.00     0.091 A 
ATOM     76  F   UNL A   1      41.365  23.029  28.515  1.00  0.00    -0.205 F 
ATOM     77  C   UNL A   1      42.889  22.844  25.193  1.00  0.00     0.022 A 
BRANCH  75  78
ATOM     78  S   UNL A   1      41.704  20.736  26.482  1.00  0.00     0.127 S 
ATOM     79  O   UNL A   1      40.270  20.831  26.222  1.00  0.00    -0.237 OA
ATOM     80  O   UNL A   1      42.484  20.112  25.413  1.00  0.00    -0.237 OA
ATOM     81  O   UNL A   1      42.078  20.310  27.823  1.00  0.00    -0.744 OA
ENDBRANCH  75  78
ENDBRANCH  47  71
BRANCH  59  82
ATOM     82  C   UNL A   1      46.779  25.970  32.751  1.00  0.00     0.023 A 
ATOM     83  C   UNL A   1      47.972  26.565  32.297  1.00  0.00     0.012 A 
ATOM     84  C   UNL A   1      46.844  24.893  33.657  1.00  0.00     0.148 A 
ATOM     85  C   UNL A   1      49.211  26.081  32.717  1.00  0.00     0.002 A 
ATOM     86  C   UNL A   1      48.082  24.442  34.103  1.00  0.00     0.091 A 
ATOM     87  F   UNL A   1      45.697  24.325  34.060  1.00  0.00    -0.205 F 
ATOM     88  C   UNL A   1      49.265  25.029  33.628  1.00  0.00     0.022 A 
BRANCH  86  89
ATOM     89  S   UNL A   1      48.238  23.149  35.340  1.00  0.00     0.127 S 
ATOM     90  O   UNL A   1      47.665  23.792  36.520  1.00  0.00    -0.237 OA
ATOM     91  O   UNL A   1      47.422  22.073  34.775  1.00  0.00    -0.237 OA
ATOM     92  O   UNL A   1      49.661  22.843  35.416  1.00  0.00    -0.744 OA
ENDBRANCH  86  89
ENDBRANCH  59  82
ENDBRANCH  33  34
ENDBRANCH  26  28
ENDBRANCH  25  26
ENDBRANCH  24  25
ENDBRANCH   1  24
TORSDOF 20
ENDMDL
