MODEL 1
REMARK VINA RESULT:     -11.5      0.000      0.000
REMARK SMILES C[C@@H]1C[C@@]([NH2+]Cc2cccs2)(C(=O)OCCOC(=O)c2ccc(-c3c4nc(c(-c5cccc(S(=O)(=O)[O-])c5F)c5ccc([nH]5)c(-c5cccc(S(=O)(=O)[O-])c5F)c5nc(c(-c6cccc(S(=O)(=O)[O-])c6F)c6ccc3[nH]6)C=C5)C=C4)cc2)CS1
REMARK SMILES IDX 15 1 14 2 12 3 13 4 4 5 1 6 2 7 3 8 84 9 83 10 5 11 6 14
REMARK SMILES IDX 7 15 8 16 11 17 9 18 10 19 16 20 17 21 18 22 19 23 20 24
REMARK SMILES IDX 21 25 82 26 22 27 81 28 23 29 24 30 25 31 75 32 26 33 80 34
REMARK SMILES IDX 74 35 76 36 27 37 79 38 73 39 72 40 28 42 60 43 40 44 59 45
REMARK SMILES IDX 41 46 44 47 58 48 77 49 42 50 43 51 57 53 78 54 45 55 29 56
REMARK SMILES IDX 30 57 38 58 31 59 33 60 39 61 32 62 34 63 35 64 36 65 37 66
REMARK SMILES IDX 61 67 62 68 70 69 63 70 65 71 71 72 64 73 66 74 67 75 68 76
REMARK SMILES IDX 69 77 46 78 47 79 55 80 48 81 50 82 56 83 49 84 51 85 52 86
REMARK SMILES IDX 53 87 54 88
REMARK H PARENT 5 12 5 13 76 41 44 52
REMARK Flexibility Score: inf
ROOT
ATOM      1  C   UNL A   1      32.966  29.587  24.997  1.00  0.00     0.274 C 
ENDROOT
BRANCH   1   2
ATOM      2  O   UNL A   1      32.400  29.417  23.678  1.00  0.00    -0.457 OA
BRANCH   2   3
ATOM      3  C   UNL A   1      32.554  28.177  23.139  1.00  0.00     0.369 C 
ATOM      4  O   UNL A   1      33.628  27.791  22.692  1.00  0.00    -0.245 OA
BRANCH   3   5
ATOM      5  C   UNL A   1      31.256  27.312  23.109  1.00  0.00     0.204 C 
ATOM      6  C   UNL A   1      29.994  25.190  26.127  1.00  0.00     0.019 C 
ATOM      7  C   UNL A   1      30.918  25.658  25.017  1.00  0.00     0.050 C 
ATOM      8  C   UNL A   1      30.638  27.083  24.536  1.00  0.00     0.096 C 
ATOM      9  S   UNL A   1      30.651  24.715  23.508  1.00  0.00    -0.151 SA
ATOM     10  C   UNL A   1      31.605  25.910  22.551  1.00  0.00     0.150 C 
BRANCH   5  11
ATOM     11  N   UNL A   1      30.167  27.982  22.318  1.00  0.00    -0.327 N 
ATOM     12  H   UNL A   1      29.797  27.282  21.674  1.00  0.00     0.347 HD
ATOM     13  H   UNL A   1      30.635  28.790  21.908  1.00  0.00     0.347 HD
BRANCH  11  14
ATOM     14  C   UNL A   1      29.015  28.571  23.012  1.00  0.00     0.309 C 
BRANCH  14  15
ATOM     15  C   UNL A   1      28.804  30.043  22.796  1.00  0.00     0.059 A 
ATOM     16  C   UNL A   1      29.014  31.071  23.699  1.00  0.00     0.021 A 
ATOM     17  S   UNL A   1      28.385  30.669  21.252  1.00  0.00    -0.143 S 
ATOM     18  C   UNL A   1      28.778  32.359  23.134  1.00  0.00     0.012 A 
ATOM     19  C   UNL A   1      28.390  32.280  21.817  1.00  0.00     0.065 A 
ENDBRANCH  14  15
ENDBRANCH  11  14
ENDBRANCH   5  11
ENDBRANCH   3   5
ENDBRANCH   2   3
ENDBRANCH   1   2
BRANCH   1  20
ATOM     20  C   UNL A   1      32.045  30.357  25.941  1.00  0.00     0.275 C 
BRANCH  20  21
ATOM     21  O   UNL A   1      32.626  30.479  27.250  1.00  0.00    -0.458 OA
BRANCH  21  22
ATOM     22  C   UNL A   1      33.402  31.569  27.436  1.00  0.00     0.338 C 
ATOM     23  O   UNL A   1      33.052  32.737  27.388  1.00  0.00    -0.246 OA
BRANCH  22  24
ATOM     24  C   UNL A   1      34.779  31.175  27.778  1.00  0.00     0.060 A 
ATOM     25  C   UNL A   1      35.045  29.843  28.079  1.00  0.00     0.016 A 
ATOM     26  C   UNL A   1      35.749  32.148  28.002  1.00  0.00     0.016 A 
ATOM     27  C   UNL A   1      36.215  29.496  28.747  1.00  0.00     0.010 A 
ATOM     28  C   UNL A   1      36.979  31.776  28.557  1.00  0.00     0.010 A 
ATOM     29  C   UNL A   1      37.202  30.456  28.990  1.00  0.00    -0.014 A 
BRANCH  29  30
ATOM     30  C   UNL A   1      38.432  30.096  29.751  1.00  0.00     0.031 A 
ATOM     31  C   UNL A   1      39.455  29.180  29.129  1.00  0.00     0.074 A 
ATOM     32  C   UNL A   1      38.652  30.599  30.982  1.00  0.00     0.049 A 
ATOM     33  N   UNL A   1      40.462  28.566  29.691  1.00  0.00    -0.248 NA
ATOM     34  C   UNL A   1      39.318  28.908  27.687  1.00  0.00     0.031 C 
ATOM     35  C   UNL A   1      37.778  31.541  31.686  1.00  0.00     0.029 A 
ATOM     36  N   UNL A   1      39.683  30.388  31.865  1.00  0.00    -0.354 N 
ATOM     37  C   UNL A   1      41.022  27.768  28.699  1.00  0.00     0.074 A 
ATOM     38  C   UNL A   1      40.258  27.995  27.491  1.00  0.00     0.031 C 
ATOM     39  C   UNL A   1      38.326  31.854  32.869  1.00  0.00     0.029 A 
ATOM     40  C   UNL A   1      39.539  31.066  33.053  1.00  0.00     0.049 A 
ATOM     41  H   UNL A   1      40.453  29.807  31.665  1.00  0.00     0.167 HD
ATOM     42  C   UNL A   1      42.078  26.926  28.788  1.00  0.00     0.034 A 
ATOM     43  C   UNL A   1      40.274  31.027  34.182  1.00  0.00     0.034 A 
ATOM     44  C   UNL A   1      42.891  26.778  29.964  1.00  0.00     0.049 A 
ATOM     45  C   UNL A   1      41.459  30.105  34.246  1.00  0.00     0.074 A 
ATOM     46  C   UNL A   1      43.969  25.936  30.168  1.00  0.00     0.029 A 
ATOM     47  N   UNL A   1      42.739  27.522  31.123  1.00  0.00    -0.354 N 
ATOM     48  N   UNL A   1      41.950  29.328  33.312  1.00  0.00    -0.248 NA
ATOM     49  C   UNL A   1      42.191  30.050  35.520  1.00  0.00     0.031 C 
ATOM     50  C   UNL A   1      44.481  26.184  31.446  1.00  0.00     0.029 A 
ATOM     51  C   UNL A   1      43.718  27.177  32.038  1.00  0.00     0.049 A 
ATOM     52  H   UNL A   1      42.038  28.197  31.274  1.00  0.00     0.167 HD
ATOM     53  C   UNL A   1      43.051  28.699  33.879  1.00  0.00     0.074 A 
ATOM     54  C   UNL A   1      43.177  29.213  35.228  1.00  0.00     0.031 C 
ATOM     55  C   UNL A   1      43.865  27.756  33.346  1.00  0.00     0.034 A 
BRANCH  42  56
ATOM     56  C   UNL A   1      42.436  26.118  27.572  1.00  0.00     0.023 A 
ATOM     57  C   UNL A   1      43.203  26.704  26.547  1.00  0.00     0.012 A 
ATOM     58  C   UNL A   1      42.066  24.762  27.472  1.00  0.00     0.148 A 
ATOM     59  C   UNL A   1      43.582  25.958  25.431  1.00  0.00     0.002 A 
ATOM     60  C   UNL A   1      42.474  24.016  26.372  1.00  0.00     0.091 A 
ATOM     61  F   UNL A   1      41.311  24.230  28.445  1.00  0.00    -0.205 F 
ATOM     62  C   UNL A   1      43.227  24.613  25.349  1.00  0.00     0.022 A 
BRANCH  60  63
ATOM     63  S   UNL A   1      42.115  22.262  26.212  1.00  0.00     0.127 S 
ATOM     64  O   UNL A   1      42.653  21.735  27.465  1.00  0.00    -0.237 OA
ATOM     65  O   UNL A   1      40.654  22.248  26.123  1.00  0.00    -0.237 OA
ATOM     66  O   UNL A   1      42.795  21.826  25.001  1.00  0.00    -0.744 OA
ENDBRANCH  60  63
ENDBRANCH  42  56
BRANCH  43  67
ATOM     67  C   UNL A   1      39.915  31.902  35.335  1.00  0.00     0.023 A 
ATOM     68  C   UNL A   1      40.450  33.202  35.406  1.00  0.00     0.012 A 
ATOM     69  C   UNL A   1      39.016  31.479  36.332  1.00  0.00     0.148 A 
ATOM     70  C   UNL A   1      40.107  34.057  36.455  1.00  0.00     0.002 A 
ATOM     71  C   UNL A   1      38.631  32.358  37.340  1.00  0.00     0.091 A 
ATOM     72  F   UNL A   1      38.535  30.227  36.276  1.00  0.00    -0.205 F 
ATOM     73  C   UNL A   1      39.185  33.641  37.413  1.00  0.00     0.022 A 
BRANCH  71  74
ATOM     74  S   UNL A   1      37.327  31.917  38.495  1.00  0.00     0.127 S 
ATOM     75  O   UNL A   1      36.279  32.873  38.153  1.00  0.00    -0.237 OA
ATOM     76  O   UNL A   1      37.033  30.528  38.132  1.00  0.00    -0.237 OA
ATOM     77  O   UNL A   1      37.939  32.064  39.809  1.00  0.00    -0.744 OA
ENDBRANCH  71  74
ENDBRANCH  43  67
BRANCH  55  78
ATOM     78  C   UNL A   1      44.976  27.232  34.212  1.00  0.00     0.023 A 
ATOM     79  C   UNL A   1      46.204  27.921  34.244  1.00  0.00     0.012 A 
ATOM     80  C   UNL A   1      44.780  26.116  35.045  1.00  0.00     0.148 A 
ATOM     81  C   UNL A   1      47.230  27.494  35.085  1.00  0.00     0.002 A 
ATOM     82  C   UNL A   1      45.797  25.717  35.906  1.00  0.00     0.091 A 
ATOM     83  F   UNL A   1      43.613  25.460  34.978  1.00  0.00    -0.205 F 
ATOM     84  C   UNL A   1      47.023  26.401  35.923  1.00  0.00     0.022 A 
BRANCH  82  85
ATOM     85  S   UNL A   1      45.578  24.364  37.067  1.00  0.00     0.127 S 
ATOM     86  O   UNL A   1      44.450  24.835  37.869  1.00  0.00    -0.237 OA
ATOM     87  O   UNL A   1      45.269  23.235  36.187  1.00  0.00    -0.237 OA
ATOM     88  O   UNL A   1      46.848  24.242  37.770  1.00  0.00    -0.744 OA
ENDBRANCH  82  85
ENDBRANCH  55  78
ENDBRANCH  29  30
ENDBRANCH  22  24
ENDBRANCH  21  22
ENDBRANCH  20  21
ENDBRANCH   1  20
TORSDOF 17
ENDMDL
MODEL 2
REMARK VINA RESULT:     -11.3      5.960     10.755
REMARK SMILES C[C@@H]1C[C@@]([NH2+]Cc2cccs2)(C(=O)OCCOC(=O)c2ccc(-c3c4nc(c(-c5cccc(S(=O)(=O)[O-])c5F)c5ccc([nH]5)c(-c5cccc(S(=O)(=O)[O-])c5F)c5nc(c(-c6cccc(S(=O)(=O)[O-])c6F)c6ccc3[nH]6)C=C5)C=C4)cc2)CS1
REMARK SMILES IDX 15 1 14 2 12 3 13 4 4 5 1 6 2 7 3 8 84 9 83 10 5 11 6 14
REMARK SMILES IDX 7 15 8 16 11 17 9 18 10 19 16 20 17 21 18 22 19 23 20 24
REMARK SMILES IDX 21 25 82 26 22 27 81 28 23 29 24 30 25 31 75 32 26 33 80 34
REMARK SMILES IDX 74 35 76 36 27 37 79 38 73 39 72 40 28 42 60 43 40 44 59 45
REMARK SMILES IDX 41 46 44 47 58 48 77 49 42 50 43 51 57 53 78 54 45 55 29 56
REMARK SMILES IDX 30 57 38 58 31 59 33 60 39 61 32 62 34 63 35 64 36 65 37 66
REMARK SMILES IDX 61 67 62 68 70 69 63 70 65 71 71 72 64 73 66 74 67 75 68 76
REMARK SMILES IDX 69 77 46 78 47 79 55 80 48 81 50 82 56 83 49 84 51 85 52 86
REMARK SMILES IDX 53 87 54 88
REMARK H PARENT 5 12 5 13 76 41 44 52
REMARK Flexibility Score: inf
ROOT
ATOM      1  C   UNL A   1      36.624  23.031  23.426  1.00  0.00     0.274 C 
ENDROOT
BRANCH   1   2
ATOM      2  O   UNL A   1      35.527  23.573  24.195  1.00  0.00    -0.457 OA
BRANCH   2   3
ATOM      3  C   UNL A   1      34.289  23.175  23.794  1.00  0.00     0.369 C 
ATOM      4  O   UNL A   1      33.807  23.529  22.723  1.00  0.00    -0.245 OA
BRANCH   3   5
ATOM      5  C   UNL A   1      33.533  22.267  24.813  1.00  0.00     0.204 C 
ATOM      6  C   UNL A   1      30.339  23.376  26.753  1.00  0.00     0.019 C 
ATOM      7  C   UNL A   1      31.784  23.384  26.291  1.00  0.00     0.050 C 
ATOM      8  C   UNL A   1      32.016  22.649  24.969  1.00  0.00     0.096 C 
ATOM      9  S   UNL A   1      32.831  22.441  27.410  1.00  0.00    -0.151 SA
ATOM     10  C   UNL A   1      34.178  22.445  26.211  1.00  0.00     0.150 C 
BRANCH   5  11
ATOM     11  N   UNL A   1      33.528  20.830  24.370  1.00  0.00    -0.327 N 
ATOM     12  H   UNL A   1      34.462  20.628  24.012  1.00  0.00     0.347 HD
ATOM     13  H   UNL A   1      32.756  20.791  23.705  1.00  0.00     0.347 HD
BRANCH  11  14
ATOM     14  C   UNL A   1      33.204  19.770  25.334  1.00  0.00     0.309 C 
BRANCH  14  15
ATOM     15  C   UNL A   1      33.321  18.362  24.820  1.00  0.00     0.059 A 
ATOM     16  C   UNL A   1      33.985  17.926  23.687  1.00  0.00     0.021 A 
ATOM     17  S   UNL A   1      32.720  17.029  25.722  1.00  0.00    -0.143 S 
ATOM     18  C   UNL A   1      33.949  16.507  23.539  1.00  0.00     0.012 A 
ATOM     19  C   UNL A   1      33.255  15.901  24.559  1.00  0.00     0.065 A 
ENDBRANCH  14  15
ENDBRANCH  11  14
ENDBRANCH   5  11
ENDBRANCH   3   5
ENDBRANCH   2   3
ENDBRANCH   1   2
BRANCH   1  20
ATOM     20  C   UNL A   1      37.044  21.640  23.897  1.00  0.00     0.275 C 
BRANCH  20  21
ATOM     21  O   UNL A   1      37.226  21.606  25.322  1.00  0.00    -0.458 OA
BRANCH  21  22
ATOM     22  C   UNL A   1      38.483  21.336  25.736  1.00  0.00     0.338 C 
ATOM     23  O   UNL A   1      39.131  20.327  25.509  1.00  0.00    -0.246 OA
BRANCH  22  24
ATOM     24  C   UNL A   1      39.040  22.475  26.484  1.00  0.00     0.060 A 
ATOM     25  C   UNL A   1      38.498  23.742  26.289  1.00  0.00     0.016 A 
ATOM     26  C   UNL A   1      40.219  22.326  27.210  1.00  0.00     0.016 A 
ATOM     27  C   UNL A   1      39.204  24.874  26.679  1.00  0.00     0.010 A 
ATOM     28  C   UNL A   1      40.864  23.461  27.714  1.00  0.00     0.010 A 
ATOM     29  C   UNL A   1      40.394  24.751  27.403  1.00  0.00    -0.014 A 
BRANCH  29  30
ATOM     30  C   UNL A   1      41.179  25.962  27.775  1.00  0.00     0.031 A 
ATOM     31  C   UNL A   1      40.549  27.024  28.640  1.00  0.00     0.074 A 
ATOM     32  C   UNL A   1      42.455  26.109  27.366  1.00  0.00     0.049 A 
ATOM     33  N   UNL A   1      40.962  28.240  28.886  1.00  0.00    -0.248 NA
ATOM     34  C   UNL A   1      39.279  26.678  29.303  1.00  0.00     0.031 C 
ATOM     35  C   UNL A   1      43.212  25.137  26.573  1.00  0.00     0.029 A 
ATOM     36  N   UNL A   1      43.346  27.137  27.561  1.00  0.00    -0.354 N 
ATOM     37  C   UNL A   1      39.965  28.831  29.654  1.00  0.00     0.074 A 
ATOM     38  C   UNL A   1      38.937  27.833  29.856  1.00  0.00     0.031 C 
ATOM     39  C   UNL A   1      44.458  25.596  26.382  1.00  0.00     0.029 A 
ATOM     40  C   UNL A   1      44.563  26.933  26.954  1.00  0.00     0.049 A 
ATOM     41  H   UNL A   1      43.132  27.942  28.085  1.00  0.00     0.167 HD
ATOM     42  C   UNL A   1      39.914  30.090  30.148  1.00  0.00     0.034 A 
ATOM     43  C   UNL A   1      45.632  27.746  26.833  1.00  0.00     0.034 A 
ATOM     44  C   UNL A   1      40.981  31.045  30.024  1.00  0.00     0.049 A 
ATOM     45  C   UNL A   1      45.561  29.130  27.415  1.00  0.00     0.074 A 
ATOM     46  C   UNL A   1      41.023  32.355  30.467  1.00  0.00     0.029 A 
ATOM     47  N   UNL A   1      42.213  30.777  29.449  1.00  0.00    -0.354 N 
ATOM     48  N   UNL A   1      44.595  29.686  28.103  1.00  0.00    -0.248 NA
ATOM     49  C   UNL A   1      46.726  30.001  27.200  1.00  0.00     0.031 C 
ATOM     50  C   UNL A   1      42.289  32.874  30.175  1.00  0.00     0.029 A 
ATOM     51  C   UNL A   1      43.031  31.888  29.546  1.00  0.00     0.049 A 
ATOM     52  H   UNL A   1      42.469  29.923  29.033  1.00  0.00     0.167 HD
ATOM     53  C   UNL A   1      45.036  30.966  28.413  1.00  0.00     0.074 A 
ATOM     54  C   UNL A   1      46.373  31.092  27.867  1.00  0.00     0.031 C 
ATOM     55  C   UNL A   1      44.383  31.963  29.060  1.00  0.00     0.034 A 
BRANCH  42  56
ATOM     56  C   UNL A   1      38.675  30.503  30.893  1.00  0.00     0.023 A 
ATOM     57  C   UNL A   1      38.570  30.237  32.271  1.00  0.00     0.012 A 
ATOM     58  C   UNL A   1      37.643  31.207  30.242  1.00  0.00     0.148 A 
ATOM     59  C   UNL A   1      37.448  30.651  32.989  1.00  0.00     0.002 A 
ATOM     60  C   UNL A   1      36.542  31.644  30.970  1.00  0.00     0.091 A 
ATOM     61  F   UNL A   1      37.748  31.426  28.923  1.00  0.00    -0.205 F 
ATOM     62  C   UNL A   1      36.440  31.362  32.341  1.00  0.00     0.022 A 
BRANCH  60  63
ATOM     63  S   UNL A   1      35.225  32.621  30.231  1.00  0.00     0.127 S 
ATOM     64  O   UNL A   1      34.740  31.720  29.187  1.00  0.00    -0.237 OA
ATOM     65  O   UNL A   1      34.305  32.805  31.353  1.00  0.00    -0.237 OA
ATOM     66  O   UNL A   1      35.857  33.846  29.763  1.00  0.00    -0.744 OA
ENDBRANCH  60  63
ENDBRANCH  42  56
BRANCH  43  67
ATOM     67  C   UNL A   1      46.862  27.261  26.144  1.00  0.00     0.023 A 
ATOM     68  C   UNL A   1      47.042  27.544  24.777  1.00  0.00     0.012 A 
ATOM     69  C   UNL A   1      47.873  26.568  26.836  1.00  0.00     0.148 A 
ATOM     70  C   UNL A   1      48.198  27.133  24.111  1.00  0.00     0.002 A 
ATOM     71  C   UNL A   1      49.049  26.217  26.181  1.00  0.00     0.091 A 
ATOM     72  F   UNL A   1      47.681  26.274  28.131  1.00  0.00    -0.205 F 
ATOM     73  C   UNL A   1      49.209  26.484  24.816  1.00  0.00     0.022 A 
BRANCH  71  74
ATOM     74  S   UNL A   1      50.437  25.528  27.091  1.00  0.00     0.127 S 
ATOM     75  O   UNL A   1      50.735  26.590  28.045  1.00  0.00    -0.237 OA
ATOM     76  O   UNL A   1      49.863  24.316  27.682  1.00  0.00    -0.237 OA
ATOM     77  O   UNL A   1      51.446  25.265  26.072  1.00  0.00    -0.744 OA
ENDBRANCH  71  74
ENDBRANCH  43  67
BRANCH  55  78
ATOM     78  C   UNL A   1      45.109  33.267  29.232  1.00  0.00     0.023 A 
ATOM     79  C   UNL A   1      45.887  33.471  30.387  1.00  0.00     0.012 A 
ATOM     80  C   UNL A   1      45.084  34.249  28.225  1.00  0.00     0.148 A 
ATOM     81  C   UNL A   1      46.621  34.646  30.544  1.00  0.00     0.002 A 
ATOM     82  C   UNL A   1      45.845  35.403  28.374  1.00  0.00     0.091 A 
ATOM     83  F   UNL A   1      44.314  34.044  27.146  1.00  0.00    -0.205 F 
ATOM     84  C   UNL A   1      46.609  35.605  29.534  1.00  0.00     0.022 A 
BRANCH  82  85
ATOM     85  S   UNL A   1      45.937  36.649  27.083  1.00  0.00     0.127 S 
ATOM     86  O   UNL A   1      44.556  37.122  27.022  1.00  0.00    -0.237 OA
ATOM     87  O   UNL A   1      46.887  37.614  27.640  1.00  0.00    -0.237 OA
ATOM     88  O   UNL A   1      46.422  35.950  25.900  1.00  0.00    -0.744 OA
ENDBRANCH  82  85
ENDBRANCH  55  78
ENDBRANCH  29  30
ENDBRANCH  22  24
ENDBRANCH  21  22
ENDBRANCH  20  21
ENDBRANCH   1  20
TORSDOF 17
ENDMDL
MODEL 3
REMARK VINA RESULT:     -11.1      2.252      3.709
REMARK SMILES C[C@@H]1C[C@@]([NH2+]Cc2cccs2)(C(=O)OCCOC(=O)c2ccc(-c3c4nc(c(-c5cccc(S(=O)(=O)[O-])c5F)c5ccc([nH]5)c(-c5cccc(S(=O)(=O)[O-])c5F)c5nc(c(-c6cccc(S(=O)(=O)[O-])c6F)c6ccc3[nH]6)C=C5)C=C4)cc2)CS1
REMARK SMILES IDX 15 1 14 2 12 3 13 4 4 5 1 6 2 7 3 8 84 9 83 10 5 11 6 14
REMARK SMILES IDX 7 15 8 16 11 17 9 18 10 19 16 20 17 21 18 22 19 23 20 24
REMARK SMILES IDX 21 25 82 26 22 27 81 28 23 29 24 30 25 31 75 32 26 33 80 34
REMARK SMILES IDX 74 35 76 36 27 37 79 38 73 39 72 40 28 42 60 43 40 44 59 45
REMARK SMILES IDX 41 46 44 47 58 48 77 49 42 50 43 51 57 53 78 54 45 55 29 56
REMARK SMILES IDX 30 57 38 58 31 59 33 60 39 61 32 62 34 63 35 64 36 65 37 66
REMARK SMILES IDX 61 67 62 68 70 69 63 70 65 71 71 72 64 73 66 74 67 75 68 76
REMARK SMILES IDX 69 77 46 78 47 79 55 80 48 81 50 82 56 83 49 84 51 85 52 86
REMARK SMILES IDX 53 87 54 88
REMARK H PARENT 5 12 5 13 76 41 44 52
REMARK Flexibility Score: inf
ROOT
ATOM      1  C   UNL A   1      31.521  28.071  26.963  1.00  0.00     0.274 C 
ENDROOT
BRANCH   1   2
ATOM      2  O   UNL A   1      30.991  27.113  26.020  1.00  0.00    -0.457 OA
BRANCH   2   3
ATOM      3  C   UNL A   1      31.686  25.947  25.928  1.00  0.00     0.369 C 
ATOM      4  O   UNL A   1      31.765  25.162  26.867  1.00  0.00    -0.245 OA
BRANCH   3   5
ATOM      5  C   UNL A   1      32.389  25.712  24.556  1.00  0.00     0.204 C 
ATOM      6  C   UNL A   1      34.021  28.549  22.438  1.00  0.00     0.019 C 
ATOM      7  C   UNL A   1      32.935  27.772  23.161  1.00  0.00     0.050 C 
ATOM      8  C   UNL A   1      33.467  26.806  24.222  1.00  0.00     0.096 C 
ATOM      9  S   UNL A   1      32.090  26.643  22.043  1.00  0.00    -0.151 SA
ATOM     10  C   UNL A   1      31.324  25.786  23.432  1.00  0.00     0.150 C 
BRANCH   5  11
ATOM     11  N   UNL A   1      33.140  24.409  24.539  1.00  0.00    -0.327 N 
ATOM     12  H   UNL A   1      32.528  23.721  24.100  1.00  0.00     0.347 HD
ATOM     13  H   UNL A   1      33.378  24.261  25.520  1.00  0.00     0.347 HD
BRANCH  11  14
ATOM     14  C   UNL A   1      34.436  24.322  23.855  1.00  0.00     0.309 C 
BRANCH  14  15
ATOM     15  C   UNL A   1      35.250  23.093  24.150  1.00  0.00     0.059 A 
ATOM     16  C   UNL A   1      36.581  22.864  23.846  1.00  0.00     0.021 A 
ATOM     17  S   UNL A   1      34.612  21.803  25.088  1.00  0.00    -0.143 S 
ATOM     18  C   UNL A   1      37.051  21.611  24.338  1.00  0.00     0.012 A 
ATOM     19  C   UNL A   1      36.066  20.914  24.998  1.00  0.00     0.065 A 
ENDBRANCH  14  15
ENDBRANCH  11  14
ENDBRANCH   5  11
ENDBRANCH   3   5
ENDBRANCH   2   3
ENDBRANCH   1   2
BRANCH   1  20
ATOM     20  C   UNL A   1      31.462  29.507  26.443  1.00  0.00     0.275 C 
BRANCH  20  21
ATOM     21  O   UNL A   1      32.777  30.005  26.142  1.00  0.00    -0.458 OA
BRANCH  21  22
ATOM     22  C   UNL A   1      33.191  31.036  26.911  1.00  0.00     0.338 C 
ATOM     23  O   UNL A   1      32.534  32.003  27.260  1.00  0.00    -0.246 OA
BRANCH  22  24
ATOM     24  C   UNL A   1      34.580  30.827  27.354  1.00  0.00     0.060 A 
ATOM     25  C   UNL A   1      35.061  29.528  27.482  1.00  0.00     0.016 A 
ATOM     26  C   UNL A   1      35.327  31.899  27.838  1.00  0.00     0.016 A 
ATOM     27  C   UNL A   1      36.208  29.276  28.226  1.00  0.00     0.010 A 
ATOM     28  C   UNL A   1      36.548  31.652  28.475  1.00  0.00     0.010 A 
ATOM     29  C   UNL A   1      36.973  30.334  28.728  1.00  0.00    -0.014 A 
BRANCH  29  30
ATOM     30  C   UNL A   1      38.172  30.064  29.570  1.00  0.00     0.031 A 
ATOM     31  C   UNL A   1      39.294  29.218  29.023  1.00  0.00     0.074 A 
ATOM     32  C   UNL A   1      38.277  30.586  30.808  1.00  0.00     0.049 A 
ATOM     33  N   UNL A   1      40.303  28.677  29.654  1.00  0.00    -0.248 NA
ATOM     34  C   UNL A   1      39.269  28.930  27.578  1.00  0.00     0.031 C 
ATOM     35  C   UNL A   1      37.297  31.468  31.446  1.00  0.00     0.029 A 
ATOM     36  N   UNL A   1      39.261  30.451  31.757  1.00  0.00    -0.354 N 
ATOM     37  C   UNL A   1      40.978  27.915  28.708  1.00  0.00     0.074 A 
ATOM     38  C   UNL A   1      40.281  28.083  27.451  1.00  0.00     0.031 C 
ATOM     39  C   UNL A   1      37.744  31.823  32.659  1.00  0.00     0.029 A 
ATOM     40  C   UNL A   1      38.994  31.122  32.928  1.00  0.00     0.049 A 
ATOM     41  H   UNL A   1      40.080  29.923  31.613  1.00  0.00     0.167 HD
ATOM     42  C   UNL A   1      42.082  27.149  28.871  1.00  0.00     0.034 A 
ATOM     43  C   UNL A   1      39.656  31.140  34.102  1.00  0.00     0.034 A 
ATOM     44  C   UNL A   1      42.825  27.063  30.099  1.00  0.00     0.049 A 
ATOM     45  C   UNL A   1      40.894  30.301  34.250  1.00  0.00     0.074 A 
ATOM     46  C   UNL A   1      43.944  26.298  30.379  1.00  0.00     0.029 A 
ATOM     47  N   UNL A   1      42.548  27.800  31.239  1.00  0.00    -0.354 N 
ATOM     48  N   UNL A   1      41.497  29.556  33.357  1.00  0.00    -0.248 NA
ATOM     49  C   UNL A   1      41.544  30.303  35.569  1.00  0.00     0.031 C 
ATOM     50  C   UNL A   1      44.353  26.587  31.685  1.00  0.00     0.029 A 
ATOM     51  C   UNL A   1      43.487  27.527  32.218  1.00  0.00     0.049 A 
ATOM     52  H   UNL A   1      41.794  28.425  31.339  1.00  0.00     0.167 HD
ATOM     53  C   UNL A   1      42.600  29.008  33.999  1.00  0.00     0.074 A 
ATOM     54  C   UNL A   1      42.603  29.535  35.349  1.00  0.00     0.031 C 
ATOM     55  C   UNL A   1      43.509  28.120  33.528  1.00  0.00     0.034 A 
BRANCH  42  56
ATOM     56  C   UNL A   1      42.573  26.362  27.688  1.00  0.00     0.023 A 
ATOM     57  C   UNL A   1      43.481  26.950  26.788  1.00  0.00     0.012 A 
ATOM     58  C   UNL A   1      42.182  25.021  27.501  1.00  0.00     0.148 A 
ATOM     59  C   UNL A   1      43.982  26.222  25.709  1.00  0.00     0.002 A 
ATOM     60  C   UNL A   1      42.709  24.292  26.441  1.00  0.00     0.091 A 
ATOM     61  F   UNL A   1      41.294  24.487  28.353  1.00  0.00    -0.205 F 
ATOM     62  C   UNL A   1      43.604  24.892  25.542  1.00  0.00     0.022 A 
BRANCH  60  63
ATOM     63  S   UNL A   1      42.327  22.554  26.185  1.00  0.00     0.127 S 
ATOM     64  O   UNL A   1      42.879  21.948  27.396  1.00  0.00    -0.237 OA
ATOM     65  O   UNL A   1      40.865  22.561  26.120  1.00  0.00    -0.237 OA
ATOM     66  O   UNL A   1      42.982  22.183  24.939  1.00  0.00    -0.744 OA
ENDBRANCH  60  63
ENDBRANCH  42  56
BRANCH  43  67
ATOM     67  C   UNL A   1      39.164  31.992  35.221  1.00  0.00     0.023 A 
ATOM     68  C   UNL A   1      38.252  31.453  36.149  1.00  0.00     0.012 A 
ATOM     69  C   UNL A   1      39.623  33.311  35.405  1.00  0.00     0.148 A 
ATOM     70  C   UNL A   1      37.798  32.214  37.227  1.00  0.00     0.002 A 
ATOM     71  C   UNL A   1      39.215  34.041  36.516  1.00  0.00     0.091 A 
ATOM     72  F   UNL A   1      40.466  33.830  34.500  1.00  0.00    -0.205 F 
ATOM     73  C   UNL A   1      38.291  33.503  37.420  1.00  0.00     0.022 A 
BRANCH  71  74
ATOM     74  S   UNL A   1      39.950  35.638  36.886  1.00  0.00     0.127 S 
ATOM     75  O   UNL A   1      39.307  35.986  38.149  1.00  0.00    -0.237 OA
ATOM     76  O   UNL A   1      41.376  35.318  36.992  1.00  0.00    -0.237 OA
ATOM     77  O   UNL A   1      39.617  36.469  35.735  1.00  0.00    -0.744 OA
ENDBRANCH  71  74
ENDBRANCH  43  67
BRANCH  55  78
ATOM     78  C   UNL A   1      44.595  27.679  34.468  1.00  0.00     0.023 A 
ATOM     79  C   UNL A   1      45.793  28.416  34.527  1.00  0.00     0.012 A 
ATOM     80  C   UNL A   1      44.401  26.593  35.340  1.00  0.00     0.148 A 
ATOM     81  C   UNL A   1      46.792  28.067  35.434  1.00  0.00     0.002 A 
ATOM     82  C   UNL A   1      45.388  26.271  36.265  1.00  0.00     0.091 A 
ATOM     83  F   UNL A   1      43.264  25.888  35.247  1.00  0.00    -0.205 F 
ATOM     84  C   UNL A   1      46.586  27.003  36.309  1.00  0.00     0.022 A 
BRANCH  82  85
ATOM     85  S   UNL A   1      45.163  24.961  37.473  1.00  0.00     0.127 S 
ATOM     86  O   UNL A   1      46.509  24.828  38.027  1.00  0.00    -0.237 OA
ATOM     87  O   UNL A   1      44.182  25.541  38.392  1.00  0.00    -0.237 OA
ATOM     88  O   UNL A   1      44.670  23.815  36.720  1.00  0.00    -0.744 OA
ENDBRANCH  82  85
ENDBRANCH  55  78
ENDBRANCH  29  30
ENDBRANCH  22  24
ENDBRANCH  21  22
ENDBRANCH  20  21
ENDBRANCH   1  20
TORSDOF 17
ENDMDL
