MODEL 1
REMARK VINA RESULT:     -11.3      0.000      0.000
REMARK SMILES COc1cc([C@@H]2CC(=O)Nc3c(C(=O)OCCOC(=O)c4ccc(-c5c6nc(c(-c7cccc(S(=O)(=O)[O-])c7F)c7ccc([nH]7)c(-c7cccc(S(=O)(=O)[O-])c7F)c7nc(c(-c8cccc(S(=O)(=O)[O-])c8F)c8ccc5[nH]8)C=C7)C=C6)cc4)cn(-c4ccccc4)c32)cc(OC)c1OC
REMARK SMILES IDX 17 1 16 2 15 3 13 4 14 5 12 6 6 7 7 8 92 9 8 10 11 11 85 12
REMARK SMILES IDX 9 13 10 14 84 15 5 17 3 18 4 19 97 20 94 21 93 22 2 23 1 24
REMARK SMILES IDX 98 25 99 26 95 27 96 28 86 29 87 30 91 31 88 32 90 33 89 34
REMARK SMILES IDX 18 35 19 36 20 37 21 38 22 39 83 40 23 41 82 42 24 43 25 44
REMARK SMILES IDX 26 45 76 46 27 47 81 48 75 49 77 50 28 51 80 52 74 53 73 54
REMARK SMILES IDX 29 56 61 57 41 58 60 59 42 60 45 61 59 62 78 63 43 64 44 65
REMARK SMILES IDX 58 67 79 68 46 69 30 70 31 71 39 72 32 73 34 74 40 75 33 76
REMARK SMILES IDX 35 77 36 78 37 79 38 80 62 81 63 82 71 83 64 84 66 85 72 86
REMARK SMILES IDX 65 87 67 88 68 89 69 90 70 91 47 92 48 93 56 94 49 95 51 96
REMARK SMILES IDX 57 97 50 98 52 99 53 100 54 101 55 102
REMARK H PARENT 10 16 77 55 45 66
REMARK Flexibility Score: inf
ROOT
ATOM      1  C   UNL A   1      43.797  40.003  26.056  1.00  0.00     0.275 C 
ENDROOT
BRANCH   1   2
ATOM      2  C   UNL A   1      42.634  40.931  25.728  1.00  0.00     0.275 C 
BRANCH   2   3
ATOM      3  O   UNL A   1      43.071  42.124  25.047  1.00  0.00    -0.458 OA
BRANCH   3   4
ATOM      4  C   UNL A   1      42.377  42.475  23.916  1.00  0.00     0.341 C 
ATOM      5  O   UNL A   1      41.155  42.544  23.847  1.00  0.00    -0.246 OA
BRANCH   4   6
ATOM      6  C   UNL A   1      43.259  42.814  22.806  1.00  0.00     0.102 A 
ATOM      7  C   UNL A   1      44.102  43.839  19.335  1.00  0.00     0.078 C 
ATOM      8  C   UNL A   1      42.819  43.317  18.653  1.00  0.00     0.115 C 
ATOM      9  C   UNL A   1      44.071  43.448  20.783  1.00  0.00     0.055 A 
ATOM     10  C   UNL A   1      41.557  43.387  19.510  1.00  0.00     0.225 C 
ATOM     11  C   UNL A   1      42.925  43.130  21.471  1.00  0.00     0.078 A 
ATOM     12  N   UNL A   1      45.142  43.240  21.627  1.00  0.00    -0.317 N 
ATOM     13  O   UNL A   1      40.440  43.517  19.008  1.00  0.00    -0.275 OA
ATOM     14  N   UNL A   1      41.698  43.176  20.857  1.00  0.00    -0.324 N 
ATOM     15  C   UNL A   1      44.650  42.814  22.845  1.00  0.00     0.109 A 
ATOM     16  H   UNL A   1      40.889  43.055  21.404  1.00  0.00     0.170 HD
BRANCH   7  17
ATOM     17  C   UNL A   1      44.257  45.338  19.102  1.00  0.00    -0.031 A 
ATOM     18  C   UNL A   1      43.754  47.349  17.803  1.00  0.00     0.164 A 
ATOM     19  C   UNL A   1      43.637  45.962  18.010  1.00  0.00     0.055 A 
ATOM     20  C   UNL A   1      44.452  48.163  18.715  1.00  0.00     0.203 A 
ATOM     21  C   UNL A   1      45.078  47.534  19.811  1.00  0.00     0.164 A 
ATOM     22  C   UNL A   1      44.987  46.143  19.980  1.00  0.00     0.055 A 
BRANCH  18  23
ATOM     23  O   UNL A   1      43.053  47.868  16.742  1.00  0.00    -0.493 OA
ATOM     24  C   UNL A   1      41.660  47.994  17.035  1.00  0.00     0.278 C 
ENDBRANCH  18  23
BRANCH  20  25
ATOM     25  O   UNL A   1      44.574  49.523  18.660  1.00  0.00    -0.490 OA
ATOM     26  C   UNL A   1      43.539  50.381  19.095  1.00  0.00     0.278 C 
ENDBRANCH  20  25
BRANCH  21  27
ATOM     27  O   UNL A   1      45.835  48.106  20.806  1.00  0.00    -0.493 OA
ATOM     28  C   UNL A   1      47.234  48.225  20.621  1.00  0.00     0.278 C 
ENDBRANCH  21  27
ENDBRANCH   7  17
BRANCH  12  29
ATOM     29  C   UNL A   1      46.504  43.431  21.313  1.00  0.00     0.045 A 
ATOM     30  C   UNL A   1      46.998  42.943  20.102  1.00  0.00     0.026 A 
ATOM     31  C   UNL A   1      47.354  44.047  22.235  1.00  0.00     0.026 A 
ATOM     32  C   UNL A   1      48.362  43.011  19.830  1.00  0.00     0.002 A 
ATOM     33  C   UNL A   1      48.724  44.099  21.961  1.00  0.00     0.002 A 
ATOM     34  C   UNL A   1      49.227  43.572  20.769  1.00  0.00     0.000 A 
ENDBRANCH  12  29
ENDBRANCH   4   6
ENDBRANCH   3   4
ENDBRANCH   2   3
ENDBRANCH   1   2
BRANCH   1  35
ATOM     35  O   UNL A   1      43.338  38.886  26.808  1.00  0.00    -0.458 OA
BRANCH  35  36
ATOM     36  C   UNL A   1      43.822  38.805  28.066  1.00  0.00     0.338 C 
ATOM     37  O   UNL A   1      44.248  39.721  28.751  1.00  0.00    -0.246 OA
BRANCH  36  38
ATOM     38  C   UNL A   1      43.945  37.397  28.438  1.00  0.00     0.060 A 
ATOM     39  C   UNL A   1      43.587  36.458  27.464  1.00  0.00     0.016 A 
ATOM     40  C   UNL A   1      44.044  37.072  29.798  1.00  0.00     0.016 A 
ATOM     41  C   UNL A   1      43.092  35.248  27.886  1.00  0.00     0.010 A 
ATOM     42  C   UNL A   1      43.524  35.879  30.217  1.00  0.00     0.010 A 
ATOM     43  C   UNL A   1      42.972  35.032  29.259  1.00  0.00    -0.014 A 
BRANCH  43  44
ATOM     44  C   UNL A   1      42.279  33.849  29.708  1.00  0.00     0.031 A 
ATOM     45  C   UNL A   1      40.915  34.141  30.195  1.00  0.00     0.074 A 
ATOM     46  C   UNL A   1      42.817  32.628  29.524  1.00  0.00     0.049 A 
ATOM     47  N   UNL A   1      40.459  34.029  31.398  1.00  0.00    -0.248 NA
ATOM     48  C   UNL A   1      40.007  34.842  29.271  1.00  0.00     0.031 C 
ATOM     49  C   UNL A   1      44.014  32.280  28.750  1.00  0.00     0.029 A 
ATOM     50  N   UNL A   1      42.296  31.418  29.844  1.00  0.00    -0.354 N 
ATOM     51  C   UNL A   1      39.126  34.423  31.314  1.00  0.00     0.074 A 
ATOM     52  C   UNL A   1      38.991  35.139  30.078  1.00  0.00     0.031 C 
ATOM     53  C   UNL A   1      43.960  30.967  28.430  1.00  0.00     0.029 A 
ATOM     54  C   UNL A   1      42.800  30.376  29.073  1.00  0.00     0.049 A 
ATOM     55  H   UNL A   1      41.626  31.289  30.555  1.00  0.00     0.167 HD
ATOM     56  C   UNL A   1      38.176  33.870  32.115  1.00  0.00     0.034 A 
ATOM     57  C   UNL A   1      42.213  29.167  28.890  1.00  0.00     0.034 A 
ATOM     58  C   UNL A   1      38.774  33.187  33.233  1.00  0.00     0.049 A 
ATOM     59  C   UNL A   1      41.199  29.000  29.962  1.00  0.00     0.074 A 
ATOM     60  C   UNL A   1      39.596  33.558  34.277  1.00  0.00     0.029 A 
ATOM     61  N   UNL A   1      38.855  31.817  33.145  1.00  0.00    -0.354 N 
ATOM     62  N   UNL A   1      41.499  28.894  31.226  1.00  0.00    -0.248 NA
ATOM     63  C   UNL A   1      39.836  29.428  29.677  1.00  0.00     0.031 C 
ATOM     64  C   UNL A   1      40.475  32.453  34.460  1.00  0.00     0.029 A 
ATOM     65  C   UNL A   1      40.105  31.449  33.561  1.00  0.00     0.049 A 
ATOM     66  H   UNL A   1      38.142  31.211  32.840  1.00  0.00     0.167 HD
ATOM     67  C   UNL A   1      40.536  29.656  31.879  1.00  0.00     0.074 A 
ATOM     68  C   UNL A   1      39.484  29.873  30.886  1.00  0.00     0.031 C 
ATOM     69  C   UNL A   1      40.817  30.298  33.051  1.00  0.00     0.034 A 
BRANCH  56  70
ATOM     70  C   UNL A   1      36.750  33.588  31.695  1.00  0.00     0.023 A 
ATOM     71  C   UNL A   1      36.561  32.541  30.765  1.00  0.00     0.012 A 
ATOM     72  C   UNL A   1      35.649  34.447  31.919  1.00  0.00     0.148 A 
ATOM     73  C   UNL A   1      35.376  32.410  30.036  1.00  0.00     0.002 A 
ATOM     74  C   UNL A   1      34.445  34.266  31.249  1.00  0.00     0.091 A 
ATOM     75  F   UNL A   1      35.778  35.535  32.680  1.00  0.00    -0.205 F 
ATOM     76  C   UNL A   1      34.316  33.272  30.278  1.00  0.00     0.022 A 
BRANCH  74  77
ATOM     77  S   UNL A   1      33.031  35.332  31.558  1.00  0.00     0.127 S 
ATOM     78  O   UNL A   1      32.301  35.221  30.298  1.00  0.00    -0.237 OA
ATOM     79  O   UNL A   1      32.403  34.671  32.702  1.00  0.00    -0.237 OA
ATOM     80  O   UNL A   1      33.588  36.645  31.863  1.00  0.00    -0.744 OA
ENDBRANCH  74  77
ENDBRANCH  56  70
BRANCH  57  81
ATOM     81  C   UNL A   1      42.239  28.304  27.684  1.00  0.00     0.023 A 
ATOM     82  C   UNL A   1      41.846  28.828  26.437  1.00  0.00     0.012 A 
ATOM     83  C   UNL A   1      42.881  27.045  27.703  1.00  0.00     0.148 A 
ATOM     84  C   UNL A   1      42.093  28.126  25.250  1.00  0.00     0.002 A 
ATOM     85  C   UNL A   1      43.111  26.343  26.523  1.00  0.00     0.091 A 
ATOM     86  F   UNL A   1      43.346  26.574  28.868  1.00  0.00    -0.205 F 
ATOM     87  C   UNL A   1      42.728  26.887  25.292  1.00  0.00     0.022 A 
BRANCH  85  88
ATOM     88  S   UNL A   1      43.935  24.744  26.502  1.00  0.00     0.127 S 
ATOM     89  O   UNL A   1      43.847  24.378  25.088  1.00  0.00    -0.237 OA
ATOM     90  O   UNL A   1      45.277  25.090  26.963  1.00  0.00    -0.237 OA
ATOM     91  O   UNL A   1      43.163  23.885  27.391  1.00  0.00    -0.744 OA
ENDBRANCH  85  88
ENDBRANCH  57  81
BRANCH  69  92
ATOM     92  C   UNL A   1      42.113  29.979  33.750  1.00  0.00     0.023 A 
ATOM     93  C   UNL A   1      42.263  28.848  34.578  1.00  0.00     0.012 A 
ATOM     94  C   UNL A   1      43.256  30.701  33.369  1.00  0.00     0.148 A 
ATOM     95  C   UNL A   1      43.527  28.447  35.020  1.00  0.00     0.002 A 
ATOM     96  C   UNL A   1      44.515  30.269  33.764  1.00  0.00     0.091 A 
ATOM     97  F   UNL A   1      43.092  31.771  32.576  1.00  0.00    -0.205 F 
ATOM     98  C   UNL A   1      44.655  29.148  34.598  1.00  0.00     0.022 A 
BRANCH  96  99
ATOM     99  S   UNL A   1      46.007  31.033  33.127  1.00  0.00     0.127 S 
ATOM    100  O   UNL A   1      45.953  32.361  33.735  1.00  0.00    -0.237 OA
ATOM    101  O   UNL A   1      47.056  30.159  33.657  1.00  0.00    -0.237 OA
ATOM    102  O   UNL A   1      45.887  31.002  31.675  1.00  0.00    -0.744 OA
ENDBRANCH  96  99
ENDBRANCH  69  92
ENDBRANCH  43  44
ENDBRANCH  36  38
ENDBRANCH  35  36
ENDBRANCH   1  35
TORSDOF 19
ENDMDL
MODEL 2
REMARK VINA RESULT:     -11.0      1.846      3.318
REMARK SMILES COc1cc([C@@H]2CC(=O)Nc3c(C(=O)OCCOC(=O)c4ccc(-c5c6nc(c(-c7cccc(S(=O)(=O)[O-])c7F)c7ccc([nH]7)c(-c7cccc(S(=O)(=O)[O-])c7F)c7nc(c(-c8cccc(S(=O)(=O)[O-])c8F)c8ccc5[nH]8)C=C7)C=C6)cc4)cn(-c4ccccc4)c32)cc(OC)c1OC
REMARK SMILES IDX 17 1 16 2 15 3 13 4 14 5 12 6 6 7 7 8 92 9 8 10 11 11 85 12
REMARK SMILES IDX 9 13 10 14 84 15 5 17 3 18 4 19 97 20 94 21 93 22 2 23 1 24
REMARK SMILES IDX 98 25 99 26 95 27 96 28 86 29 87 30 91 31 88 32 90 33 89 34
REMARK SMILES IDX 18 35 19 36 20 37 21 38 22 39 83 40 23 41 82 42 24 43 25 44
REMARK SMILES IDX 26 45 76 46 27 47 81 48 75 49 77 50 28 51 80 52 74 53 73 54
REMARK SMILES IDX 29 56 61 57 41 58 60 59 42 60 45 61 59 62 78 63 43 64 44 65
REMARK SMILES IDX 58 67 79 68 46 69 30 70 31 71 39 72 32 73 34 74 40 75 33 76
REMARK SMILES IDX 35 77 36 78 37 79 38 80 62 81 63 82 71 83 64 84 66 85 72 86
REMARK SMILES IDX 65 87 67 88 68 89 69 90 70 91 47 92 48 93 56 94 49 95 51 96
REMARK SMILES IDX 57 97 50 98 52 99 53 100 54 101 55 102
REMARK H PARENT 10 16 77 55 45 66
REMARK Flexibility Score: inf
ROOT
ATOM      1  C   UNL A   1      44.038  39.019  26.932  1.00  0.00     0.275 C 
ENDROOT
BRANCH   1   2
ATOM      2  C   UNL A   1      43.143  40.226  26.683  1.00  0.00     0.275 C 
BRANCH   2   3
ATOM      3  O   UNL A   1      42.761  40.338  25.297  1.00  0.00    -0.458 OA
BRANCH   3   4
ATOM      4  C   UNL A   1      41.827  41.296  24.993  1.00  0.00     0.341 C 
ATOM      5  O   UNL A   1      40.755  41.428  25.574  1.00  0.00    -0.246 OA
BRANCH   4   6
ATOM      6  C   UNL A   1      42.271  42.187  23.929  1.00  0.00     0.102 A 
ATOM      7  C   UNL A   1      44.344  44.857  22.383  1.00  0.00     0.078 C 
ATOM      8  C   UNL A   1      44.703  45.611  23.682  1.00  0.00     0.115 C 
ATOM      9  C   UNL A   1      43.390  43.749  22.718  1.00  0.00     0.055 A 
ATOM     10  C   UNL A   1      44.847  44.730  24.922  1.00  0.00     0.225 C 
ATOM     11  C   UNL A   1      43.250  43.204  23.971  1.00  0.00     0.078 A 
ATOM     12  N   UNL A   1      42.443  43.171  21.898  1.00  0.00    -0.317 N 
ATOM     13  O   UNL A   1      45.594  45.038  25.852  1.00  0.00    -0.275 OA
ATOM     14  N   UNL A   1      44.020  43.642  25.020  1.00  0.00    -0.324 N 
ATOM     15  C   UNL A   1      41.735  42.250  22.646  1.00  0.00     0.109 A 
ATOM     16  H   UNL A   1      43.978  43.155  25.875  1.00  0.00     0.170 HD
BRANCH   7  17
ATOM     17  C   UNL A   1      45.608  44.390  21.671  1.00  0.00    -0.031 A 
ATOM     18  C   UNL A   1      47.212  42.622  21.129  1.00  0.00     0.164 A 
ATOM     19  C   UNL A   1      46.060  43.068  21.804  1.00  0.00     0.055 A 
ATOM     20  C   UNL A   1      47.917  43.473  20.257  1.00  0.00     0.203 A 
ATOM     21  C   UNL A   1      47.464  44.802  20.127  1.00  0.00     0.164 A 
ATOM     22  C   UNL A   1      46.338  45.243  20.839  1.00  0.00     0.055 A 
BRANCH  18  23
ATOM     23  O   UNL A   1      47.527  41.294  21.276  1.00  0.00    -0.493 OA
ATOM     24  C   UNL A   1      47.255  40.824  22.598  1.00  0.00     0.278 C 
ENDBRANCH  18  23
BRANCH  20  25
ATOM     25  O   UNL A   1      49.001  43.136  19.496  1.00  0.00    -0.490 OA
ATOM     26  C   UNL A   1      50.307  43.557  19.835  1.00  0.00     0.278 C 
ENDBRANCH  20  25
BRANCH  21  27
ATOM     27  O   UNL A   1      48.000  45.817  19.369  1.00  0.00    -0.493 OA
ATOM     28  C   UNL A   1      48.374  47.025  20.007  1.00  0.00     0.278 C 
ENDBRANCH  21  27
ENDBRANCH   7  17
BRANCH  12  29
ATOM     29  C   UNL A   1      42.231  43.456  20.533  1.00  0.00     0.045 A 
ATOM     30  C   UNL A   1      43.145  42.981  19.589  1.00  0.00     0.026 A 
ATOM     31  C   UNL A   1      41.153  44.255  20.145  1.00  0.00     0.026 A 
ATOM     32  C   UNL A   1      43.021  43.357  18.255  1.00  0.00     0.002 A 
ATOM     33  C   UNL A   1      41.045  44.639  18.805  1.00  0.00     0.002 A 
ATOM     34  C   UNL A   1      41.983  44.201  17.866  1.00  0.00     0.000 A 
ENDBRANCH  12  29
ENDBRANCH   4   6
ENDBRANCH   3   4
ENDBRANCH   2   3
ENDBRANCH   1   2
BRANCH   1  35
ATOM     35  O   UNL A   1      43.566  38.281  28.053  1.00  0.00    -0.458 OA
BRANCH  35  36
ATOM     36  C   UNL A   1      44.499  38.001  28.989  1.00  0.00     0.338 C 
ATOM     37  O   UNL A   1      45.401  38.730  29.370  1.00  0.00    -0.246 OA
BRANCH  36  38
ATOM     38  C   UNL A   1      44.393  36.591  29.359  1.00  0.00     0.060 A 
ATOM     39  C   UNL A   1      44.173  35.685  28.317  1.00  0.00     0.016 A 
ATOM     40  C   UNL A   1      44.148  36.270  30.701  1.00  0.00     0.016 A 
ATOM     41  C   UNL A   1      43.476  34.535  28.598  1.00  0.00     0.010 A 
ATOM     42  C   UNL A   1      43.429  35.140  30.975  1.00  0.00     0.010 A 
ATOM     43  C   UNL A   1      43.028  34.343  29.906  1.00  0.00    -0.014 A 
BRANCH  43  44
ATOM     44  C   UNL A   1      42.136  33.241  30.169  1.00  0.00     0.031 A 
ATOM     45  C   UNL A   1      40.773  33.686  30.529  1.00  0.00     0.074 A 
ATOM     46  C   UNL A   1      42.526  31.974  29.937  1.00  0.00     0.049 A 
ATOM     47  N   UNL A   1      40.166  33.552  31.660  1.00  0.00    -0.248 NA
ATOM     48  C   UNL A   1      40.083  34.574  29.578  1.00  0.00     0.031 C 
ATOM     49  C   UNL A   1      43.751  31.517  29.269  1.00  0.00     0.029 A 
ATOM     50  N   UNL A   1      41.815  30.828  30.089  1.00  0.00    -0.354 N 
ATOM     51  C   UNL A   1      38.916  34.135  31.467  1.00  0.00     0.074 A 
ATOM     52  C   UNL A   1      39.025  34.952  30.292  1.00  0.00     0.031 C 
ATOM     53  C   UNL A   1      43.564  30.252  28.829  1.00  0.00     0.029 A 
ATOM     54  C   UNL A   1      42.266  29.786  29.288  1.00  0.00     0.049 A 
ATOM     55  H   UNL A   1      41.054  30.744  30.708  1.00  0.00     0.167 HD
ATOM     56  C   UNL A   1      37.812  33.664  32.108  1.00  0.00     0.034 A 
ATOM     57  C   UNL A   1      41.552  28.688  28.934  1.00  0.00     0.034 A 
ATOM     58  C   UNL A   1      38.176  32.824  33.218  1.00  0.00     0.049 A 
ATOM     59  C   UNL A   1      40.403  28.588  29.870  1.00  0.00     0.074 A 
ATOM     60  C   UNL A   1      38.908  32.997  34.375  1.00  0.00     0.029 A 
ATOM     61  N   UNL A   1      38.087  31.466  33.018  1.00  0.00    -0.354 N 
ATOM     62  N   UNL A   1      40.532  28.347  31.146  1.00  0.00    -0.248 NA
ATOM     63  C   UNL A   1      39.153  29.223  29.478  1.00  0.00     0.031 C 
ATOM     64  C   UNL A   1      39.606  31.769  34.553  1.00  0.00     0.029 A 
ATOM     65  C   UNL A   1      39.218  30.896  33.533  1.00  0.00     0.049 A 
ATOM     66  H   UNL A   1      37.341  30.990  32.585  1.00  0.00     0.167 HD
ATOM     67  C   UNL A   1      39.607  29.189  31.755  1.00  0.00     0.074 A 
ATOM     68  C   UNL A   1      38.720  29.624  30.677  1.00  0.00     0.031 C 
ATOM     69  C   UNL A   1      39.828  29.697  33.003  1.00  0.00     0.034 A 
BRANCH  56  70
ATOM     70  C   UNL A   1      36.422  33.618  31.511  1.00  0.00     0.023 A 
ATOM     71  C   UNL A   1      36.238  32.758  30.405  1.00  0.00     0.012 A 
ATOM     72  C   UNL A   1      35.393  34.552  31.769  1.00  0.00     0.148 A 
ATOM     73  C   UNL A   1      35.136  32.880  29.554  1.00  0.00     0.002 A 
ATOM     74  C   UNL A   1      34.261  34.619  30.966  1.00  0.00     0.091 A 
ATOM     75  F   UNL A   1      35.541  35.486  32.710  1.00  0.00    -0.205 F 
ATOM     76  C   UNL A   1      34.145  33.811  29.835  1.00  0.00     0.022 A 
BRANCH  74  77
ATOM     77  S   UNL A   1      32.933  35.780  31.312  1.00  0.00     0.127 S 
ATOM     78  O   UNL A   1      32.215  35.094  32.382  1.00  0.00    -0.237 OA
ATOM     79  O   UNL A   1      33.677  36.971  31.725  1.00  0.00    -0.237 OA
ATOM     80  O   UNL A   1      32.212  35.938  30.054  1.00  0.00    -0.744 OA
ENDBRANCH  74  77
ENDBRANCH  56  70
BRANCH  57  81
ATOM     81  C   UNL A   1      41.609  27.921  27.667  1.00  0.00     0.023 A 
ATOM     82  C   UNL A   1      41.678  28.602  26.436  1.00  0.00     0.012 A 
ATOM     83  C   UNL A   1      41.845  26.527  27.669  1.00  0.00     0.148 A 
ATOM     84  C   UNL A   1      41.981  27.921  25.250  1.00  0.00     0.002 A 
ATOM     85  C   UNL A   1      42.131  25.850  26.486  1.00  0.00     0.091 A 
ATOM     86  F   UNL A   1      41.877  25.879  28.841  1.00  0.00    -0.205 F 
ATOM     87  C   UNL A   1      42.211  26.547  25.275  1.00  0.00     0.022 A 
BRANCH  85  88
ATOM     88  S   UNL A   1      42.450  24.080  26.446  1.00  0.00     0.127 S 
ATOM     89  O   UNL A   1      43.186  23.934  25.189  1.00  0.00    -0.237 OA
ATOM     90  O   UNL A   1      43.252  23.890  27.651  1.00  0.00    -0.237 OA
ATOM     91  O   UNL A   1      41.142  23.438  26.450  1.00  0.00    -0.744 OA
ENDBRANCH  85  88
ENDBRANCH  57  81
BRANCH  69  92
ATOM     92  C   UNL A   1      40.978  29.147  33.808  1.00  0.00     0.023 A 
ATOM     93  C   UNL A   1      40.896  27.918  34.495  1.00  0.00     0.012 A 
ATOM     94  C   UNL A   1      42.230  29.767  33.666  1.00  0.00     0.148 A 
ATOM     95  C   UNL A   1      42.040  27.322  35.032  1.00  0.00     0.002 A 
ATOM     96  C   UNL A   1      43.372  29.146  34.153  1.00  0.00     0.091 A 
ATOM     97  F   UNL A   1      42.286  30.934  33.004  1.00  0.00    -0.205 F 
ATOM     98  C   UNL A   1      43.281  27.928  34.845  1.00  0.00     0.022 A 
BRANCH  96  99
ATOM     99  S   UNL A   1      45.007  29.795  33.807  1.00  0.00     0.127 S 
ATOM    100  O   UNL A   1      45.871  28.784  34.413  1.00  0.00    -0.237 OA
ATOM    101  O   UNL A   1      45.029  29.822  32.342  1.00  0.00    -0.237 OA
ATOM    102  O   UNL A   1      45.057  31.114  34.425  1.00  0.00    -0.744 OA
ENDBRANCH  96  99
ENDBRANCH  69  92
ENDBRANCH  43  44
ENDBRANCH  36  38
ENDBRANCH  35  36
ENDBRANCH   1  35
TORSDOF 19
ENDMDL
MODEL 3
REMARK VINA RESULT:     -10.9      1.317      1.545
REMARK SMILES COc1cc([C@@H]2CC(=O)Nc3c(C(=O)OCCOC(=O)c4ccc(-c5c6nc(c(-c7cccc(S(=O)(=O)[O-])c7F)c7ccc([nH]7)c(-c7cccc(S(=O)(=O)[O-])c7F)c7nc(c(-c8cccc(S(=O)(=O)[O-])c8F)c8ccc5[nH]8)C=C7)C=C6)cc4)cn(-c4ccccc4)c32)cc(OC)c1OC
REMARK SMILES IDX 17 1 16 2 15 3 13 4 14 5 12 6 6 7 7 8 92 9 8 10 11 11 85 12
REMARK SMILES IDX 9 13 10 14 84 15 5 17 3 18 4 19 97 20 94 21 93 22 2 23 1 24
REMARK SMILES IDX 98 25 99 26 95 27 96 28 86 29 87 30 91 31 88 32 90 33 89 34
REMARK SMILES IDX 18 35 19 36 20 37 21 38 22 39 83 40 23 41 82 42 24 43 25 44
REMARK SMILES IDX 26 45 76 46 27 47 81 48 75 49 77 50 28 51 80 52 74 53 73 54
REMARK SMILES IDX 29 56 61 57 41 58 60 59 42 60 45 61 59 62 78 63 43 64 44 65
REMARK SMILES IDX 58 67 79 68 46 69 30 70 31 71 39 72 32 73 34 74 40 75 33 76
REMARK SMILES IDX 35 77 36 78 37 79 38 80 62 81 63 82 71 83 64 84 66 85 72 86
REMARK SMILES IDX 65 87 67 88 68 89 69 90 70 91 47 92 48 93 56 94 49 95 51 96
REMARK SMILES IDX 57 97 50 98 52 99 53 100 54 101 55 102
REMARK H PARENT 10 16 77 55 45 66
REMARK Flexibility Score: inf
ROOT
ATOM      1  C   UNL A   1      43.307  39.868  26.007  1.00  0.00     0.275 C 
ENDROOT
BRANCH   1   2
ATOM      2  C   UNL A   1      42.442  41.101  25.784  1.00  0.00     0.275 C 
BRANCH   2   3
ATOM      3  O   UNL A   1      43.094  42.073  24.942  1.00  0.00    -0.458 OA
BRANCH   3   4
ATOM      4  C   UNL A   1      42.399  42.491  23.834  1.00  0.00     0.341 C 
ATOM      5  O   UNL A   1      41.181  42.623  23.790  1.00  0.00    -0.246 OA
BRANCH   4   6
ATOM      6  C   UNL A   1      43.278  42.818  22.718  1.00  0.00     0.102 A 
ATOM      7  C   UNL A   1      44.112  43.853  19.247  1.00  0.00     0.078 C 
ATOM      8  C   UNL A   1      42.809  43.369  18.574  1.00  0.00     0.115 C 
ATOM      9  C   UNL A   1      44.085  43.450  20.692  1.00  0.00     0.055 A 
ATOM     10  C   UNL A   1      41.558  43.464  19.445  1.00  0.00     0.225 C 
ATOM     11  C   UNL A   1      42.939  43.154  21.389  1.00  0.00     0.078 A 
ATOM     12  N   UNL A   1      45.159  43.206  21.523  1.00  0.00    -0.317 N 
ATOM     13  O   UNL A   1      40.439  43.626  18.956  1.00  0.00    -0.275 OA
ATOM     14  N   UNL A   1      41.707  43.237  20.788  1.00  0.00    -0.324 N 
ATOM     15  C   UNL A   1      44.669  42.782  22.742  1.00  0.00     0.109 A 
ATOM     16  H   UNL A   1      40.901  43.131  21.343  1.00  0.00     0.170 HD
BRANCH   7  17
ATOM     17  C   UNL A   1      44.303  45.349  19.027  1.00  0.00    -0.031 A 
ATOM     18  C   UNL A   1      43.823  47.388  17.761  1.00  0.00     0.164 A 
ATOM     19  C   UNL A   1      43.672  46.002  17.957  1.00  0.00     0.055 A 
ATOM     20  C   UNL A   1      44.566  48.172  18.664  1.00  0.00     0.203 A 
ATOM     21  C   UNL A   1      45.202  47.514  19.736  1.00  0.00     0.164 A 
ATOM     22  C   UNL A   1      45.076  46.124  19.894  1.00  0.00     0.055 A 
BRANCH  18  23
ATOM     23  O   UNL A   1      43.109  47.937  16.725  1.00  0.00    -0.493 OA
ATOM     24  C   UNL A   1      41.797  48.331  17.131  1.00  0.00     0.278 C 
ENDBRANCH  18  23
BRANCH  20  25
ATOM     25  O   UNL A   1      44.724  49.529  18.620  1.00  0.00    -0.490 OA
ATOM     26  C   UNL A   1      45.736  50.134  17.840  1.00  0.00     0.278 C 
ENDBRANCH  20  25
BRANCH  21  27
ATOM     27  O   UNL A   1      46.000  48.053  20.718  1.00  0.00    -0.493 OA
ATOM     28  C   UNL A   1      46.825  47.191  21.481  1.00  0.00     0.278 C 
ENDBRANCH  21  27
ENDBRANCH   7  17
BRANCH  12  29
ATOM     29  C   UNL A   1      46.522  43.366  21.197  1.00  0.00     0.045 A 
ATOM     30  C   UNL A   1      46.928  43.205  19.870  1.00  0.00     0.026 A 
ATOM     31  C   UNL A   1      47.457  43.621  22.203  1.00  0.00     0.026 A 
ATOM     32  C   UNL A   1      48.282  43.235  19.550  1.00  0.00     0.002 A 
ATOM     33  C   UNL A   1      48.816  43.636  21.876  1.00  0.00     0.002 A 
ATOM     34  C   UNL A   1      49.227  43.432  20.556  1.00  0.00     0.000 A 
ENDBRANCH  12  29
ENDBRANCH   4   6
ENDBRANCH   3   4
ENDBRANCH   2   3
ENDBRANCH   1   2
BRANCH   1  35
ATOM     35  O   UNL A   1      42.882  39.172  27.172  1.00  0.00    -0.458 OA
BRANCH  35  36
ATOM     36  C   UNL A   1      43.823  39.029  28.130  1.00  0.00     0.338 C 
ATOM     37  O   UNL A   1      44.560  39.895  28.572  1.00  0.00    -0.246 OA
BRANCH  36  38
ATOM     38  C   UNL A   1      43.972  37.608  28.440  1.00  0.00     0.060 A 
ATOM     39  C   UNL A   1      43.560  36.705  27.454  1.00  0.00     0.016 A 
ATOM     40  C   UNL A   1      44.154  37.233  29.778  1.00  0.00     0.016 A 
ATOM     41  C   UNL A   1      43.094  35.477  27.858  1.00  0.00     0.010 A 
ATOM     42  C   UNL A   1      43.663  36.022  30.182  1.00  0.00     0.010 A 
ATOM     43  C   UNL A   1      43.058  35.208  29.228  1.00  0.00    -0.014 A 
BRANCH  43  44
ATOM     44  C   UNL A   1      42.396  34.006  29.672  1.00  0.00     0.031 A 
ATOM     45  C   UNL A   1      41.029  34.262  30.172  1.00  0.00     0.074 A 
ATOM     46  C   UNL A   1      42.961  32.800  29.474  1.00  0.00     0.049 A 
ATOM     47  N   UNL A   1      40.586  34.130  31.377  1.00  0.00    -0.248 NA
ATOM     48  C   UNL A   1      40.098  34.948  29.261  1.00  0.00     0.031 C 
ATOM     49  C   UNL A   1      44.160  32.486  28.688  1.00  0.00     0.029 A 
ATOM     50  N   UNL A   1      42.471  31.575  29.788  1.00  0.00    -0.354 N 
ATOM     51  C   UNL A   1      39.243  34.492  31.307  1.00  0.00     0.074 A 
ATOM     52  C   UNL A   1      39.081  35.215  30.078  1.00  0.00     0.031 C 
ATOM     53  C   UNL A   1      44.135  31.175  28.357  1.00  0.00     0.029 A 
ATOM     54  C   UNL A   1      42.993  30.552  29.005  1.00  0.00     0.049 A 
ATOM     55  H   UNL A   1      41.810  31.425  30.503  1.00  0.00     0.167 HD
ATOM     56  C   UNL A   1      38.313  33.911  32.111  1.00  0.00     0.034 A 
ATOM     57  C   UNL A   1      42.434  29.330  28.816  1.00  0.00     0.034 A 
ATOM     58  C   UNL A   1      38.935  33.233  33.219  1.00  0.00     0.049 A 
ATOM     59  C   UNL A   1      41.432  29.132  29.894  1.00  0.00     0.074 A 
ATOM     60  C   UNL A   1      39.757  33.615  34.259  1.00  0.00     0.029 A 
ATOM     61  N   UNL A   1      39.049  31.866  33.119  1.00  0.00    -0.354 N 
ATOM     62  N   UNL A   1      41.745  29.022  31.156  1.00  0.00    -0.248 NA
ATOM     63  C   UNL A   1      40.058  29.529  29.623  1.00  0.00     0.031 C 
ATOM     64  C   UNL A   1      40.663  32.530  34.426  1.00  0.00     0.029 A 
ATOM     65  C   UNL A   1      40.310  31.525  33.522  1.00  0.00     0.049 A 
ATOM     66  H   UNL A   1      38.348  31.246  32.814  1.00  0.00     0.167 HD
ATOM     67  C   UNL A   1      40.769  29.756  31.822  1.00  0.00     0.074 A 
ATOM     68  C   UNL A   1      39.705  29.956  30.839  1.00  0.00     0.031 C 
ATOM     69  C   UNL A   1      41.045  30.395  32.997  1.00  0.00     0.034 A 
BRANCH  56  70
ATOM     70  C   UNL A   1      36.891  33.598  31.700  1.00  0.00     0.023 A 
ATOM     71  C   UNL A   1      36.714  32.510  30.816  1.00  0.00     0.012 A 
ATOM     72  C   UNL A   1      35.782  34.457  31.882  1.00  0.00     0.148 A 
ATOM     73  C   UNL A   1      35.532  32.336  30.090  1.00  0.00     0.002 A 
ATOM     74  C   UNL A   1      34.582  34.237  31.217  1.00  0.00     0.091 A 
ATOM     75  F   UNL A   1      35.900  35.579  32.594  1.00  0.00    -0.205 F 
ATOM     76  C   UNL A   1      34.464  33.200  30.291  1.00  0.00     0.022 A 
BRANCH  74  77
ATOM     77  S   UNL A   1      33.158  35.304  31.474  1.00  0.00     0.127 S 
ATOM     78  O   UNL A   1      32.322  34.956  30.328  1.00  0.00    -0.237 OA
ATOM     79  O   UNL A   1      32.664  34.835  32.770  1.00  0.00    -0.237 OA
ATOM     80  O   UNL A   1      33.684  36.663  31.496  1.00  0.00    -0.744 OA
ENDBRANCH  74  77
ENDBRANCH  56  70
BRANCH  57  81
ATOM     81  C   UNL A   1      42.471  28.478  27.604  1.00  0.00     0.023 A 
ATOM     82  C   UNL A   1      41.905  28.944  26.400  1.00  0.00     0.012 A 
ATOM     83  C   UNL A   1      43.275  27.316  27.554  1.00  0.00     0.148 A 
ATOM     84  C   UNL A   1      42.140  28.280  25.189  1.00  0.00     0.002 A 
ATOM     85  C   UNL A   1      43.494  26.651  26.350  1.00  0.00     0.091 A 
ATOM     86  F   UNL A   1      43.898  26.913  28.669  1.00  0.00    -0.205 F 
ATOM     87  C   UNL A   1      42.936  27.138  25.163  1.00  0.00     0.022 A 
BRANCH  85  88
ATOM     88  S   UNL A   1      44.520  25.178  26.241  1.00  0.00     0.127 S 
ATOM     89  O   UNL A   1      45.821  25.682  26.683  1.00  0.00    -0.237 OA
ATOM     90  O   UNL A   1      43.859  24.279  27.182  1.00  0.00    -0.237 OA
ATOM     91  O   UNL A   1      44.482  24.767  24.843  1.00  0.00    -0.744 OA
ENDBRANCH  85  88
ENDBRANCH  57  81
BRANCH  69  92
ATOM     92  C   UNL A   1      42.354  30.102  33.683  1.00  0.00     0.023 A 
ATOM     93  C   UNL A   1      43.366  31.074  33.821  1.00  0.00     0.012 A 
ATOM     94  C   UNL A   1      42.457  28.902  34.406  1.00  0.00     0.148 A 
ATOM     95  C   UNL A   1      44.462  30.851  34.661  1.00  0.00     0.002 A 
ATOM     96  C   UNL A   1      43.518  28.706  35.280  1.00  0.00     0.091 A 
ATOM     97  F   UNL A   1      41.481  27.993  34.264  1.00  0.00    -0.205 F 
ATOM     98  C   UNL A   1      44.528  29.674  35.404  1.00  0.00     0.022 A 
BRANCH  96  99
ATOM     99  S   UNL A   1      43.576  27.288  36.376  1.00  0.00     0.127 S 
ATOM    100  O   UNL A   1      43.628  26.175  35.431  1.00  0.00    -0.237 OA
ATOM    101  O   UNL A   1      44.816  27.518  37.120  1.00  0.00    -0.237 OA
ATOM    102  O   UNL A   1      42.372  27.361  37.194  1.00  0.00    -0.744 OA
ENDBRANCH  96  99
ENDBRANCH  69  92
ENDBRANCH  43  44
ENDBRANCH  36  38
ENDBRANCH  35  36
ENDBRANCH   1  35
TORSDOF 19
ENDMDL
