MODEL 1
REMARK VINA RESULT:     -12.4      0.000      0.000
REMARK SMILES NS(=O)(=O)c1ccc(-n2nc(C(=O)OCCOC(=O)c3ccc(-c4c5nc(c(-c6cccc(S(=O)(=O)[O-])c6F)c6ccc([nH]6)c(-c6cccc(S(=O)(=O)[O-])c6F)c6nc(c(-c7cccc(S(=O)(=O)[O-])c7F)c7ccc4[nH]7)C=C6)C=C5)cc3)c(Cl)c2-c2ccc(Cl)cc2)cc1
REMARK SMILES IDX 15 1 14 2 12 3 13 4 11 5 9 6 10 7 85 8 83 9 84 10 8 11 5 12
REMARK SMILES IDX 6 13 94 14 7 15 93 16 2 17 3 18 4 19 1 20 86 23 87 24 92 25
REMARK SMILES IDX 88 26 91 27 89 28 90 29 16 30 17 31 18 32 19 33 20 34 21 35
REMARK SMILES IDX 82 36 22 37 81 38 23 39 24 40 25 41 75 42 26 43 80 44 74 45
REMARK SMILES IDX 76 46 27 47 79 48 73 49 72 50 28 52 60 53 40 54 59 55 41 56
REMARK SMILES IDX 44 57 58 58 77 59 42 60 43 61 57 63 78 64 45 65 29 66 30 67
REMARK SMILES IDX 38 68 31 69 33 70 39 71 32 72 34 73 35 74 36 75 37 76 61 77
REMARK SMILES IDX 62 78 70 79 63 80 65 81 71 82 64 83 66 84 67 85 68 86 69 87
REMARK SMILES IDX 46 88 47 89 55 90 48 91 50 92 56 93 49 94 51 95 52 96 53 97
REMARK SMILES IDX 54 98
REMARK H PARENT 1 21 1 22 76 51 44 62
REMARK Flexibility Score: inf
ROOT
ATOM      1  C   UNL A   1      31.544  29.358  25.486  1.00  0.00     0.275 C 
ENDROOT
BRANCH   1   2
ATOM      2  O   UNL A   1      31.296  27.949  25.579  1.00  0.00    -0.457 OA
BRANCH   2   3
ATOM      3  C   UNL A   1      31.054  27.229  24.440  1.00  0.00     0.360 C 
ATOM      4  O   UNL A   1      30.202  27.535  23.612  1.00  0.00    -0.244 OA
BRANCH   3   5
ATOM      5  C   UNL A   1      31.924  26.042  24.346  1.00  0.00     0.190 A 
ATOM      6  N   UNL A   1      32.540  23.985  24.183  1.00  0.00    -0.231 N 
ATOM      7  N   UNL A   1      31.470  24.805  24.027  1.00  0.00    -0.159 NA
ATOM      8  C   UNL A   1      33.680  24.673  24.568  1.00  0.00     0.094 A 
ATOM      9  C   UNL A   1      33.321  26.005  24.577  1.00  0.00     0.102 A 
ATOM     10  Cl  UNL A   1      34.381  27.312  24.881  1.00  0.00    -0.079 Cl
BRANCH   6  11
ATOM     11  C   UNL A   1      32.410  22.576  24.029  1.00  0.00     0.065 A 
ATOM     12  C   UNL A   1      32.528  19.808  23.700  1.00  0.00     0.082 A 
ATOM     13  C   UNL A   1      32.251  20.630  22.599  1.00  0.00     0.024 A 
ATOM     14  C   UNL A   1      32.678  20.357  24.974  1.00  0.00     0.024 A 
ATOM     15  C   UNL A   1      32.167  22.021  22.766  1.00  0.00     0.030 A 
ATOM     16  C   UNL A   1      32.630  21.741  25.134  1.00  0.00     0.030 A 
BRANCH  12  17
ATOM     17  S   UNL A   1      32.740  18.069  23.445  1.00  0.00     0.238 S 
ATOM     18  O   UNL A   1      34.092  17.715  23.798  1.00  0.00    -0.207 OA
ATOM     19  O   UNL A   1      32.125  17.695  22.191  1.00  0.00    -0.207 OA
BRANCH  17  20
ATOM     20  N   UNL A   1      31.778  17.342  24.626  1.00  0.00    -0.225 NA
ATOM     21  H   UNL A   1      30.848  17.761  24.613  1.00  0.00     0.137 HD
ATOM     22  H   UNL A   1      32.201  17.483  25.543  1.00  0.00     0.137 HD
ENDBRANCH  17  20
ENDBRANCH  12  17
ENDBRANCH   6  11
BRANCH   8  23
ATOM     23  C   UNL A   1      35.008  24.125  24.828  1.00  0.00     0.002 A 
ATOM     24  C   UNL A   1      35.668  23.458  23.784  1.00  0.00     0.012 A 
ATOM     25  C   UNL A   1      35.579  24.143  26.105  1.00  0.00     0.012 A 
ATOM     26  C   UNL A   1      36.859  22.778  24.020  1.00  0.00     0.021 A 
ATOM     27  C   UNL A   1      36.783  23.475  26.336  1.00  0.00     0.021 A 
ATOM     28  C   UNL A   1      37.408  22.783  25.298  1.00  0.00     0.041 A 
ATOM     29  Cl  UNL A   1      38.858  21.908  25.597  1.00  0.00    -0.084 Cl
ENDBRANCH   8  23
ENDBRANCH   3   5
ENDBRANCH   2   3
ENDBRANCH   1   2
BRANCH   1  30
ATOM     30  C   UNL A   1      31.925  29.929  26.840  1.00  0.00     0.275 C 
BRANCH  30  31
ATOM     31  O   UNL A   1      33.328  29.810  27.036  1.00  0.00    -0.458 OA
BRANCH  31  32
ATOM     32  C   UNL A   1      33.919  30.876  27.619  1.00  0.00     0.338 C 
ATOM     33  O   UNL A   1      33.399  31.936  27.929  1.00  0.00    -0.246 OA
BRANCH  32  34
ATOM     34  C   UNL A   1      35.360  30.649  27.631  1.00  0.00     0.060 A 
ATOM     35  C   UNL A   1      35.811  29.330  27.555  1.00  0.00     0.016 A 
ATOM     36  C   UNL A   1      36.197  31.712  28.001  1.00  0.00     0.016 A 
ATOM     37  C   UNL A   1      37.083  29.052  28.003  1.00  0.00     0.010 A 
ATOM     38  C   UNL A   1      37.449  31.432  28.473  1.00  0.00     0.010 A 
ATOM     39  C   UNL A   1      37.850  30.099  28.523  1.00  0.00    -0.014 A 
BRANCH  39  40
ATOM     40  C   UNL A   1      39.190  29.816  28.978  1.00  0.00     0.031 A 
ATOM     41  C   UNL A   1      39.385  30.212  30.391  1.00  0.00     0.074 A 
ATOM     42  C   UNL A   1      40.060  29.124  28.218  1.00  0.00     0.049 A 
ATOM     43  N   UNL A   1      40.164  31.139  30.836  1.00  0.00    -0.248 NA
ATOM     44  C   UNL A   1      38.456  29.677  31.402  1.00  0.00     0.031 C 
ATOM     45  C   UNL A   1      39.803  28.485  26.924  1.00  0.00     0.029 A 
ATOM     46  N   UNL A   1      41.315  28.701  28.525  1.00  0.00    -0.354 N 
ATOM     47  C   UNL A   1      40.016  31.100  32.218  1.00  0.00     0.074 A 
ATOM     48  C   UNL A   1      38.794  30.391  32.475  1.00  0.00     0.031 C 
ATOM     49  C   UNL A   1      40.753  27.551  26.700  1.00  0.00     0.029 A 
ATOM     50  C   UNL A   1      41.726  27.598  27.779  1.00  0.00     0.049 A 
ATOM     51  H   UNL A   1      41.878  29.132  29.208  1.00  0.00     0.167 HD
ATOM     52  C   UNL A   1      41.076  31.358  33.029  1.00  0.00     0.034 A 
ATOM     53  C   UNL A   1      42.715  26.727  28.109  1.00  0.00     0.034 A 
ATOM     54  C   UNL A   1      42.122  32.044  32.308  1.00  0.00     0.049 A 
ATOM     55  C   UNL A   1      43.582  27.408  29.103  1.00  0.00     0.074 A 
ATOM     56  C   UNL A   1      42.186  33.205  31.562  1.00  0.00     0.029 A 
ATOM     57  N   UNL A   1      43.221  31.299  31.949  1.00  0.00    -0.354 N 
ATOM     58  N   UNL A   1      44.315  28.448  28.817  1.00  0.00    -0.248 NA
ATOM     59  C   UNL A   1      43.274  27.228  30.513  1.00  0.00     0.031 C 
ATOM     60  C   UNL A   1      43.041  32.890  30.466  1.00  0.00     0.029 A 
ATOM     61  C   UNL A   1      43.519  31.591  30.647  1.00  0.00     0.049 A 
ATOM     62  H   UNL A   1      43.706  30.668  32.528  1.00  0.00     0.167 HD
ATOM     63  C   UNL A   1      44.132  29.296  29.902  1.00  0.00     0.074 A 
ATOM     64  C   UNL A   1      43.583  28.449  30.961  1.00  0.00     0.031 C 
ATOM     65  C   UNL A   1      44.140  30.652  29.741  1.00  0.00     0.034 A 
BRANCH  52  66
ATOM     66  C   UNL A   1      41.363  30.622  34.320  1.00  0.00     0.023 A 
ATOM     67  C   UNL A   1      41.791  31.409  35.412  1.00  0.00     0.012 A 
ATOM     68  C   UNL A   1      41.529  29.220  34.439  1.00  0.00     0.148 A 
ATOM     69  C   UNL A   1      42.429  30.843  36.519  1.00  0.00     0.002 A 
ATOM     70  C   UNL A   1      42.094  28.655  35.576  1.00  0.00     0.091 A 
ATOM     71  F   UNL A   1      41.268  28.415  33.409  1.00  0.00    -0.205 F 
ATOM     72  C   UNL A   1      42.581  29.465  36.602  1.00  0.00     0.022 A 
BRANCH  70  73
ATOM     73  S   UNL A   1      42.280  26.875  35.751  1.00  0.00     0.127 S 
ATOM     74  O   UNL A   1      42.416  26.737  37.198  1.00  0.00    -0.237 OA
ATOM     75  O   UNL A   1      41.015  26.391  35.197  1.00  0.00    -0.237 OA
ATOM     76  O   UNL A   1      43.453  26.517  34.963  1.00  0.00    -0.744 OA
ENDBRANCH  70  73
ENDBRANCH  52  66
BRANCH  53  77
ATOM     77  C   UNL A   1      42.794  25.261  27.878  1.00  0.00     0.023 A 
ATOM     78  C   UNL A   1      41.776  24.421  28.377  1.00  0.00     0.012 A 
ATOM     79  C   UNL A   1      43.697  24.710  26.939  1.00  0.00     0.148 A 
ATOM     80  C   UNL A   1      41.638  23.100  27.927  1.00  0.00     0.002 A 
ATOM     81  C   UNL A   1      43.563  23.395  26.504  1.00  0.00     0.091 A 
ATOM     82  F   UNL A   1      44.628  25.498  26.390  1.00  0.00    -0.205 F 
ATOM     83  C   UNL A   1      42.526  22.589  26.984  1.00  0.00     0.022 A 
BRANCH  81  84
ATOM     84  S   UNL A   1      44.664  22.696  25.265  1.00  0.00     0.127 S 
ATOM     85  O   UNL A   1      45.873  22.428  26.044  1.00  0.00    -0.237 OA
ATOM     86  O   UNL A   1      43.929  21.506  24.845  1.00  0.00    -0.237 OA
ATOM     87  O   UNL A   1      44.827  23.729  24.251  1.00  0.00    -0.744 OA
ENDBRANCH  81  84
ENDBRANCH  53  77
BRANCH  65  88
ATOM     88  C   UNL A   1      44.599  31.213  28.419  1.00  0.00     0.023 A 
ATOM     89  C   UNL A   1      43.720  31.442  27.340  1.00  0.00     0.012 A 
ATOM     90  C   UNL A   1      45.915  31.696  28.335  1.00  0.00     0.148 A 
ATOM     91  C   UNL A   1      44.151  32.119  26.195  1.00  0.00     0.002 A 
ATOM     92  C   UNL A   1      46.326  32.411  27.219  1.00  0.00     0.091 A 
ATOM     93  F   UNL A   1      46.737  31.473  29.371  1.00  0.00    -0.205 F 
ATOM     94  C   UNL A   1      45.450  32.616  26.141  1.00  0.00     0.022 A 
BRANCH  92  95
ATOM     95  S   UNL A   1      47.941  33.187  27.152  1.00  0.00     0.127 S 
ATOM     96  O   UNL A   1      47.884  34.108  28.285  1.00  0.00    -0.237 OA
ATOM     97  O   UNL A   1      48.845  32.050  27.331  1.00  0.00    -0.237 OA
ATOM     98  O   UNL A   1      48.029  33.815  25.838  1.00  0.00    -0.744 OA
ENDBRANCH  92  95
ENDBRANCH  65  88
ENDBRANCH  39  40
ENDBRANCH  32  34
ENDBRANCH  31  32
ENDBRANCH  30  31
ENDBRANCH   1  30
TORSDOF 18
ENDMDL
MODEL 2
REMARK VINA RESULT:     -11.6      5.290      9.018
REMARK SMILES NS(=O)(=O)c1ccc(-n2nc(C(=O)OCCOC(=O)c3ccc(-c4c5nc(c(-c6cccc(S(=O)(=O)[O-])c6F)c6ccc([nH]6)c(-c6cccc(S(=O)(=O)[O-])c6F)c6nc(c(-c7cccc(S(=O)(=O)[O-])c7F)c7ccc4[nH]7)C=C6)C=C5)cc3)c(Cl)c2-c2ccc(Cl)cc2)cc1
REMARK SMILES IDX 15 1 14 2 12 3 13 4 11 5 9 6 10 7 85 8 83 9 84 10 8 11 5 12
REMARK SMILES IDX 6 13 94 14 7 15 93 16 2 17 3 18 4 19 1 20 86 23 87 24 92 25
REMARK SMILES IDX 88 26 91 27 89 28 90 29 16 30 17 31 18 32 19 33 20 34 21 35
REMARK SMILES IDX 82 36 22 37 81 38 23 39 24 40 25 41 75 42 26 43 80 44 74 45
REMARK SMILES IDX 76 46 27 47 79 48 73 49 72 50 28 52 60 53 40 54 59 55 41 56
REMARK SMILES IDX 44 57 58 58 77 59 42 60 43 61 57 63 78 64 45 65 29 66 30 67
REMARK SMILES IDX 38 68 31 69 33 70 39 71 32 72 34 73 35 74 36 75 37 76 61 77
REMARK SMILES IDX 62 78 70 79 63 80 65 81 71 82 64 83 66 84 67 85 68 86 69 87
REMARK SMILES IDX 46 88 47 89 55 90 48 91 50 92 56 93 49 94 51 95 52 96 53 97
REMARK SMILES IDX 54 98
REMARK H PARENT 1 21 1 22 76 51 44 62
REMARK Flexibility Score: inf
ROOT
ATOM      1  C   UNL A   1      34.346  34.498  30.425  1.00  0.00     0.275 C 
ENDROOT
BRANCH   1   2
ATOM      2  O   UNL A   1      35.217  33.934  31.415  1.00  0.00    -0.457 OA
BRANCH   2   3
ATOM      3  C   UNL A   1      35.878  34.761  32.282  1.00  0.00     0.360 C 
ATOM      4  O   UNL A   1      35.388  35.783  32.753  1.00  0.00    -0.244 OA
BRANCH   3   5
ATOM      5  C   UNL A   1      37.247  34.284  32.559  1.00  0.00     0.190 A 
ATOM      6  N   UNL A   1      38.965  33.558  33.635  1.00  0.00    -0.231 N 
ATOM      7  N   UNL A   1      37.621  33.729  33.737  1.00  0.00    -0.159 NA
ATOM      8  C   UNL A   1      39.456  33.967  32.405  1.00  0.00     0.094 A 
ATOM      9  C   UNL A   1      38.349  34.339  31.671  1.00  0.00     0.102 A 
ATOM     10  Cl  UNL A   1      38.369  34.829  30.032  1.00  0.00    -0.079 Cl
BRANCH   6  11
ATOM     11  C   UNL A   1      39.727  33.084  34.739  1.00  0.00     0.065 A 
ATOM     12  C   UNL A   1      41.524  32.242  36.701  1.00  0.00     0.082 A 
ATOM     13  C   UNL A   1      40.956  31.304  35.826  1.00  0.00     0.024 A 
ATOM     14  C   UNL A   1      41.145  33.584  36.643  1.00  0.00     0.024 A 
ATOM     15  C   UNL A   1      40.033  31.722  34.854  1.00  0.00     0.030 A 
ATOM     16  C   UNL A   1      40.256  34.004  35.655  1.00  0.00     0.030 A 
BRANCH  12  17
ATOM     17  S   UNL A   1      42.767  31.711  37.843  1.00  0.00     0.238 S 
ATOM     18  O   UNL A   1      43.839  32.675  37.835  1.00  0.00    -0.207 OA
ATOM     19  O   UNL A   1      42.978  30.289  37.688  1.00  0.00    -0.207 OA
BRANCH  17  20
ATOM     20  N   UNL A   1      42.050  31.873  39.363  1.00  0.00    -0.225 NA
ATOM     21  H   UNL A   1      41.616  30.989  39.630  1.00  0.00     0.137 HD
ATOM     22  H   UNL A   1      41.340  32.603  39.328  1.00  0.00     0.137 HD
ENDBRANCH  17  20
ENDBRANCH  12  17
ENDBRANCH   6  11
BRANCH   8  23
ATOM     23  C   UNL A   1      40.840  33.934  31.942  1.00  0.00     0.002 A 
ATOM     24  C   UNL A   1      41.726  34.910  32.425  1.00  0.00     0.012 A 
ATOM     25  C   UNL A   1      41.269  33.043  30.953  1.00  0.00     0.012 A 
ATOM     26  C   UNL A   1      43.008  35.026  31.897  1.00  0.00     0.021 A 
ATOM     27  C   UNL A   1      42.562  33.150  30.435  1.00  0.00     0.021 A 
ATOM     28  C   UNL A   1      43.419  34.149  30.898  1.00  0.00     0.041 A 
ATOM     29  Cl  UNL A   1      44.989  34.321  30.218  1.00  0.00    -0.084 Cl
ENDBRANCH   8  23
ENDBRANCH   3   5
ENDBRANCH   2   3
ENDBRANCH   1   2
BRANCH   1  30
ATOM     30  C   UNL A   1      34.330  33.640  29.172  1.00  0.00     0.275 C 
BRANCH  30  31
ATOM     31  O   UNL A   1      34.820  32.340  29.470  1.00  0.00    -0.458 OA
BRANCH  31  32
ATOM     32  C   UNL A   1      35.490  31.735  28.465  1.00  0.00     0.338 C 
ATOM     33  O   UNL A   1      35.178  31.689  27.286  1.00  0.00    -0.246 OA
BRANCH  32  34
ATOM     34  C   UNL A   1      36.566  30.939  29.048  1.00  0.00     0.060 A 
ATOM     35  C   UNL A   1      37.475  31.590  29.885  1.00  0.00     0.016 A 
ATOM     36  C   UNL A   1      36.803  29.659  28.527  1.00  0.00     0.016 A 
ATOM     37  C   UNL A   1      38.708  31.009  30.080  1.00  0.00     0.010 A 
ATOM     38  C   UNL A   1      38.037  29.096  28.697  1.00  0.00     0.010 A 
ATOM     39  C   UNL A   1      38.991  29.808  29.421  1.00  0.00    -0.014 A 
BRANCH  39  40
ATOM     40  C   UNL A   1      40.275  29.187  29.635  1.00  0.00     0.031 A 
ATOM     41  C   UNL A   1      40.487  28.843  31.059  1.00  0.00     0.074 A 
ATOM     42  C   UNL A   1      41.069  28.839  28.605  1.00  0.00     0.049 A 
ATOM     43  N   UNL A   1      41.365  29.352  31.857  1.00  0.00    -0.248 NA
ATOM     44  C   UNL A   1      39.478  28.009  31.736  1.00  0.00     0.031 C 
ATOM     45  C   UNL A   1      40.764  28.922  27.175  1.00  0.00     0.029 A 
ATOM     46  N   UNL A   1      42.257  28.175  28.628  1.00  0.00    -0.354 N 
ATOM     47  C   UNL A   1      41.184  28.682  33.063  1.00  0.00     0.074 A 
ATOM     48  C   UNL A   1      39.879  28.086  33.005  1.00  0.00     0.031 C 
ATOM     49  C   UNL A   1      41.596  28.098  26.500  1.00  0.00     0.029 A 
ATOM     50  C   UNL A   1      42.544  27.515  27.435  1.00  0.00     0.049 A 
ATOM     51  H   UNL A   1      42.854  28.163  29.411  1.00  0.00     0.167 HD
ATOM     52  C   UNL A   1      42.250  28.400  33.857  1.00  0.00     0.034 A 
ATOM     53  C   UNL A   1      43.412  26.482  27.277  1.00  0.00     0.034 A 
ATOM     54  C   UNL A   1      43.388  29.215  33.504  1.00  0.00     0.049 A 
ATOM     55  C   UNL A   1      44.335  26.505  28.439  1.00  0.00     0.074 A 
ATOM     56  C   UNL A   1      43.609  30.574  33.391  1.00  0.00     0.029 A 
ATOM     57  N   UNL A   1      44.394  28.604  32.794  1.00  0.00    -0.354 N 
ATOM     58  N   UNL A   1      45.196  27.461  28.648  1.00  0.00    -0.248 NA
ATOM     59  C   UNL A   1      43.977  25.719  29.610  1.00  0.00     0.031 C 
ATOM     60  C   UNL A   1      44.442  30.715  32.243  1.00  0.00     0.029 A 
ATOM     61  C   UNL A   1      44.753  29.438  31.772  1.00  0.00     0.049 A 
ATOM     62  H   UNL A   1      44.785  27.722  32.988  1.00  0.00     0.167 HD
ATOM     63  C   UNL A   1      45.095  27.712  30.010  1.00  0.00     0.074 A 
ATOM     64  C   UNL A   1      44.424  26.537  30.567  1.00  0.00     0.031 C 
ATOM     65  C   UNL A   1      45.273  28.972  30.507  1.00  0.00     0.034 A 
BRANCH  52  66
ATOM     66  C   UNL A   1      42.416  27.113  34.638  1.00  0.00     0.023 A 
ATOM     67  C   UNL A   1      42.074  27.159  36.007  1.00  0.00     0.012 A 
ATOM     68  C   UNL A   1      43.152  25.985  34.200  1.00  0.00     0.148 A 
ATOM     69  C   UNL A   1      42.515  26.184  36.907  1.00  0.00     0.002 A 
ATOM     70  C   UNL A   1      43.522  24.979  35.084  1.00  0.00     0.091 A 
ATOM     71  F   UNL A   1      43.622  25.921  32.955  1.00  0.00    -0.205 F 
ATOM     72  C   UNL A   1      43.239  25.093  36.446  1.00  0.00     0.022 A 
BRANCH  70  73
ATOM     73  S   UNL A   1      44.427  23.526  34.534  1.00  0.00     0.127 S 
ATOM     74  O   UNL A   1      43.516  22.975  33.535  1.00  0.00    -0.237 OA
ATOM     75  O   UNL A   1      45.649  24.126  33.997  1.00  0.00    -0.237 OA
ATOM     76  O   UNL A   1      44.636  22.711  35.724  1.00  0.00    -0.744 OA
ENDBRANCH  70  73
ENDBRANCH  52  66
BRANCH  53  77
ATOM     77  C   UNL A   1      43.315  25.300  26.379  1.00  0.00     0.023 A 
ATOM     78  C   UNL A   1      44.245  25.145  25.330  1.00  0.00     0.012 A 
ATOM     79  C   UNL A   1      42.506  24.189  26.710  1.00  0.00     0.148 A 
ATOM     80  C   UNL A   1      44.393  23.918  24.666  1.00  0.00     0.002 A 
ATOM     81  C   UNL A   1      42.648  22.977  26.041  1.00  0.00     0.091 A 
ATOM     82  F   UNL A   1      41.667  24.278  27.747  1.00  0.00    -0.205 F 
ATOM     83  C   UNL A   1      43.600  22.832  25.027  1.00  0.00     0.022 A 
BRANCH  81  84
ATOM     84  S   UNL A   1      41.672  21.533  26.487  1.00  0.00     0.127 S 
ATOM     85  O   UNL A   1      42.161  20.528  25.544  1.00  0.00    -0.237 OA
ATOM     86  O   UNL A   1      42.070  21.317  27.876  1.00  0.00    -0.237 OA
ATOM     87  O   UNL A   1      40.281  21.916  26.280  1.00  0.00    -0.744 OA
ENDBRANCH  81  84
ENDBRANCH  53  77
BRANCH  65  88
ATOM     88  C   UNL A   1      45.826  30.032  29.587  1.00  0.00     0.023 A 
ATOM     89  C   UNL A   1      47.208  30.278  29.449  1.00  0.00     0.012 A 
ATOM     90  C   UNL A   1      44.934  30.661  28.704  1.00  0.00     0.148 A 
ATOM     91  C   UNL A   1      47.687  31.148  28.466  1.00  0.00     0.002 A 
ATOM     92  C   UNL A   1      45.416  31.485  27.696  1.00  0.00     0.091 A 
ATOM     93  F   UNL A   1      43.623  30.414  28.846  1.00  0.00    -0.205 F 
ATOM     94  C   UNL A   1      46.791  31.740  27.580  1.00  0.00     0.022 A 
BRANCH  92  95
ATOM     95  S   UNL A   1      44.324  32.167  26.448  1.00  0.00     0.127 S 
ATOM     96  O   UNL A   1      43.469  31.025  26.134  1.00  0.00    -0.237 OA
ATOM     97  O   UNL A   1      43.657  33.251  27.170  1.00  0.00    -0.237 OA
ATOM     98  O   UNL A   1      45.188  32.620  25.364  1.00  0.00    -0.744 OA
ENDBRANCH  92  95
ENDBRANCH  65  88
ENDBRANCH  39  40
ENDBRANCH  32  34
ENDBRANCH  31  32
ENDBRANCH  30  31
ENDBRANCH   1  30
TORSDOF 18
ENDMDL
MODEL 3
REMARK VINA RESULT:     -11.2      2.765      7.339
REMARK SMILES NS(=O)(=O)c1ccc(-n2nc(C(=O)OCCOC(=O)c3ccc(-c4c5nc(c(-c6cccc(S(=O)(=O)[O-])c6F)c6ccc([nH]6)c(-c6cccc(S(=O)(=O)[O-])c6F)c6nc(c(-c7cccc(S(=O)(=O)[O-])c7F)c7ccc4[nH]7)C=C6)C=C5)cc3)c(Cl)c2-c2ccc(Cl)cc2)cc1
REMARK SMILES IDX 15 1 14 2 12 3 13 4 11 5 9 6 10 7 85 8 83 9 84 10 8 11 5 12
REMARK SMILES IDX 6 13 94 14 7 15 93 16 2 17 3 18 4 19 1 20 86 23 87 24 92 25
REMARK SMILES IDX 88 26 91 27 89 28 90 29 16 30 17 31 18 32 19 33 20 34 21 35
REMARK SMILES IDX 82 36 22 37 81 38 23 39 24 40 25 41 75 42 26 43 80 44 74 45
REMARK SMILES IDX 76 46 27 47 79 48 73 49 72 50 28 52 60 53 40 54 59 55 41 56
REMARK SMILES IDX 44 57 58 58 77 59 42 60 43 61 57 63 78 64 45 65 29 66 30 67
REMARK SMILES IDX 38 68 31 69 33 70 39 71 32 72 34 73 35 74 36 75 37 76 61 77
REMARK SMILES IDX 62 78 70 79 63 80 65 81 71 82 64 83 66 84 67 85 68 86 69 87
REMARK SMILES IDX 46 88 47 89 55 90 48 91 50 92 56 93 49 94 51 95 52 96 53 97
REMARK SMILES IDX 54 98
REMARK H PARENT 1 21 1 22 76 51 44 62
REMARK Flexibility Score: inf
ROOT
ATOM      1  C   UNL A   1      32.038  28.883  24.578  1.00  0.00     0.275 C 
ENDROOT
BRANCH   1   2
ATOM      2  O   UNL A   1      31.102  27.802  24.682  1.00  0.00    -0.457 OA
BRANCH   2   3
ATOM      3  C   UNL A   1      31.201  26.921  25.725  1.00  0.00     0.360 C 
ATOM      4  O   UNL A   1      30.654  27.090  26.810  1.00  0.00    -0.244 OA
BRANCH   3   5
ATOM      5  C   UNL A   1      32.056  25.767  25.389  1.00  0.00     0.190 A 
ATOM      6  N   UNL A   1      32.652  23.756  24.899  1.00  0.00    -0.231 N 
ATOM      7  N   UNL A   1      31.571  24.575  24.965  1.00  0.00    -0.159 NA
ATOM      8  C   UNL A   1      33.826  24.406  25.246  1.00  0.00     0.094 A 
ATOM      9  C   UNL A   1      33.470  25.721  25.463  1.00  0.00     0.102 A 
ATOM     10  Cl  UNL A   1      34.556  26.994  25.817  1.00  0.00    -0.079 Cl
BRANCH   6  11
ATOM     11  C   UNL A   1      32.507  22.377  24.582  1.00  0.00     0.065 A 
ATOM     12  C   UNL A   1      32.596  19.658  23.961  1.00  0.00     0.082 A 
ATOM     13  C   UNL A   1      32.427  20.602  22.938  1.00  0.00     0.024 A 
ATOM     14  C   UNL A   1      32.650  20.062  25.296  1.00  0.00     0.024 A 
ATOM     15  C   UNL A   1      32.358  21.969  23.250  1.00  0.00     0.030 A 
ATOM     16  C   UNL A   1      32.617  21.422  25.603  1.00  0.00     0.030 A 
BRANCH  12  17
ATOM     17  S   UNL A   1      32.793  17.952  23.535  1.00  0.00     0.238 S 
ATOM     18  O   UNL A   1      34.140  17.551  23.856  1.00  0.00    -0.207 OA
ATOM     19  O   UNL A   1      32.179  17.710  22.247  1.00  0.00    -0.207 OA
BRANCH  17  20
ATOM     20  N   UNL A   1      31.819  17.119  24.634  1.00  0.00    -0.225 NA
ATOM     21  H   UNL A   1      32.384  16.440  25.144  1.00  0.00     0.137 HD
ATOM     22  H   UNL A   1      31.077  16.634  24.131  1.00  0.00     0.137 HD
ENDBRANCH  17  20
ENDBRANCH  12  17
ENDBRANCH   6  11
BRANCH   8  23
ATOM     23  C   UNL A   1      35.174  23.849  25.291  1.00  0.00     0.002 A 
ATOM     24  C   UNL A   1      35.700  23.283  24.119  1.00  0.00     0.012 A 
ATOM     25  C   UNL A   1      35.897  23.757  26.485  1.00  0.00     0.012 A 
ATOM     26  C   UNL A   1      36.909  22.595  24.145  1.00  0.00     0.021 A 
ATOM     27  C   UNL A   1      37.119  23.080  26.506  1.00  0.00     0.021 A 
ATOM     28  C   UNL A   1      37.611  22.490  25.342  1.00  0.00     0.041 A 
ATOM     29  Cl  UNL A   1      39.084  21.603  25.381  1.00  0.00    -0.084 Cl
ENDBRANCH   8  23
ENDBRANCH   3   5
ENDBRANCH   2   3
ENDBRANCH   1   2
BRANCH   1  30
ATOM     30  C   UNL A   1      31.737  29.958  25.606  1.00  0.00     0.275 C 
BRANCH  30  31
ATOM     31  O   UNL A   1      32.942  30.386  26.225  1.00  0.00    -0.458 OA
BRANCH  31  32
ATOM     32  C   UNL A   1      32.839  31.506  26.973  1.00  0.00     0.338 C 
ATOM     33  O   UNL A   1      32.039  32.418  26.836  1.00  0.00    -0.246 OA
BRANCH  32  34
ATOM     34  C   UNL A   1      33.991  31.569  27.865  1.00  0.00     0.060 A 
ATOM     35  C   UNL A   1      34.637  32.799  28.007  1.00  0.00     0.016 A 
ATOM     36  C   UNL A   1      34.560  30.363  28.301  1.00  0.00     0.016 A 
ATOM     37  C   UNL A   1      35.938  32.801  28.457  1.00  0.00     0.010 A 
ATOM     38  C   UNL A   1      35.861  30.363  28.721  1.00  0.00     0.010 A 
ATOM     39  C   UNL A   1      36.549  31.574  28.735  1.00  0.00    -0.014 A 
BRANCH  39  40
ATOM     40  C   UNL A   1      37.907  31.572  29.223  1.00  0.00     0.031 A 
ATOM     41  C   UNL A   1      38.549  30.249  29.055  1.00  0.00     0.074 A 
ATOM     42  C   UNL A   1      38.514  32.707  29.618  1.00  0.00     0.049 A 
ATOM     43  N   UNL A   1      38.935  29.449  29.991  1.00  0.00    -0.248 NA
ATOM     44  C   UNL A   1      38.565  29.645  27.710  1.00  0.00     0.031 C 
ATOM     45  C   UNL A   1      37.991  34.073  29.540  1.00  0.00     0.029 A 
ATOM     46  N   UNL A   1      39.801  32.893  30.018  1.00  0.00    -0.354 N 
ATOM     47  C   UNL A   1      39.497  28.364  29.328  1.00  0.00     0.074 A 
ATOM     48  C   UNL A   1      39.011  28.417  27.978  1.00  0.00     0.031 C 
ATOM     49  C   UNL A   1      39.023  34.943  29.615  1.00  0.00     0.029 A 
ATOM     50  C   UNL A   1      40.251  34.200  29.843  1.00  0.00     0.049 A 
ATOM     51  H   UNL A   1      40.359  32.174  30.395  1.00  0.00     0.167 HD
ATOM     52  C   UNL A   1      40.570  27.718  29.857  1.00  0.00     0.034 A 
ATOM     53  C   UNL A   1      41.547  34.601  29.768  1.00  0.00     0.034 A 
ATOM     54  C   UNL A   1      40.713  28.018  31.261  1.00  0.00     0.049 A 
ATOM     55  C   UNL A   1      42.371  33.530  30.382  1.00  0.00     0.074 A 
ATOM     56  C   UNL A   1      39.886  27.917  32.364  1.00  0.00     0.029 A 
ATOM     57  N   UNL A   1      41.707  28.901  31.610  1.00  0.00    -0.354 N 
ATOM     58  N   UNL A   1      42.325  33.232  31.650  1.00  0.00    -0.248 NA
ATOM     59  C   UNL A   1      42.889  32.484  29.512  1.00  0.00     0.031 C 
ATOM     60  C   UNL A   1      40.154  29.088  33.131  1.00  0.00     0.029 A 
ATOM     61  C   UNL A   1      41.183  29.792  32.505  1.00  0.00     0.049 A 
ATOM     62  H   UNL A   1      42.633  28.891  31.274  1.00  0.00     0.167 HD
ATOM     63  C   UNL A   1      42.321  31.843  31.669  1.00  0.00     0.074 A 
ATOM     64  C   UNL A   1      42.788  31.441  30.342  1.00  0.00     0.031 C 
ATOM     65  C   UNL A   1      41.643  31.156  32.635  1.00  0.00     0.034 A 
BRANCH  52  66
ATOM     66  C   UNL A   1      41.730  27.183  29.045  1.00  0.00     0.023 A 
ATOM     67  C   UNL A   1      42.652  28.137  28.558  1.00  0.00     0.012 A 
ATOM     68  C   UNL A   1      41.804  25.883  28.488  1.00  0.00     0.148 A 
ATOM     69  C   UNL A   1      43.534  27.840  27.516  1.00  0.00     0.002 A 
ATOM     70  C   UNL A   1      42.736  25.571  27.506  1.00  0.00     0.091 A 
ATOM     71  F   UNL A   1      40.895  24.959  28.799  1.00  0.00    -0.205 F 
ATOM     72  C   UNL A   1      43.577  26.556  26.989  1.00  0.00     0.022 A 
BRANCH  70  73
ATOM     73  S   UNL A   1      42.859  23.915  26.816  1.00  0.00     0.127 S 
ATOM     74  O   UNL A   1      43.061  23.112  28.019  1.00  0.00    -0.237 OA
ATOM     75  O   UNL A   1      41.551  23.762  26.180  1.00  0.00    -0.237 OA
ATOM     76  O   UNL A   1      43.977  23.955  25.881  1.00  0.00    -0.744 OA
ENDBRANCH  70  73
ENDBRANCH  52  66
BRANCH  53  77
ATOM     77  C   UNL A   1      42.154  35.675  28.938  1.00  0.00     0.023 A 
ATOM     78  C   UNL A   1      41.685  35.888  27.625  1.00  0.00     0.012 A 
ATOM     79  C   UNL A   1      42.981  36.668  29.510  1.00  0.00     0.148 A 
ATOM     80  C   UNL A   1      41.993  37.064  26.925  1.00  0.00     0.002 A 
ATOM     81  C   UNL A   1      43.294  37.829  28.808  1.00  0.00     0.091 A 
ATOM     82  F   UNL A   1      43.382  36.534  30.778  1.00  0.00    -0.205 F 
ATOM     83  C   UNL A   1      42.792  38.038  27.520  1.00  0.00     0.022 A 
BRANCH  81  84
ATOM     84  S   UNL A   1      44.294  39.133  29.540  1.00  0.00     0.127 S 
ATOM     85  O   UNL A   1      44.501  40.034  28.406  1.00  0.00    -0.237 OA
ATOM     86  O   UNL A   1      43.407  39.647  30.579  1.00  0.00    -0.237 OA
ATOM     87  O   UNL A   1      45.510  38.482  30.011  1.00  0.00    -0.744 OA
ENDBRANCH  81  84
ENDBRANCH  53  77
BRANCH  65  88
ATOM     88  C   UNL A   1      41.112  31.923  33.819  1.00  0.00     0.023 A 
ATOM     89  C   UNL A   1      39.837  32.527  33.828  1.00  0.00     0.012 A 
ATOM     90  C   UNL A   1      41.843  31.868  35.016  1.00  0.00     0.148 A 
ATOM     91  C   UNL A   1      39.314  33.082  35.000  1.00  0.00     0.002 A 
ATOM     92  C   UNL A   1      41.301  32.374  36.189  1.00  0.00     0.091 A 
ATOM     93  F   UNL A   1      43.053  31.287  34.992  1.00  0.00    -0.205 F 
ATOM     94  C   UNL A   1      40.041  32.992  36.184  1.00  0.00     0.022 A 
BRANCH  92  95
ATOM     95  S   UNL A   1      42.132  32.169  37.765  1.00  0.00     0.127 S 
ATOM     96  O   UNL A   1      43.180  33.184  37.692  1.00  0.00    -0.237 OA
ATOM     97  O   UNL A   1      41.065  32.458  38.724  1.00  0.00    -0.237 OA
ATOM     98  O   UNL A   1      42.598  30.787  37.795  1.00  0.00    -0.744 OA
ENDBRANCH  92  95
ENDBRANCH  65  88
ENDBRANCH  39  40
ENDBRANCH  32  34
ENDBRANCH  31  32
ENDBRANCH  30  31
ENDBRANCH   1  30
TORSDOF 18
ENDMDL
