MODEL 1
REMARK VINA RESULT:     -12.7      0.000      0.000
REMARK SMILES Cc1cc2c(c(C)c1Br)C=C(C(=O)OCCOC(=O)c1ccc(-c3c4nc(c(-c5cccc(S(=O)(=O)[O-])c5F)c5ccc([nH]5)c(-c5cccc(S(=O)(=O)[O-])c5F)c5nc(c(-c6cccc(S(=O)(=O)[O-])c6F)c6ccc3[nH]6)C=C5)C=C4)cc1)[C@@H](C(F)(F)F)O2
REMARK SMILES IDX 16 1 15 2 14 3 12 4 13 5 11 6 1 7 2 8 3 9 8 10 4 11 6 12
REMARK SMILES IDX 9 13 5 14 88 15 7 16 10 17 83 18 84 19 85 20 86 21 87 22
REMARK SMILES IDX 17 23 18 24 19 25 20 26 21 27 82 28 22 29 81 30 23 31 24 32
REMARK SMILES IDX 25 33 75 34 26 35 80 36 74 37 76 38 27 39 79 40 73 41 72 42
REMARK SMILES IDX 28 44 60 45 40 46 59 47 41 48 44 49 58 50 77 51 42 52 43 53
REMARK SMILES IDX 57 55 78 56 45 57 29 58 30 59 38 60 31 61 33 62 39 63 32 64
REMARK SMILES IDX 34 65 35 66 36 67 37 68 61 69 62 70 70 71 63 72 65 73 71 74
REMARK SMILES IDX 64 75 66 76 67 77 68 78 69 79 46 80 47 81 55 82 48 83 50 84
REMARK SMILES IDX 56 85 49 86 51 87 52 88 53 89 54 90
REMARK H PARENT 76 43 44 54
REMARK Flexibility Score: inf
ROOT
ATOM      1  C   UNL A   1      36.331  20.694  25.250  1.00  0.00     0.275 C 
ENDROOT
BRANCH   1   2
ATOM      2  C   UNL A   1      35.064  21.385  24.748  1.00  0.00     0.275 C 
BRANCH   2   3
ATOM      3  O   UNL A   1      35.199  22.824  24.782  1.00  0.00    -0.459 OA
BRANCH   3   4
ATOM      4  C   UNL A   1      34.475  23.454  25.736  1.00  0.00     0.338 C 
ATOM      5  O   UNL A   1      34.444  23.182  26.926  1.00  0.00    -0.246 OA
BRANCH   4   6
ATOM      6  C   UNL A   1      33.693  24.559  25.150  1.00  0.00     0.087 C 
ATOM      7  C   UNL A   1      30.091  29.770  23.754  1.00  0.00     0.046 C 
ATOM      8  C   UNL A   1      31.073  28.793  24.344  1.00  0.00    -0.033 A 
ATOM      9  C   UNL A   1      31.182  27.544  23.712  1.00  0.00     0.051 A 
ATOM     10  C   UNL A   1      31.910  29.076  25.442  1.00  0.00     0.024 A 
ATOM     11  C   UNL A   1      32.059  26.571  24.179  1.00  0.00     0.128 A 
ATOM     12  C   UNL A   1      32.799  28.093  25.944  1.00  0.00    -0.026 A 
ATOM     13  Br  UNL A   1      31.839  30.817  26.237  1.00  0.00    -0.050 Br
ATOM     14  C   UNL A   1      32.855  26.827  25.297  1.00  0.00     0.021 A 
ATOM     15  O   UNL A   1      32.078  25.406  23.462  1.00  0.00    -0.475 OA
ATOM     16  C   UNL A   1      33.702  28.360  27.129  1.00  0.00     0.046 C 
ATOM     17  C   UNL A   1      33.716  25.746  25.768  1.00  0.00     0.027 C 
ATOM     18  C   UNL A   1      32.808  24.264  23.981  1.00  0.00     0.316 C 
BRANCH  18  19
ATOM     19  C   UNL A   1      31.810  23.140  24.304  1.00  0.00     0.430 C 
ATOM     20  F   UNL A   1      32.188  21.969  23.734  1.00  0.00    -0.167 F 
ATOM     21  F   UNL A   1      31.732  22.907  25.636  1.00  0.00    -0.167 F 
ATOM     22  F   UNL A   1      30.562  23.417  23.865  1.00  0.00    -0.167 F 
ENDBRANCH  18  19
ENDBRANCH   4   6
ENDBRANCH   3   4
ENDBRANCH   2   3
ENDBRANCH   1   2
BRANCH   1  23
ATOM     23  O   UNL A   1      37.478  21.535  25.038  1.00  0.00    -0.458 OA
BRANCH  23  24
ATOM     24  C   UNL A   1      38.593  21.172  25.712  1.00  0.00     0.338 C 
ATOM     25  O   UNL A   1      39.130  20.078  25.718  1.00  0.00    -0.246 OA
BRANCH  24  26
ATOM     26  C   UNL A   1      39.163  22.340  26.398  1.00  0.00     0.060 A 
ATOM     27  C   UNL A   1      38.606  23.584  26.141  1.00  0.00     0.016 A 
ATOM     28  C   UNL A   1      40.340  22.243  27.136  1.00  0.00     0.016 A 
ATOM     29  C   UNL A   1      39.303  24.738  26.474  1.00  0.00     0.010 A 
ATOM     30  C   UNL A   1      40.957  23.412  27.606  1.00  0.00     0.010 A 
ATOM     31  C   UNL A   1      40.480  24.681  27.233  1.00  0.00    -0.014 A 
BRANCH  31  32
ATOM     32  C   UNL A   1      41.191  25.945  27.607  1.00  0.00     0.031 A 
ATOM     33  C   UNL A   1      40.522  26.983  28.481  1.00  0.00     0.074 A 
ATOM     34  C   UNL A   1      42.460  26.158  27.190  1.00  0.00     0.049 A 
ATOM     35  N   UNL A   1      40.931  28.189  28.787  1.00  0.00    -0.248 NA
ATOM     36  C   UNL A   1      39.221  26.633  29.074  1.00  0.00     0.031 C 
ATOM     37  C   UNL A   1      43.242  25.239  26.360  1.00  0.00     0.029 A 
ATOM     38  N   UNL A   1      43.325  27.201  27.417  1.00  0.00    -0.354 N 
ATOM     39  C   UNL A   1      39.909  28.765  29.535  1.00  0.00     0.074 A 
ATOM     40  C   UNL A   1      38.860  27.776  29.641  1.00  0.00     0.031 C 
ATOM     41  C   UNL A   1      44.484  25.715  26.214  1.00  0.00     0.029 A 
ATOM     42  C   UNL A   1      44.558  27.034  26.824  1.00  0.00     0.049 A 
ATOM     43  H   UNL A   1      43.087  27.992  27.953  1.00  0.00     0.167 HD
ATOM     44  C   UNL A   1      39.855  29.999  30.092  1.00  0.00     0.034 A 
ATOM     45  C   UNL A   1      45.620  27.860  26.731  1.00  0.00     0.034 A 
ATOM     46  C   UNL A   1      40.938  30.947  30.054  1.00  0.00     0.049 A 
ATOM     47  C   UNL A   1      45.532  29.224  27.350  1.00  0.00     0.074 A 
ATOM     48  C   UNL A   1      40.989  32.213  30.614  1.00  0.00     0.029 A 
ATOM     49  N   UNL A   1      42.165  30.732  29.445  1.00  0.00    -0.354 N 
ATOM     50  N   UNL A   1      44.558  29.744  28.056  1.00  0.00    -0.248 NA
ATOM     51  C   UNL A   1      46.683  30.118  27.162  1.00  0.00     0.031 C 
ATOM     52  C   UNL A   1      42.235  32.772  30.321  1.00  0.00     0.029 A 
ATOM     53  C   UNL A   1      42.976  31.843  29.610  1.00  0.00     0.049 A 
ATOM     54  H   UNL A   1      42.421  29.912  28.966  1.00  0.00     0.167 HD
ATOM     55  C   UNL A   1      44.984  31.017  28.413  1.00  0.00     0.074 A 
ATOM     56  C   UNL A   1      46.317  31.180  27.868  1.00  0.00     0.031 C 
ATOM     57  C   UNL A   1      44.321  31.972  29.108  1.00  0.00     0.034 A 
BRANCH  44  58
ATOM     58  C   UNL A   1      38.598  30.403  30.825  1.00  0.00     0.023 A 
ATOM     59  C   UNL A   1      38.487  30.173  32.210  1.00  0.00     0.012 A 
ATOM     60  C   UNL A   1      37.573  31.107  30.159  1.00  0.00     0.148 A 
ATOM     61  C   UNL A   1      37.365  30.612  32.916  1.00  0.00     0.002 A 
ATOM     62  C   UNL A   1      36.482  31.585  30.877  1.00  0.00     0.091 A 
ATOM     63  F   UNL A   1      37.688  31.305  28.838  1.00  0.00    -0.205 F 
ATOM     64  C   UNL A   1      36.371  31.329  32.253  1.00  0.00     0.022 A 
BRANCH  62  65
ATOM     65  S   UNL A   1      35.195  32.598  30.137  1.00  0.00     0.127 S 
ATOM     66  O   UNL A   1      34.688  31.711  29.090  1.00  0.00    -0.237 OA
ATOM     67  O   UNL A   1      34.279  32.800  31.259  1.00  0.00    -0.237 OA
ATOM     68  O   UNL A   1      35.854  33.806  29.662  1.00  0.00    -0.744 OA
ENDBRANCH  62  65
ENDBRANCH  44  58
BRANCH  45  69
ATOM     69  C   UNL A   1      46.856  27.401  26.031  1.00  0.00     0.023 A 
ATOM     70  C   UNL A   1      47.723  26.499  26.676  1.00  0.00     0.012 A 
ATOM     71  C   UNL A   1      47.137  27.789  24.704  1.00  0.00     0.148 A 
ATOM     72  C   UNL A   1      48.847  25.998  26.017  1.00  0.00     0.002 A 
ATOM     73  C   UNL A   1      48.215  27.229  24.030  1.00  0.00     0.091 A 
ATOM     74  F   UNL A   1      46.317  28.669  24.113  1.00  0.00    -0.205 F 
ATOM     75  C   UNL A   1      49.082  26.347  24.689  1.00  0.00     0.022 A 
BRANCH  73  76
ATOM     76  S   UNL A   1      48.490  27.489  22.272  1.00  0.00     0.127 S 
ATOM     77  O   UNL A   1      47.266  28.182  21.877  1.00  0.00    -0.237 OA
ATOM     78  O   UNL A   1      49.696  28.318  22.275  1.00  0.00    -0.237 OA
ATOM     79  O   UNL A   1      48.677  26.161  21.703  1.00  0.00    -0.744 OA
ENDBRANCH  73  76
ENDBRANCH  45  69
BRANCH  57  80
ATOM     80  C   UNL A   1      45.023  33.281  29.355  1.00  0.00     0.023 A 
ATOM     81  C   UNL A   1      45.835  33.433  30.496  1.00  0.00     0.012 A 
ATOM     82  C   UNL A   1      44.970  34.313  28.398  1.00  0.00     0.148 A 
ATOM     83  C   UNL A   1      46.569  34.602  30.690  1.00  0.00     0.002 A 
ATOM     84  C   UNL A   1      45.747  35.452  28.572  1.00  0.00     0.091 A 
ATOM     85  F   UNL A   1      44.178  34.153  27.328  1.00  0.00    -0.205 F 
ATOM     86  C   UNL A   1      46.538  35.603  29.722  1.00  0.00     0.022 A 
BRANCH  84  87
ATOM     87  S   UNL A   1      45.856  36.746  27.330  1.00  0.00     0.127 S 
ATOM     88  O   UNL A   1      44.459  37.159  27.206  1.00  0.00    -0.237 OA
ATOM     89  O   UNL A   1      46.726  37.726  27.982  1.00  0.00    -0.237 OA
ATOM     90  O   UNL A   1      46.426  36.122  26.144  1.00  0.00    -0.744 OA
ENDBRANCH  84  87
ENDBRANCH  57  80
ENDBRANCH  31  32
ENDBRANCH  24  26
ENDBRANCH  23  24
ENDBRANCH   1  23
TORSDOF 15
ENDMDL
MODEL 2
REMARK VINA RESULT:     -12.7      5.211     10.091
REMARK SMILES Cc1cc2c(c(C)c1Br)C=C(C(=O)OCCOC(=O)c1ccc(-c3c4nc(c(-c5cccc(S(=O)(=O)[O-])c5F)c5ccc([nH]5)c(-c5cccc(S(=O)(=O)[O-])c5F)c5nc(c(-c6cccc(S(=O)(=O)[O-])c6F)c6ccc3[nH]6)C=C5)C=C4)cc1)[C@@H](C(F)(F)F)O2
REMARK SMILES IDX 16 1 15 2 14 3 12 4 13 5 11 6 1 7 2 8 3 9 8 10 4 11 6 12
REMARK SMILES IDX 9 13 5 14 88 15 7 16 10 17 83 18 84 19 85 20 86 21 87 22
REMARK SMILES IDX 17 23 18 24 19 25 20 26 21 27 82 28 22 29 81 30 23 31 24 32
REMARK SMILES IDX 25 33 75 34 26 35 80 36 74 37 76 38 27 39 79 40 73 41 72 42
REMARK SMILES IDX 28 44 60 45 40 46 59 47 41 48 44 49 58 50 77 51 42 52 43 53
REMARK SMILES IDX 57 55 78 56 45 57 29 58 30 59 38 60 31 61 33 62 39 63 32 64
REMARK SMILES IDX 34 65 35 66 36 67 37 68 61 69 62 70 70 71 63 72 65 73 71 74
REMARK SMILES IDX 64 75 66 76 67 77 68 78 69 79 46 80 47 81 55 82 48 83 50 84
REMARK SMILES IDX 56 85 49 86 51 87 52 88 53 89 54 90
REMARK H PARENT 76 43 44 54
REMARK Flexibility Score: inf
ROOT
ATOM      1  C   UNL A   1      31.936  30.110  25.435  1.00  0.00     0.275 C 
ENDROOT
BRANCH   1   2
ATOM      2  C   UNL A   1      31.435  28.678  25.250  1.00  0.00     0.275 C 
BRANCH   2   3
ATOM      3  O   UNL A   1      32.413  27.714  25.700  1.00  0.00    -0.459 OA
BRANCH   3   4
ATOM      4  C   UNL A   1      33.191  27.178  24.732  1.00  0.00     0.338 C 
ATOM      5  O   UNL A   1      33.815  27.788  23.877  1.00  0.00    -0.246 OA
BRANCH   4   6
ATOM      6  C   UNL A   1      33.204  25.705  24.830  1.00  0.00     0.087 C 
ATOM      7  C   UNL A   1      34.323  19.320  24.625  1.00  0.00     0.046 C 
ATOM      8  C   UNL A   1      34.441  20.817  24.723  1.00  0.00    -0.033 A 
ATOM      9  C   UNL A   1      33.244  21.550  24.711  1.00  0.00     0.051 A 
ATOM     10  C   UNL A   1      35.661  21.507  24.877  1.00  0.00     0.024 A 
ATOM     11  C   UNL A   1      33.245  22.938  24.795  1.00  0.00     0.128 A 
ATOM     12  C   UNL A   1      35.685  22.922  24.948  1.00  0.00    -0.026 A 
ATOM     13  Br  UNL A   1      37.285  20.501  25.003  1.00  0.00    -0.050 Br
ATOM     14  C   UNL A   1      34.453  23.631  24.897  1.00  0.00     0.021 A 
ATOM     15  O   UNL A   1      32.009  23.527  24.788  1.00  0.00    -0.475 OA
ATOM     16  C   UNL A   1      36.978  23.694  25.100  1.00  0.00     0.046 C 
ATOM     17  C   UNL A   1      34.387  25.090  24.929  1.00  0.00     0.027 C 
ATOM     18  C   UNL A   1      31.911  24.970  24.674  1.00  0.00     0.316 C 
BRANCH  18  19
ATOM     19  C   UNL A   1      31.227  25.317  23.341  1.00  0.00     0.430 C 
ATOM     20  F   UNL A   1      30.442  24.298  22.912  1.00  0.00    -0.167 F 
ATOM     21  F   UNL A   1      30.416  26.397  23.461  1.00  0.00    -0.167 F 
ATOM     22  F   UNL A   1      32.115  25.583  22.359  1.00  0.00    -0.167 F 
ENDBRANCH  18  19
ENDBRANCH   4   6
ENDBRANCH   3   4
ENDBRANCH   2   3
ENDBRANCH   1   2
BRANCH   1  23
ATOM     23  O   UNL A   1      32.108  30.403  26.832  1.00  0.00    -0.458 OA
BRANCH  23  24
ATOM     24  C   UNL A   1      32.781  31.544  27.104  1.00  0.00     0.338 C 
ATOM     25  O   UNL A   1      32.348  32.683  27.075  1.00  0.00    -0.246 OA
BRANCH  24  26
ATOM     26  C   UNL A   1      34.143  31.224  27.554  1.00  0.00     0.060 A 
ATOM     27  C   UNL A   1      34.455  29.895  27.798  1.00  0.00     0.016 A 
ATOM     28  C   UNL A   1      35.043  32.227  27.908  1.00  0.00     0.016 A 
ATOM     29  C   UNL A   1      35.583  29.572  28.541  1.00  0.00     0.010 A 
ATOM     30  C   UNL A   1      36.257  31.879  28.519  1.00  0.00     0.010 A 
ATOM     31  C   UNL A   1      36.521  30.551  28.898  1.00  0.00    -0.014 A 
BRANCH  31  32
ATOM     32  C   UNL A   1      37.746  30.167  29.670  1.00  0.00     0.031 A 
ATOM     33  C   UNL A   1      38.810  29.290  29.051  1.00  0.00     0.074 A 
ATOM     34  C   UNL A   1      37.928  30.632  30.927  1.00  0.00     0.049 A 
ATOM     35  N   UNL A   1      39.860  28.746  29.614  1.00  0.00    -0.248 NA
ATOM     36  C   UNL A   1      38.673  28.964  27.621  1.00  0.00     0.031 C 
ATOM     37  C   UNL A   1      36.998  31.503  31.649  1.00  0.00     0.029 A 
ATOM     38  N   UNL A   1      38.960  30.455  31.817  1.00  0.00    -0.354 N 
ATOM     39  C   UNL A   1      40.458  27.957  28.637  1.00  0.00     0.074 A 
ATOM     40  C   UNL A   1      39.657  28.093  27.441  1.00  0.00     0.031 C 
ATOM     41  C   UNL A   1      37.531  31.847  32.828  1.00  0.00     0.029 A 
ATOM     42  C   UNL A   1      38.779  31.119  33.011  1.00  0.00     0.049 A 
ATOM     43  H   UNL A   1      39.753  29.905  31.621  1.00  0.00     0.167 HD
ATOM     44  C   UNL A   1      41.578  27.199  28.724  1.00  0.00     0.034 A 
ATOM     45  C   UNL A   1      39.500  31.115  34.150  1.00  0.00     0.034 A 
ATOM     46  C   UNL A   1      42.418  27.135  29.892  1.00  0.00     0.049 A 
ATOM     47  C   UNL A   1      40.731  30.261  34.224  1.00  0.00     0.074 A 
ATOM     48  C   UNL A   1      43.589  26.417  30.066  1.00  0.00     0.029 A 
ATOM     49  N   UNL A   1      42.195  27.826  31.072  1.00  0.00    -0.354 N 
ATOM     50  N   UNL A   1      41.280  29.528  33.286  1.00  0.00    -0.248 NA
ATOM     51  C   UNL A   1      41.446  30.229  35.507  1.00  0.00     0.031 C 
ATOM     52  C   UNL A   1      44.059  26.654  31.360  1.00  0.00     0.029 A 
ATOM     53  C   UNL A   1      43.202  27.547  31.981  1.00  0.00     0.049 A 
ATOM     54  H   UNL A   1      41.433  28.426  31.240  1.00  0.00     0.167 HD
ATOM     55  C   UNL A   1      42.412  28.962  33.857  1.00  0.00     0.074 A 
ATOM     56  C   UNL A   1      42.487  29.460  35.216  1.00  0.00     0.031 C 
ATOM     57  C   UNL A   1      43.294  28.091  33.313  1.00  0.00     0.034 A 
BRANCH  44  58
ATOM     58  C   UNL A   1      41.996  26.391  27.518  1.00  0.00     0.023 A 
ATOM     59  C   UNL A   1      42.793  26.980  26.518  1.00  0.00     0.012 A 
ATOM     60  C   UNL A   1      41.685  25.017  27.431  1.00  0.00     0.148 A 
ATOM     61  C   UNL A   1      43.254  26.225  25.438  1.00  0.00     0.002 A 
ATOM     62  C   UNL A   1      42.187  24.260  26.378  1.00  0.00     0.091 A 
ATOM     63  F   UNL A   1      40.913  24.475  28.384  1.00  0.00    -0.205 F 
ATOM     64  C   UNL A   1      42.962  24.864  25.376  1.00  0.00     0.022 A 
BRANCH  62  65
ATOM     65  S   UNL A   1      41.948  22.482  26.256  1.00  0.00     0.127 S 
ATOM     66  O   UNL A   1      40.491  22.385  26.183  1.00  0.00    -0.237 OA
ATOM     67  O   UNL A   1      42.643  22.164  25.008  1.00  0.00    -0.237 OA
ATOM     68  O   UNL A   1      42.550  21.910  27.452  1.00  0.00    -0.744 OA
ENDBRANCH  62  65
ENDBRANCH  44  58
BRANCH  45  69
ATOM     69  C   UNL A   1      39.069  31.961  35.302  1.00  0.00     0.023 A 
ATOM     70  C   UNL A   1      38.221  31.414  36.284  1.00  0.00     0.012 A 
ATOM     71  C   UNL A   1      39.555  33.275  35.473  1.00  0.00     0.148 A 
ATOM     72  C   UNL A   1      37.862  32.159  37.409  1.00  0.00     0.002 A 
ATOM     73  C   UNL A   1      39.253  33.982  36.630  1.00  0.00     0.091 A 
ATOM     74  F   UNL A   1      40.339  33.791  34.516  1.00  0.00    -0.205 F 
ATOM     75  C   UNL A   1      38.392  33.434  37.591  1.00  0.00     0.022 A 
BRANCH  73  76
ATOM     76  S   UNL A   1      40.028  35.555  37.026  1.00  0.00     0.127 S 
ATOM     77  O   UNL A   1      39.660  36.369  35.870  1.00  0.00    -0.237 OA
ATOM     78  O   UNL A   1      39.357  35.916  38.275  1.00  0.00    -0.237 OA
ATOM     79  O   UNL A   1      41.449  35.268  37.171  1.00  0.00    -0.744 OA
ENDBRANCH  73  76
ENDBRANCH  45  69
BRANCH  57  80
ATOM     80  C   UNL A   1      44.446  27.627  34.165  1.00  0.00     0.023 A 
ATOM     81  C   UNL A   1      45.616  28.408  34.242  1.00  0.00     0.012 A 
ATOM     82  C   UNL A   1      44.320  26.483  34.977  1.00  0.00     0.148 A 
ATOM     83  C   UNL A   1      46.652  28.046  35.101  1.00  0.00     0.002 A 
ATOM     84  C   UNL A   1      45.335  26.159  35.870  1.00  0.00     0.091 A 
ATOM     85  F   UNL A   1      43.205  25.747  34.876  1.00  0.00    -0.205 F 
ATOM     86  C   UNL A   1      46.506  26.932  35.925  1.00  0.00     0.022 A 
BRANCH  84  87
ATOM     87  S   UNL A   1      45.192  24.809  37.047  1.00  0.00     0.127 S 
ATOM     88  O   UNL A   1      46.402  24.984  37.849  1.00  0.00    -0.237 OA
ATOM     89  O   UNL A   1      43.947  25.136  37.742  1.00  0.00    -0.237 OA
ATOM     90  O   UNL A   1      45.144  23.586  36.256  1.00  0.00    -0.744 OA
ENDBRANCH  84  87
ENDBRANCH  57  80
ENDBRANCH  31  32
ENDBRANCH  24  26
ENDBRANCH  23  24
ENDBRANCH   1  23
TORSDOF 15
ENDMDL
MODEL 3
REMARK VINA RESULT:     -12.6      4.261      6.775
REMARK SMILES Cc1cc2c(c(C)c1Br)C=C(C(=O)OCCOC(=O)c1ccc(-c3c4nc(c(-c5cccc(S(=O)(=O)[O-])c5F)c5ccc([nH]5)c(-c5cccc(S(=O)(=O)[O-])c5F)c5nc(c(-c6cccc(S(=O)(=O)[O-])c6F)c6ccc3[nH]6)C=C5)C=C4)cc1)[C@@H](C(F)(F)F)O2
REMARK SMILES IDX 16 1 15 2 14 3 12 4 13 5 11 6 1 7 2 8 3 9 8 10 4 11 6 12
REMARK SMILES IDX 9 13 5 14 88 15 7 16 10 17 83 18 84 19 85 20 86 21 87 22
REMARK SMILES IDX 17 23 18 24 19 25 20 26 21 27 82 28 22 29 81 30 23 31 24 32
REMARK SMILES IDX 25 33 75 34 26 35 80 36 74 37 76 38 27 39 79 40 73 41 72 42
REMARK SMILES IDX 28 44 60 45 40 46 59 47 41 48 44 49 58 50 77 51 42 52 43 53
REMARK SMILES IDX 57 55 78 56 45 57 29 58 30 59 38 60 31 61 33 62 39 63 32 64
REMARK SMILES IDX 34 65 35 66 36 67 37 68 61 69 62 70 70 71 63 72 65 73 71 74
REMARK SMILES IDX 64 75 66 76 67 77 68 78 69 79 46 80 47 81 55 82 48 83 50 84
REMARK SMILES IDX 56 85 49 86 51 87 52 88 53 89 54 90
REMARK H PARENT 76 43 44 54
REMARK Flexibility Score: inf
ROOT
ATOM      1  C   UNL A   1      40.924  20.082  26.102  1.00  0.00     0.275 C 
ENDROOT
BRANCH   1   2
ATOM      2  C   UNL A   1      42.279  19.873  26.777  1.00  0.00     0.275 C 
BRANCH   2   3
ATOM      3  O   UNL A   1      43.357  20.402  25.972  1.00  0.00    -0.459 OA
BRANCH   3   4
ATOM      4  C   UNL A   1      43.312  21.734  25.742  1.00  0.00     0.338 C 
ATOM      5  O   UNL A   1      42.479  22.332  25.078  1.00  0.00    -0.246 OA
BRANCH   4   6
ATOM      6  C   UNL A   1      44.433  22.417  26.417  1.00  0.00     0.087 C 
ATOM      7  C   UNL A   1      48.481  26.186  29.806  1.00  0.00     0.046 C 
ATOM      8  C   UNL A   1      47.315  25.367  29.320  1.00  0.00    -0.033 A 
ATOM      9  C   UNL A   1      47.489  24.665  28.117  1.00  0.00     0.051 A 
ATOM     10  C   UNL A   1      46.099  25.228  30.021  1.00  0.00     0.024 A 
ATOM     11  C   UNL A   1      46.471  23.882  27.583  1.00  0.00     0.128 A 
ATOM     12  C   UNL A   1      45.044  24.447  29.486  1.00  0.00    -0.026 A 
ATOM     13  Br  UNL A   1      45.901  26.097  31.715  1.00  0.00    -0.050 Br
ATOM     14  C   UNL A   1      45.246  23.780  28.247  1.00  0.00     0.021 A 
ATOM     15  O   UNL A   1      46.778  23.240  26.414  1.00  0.00    -0.475 OA
ATOM     16  C   UNL A   1      43.722  24.287  30.206  1.00  0.00     0.046 C 
ATOM     17  C   UNL A   1      44.203  22.984  27.606  1.00  0.00     0.027 C 
ATOM     18  C   UNL A   1      45.726  22.562  25.679  1.00  0.00     0.316 C 
BRANCH  18  19
ATOM     19  C   UNL A   1      45.525  23.272  24.330  1.00  0.00     0.430 C 
ATOM     20  F   UNL A   1      46.713  23.624  23.779  1.00  0.00    -0.167 F 
ATOM     21  F   UNL A   1      44.911  22.469  23.429  1.00  0.00    -0.167 F 
ATOM     22  F   UNL A   1      44.785  24.396  24.444  1.00  0.00    -0.167 F 
ENDBRANCH  18  19
ENDBRANCH   4   6
ENDBRANCH   3   4
ENDBRANCH   2   3
ENDBRANCH   1   2
BRANCH   1  23
ATOM     23  O   UNL A   1      40.055  20.849  26.951  1.00  0.00    -0.458 OA
BRANCH  23  24
ATOM     24  C   UNL A   1      39.373  21.841  26.333  1.00  0.00     0.338 C 
ATOM     25  O   UNL A   1      38.529  21.727  25.461  1.00  0.00    -0.246 OA
BRANCH  24  26
ATOM     26  C   UNL A   1      39.720  23.135  26.937  1.00  0.00     0.060 A 
ATOM     27  C   UNL A   1      39.313  24.290  26.285  1.00  0.00     0.016 A 
ATOM     28  C   UNL A   1      40.587  23.217  28.024  1.00  0.00     0.016 A 
ATOM     29  C   UNL A   1      39.895  25.510  26.607  1.00  0.00     0.010 A 
ATOM     30  C   UNL A   1      41.049  24.474  28.443  1.00  0.00     0.010 A 
ATOM     31  C   UNL A   1      40.756  25.635  27.706  1.00  0.00    -0.014 A 
BRANCH  31  32
ATOM     32  C   UNL A   1      41.341  26.971  28.049  1.00  0.00     0.031 A 
ATOM     33  C   UNL A   1      40.545  27.988  28.834  1.00  0.00     0.074 A 
ATOM     34  C   UNL A   1      42.609  27.269  27.684  1.00  0.00     0.049 A 
ATOM     35  N   UNL A   1      40.838  29.237  29.098  1.00  0.00    -0.248 NA
ATOM     36  C   UNL A   1      39.247  27.558  29.380  1.00  0.00     0.031 C 
ATOM     37  C   UNL A   1      43.506  26.381  26.940  1.00  0.00     0.029 A 
ATOM     38  N   UNL A   1      43.374  28.390  27.899  1.00  0.00    -0.354 N 
ATOM     39  C   UNL A   1      39.734  29.760  29.765  1.00  0.00     0.074 A 
ATOM     40  C   UNL A   1      38.764  28.693  29.870  1.00  0.00     0.031 C 
ATOM     41  C   UNL A   1      44.712  26.952  26.831  1.00  0.00     0.029 A 
ATOM     42  C   UNL A   1      44.645  28.301  27.377  1.00  0.00     0.049 A 
ATOM     43  H   UNL A   1      43.043  29.183  28.381  1.00  0.00     0.167 HD
ATOM     44  C   UNL A   1      39.550  31.010  30.256  1.00  0.00     0.034 A 
ATOM     45  C   UNL A   1      45.640  29.207  27.294  1.00  0.00     0.034 A 
ATOM     46  C   UNL A   1      40.553  32.043  30.222  1.00  0.00     0.049 A 
ATOM     47  C   UNL A   1      45.408  30.587  27.837  1.00  0.00     0.074 A 
ATOM     48  C   UNL A   1      40.471  33.333  30.719  1.00  0.00     0.029 A 
ATOM     49  N   UNL A   1      41.824  31.903  29.686  1.00  0.00    -0.354 N 
ATOM     50  N   UNL A   1      44.360  31.056  28.467  1.00  0.00    -0.248 NA
ATOM     51  C   UNL A   1      46.491  31.564  27.660  1.00  0.00     0.031 C 
ATOM     52  C   UNL A   1      41.681  33.980  30.459  1.00  0.00     0.029 A 
ATOM     53  C   UNL A   1      42.532  33.084  29.832  1.00  0.00     0.049 A 
ATOM     54  H   UNL A   1      42.171  31.085  29.262  1.00  0.00     0.167 HD
ATOM     55  C   UNL A   1      44.661  32.375  28.779  1.00  0.00     0.074 A 
ATOM     56  C   UNL A   1      46.003  32.623  28.293  1.00  0.00     0.031 C 
ATOM     57  C   UNL A   1      43.886  33.302  29.391  1.00  0.00     0.034 A 
BRANCH  44  58
ATOM     58  C   UNL A   1      38.227  31.341  30.905  1.00  0.00     0.023 A 
ATOM     59  C   UNL A   1      38.055  31.147  32.289  1.00  0.00     0.012 A 
ATOM     60  C   UNL A   1      37.192  31.943  30.159  1.00  0.00     0.148 A 
ATOM     61  C   UNL A   1      36.867  31.523  32.917  1.00  0.00     0.002 A 
ATOM     62  C   UNL A   1      36.030  32.360  30.800  1.00  0.00     0.091 A 
ATOM     63  F   UNL A   1      37.367  32.108  28.840  1.00  0.00    -0.205 F 
ATOM     64  C   UNL A   1      35.861  32.140  32.176  1.00  0.00     0.022 A 
BRANCH  62  65
ATOM     65  S   UNL A   1      34.716  33.249  29.955  1.00  0.00     0.127 S 
ATOM     66  O   UNL A   1      34.139  32.197  29.119  1.00  0.00    -0.237 OA
ATOM     67  O   UNL A   1      33.868  33.675  31.069  1.00  0.00    -0.237 OA
ATOM     68  O   UNL A   1      35.363  34.334  29.231  1.00  0.00    -0.744 OA
ENDBRANCH  62  65
ENDBRANCH  44  58
BRANCH  45  69
ATOM     69  C   UNL A   1      46.944  28.821  26.679  1.00  0.00     0.023 A 
ATOM     70  C   UNL A   1      48.071  28.636  27.503  1.00  0.00     0.012 A 
ATOM     71  C   UNL A   1      47.058  28.560  25.297  1.00  0.00     0.148 A 
ATOM     72  C   UNL A   1      49.284  28.205  26.963  1.00  0.00     0.002 A 
ATOM     73  C   UNL A   1      48.247  28.061  24.780  1.00  0.00     0.091 A 
ATOM     74  F   UNL A   1      45.984  28.767  24.521  1.00  0.00    -0.205 F 
ATOM     75  C   UNL A   1      49.367  27.900  25.607  1.00  0.00     0.022 A 
BRANCH  73  76
ATOM     76  S   UNL A   1      48.389  27.479  23.085  1.00  0.00     0.127 S 
ATOM     77  O   UNL A   1      47.340  28.246  22.416  1.00  0.00    -0.237 OA
ATOM     78  O   UNL A   1      49.755  27.876  22.743  1.00  0.00    -0.237 OA
ATOM     79  O   UNL A   1      48.179  26.039  23.144  1.00  0.00    -0.744 OA
ENDBRANCH  73  76
ENDBRANCH  45  69
BRANCH  57  80
ATOM     80  C   UNL A   1      44.465  34.675  29.605  1.00  0.00     0.023 A 
ATOM     81  C   UNL A   1      45.172  34.958  30.791  1.00  0.00     0.012 A 
ATOM     82  C   UNL A   1      44.408  35.644  28.583  1.00  0.00     0.148 A 
ATOM     83  C   UNL A   1      45.799  36.192  30.963  1.00  0.00     0.002 A 
ATOM     84  C   UNL A   1      45.080  36.849  28.740  1.00  0.00     0.091 A 
ATOM     85  F   UNL A   1      43.717  35.358  27.470  1.00  0.00    -0.205 F 
ATOM     86  C   UNL A   1      45.766  37.130  29.933  1.00  0.00     0.022 A 
BRANCH  84  87
ATOM     87  S   UNL A   1      45.187  38.075  27.430  1.00  0.00     0.127 S 
ATOM     88  O   UNL A   1      45.811  39.200  28.126  1.00  0.00    -0.237 OA
ATOM     89  O   UNL A   1      46.049  37.408  26.454  1.00  0.00    -0.237 OA
ATOM     90  O   UNL A   1      43.822  38.304  26.979  1.00  0.00    -0.744 OA
ENDBRANCH  84  87
ENDBRANCH  57  80
ENDBRANCH  31  32
ENDBRANCH  24  26
ENDBRANCH  23  24
ENDBRANCH   1  23
TORSDOF 15
ENDMDL
