MODEL 1
REMARK VINA RESULT:     -12.7      0.000      0.000
REMARK SMILES Cc1c(C(=O)N[C@H]2C=C[C@@H](C(=O)OCCOC(=O)c3ccc(-c4c5nc(c(-c6cccc(S(=O)(=O)[O-])c6F)c6ccc([nH]6)c(-c6cccc(S(=O)(=O)[O-])c6F)c6nc(c(-c7cccc(S(=O)(=O)[O-])c7F)c7ccc4[nH]7)C=C6)C=C5)cc3)C2)oc2ccccc12
REMARK SMILES IDX 15 1 14 2 13 3 11 4 12 5 10 6 7 7 8 8 82 9 9 10 6 11 4 12
REMARK SMILES IDX 5 13 3 15 1 16 2 17 89 18 83 19 84 20 88 21 85 22 87 23
REMARK SMILES IDX 86 24 16 25 17 26 18 27 19 28 20 29 81 30 21 31 80 32 22 33
REMARK SMILES IDX 23 34 24 35 74 36 25 37 79 38 73 39 75 40 26 41 78 42 72 43
REMARK SMILES IDX 71 44 27 46 59 47 39 48 58 49 40 50 43 51 57 52 76 53 41 54
REMARK SMILES IDX 42 55 56 57 77 58 44 59 28 60 29 61 37 62 30 63 32 64 38 65
REMARK SMILES IDX 31 66 33 67 34 68 35 69 36 70 60 71 61 72 69 73 62 74 64 75
REMARK SMILES IDX 70 76 63 77 65 78 66 79 67 80 68 81 45 82 46 83 54 84 47 85
REMARK SMILES IDX 49 86 55 87 48 88 50 89 51 90 52 91 53 92
REMARK H PARENT 6 14 75 45 43 56
REMARK Flexibility Score: inf
ROOT
ATOM      1  C   UNL A   1      37.481  20.068  24.658  1.00  0.00     0.275 C 
ENDROOT
BRANCH   1   2
ATOM      2  C   UNL A   1      36.125  19.416  24.938  1.00  0.00     0.274 C 
BRANCH   2   3
ATOM      3  O   UNL A   1      35.099  20.412  25.127  1.00  0.00    -0.462 OA
BRANCH   3   4
ATOM      4  C   UNL A   1      33.829  19.995  24.909  1.00  0.00     0.312 C 
ATOM      5  O   UNL A   1      33.389  18.899  25.240  1.00  0.00    -0.252 OA
BRANCH   4   6
ATOM      6  C   UNL A   1      32.963  21.005  24.183  1.00  0.00     0.124 C 
ATOM      7  C   UNL A   1      32.469  22.833  22.793  1.00  0.00     0.106 C 
ATOM      8  C   UNL A   1      32.048  21.571  22.104  1.00  0.00    -0.006 C 
ATOM      9  C   UNL A   1      33.606  22.280  23.654  1.00  0.00     0.048 C 
ATOM     10  C   UNL A   1      32.287  20.526  22.921  1.00  0.00    -0.014 C 
BRANCH   7  11
ATOM     11  N   UNL A   1      32.857  23.891  21.933  1.00  0.00    -0.343 N 
ATOM     12  C   UNL A   1      32.900  25.251  22.178  1.00  0.00     0.287 C 
ATOM     13  O   UNL A   1      33.301  25.904  21.205  1.00  0.00    -0.266 OA
ATOM     14  H   UNL A   1      33.137  23.618  21.028  1.00  0.00     0.164 HD
BRANCH  12  15
ATOM     15  C   UNL A   1      32.480  25.912  23.428  1.00  0.00     0.195 A 
ATOM     16  C   UNL A   1      29.957  25.575  24.157  1.00  0.00     0.049 C 
ATOM     17  C   UNL A   1      31.344  26.090  24.235  1.00  0.00     0.008 A 
ATOM     18  C   UNL A   1      31.738  26.906  25.350  1.00  0.00     0.024 A 
ATOM     19  O   UNL A   1      33.532  26.562  24.060  1.00  0.00    -0.451 OA
ATOM     20  C   UNL A   1      33.089  27.135  25.203  1.00  0.00     0.135 A 
ATOM     21  C   UNL A   1      31.083  27.434  26.480  1.00  0.00     0.012 A 
ATOM     22  C   UNL A   1      33.862  27.848  26.116  1.00  0.00     0.048 A 
ATOM     23  C   UNL A   1      31.826  28.158  27.418  1.00  0.00     0.001 A 
ATOM     24  C   UNL A   1      33.196  28.354  27.240  1.00  0.00     0.004 A 
ENDBRANCH  12  15
ENDBRANCH   7  11
ENDBRANCH   4   6
ENDBRANCH   3   4
ENDBRANCH   2   3
ENDBRANCH   1   2
BRANCH   1  25
ATOM     25  O   UNL A   1      37.865  21.002  25.686  1.00  0.00    -0.458 OA
BRANCH  25  26
ATOM     26  C   UNL A   1      39.146  20.897  26.102  1.00  0.00     0.338 C 
ATOM     27  O   UNL A   1      39.858  19.904  26.042  1.00  0.00    -0.246 OA
BRANCH  26  28
ATOM     28  C   UNL A   1      39.646  22.191  26.588  1.00  0.00     0.060 A 
ATOM     29  C   UNL A   1      39.040  23.354  26.105  1.00  0.00     0.016 A 
ATOM     30  C   UNL A   1      40.771  22.270  27.410  1.00  0.00     0.016 A 
ATOM     31  C   UNL A   1      39.584  24.603  26.404  1.00  0.00     0.010 A 
ATOM     32  C   UNL A   1      41.300  23.526  27.732  1.00  0.00     0.010 A 
ATOM     33  C   UNL A   1      40.726  24.700  27.211  1.00  0.00    -0.014 A 
BRANCH  33  34
ATOM     34  C   UNL A   1      41.323  26.028  27.507  1.00  0.00     0.031 A 
ATOM     35  C   UNL A   1      42.715  26.362  27.046  1.00  0.00     0.074 A 
ATOM     36  C   UNL A   1      40.619  26.930  28.218  1.00  0.00     0.049 A 
ATOM     37  N   UNL A   1      43.411  27.452  27.245  1.00  0.00    -0.248 NA
ATOM     38  C   UNL A   1      43.420  25.334  26.264  1.00  0.00     0.031 C 
ATOM     39  C   UNL A   1      39.264  26.726  28.730  1.00  0.00     0.029 A 
ATOM     40  N   UNL A   1      40.953  28.190  28.646  1.00  0.00    -0.354 N 
ATOM     41  C   UNL A   1      44.648  27.230  26.652  1.00  0.00     0.074 A 
ATOM     42  C   UNL A   1      44.608  25.896  26.088  1.00  0.00     0.031 C 
ATOM     43  C   UNL A   1      38.882  27.822  29.405  1.00  0.00     0.029 A 
ATOM     44  C   UNL A   1      39.976  28.789  29.405  1.00  0.00     0.049 A 
ATOM     45  H   UNL A   1      41.811  28.624  28.431  1.00  0.00     0.167 HD
ATOM     46  C   UNL A   1      45.714  28.062  26.569  1.00  0.00     0.034 A 
ATOM     47  C   UNL A   1      39.966  29.976  30.042  1.00  0.00     0.034 A 
ATOM     48  C   UNL A   1      45.741  29.403  27.094  1.00  0.00     0.049 A 
ATOM     49  C   UNL A   1      41.168  30.875  29.947  1.00  0.00     0.074 A 
ATOM     50  C   UNL A   1      46.745  30.348  26.989  1.00  0.00     0.029 A 
ATOM     51  N   UNL A   1      44.722  29.984  27.833  1.00  0.00    -0.354 N 
ATOM     52  N   UNL A   1      42.277  30.700  29.272  1.00  0.00    -0.248 NA
ATOM     53  C   UNL A   1      41.107  32.145  30.685  1.00  0.00     0.031 C 
ATOM     54  C   UNL A   1      46.343  31.496  27.683  1.00  0.00     0.029 A 
ATOM     55  C   UNL A   1      45.080  31.270  28.207  1.00  0.00     0.049 A 
ATOM     56  H   UNL A   1      43.868  29.548  28.060  1.00  0.00     0.167 HD
ATOM     57  C   UNL A   1      43.032  31.851  29.474  1.00  0.00     0.074 A 
ATOM     58  C   UNL A   1      42.245  32.722  30.323  1.00  0.00     0.031 C 
ATOM     59  C   UNL A   1      44.270  32.151  29.010  1.00  0.00     0.034 A 
BRANCH  46  60
ATOM     60  C   UNL A   1      46.938  27.557  25.853  1.00  0.00     0.023 A 
ATOM     61  C   UNL A   1      47.882  26.777  26.552  1.00  0.00     0.012 A 
ATOM     62  C   UNL A   1      47.136  27.814  24.482  1.00  0.00     0.148 A 
ATOM     63  C   UNL A   1      49.021  26.291  25.907  1.00  0.00     0.002 A 
ATOM     64  C   UNL A   1      48.254  27.295  23.837  1.00  0.00     0.091 A 
ATOM     65  F   UNL A   1      46.243  28.578  23.838  1.00  0.00    -0.205 F 
ATOM     66  C   UNL A   1      49.201  26.543  24.549  1.00  0.00     0.022 A 
BRANCH  64  67
ATOM     67  S   UNL A   1      48.523  27.512  22.074  1.00  0.00     0.127 S 
ATOM     68  O   UNL A   1      49.754  28.302  22.057  1.00  0.00    -0.237 OA
ATOM     69  O   UNL A   1      48.679  26.134  21.606  1.00  0.00    -0.237 OA
ATOM     70  O   UNL A   1      47.331  28.184  21.575  1.00  0.00    -0.744 OA
ENDBRANCH  64  67
ENDBRANCH  46  60
BRANCH  47  71
ATOM     71  C   UNL A   1      38.743  30.410  30.773  1.00  0.00     0.023 A 
ATOM     72  C   UNL A   1      38.652  30.166  32.158  1.00  0.00     0.012 A 
ATOM     73  C   UNL A   1      37.699  31.096  30.125  1.00  0.00     0.148 A 
ATOM     74  C   UNL A   1      37.535  30.586  32.881  1.00  0.00     0.002 A 
ATOM     75  C   UNL A   1      36.612  31.556  30.860  1.00  0.00     0.091 A 
ATOM     76  F   UNL A   1      37.799  31.303  28.803  1.00  0.00    -0.205 F 
ATOM     77  C   UNL A   1      36.523  31.290  32.235  1.00  0.00     0.022 A 
BRANCH  75  78
ATOM     78  S   UNL A   1      35.323  32.581  30.142  1.00  0.00     0.127 S 
ATOM     79  O   UNL A   1      34.831  31.729  29.063  1.00  0.00    -0.237 OA
ATOM     80  O   UNL A   1      34.404  32.743  31.269  1.00  0.00    -0.237 OA
ATOM     81  O   UNL A   1      35.985  33.810  29.724  1.00  0.00    -0.744 OA
ENDBRANCH  75  78
ENDBRANCH  47  71
BRANCH  59  82
ATOM     82  C   UNL A   1      44.851  33.490  29.384  1.00  0.00     0.023 A 
ATOM     83  C   UNL A   1      45.672  33.599  30.524  1.00  0.00     0.012 A 
ATOM     84  C   UNL A   1      44.642  34.623  28.573  1.00  0.00     0.148 A 
ATOM     85  C   UNL A   1      46.254  34.820  30.865  1.00  0.00     0.002 A 
ATOM     86  C   UNL A   1      45.261  35.825  28.895  1.00  0.00     0.091 A 
ATOM     87  F   UNL A   1      43.839  34.506  27.505  1.00  0.00    -0.205 F 
ATOM     88  C   UNL A   1      46.059  35.929  30.046  1.00  0.00     0.022 A 
BRANCH  86  89
ATOM     89  S   UNL A   1      45.136  37.279  27.844  1.00  0.00     0.127 S 
ATOM     90  O   UNL A   1      45.682  36.782  26.582  1.00  0.00    -0.237 OA
ATOM     91  O   UNL A   1      43.695  37.531  27.827  1.00  0.00    -0.237 OA
ATOM     92  O   UNL A   1      45.920  38.315  28.504  1.00  0.00    -0.744 OA
ENDBRANCH  86  89
ENDBRANCH  59  82
ENDBRANCH  33  34
ENDBRANCH  26  28
ENDBRANCH  25  26
ENDBRANCH   1  25
TORSDOF 16
ENDMDL
MODEL 2
REMARK VINA RESULT:     -12.4      1.688      7.737
REMARK SMILES Cc1c(C(=O)N[C@H]2C=C[C@@H](C(=O)OCCOC(=O)c3ccc(-c4c5nc(c(-c6cccc(S(=O)(=O)[O-])c6F)c6ccc([nH]6)c(-c6cccc(S(=O)(=O)[O-])c6F)c6nc(c(-c7cccc(S(=O)(=O)[O-])c7F)c7ccc4[nH]7)C=C6)C=C5)cc3)C2)oc2ccccc12
REMARK SMILES IDX 15 1 14 2 13 3 11 4 12 5 10 6 7 7 8 8 82 9 9 10 6 11 4 12
REMARK SMILES IDX 5 13 3 15 1 16 2 17 89 18 83 19 84 20 88 21 85 22 87 23
REMARK SMILES IDX 86 24 16 25 17 26 18 27 19 28 20 29 81 30 21 31 80 32 22 33
REMARK SMILES IDX 23 34 24 35 74 36 25 37 79 38 73 39 75 40 26 41 78 42 72 43
REMARK SMILES IDX 71 44 27 46 59 47 39 48 58 49 40 50 43 51 57 52 76 53 41 54
REMARK SMILES IDX 42 55 56 57 77 58 44 59 28 60 29 61 37 62 30 63 32 64 38 65
REMARK SMILES IDX 31 66 33 67 34 68 35 69 36 70 60 71 61 72 69 73 62 74 64 75
REMARK SMILES IDX 70 76 63 77 65 78 66 79 67 80 68 81 45 82 46 83 54 84 47 85
REMARK SMILES IDX 49 86 55 87 48 88 50 89 51 90 52 91 53 92
REMARK H PARENT 6 14 75 45 43 56
REMARK Flexibility Score: inf
ROOT
ATOM      1  C   UNL A   1      37.206  19.753  24.968  1.00  0.00     0.275 C 
ENDROOT
BRANCH   1   2
ATOM      2  C   UNL A   1      35.689  19.952  25.007  1.00  0.00     0.274 C 
BRANCH   2   3
ATOM      3  O   UNL A   1      35.352  21.304  25.379  1.00  0.00    -0.462 OA
BRANCH   3   4
ATOM      4  C   UNL A   1      34.097  21.485  25.856  1.00  0.00     0.312 C 
ATOM      5  O   UNL A   1      33.724  21.155  26.977  1.00  0.00    -0.252 OA
BRANCH   4   6
ATOM      6  C   UNL A   1      33.147  22.130  24.867  1.00  0.00     0.124 C 
ATOM      7  C   UNL A   1      32.488  23.236  22.903  1.00  0.00     0.106 C 
ATOM      8  C   UNL A   1      32.020  21.814  22.840  1.00  0.00    -0.006 C 
ATOM      9  C   UNL A   1      33.713  23.057  23.800  1.00  0.00     0.048 C 
ATOM     10  C   UNL A   1      32.356  21.192  23.987  1.00  0.00    -0.014 C 
BRANCH   7  11
ATOM     11  N   UNL A   1      32.770  23.836  21.650  1.00  0.00    -0.343 N 
ATOM     12  C   UNL A   1      32.723  25.168  21.284  1.00  0.00     0.287 C 
ATOM     13  O   UNL A   1      33.045  25.355  20.102  1.00  0.00    -0.266 OA
ATOM     14  H   UNL A   1      33.040  23.213  20.936  1.00  0.00     0.164 HD
BRANCH  12  15
ATOM     15  C   UNL A   1      32.297  26.282  22.151  1.00  0.00     0.195 A 
ATOM     16  C   UNL A   1      33.773  26.745  24.300  1.00  0.00     0.049 C 
ATOM     17  C   UNL A   1      32.654  26.929  23.347  1.00  0.00     0.008 A 
ATOM     18  C   UNL A   1      31.707  27.988  23.556  1.00  0.00     0.024 A 
ATOM     19  O   UNL A   1      31.198  26.960  21.637  1.00  0.00    -0.451 OA
ATOM     20  C   UNL A   1      30.864  27.976  22.466  1.00  0.00     0.135 A 
ATOM     21  C   UNL A   1      31.514  28.971  24.548  1.00  0.00     0.012 A 
ATOM     22  C   UNL A   1      29.833  28.892  22.268  1.00  0.00     0.048 A 
ATOM     23  C   UNL A   1      30.488  29.907  24.384  1.00  0.00     0.001 A 
ATOM     24  C   UNL A   1      29.666  29.869  23.257  1.00  0.00     0.004 A 
ENDBRANCH  12  15
ENDBRANCH   7  11
ENDBRANCH   4   6
ENDBRANCH   3   4
ENDBRANCH   2   3
ENDBRANCH   1   2
BRANCH   1  25
ATOM     25  O   UNL A   1      37.926  20.934  25.372  1.00  0.00    -0.458 OA
BRANCH  25  26
ATOM     26  C   UNL A   1      39.096  20.698  26.006  1.00  0.00     0.338 C 
ATOM     27  O   UNL A   1      39.683  19.628  26.091  1.00  0.00    -0.246 OA
BRANCH  26  28
ATOM     28  C   UNL A   1      39.660  21.945  26.545  1.00  0.00     0.060 A 
ATOM     29  C   UNL A   1      39.085  23.154  26.144  1.00  0.00     0.016 A 
ATOM     30  C   UNL A   1      40.810  21.937  27.335  1.00  0.00     0.016 A 
ATOM     31  C   UNL A   1      39.684  24.364  26.492  1.00  0.00     0.010 A 
ATOM     32  C   UNL A   1      41.395  23.154  27.706  1.00  0.00     0.010 A 
ATOM     33  C   UNL A   1      40.852  24.375  27.268  1.00  0.00    -0.014 A 
BRANCH  33  34
ATOM     34  C   UNL A   1      41.507  25.662  27.616  1.00  0.00     0.031 A 
ATOM     35  C   UNL A   1      40.761  26.717  28.387  1.00  0.00     0.074 A 
ATOM     36  C   UNL A   1      42.771  25.896  27.213  1.00  0.00     0.049 A 
ATOM     37  N   UNL A   1      41.157  27.911  28.745  1.00  0.00    -0.248 NA
ATOM     38  C   UNL A   1      39.390  26.389  28.805  1.00  0.00     0.031 C 
ATOM     39  C   UNL A   1      43.599  24.959  26.453  1.00  0.00     0.029 A 
ATOM     40  N   UNL A   1      43.572  26.998  27.372  1.00  0.00    -0.354 N 
ATOM     41  C   UNL A   1      40.075  28.495  29.392  1.00  0.00     0.074 A 
ATOM     42  C   UNL A   1      39.003  27.522  29.374  1.00  0.00     0.031 C 
ATOM     43  C   UNL A   1      44.790  25.527  26.210  1.00  0.00     0.029 A 
ATOM     44  C   UNL A   1      44.799  26.878  26.764  1.00  0.00     0.049 A 
ATOM     45  H   UNL A   1      43.294  27.799  27.875  1.00  0.00     0.167 HD
ATOM     46  C   UNL A   1      39.984  29.720  29.964  1.00  0.00     0.034 A 
ATOM     47  C   UNL A   1      45.811  27.760  26.651  1.00  0.00     0.034 A 
ATOM     48  C   UNL A   1      41.063  30.673  30.019  1.00  0.00     0.049 A 
ATOM     49  C   UNL A   1      45.679  29.119  27.281  1.00  0.00     0.074 A 
ATOM     50  C   UNL A   1      41.091  31.906  30.645  1.00  0.00     0.029 A 
ATOM     51  N   UNL A   1      42.300  30.505  29.414  1.00  0.00    -0.354 N 
ATOM     52  N   UNL A   1      44.697  29.603  28.002  1.00  0.00    -0.248 NA
ATOM     53  C   UNL A   1      46.806  30.047  27.101  1.00  0.00     0.031 C 
ATOM     54  C   UNL A   1      42.338  32.494  30.402  1.00  0.00     0.029 A 
ATOM     55  C   UNL A   1      43.093  31.619  29.638  1.00  0.00     0.049 A 
ATOM     56  H   UNL A   1      42.575  29.710  28.902  1.00  0.00     0.167 HD
ATOM     57  C   UNL A   1      45.100  30.876  28.390  1.00  0.00     0.074 A 
ATOM     58  C   UNL A   1      46.423  31.082  27.837  1.00  0.00     0.031 C 
ATOM     59  C   UNL A   1      44.428  31.796  29.126  1.00  0.00     0.034 A 
BRANCH  46  60
ATOM     60  C   UNL A   1      38.676  30.092  30.610  1.00  0.00     0.023 A 
ATOM     61  C   UNL A   1      38.400  29.661  31.923  1.00  0.00     0.012 A 
ATOM     62  C   UNL A   1      37.739  30.903  29.939  1.00  0.00     0.148 A 
ATOM     63  C   UNL A   1      37.197  30.000  32.545  1.00  0.00     0.002 A 
ATOM     64  C   UNL A   1      36.559  31.268  30.580  1.00  0.00     0.091 A 
ATOM     65  F   UNL A   1      38.005  31.284  28.682  1.00  0.00    -0.205 F 
ATOM     66  C   UNL A   1      36.282  30.810  31.877  1.00  0.00     0.022 A 
BRANCH  64  67
ATOM     67  S   UNL A   1      35.362  32.368  29.815  1.00  0.00     0.127 S 
ATOM     68  O   UNL A   1      34.826  31.527  28.746  1.00  0.00    -0.237 OA
ATOM     69  O   UNL A   1      34.427  32.628  30.911  1.00  0.00    -0.237 OA
ATOM     70  O   UNL A   1      36.120  33.535  29.385  1.00  0.00    -0.744 OA
ENDBRANCH  64  67
ENDBRANCH  46  60
BRANCH  47  71
ATOM     71  C   UNL A   1      47.068  27.355  25.963  1.00  0.00     0.023 A 
ATOM     72  C   UNL A   1      47.241  27.685  24.605  1.00  0.00     0.012 A 
ATOM     73  C   UNL A   1      48.105  26.693  26.648  1.00  0.00     0.148 A 
ATOM     74  C   UNL A   1      48.418  27.349  23.937  1.00  0.00     0.002 A 
ATOM     75  C   UNL A   1      49.295  26.406  25.991  1.00  0.00     0.091 A 
ATOM     76  F   UNL A   1      47.912  26.374  27.937  1.00  0.00    -0.205 F 
ATOM     77  C   UNL A   1      49.449  26.721  24.632  1.00  0.00     0.022 A 
BRANCH  75  78
ATOM     78  S   UNL A   1      50.723  25.716  26.834  1.00  0.00     0.127 S 
ATOM     79  O   UNL A   1      50.170  24.490  27.403  1.00  0.00    -0.237 OA
ATOM     80  O   UNL A   1      51.659  25.515  25.727  1.00  0.00    -0.237 OA
ATOM     81  O   UNL A   1      51.139  26.727  27.796  1.00  0.00    -0.744 OA
ENDBRANCH  75  78
ENDBRANCH  47  71
BRANCH  59  82
ATOM     82  C   UNL A   1      45.118  33.106  29.405  1.00  0.00     0.023 A 
ATOM     83  C   UNL A   1      45.920  33.240  30.556  1.00  0.00     0.012 A 
ATOM     84  C   UNL A   1      45.031  34.179  28.496  1.00  0.00     0.148 A 
ATOM     85  C   UNL A   1      46.601  34.431  30.812  1.00  0.00     0.002 A 
ATOM     86  C   UNL A   1      45.747  35.346  28.735  1.00  0.00     0.091 A 
ATOM     87  F   UNL A   1      44.245  34.042  27.418  1.00  0.00    -0.205 F 
ATOM     88  C   UNL A   1      46.525  35.478  29.897  1.00  0.00     0.022 A 
BRANCH  86  89
ATOM     89  S   UNL A   1      45.778  36.709  27.563  1.00  0.00     0.127 S 
ATOM     90  O   UNL A   1      46.311  36.061  26.366  1.00  0.00    -0.237 OA
ATOM     91  O   UNL A   1      44.364  37.080  27.476  1.00  0.00    -0.237 OA
ATOM     92  O   UNL A   1      46.630  37.728  28.161  1.00  0.00    -0.744 OA
ENDBRANCH  86  89
ENDBRANCH  59  82
ENDBRANCH  33  34
ENDBRANCH  26  28
ENDBRANCH  25  26
ENDBRANCH   1  25
TORSDOF 16
ENDMDL
MODEL 3
REMARK VINA RESULT:     -12.4      5.908     11.710
REMARK SMILES Cc1c(C(=O)N[C@H]2C=C[C@@H](C(=O)OCCOC(=O)c3ccc(-c4c5nc(c(-c6cccc(S(=O)(=O)[O-])c6F)c6ccc([nH]6)c(-c6cccc(S(=O)(=O)[O-])c6F)c6nc(c(-c7cccc(S(=O)(=O)[O-])c7F)c7ccc4[nH]7)C=C6)C=C5)cc3)C2)oc2ccccc12
REMARK SMILES IDX 15 1 14 2 13 3 11 4 12 5 10 6 7 7 8 8 82 9 9 10 6 11 4 12
REMARK SMILES IDX 5 13 3 15 1 16 2 17 89 18 83 19 84 20 88 21 85 22 87 23
REMARK SMILES IDX 86 24 16 25 17 26 18 27 19 28 20 29 81 30 21 31 80 32 22 33
REMARK SMILES IDX 23 34 24 35 74 36 25 37 79 38 73 39 75 40 26 41 78 42 72 43
REMARK SMILES IDX 71 44 27 46 59 47 39 48 58 49 40 50 43 51 57 52 76 53 41 54
REMARK SMILES IDX 42 55 56 57 77 58 44 59 28 60 29 61 37 62 30 63 32 64 38 65
REMARK SMILES IDX 31 66 33 67 34 68 35 69 36 70 60 71 61 72 69 73 62 74 64 75
REMARK SMILES IDX 70 76 63 77 65 78 66 79 67 80 68 81 45 82 46 83 54 84 47 85
REMARK SMILES IDX 49 86 55 87 48 88 50 89 51 90 52 91 53 92
REMARK H PARENT 6 14 75 45 43 56
REMARK Flexibility Score: inf
ROOT
ATOM      1  C   UNL A   1      33.629  32.978  27.895  1.00  0.00     0.275 C 
ENDROOT
BRANCH   1   2
ATOM      2  C   UNL A   1      33.959  34.285  28.620  1.00  0.00     0.274 C 
BRANCH   2   3
ATOM      3  O   UNL A   1      32.854  34.720  29.438  1.00  0.00    -0.462 OA
BRANCH   3   4
ATOM      4  C   UNL A   1      32.903  36.008  29.854  1.00  0.00     0.312 C 
ATOM      5  O   UNL A   1      32.916  36.981  29.107  1.00  0.00    -0.252 OA
BRANCH   4   6
ATOM      6  C   UNL A   1      32.961  36.169  31.360  1.00  0.00     0.124 C 
ATOM      7  C   UNL A   1      33.673  35.744  33.557  1.00  0.00     0.106 C 
ATOM      8  C   UNL A   1      34.207  37.075  33.122  1.00  0.00    -0.006 C 
ATOM      9  C   UNL A   1      33.578  35.055  32.195  1.00  0.00     0.048 C 
ATOM     10  C   UNL A   1      33.760  37.340  31.879  1.00  0.00    -0.014 C 
BRANCH   7  11
ATOM     11  N   UNL A   1      34.472  35.051  34.502  1.00  0.00    -0.343 N 
ATOM     12  C   UNL A   1      35.595  34.272  34.299  1.00  0.00     0.287 C 
ATOM     13  O   UNL A   1      36.063  33.816  35.352  1.00  0.00    -0.266 OA
ATOM     14  H   UNL A   1      34.184  35.137  35.441  1.00  0.00     0.164 HD
BRANCH  12  15
ATOM     15  C   UNL A   1      36.188  33.945  32.989  1.00  0.00     0.195 A 
ATOM     16  C   UNL A   1      34.904  32.154  31.520  1.00  0.00     0.049 C 
ATOM     17  C   UNL A   1      35.975  33.114  31.875  1.00  0.00     0.008 A 
ATOM     18  C   UNL A   1      37.038  33.371  30.944  1.00  0.00     0.024 A 
ATOM     19  O   UNL A   1      37.317  34.706  32.716  1.00  0.00    -0.451 OA
ATOM     20  C   UNL A   1      37.806  34.372  31.499  1.00  0.00     0.135 A 
ATOM     21  C   UNL A   1      37.394  32.873  29.675  1.00  0.00     0.012 A 
ATOM     22  C   UNL A   1      38.912  34.943  30.874  1.00  0.00     0.048 A 
ATOM     23  C   UNL A   1      38.500  33.421  29.017  1.00  0.00     0.001 A 
ATOM     24  C   UNL A   1      39.242  34.445  29.607  1.00  0.00     0.004 A 
ENDBRANCH  12  15
ENDBRANCH   7  11
ENDBRANCH   4   6
ENDBRANCH   3   4
ENDBRANCH   2   3
ENDBRANCH   1   2
BRANCH   1  25
ATOM     25  O   UNL A   1      34.215  31.830  28.537  1.00  0.00    -0.458 OA
BRANCH  25  26
ATOM     26  C   UNL A   1      34.475  30.789  27.715  1.00  0.00     0.338 C 
ATOM     27  O   UNL A   1      33.804  30.422  26.760  1.00  0.00    -0.246 OA
BRANCH  26  28
ATOM     28  C   UNL A   1      35.757  30.157  28.061  1.00  0.00     0.060 A 
ATOM     29  C   UNL A   1      35.880  29.564  29.319  1.00  0.00     0.016 A 
ATOM     30  C   UNL A   1      36.861  30.249  27.212  1.00  0.00     0.016 A 
ATOM     31  C   UNL A   1      37.120  29.102  29.757  1.00  0.00     0.010 A 
ATOM     32  C   UNL A   1      38.100  29.760  27.642  1.00  0.00     0.010 A 
ATOM     33  C   UNL A   1      38.246  29.205  28.927  1.00  0.00    -0.014 A 
BRANCH  33  34
ATOM     34  C   UNL A   1      39.573  28.739  29.403  1.00  0.00     0.031 A 
ATOM     35  C   UNL A   1      40.285  29.461  30.514  1.00  0.00     0.074 A 
ATOM     36  C   UNL A   1      40.154  27.675  28.816  1.00  0.00     0.049 A 
ATOM     37  N   UNL A   1      41.463  29.221  31.032  1.00  0.00    -0.248 NA
ATOM     38  C   UNL A   1      39.586  30.606  31.117  1.00  0.00     0.031 C 
ATOM     39  C   UNL A   1      39.572  26.894  27.724  1.00  0.00     0.029 A 
ATOM     40  N   UNL A   1      41.369  27.080  29.043  1.00  0.00    -0.354 N 
ATOM     41  C   UNL A   1      41.666  30.206  31.991  1.00  0.00     0.074 A 
ATOM     42  C   UNL A   1      40.489  31.050  31.980  1.00  0.00     0.031 C 
ATOM     43  C   UNL A   1      40.431  25.924  27.375  1.00  0.00     0.029 A 
ATOM     44  C   UNL A   1      41.638  26.035  28.191  1.00  0.00     0.049 A 
ATOM     45  H   UNL A   1      41.991  27.374  29.749  1.00  0.00     0.167 HD
ATOM     46  C   UNL A   1      42.726  30.385  32.817  1.00  0.00     0.034 A 
ATOM     47  C   UNL A   1      42.735  25.263  28.069  1.00  0.00     0.034 A 
ATOM     48  C   UNL A   1      43.879  29.522  32.857  1.00  0.00     0.049 A 
ATOM     49  C   UNL A   1      43.904  25.492  28.987  1.00  0.00     0.074 A 
ATOM     50  C   UNL A   1      44.964  29.576  33.712  1.00  0.00     0.029 A 
ATOM     51  N   UNL A   1      44.102  28.458  31.996  1.00  0.00    -0.354 N 
ATOM     52  N   UNL A   1      44.022  26.345  29.975  1.00  0.00    -0.248 NA
ATOM     53  C   UNL A   1      45.082  24.636  28.787  1.00  0.00     0.031 C 
ATOM     54  C   UNL A   1      45.855  28.556  33.356  1.00  0.00     0.029 A 
ATOM     55  C   UNL A   1      45.316  27.857  32.289  1.00  0.00     0.049 A 
ATOM     56  H   UNL A   1      43.488  28.170  31.282  1.00  0.00     0.167 HD
ATOM     57  C   UNL A   1      45.272  26.106  30.537  1.00  0.00     0.074 A 
ATOM     58  C   UNL A   1      45.865  25.017  29.788  1.00  0.00     0.031 C 
ATOM     59  C   UNL A   1      45.878  26.741  31.571  1.00  0.00     0.034 A 
BRANCH  46  60
ATOM     60  C   UNL A   1      42.675  31.545  33.775  1.00  0.00     0.023 A 
ATOM     61  C   UNL A   1      43.130  32.812  33.359  1.00  0.00     0.012 A 
ATOM     62  C   UNL A   1      42.139  31.395  35.070  1.00  0.00     0.148 A 
ATOM     63  C   UNL A   1      43.085  33.904  34.227  1.00  0.00     0.002 A 
ATOM     64  C   UNL A   1      42.064  32.497  35.916  1.00  0.00     0.091 A 
ATOM     65  F   UNL A   1      41.735  30.178  35.459  1.00  0.00    -0.205 F 
ATOM     66  C   UNL A   1      42.545  33.748  35.501  1.00  0.00     0.022 A 
BRANCH  64  67
ATOM     67  S   UNL A   1      41.315  32.395  37.546  1.00  0.00     0.127 S 
ATOM     68  O   UNL A   1      39.970  31.918  37.226  1.00  0.00    -0.237 OA
ATOM     69  O   UNL A   1      42.163  31.413  38.223  1.00  0.00    -0.237 OA
ATOM     70  O   UNL A   1      41.396  33.740  38.099  1.00  0.00    -0.744 OA
ENDBRANCH  64  67
ENDBRANCH  46  60
BRANCH  47  71
ATOM     71  C   UNL A   1      42.749  24.155  27.074  1.00  0.00     0.023 A 
ATOM     72  C   UNL A   1      43.451  24.331  25.865  1.00  0.00     0.012 A 
ATOM     73  C   UNL A   1      42.119  22.923  27.331  1.00  0.00     0.148 A 
ATOM     74  C   UNL A   1      43.512  23.304  24.924  1.00  0.00     0.002 A 
ATOM     75  C   UNL A   1      42.226  21.886  26.412  1.00  0.00     0.091 A 
ATOM     76  F   UNL A   1      41.443  22.783  28.481  1.00  0.00    -0.205 F 
ATOM     77  C   UNL A   1      42.911  22.079  25.202  1.00  0.00     0.022 A 
BRANCH  75  78
ATOM     78  S   UNL A   1      41.595  20.236  26.738  1.00  0.00     0.127 S 
ATOM     79  O   UNL A   1      40.174  20.497  26.950  1.00  0.00    -0.237 OA
ATOM     80  O   UNL A   1      41.916  19.539  25.491  1.00  0.00    -0.237 OA
ATOM     81  O   UNL A   1      42.330  19.757  27.900  1.00  0.00    -0.744 OA
ENDBRANCH  75  78
ENDBRANCH  47  71
BRANCH  59  82
ATOM     82  C   UNL A   1      47.247  26.262  31.979  1.00  0.00     0.023 A 
ATOM     83  C   UNL A   1      48.388  26.803  31.354  1.00  0.00     0.012 A 
ATOM     84  C   UNL A   1      47.408  25.333  33.025  1.00  0.00     0.148 A 
ATOM     85  C   UNL A   1      49.667  26.405  31.744  1.00  0.00     0.002 A 
ATOM     86  C   UNL A   1      48.686  24.975  33.439  1.00  0.00     0.091 A 
ATOM     87  F   UNL A   1      46.310  24.812  33.593  1.00  0.00    -0.205 F 
ATOM     88  C   UNL A   1      49.816  25.501  32.793  1.00  0.00     0.022 A 
BRANCH  86  89
ATOM     89  S   UNL A   1      48.969  23.888  34.842  1.00  0.00     0.127 S 
ATOM     90  O   UNL A   1      50.429  23.838  34.891  1.00  0.00    -0.237 OA
ATOM     91  O   UNL A   1      48.347  24.626  35.942  1.00  0.00    -0.237 OA
ATOM     92  O   UNL A   1      48.308  22.632  34.512  1.00  0.00    -0.744 OA
ENDBRANCH  86  89
ENDBRANCH  59  82
ENDBRANCH  33  34
ENDBRANCH  26  28
ENDBRANCH  25  26
ENDBRANCH   1  25
TORSDOF 16
ENDMDL
