MODEL 1
REMARK VINA RESULT:     -11.0      0.000      0.000
REMARK SMILES C[C@](NC(=O)CSCc1cccs1)(C(=O)OCCOC(=O)c1ccc(-c2c3nc(c(-c4cccc(S(=O)(=O)[O-])c4F)c4ccc([nH]4)c(-c4cccc(S(=O)(=O)[O-])c4F)c4nc(c(-c5cccc(S(=O)(=O)[O-])c5F)c5ccc2[nH]5)C=C4)C=C3)cc1)C(F)(F)F
REMARK SMILES IDX 17 1 16 2 14 3 15 4 2 5 1 6 85 7 86 8 87 9 88 10 3 11 4 12
REMARK SMILES IDX 5 14 6 15 7 16 8 17 9 18 10 19 13 20 11 21 12 22 18 23 19 24
REMARK SMILES IDX 20 25 21 26 22 27 23 28 84 29 24 30 83 31 25 32 26 33 27 34
REMARK SMILES IDX 77 35 28 36 82 37 76 38 78 39 29 40 81 41 75 42 74 43 30 45
REMARK SMILES IDX 62 46 42 47 61 48 43 49 46 50 60 51 79 52 44 53 45 54 59 56
REMARK SMILES IDX 80 57 47 58 31 59 32 60 40 61 33 62 35 63 41 64 34 65 36 66
REMARK SMILES IDX 37 67 38 68 39 69 63 70 64 71 72 72 65 73 67 74 73 75 66 76
REMARK SMILES IDX 68 77 69 78 70 79 71 80 48 81 49 82 57 83 50 84 52 85 58 86
REMARK SMILES IDX 51 87 53 88 54 89 55 90 56 91
REMARK H PARENT 3 13 78 44 46 55
REMARK Flexibility Score: inf
ROOT
ATOM      1  C   UNL A   1      32.761  28.334  25.516  1.00  0.00     0.274 C 
ENDROOT
BRANCH   1   2
ATOM      2  O   UNL A   1      31.448  27.753  25.712  1.00  0.00    -0.460 OA
BRANCH   2   3
ATOM      3  C   UNL A   1      30.673  27.669  24.590  1.00  0.00     0.341 C 
ATOM      4  O   UNL A   1      30.313  28.645  23.944  1.00  0.00    -0.249 OA
BRANCH   3   5
ATOM      5  C   UNL A   1      30.113  26.263  24.367  1.00  0.00     0.231 C 
ATOM      6  C   UNL A   1      28.673  26.497  23.843  1.00  0.00     0.058 C 
BRANCH   5   7
ATOM      7  C   UNL A   1      30.917  25.653  23.205  1.00  0.00     0.422 C 
ATOM      8  F   UNL A   1      30.601  24.366  22.980  1.00  0.00    -0.168 F 
ATOM      9  F   UNL A   1      30.685  26.351  22.064  1.00  0.00    -0.168 F 
ATOM     10  F   UNL A   1      32.252  25.709  23.414  1.00  0.00    -0.168 F 
ENDBRANCH   5   7
BRANCH   5  11
ATOM     11  N   UNL A   1      29.919  25.394  25.589  1.00  0.00    -0.332 N 
ATOM     12  C   UNL A   1      30.614  24.434  26.244  1.00  0.00     0.231 C 
ATOM     13  H   UNL A   1      29.054  25.573  26.025  1.00  0.00     0.164 HD
ATOM     14  O   UNL A   1      29.980  23.826  27.116  1.00  0.00    -0.274 OA
BRANCH  12  15
ATOM     15  C   UNL A   1      32.070  24.121  26.018  1.00  0.00     0.169 C 
BRANCH  15  16
ATOM     16  S   UNL A   1      32.452  22.545  25.219  1.00  0.00    -0.146 SA
BRANCH  16  17
ATOM     17  C   UNL A   1      33.762  22.963  24.029  1.00  0.00     0.116 C 
BRANCH  17  18
ATOM     18  C   UNL A   1      35.011  22.201  24.333  1.00  0.00     0.014 A 
ATOM     19  C   UNL A   1      35.138  20.993  24.991  1.00  0.00     0.016 A 
ATOM     20  S   UNL A   1      36.536  22.808  23.835  1.00  0.00    -0.148 S 
ATOM     21  C   UNL A   1      36.496  20.576  25.099  1.00  0.00     0.012 A 
ATOM     22  C   UNL A   1      37.360  21.476  24.516  1.00  0.00     0.065 A 
ENDBRANCH  17  18
ENDBRANCH  16  17
ENDBRANCH  15  16
ENDBRANCH  12  15
ENDBRANCH   5  11
ENDBRANCH   3   5
ENDBRANCH   2   3
ENDBRANCH   1   2
BRANCH   1  23
ATOM     23  C   UNL A   1      32.721  29.851  25.641  1.00  0.00     0.275 C 
BRANCH  23  24
ATOM     24  O   UNL A   1      32.749  30.201  27.031  1.00  0.00    -0.458 OA
BRANCH  24  25
ATOM     25  C   UNL A   1      33.385  31.352  27.341  1.00  0.00     0.338 C 
ATOM     26  O   UNL A   1      32.916  32.484  27.296  1.00  0.00    -0.246 OA
BRANCH  25  27
ATOM     27  C   UNL A   1      34.743  31.057  27.830  1.00  0.00     0.060 A 
ATOM     28  C   UNL A   1      35.062  29.775  28.275  1.00  0.00     0.016 A 
ATOM     29  C   UNL A   1      35.671  32.089  27.967  1.00  0.00     0.016 A 
ATOM     30  C   UNL A   1      36.267  29.545  28.934  1.00  0.00     0.010 A 
ATOM     31  C   UNL A   1      36.928  31.823  28.521  1.00  0.00     0.010 A 
ATOM     32  C   UNL A   1      37.239  30.550  29.034  1.00  0.00    -0.014 A 
BRANCH  32  33
ATOM     33  C   UNL A   1      38.576  30.274  29.642  1.00  0.00     0.031 A 
ATOM     34  C   UNL A   1      39.549  29.337  28.971  1.00  0.00     0.074 A 
ATOM     35  C   UNL A   1      38.906  30.809  30.838  1.00  0.00     0.049 A 
ATOM     36  N   UNL A   1      40.600  28.740  29.475  1.00  0.00    -0.248 NA
ATOM     37  C   UNL A   1      39.293  29.001  27.560  1.00  0.00     0.031 C 
ATOM     38  C   UNL A   1      38.080  31.739  31.610  1.00  0.00     0.029 A 
ATOM     39  N   UNL A   1      40.016  30.626  31.629  1.00  0.00    -0.354 N 
ATOM     40  C   UNL A   1      41.066  27.885  28.484  1.00  0.00     0.074 A 
ATOM     41  C   UNL A   1      40.206  28.064  27.333  1.00  0.00     0.031 C 
ATOM     42  C   UNL A   1      38.715  32.062  32.744  1.00  0.00     0.029 A 
ATOM     43  C   UNL A   1      39.938  31.278  32.839  1.00  0.00     0.049 A 
ATOM     44  H   UNL A   1      40.791  30.082  31.356  1.00  0.00     0.167 HD
ATOM     45  C   UNL A   1      42.119  27.033  28.530  1.00  0.00     0.034 A 
ATOM     46  C   UNL A   1      40.714  31.209  33.939  1.00  0.00     0.034 A 
ATOM     47  C   UNL A   1      43.053  26.955  29.623  1.00  0.00     0.049 A 
ATOM     48  C   UNL A   1      41.894  30.284  33.950  1.00  0.00     0.074 A 
ATOM     49  C   UNL A   1      44.206  26.194  29.713  1.00  0.00     0.029 A 
ATOM     50  N   UNL A   1      42.958  27.674  30.804  1.00  0.00    -0.354 N 
ATOM     51  N   UNL A   1      42.342  29.511  32.992  1.00  0.00    -0.248 NA
ATOM     52  C   UNL A   1      42.672  30.214  35.195  1.00  0.00     0.031 C 
ATOM     53  C   UNL A   1      44.805  26.447  30.951  1.00  0.00     0.029 A 
ATOM     54  C   UNL A   1      44.025  27.366  31.630  1.00  0.00     0.049 A 
ATOM     55  H   UNL A   1      42.238  28.309  31.022  1.00  0.00     0.167 HD
ATOM     56  C   UNL A   1      43.448  28.858  33.520  1.00  0.00     0.074 A 
ATOM     57  C   UNL A   1      43.631  29.360  34.865  1.00  0.00     0.031 C 
ATOM     58  C   UNL A   1      44.220  27.900  32.952  1.00  0.00     0.034 A 
BRANCH  45  59
ATOM     59  C   UNL A   1      42.361  26.123  27.356  1.00  0.00     0.023 A 
ATOM     60  C   UNL A   1      43.136  26.571  26.270  1.00  0.00     0.012 A 
ATOM     61  C   UNL A   1      41.929  24.781  27.395  1.00  0.00     0.148 A 
ATOM     62  C   UNL A   1      43.472  25.700  25.235  1.00  0.00     0.002 A 
ATOM     63  C   UNL A   1      42.297  23.909  26.377  1.00  0.00     0.091 A 
ATOM     64  F   UNL A   1      41.175  24.382  28.430  1.00  0.00    -0.205 F 
ATOM     65  C   UNL A   1      43.065  24.368  25.295  1.00  0.00     0.022 A 
BRANCH  63  66
ATOM     66  S   UNL A   1      41.889  22.159  26.403  1.00  0.00     0.127 S 
ATOM     67  O   UNL A   1      40.439  22.191  26.222  1.00  0.00    -0.237 OA
ATOM     68  O   UNL A   1      42.635  21.650  25.252  1.00  0.00    -0.237 OA
ATOM     69  O   UNL A   1      42.346  21.658  27.692  1.00  0.00    -0.744 OA
ENDBRANCH  63  66
ENDBRANCH  45  59
BRANCH  46  70
ATOM     70  C   UNL A   1      40.365  32.029  35.134  1.00  0.00     0.023 A 
ATOM     71  C   UNL A   1      40.928  33.308  35.286  1.00  0.00     0.012 A 
ATOM     72  C   UNL A   1      39.424  31.578  36.082  1.00  0.00     0.148 A 
ATOM     73  C   UNL A   1      40.566  34.120  36.364  1.00  0.00     0.002 A 
ATOM     74  C   UNL A   1      39.015  32.419  37.109  1.00  0.00     0.091 A 
ATOM     75  F   UNL A   1      38.919  30.342  35.948  1.00  0.00    -0.205 F 
ATOM     76  C   UNL A   1      39.596  33.684  37.263  1.00  0.00     0.022 A 
BRANCH  74  77
ATOM     77  S   UNL A   1      37.635  31.970  38.169  1.00  0.00     0.127 S 
ATOM     78  O   UNL A   1      38.200  32.154  39.502  1.00  0.00    -0.237 OA
ATOM     79  O   UNL A   1      36.612  32.948  37.795  1.00  0.00    -0.237 OA
ATOM     80  O   UNL A   1      37.307  30.602  37.786  1.00  0.00    -0.744 OA
ENDBRANCH  74  77
ENDBRANCH  46  70
BRANCH  58  81
ATOM     81  C   UNL A   1      45.326  27.320  33.789  1.00  0.00     0.023 A 
ATOM     82  C   UNL A   1      46.579  27.963  33.804  1.00  0.00     0.012 A 
ATOM     83  C   UNL A   1      45.116  26.188  34.599  1.00  0.00     0.148 A 
ATOM     84  C   UNL A   1      47.617  27.474  34.595  1.00  0.00     0.002 A 
ATOM     85  C   UNL A   1      46.145  25.726  35.412  1.00  0.00     0.091 A 
ATOM     86  F   UNL A   1      43.922  25.580  34.554  1.00  0.00    -0.205 F 
ATOM     87  C   UNL A   1      47.397  26.361  35.405  1.00  0.00     0.022 A 
BRANCH  85  88
ATOM     88  S   UNL A   1      45.930  24.345  36.541  1.00  0.00     0.127 S 
ATOM     89  O   UNL A   1      45.779  23.223  35.615  1.00  0.00    -0.237 OA
ATOM     90  O   UNL A   1      47.188  24.352  37.289  1.00  0.00    -0.237 OA
ATOM     91  O   UNL A   1      44.754  24.662  37.339  1.00  0.00    -0.744 OA
ENDBRANCH  85  88
ENDBRANCH  58  81
ENDBRANCH  32  33
ENDBRANCH  25  27
ENDBRANCH  24  25
ENDBRANCH  23  24
ENDBRANCH   1  23
TORSDOF 20
ENDMDL
MODEL 2
REMARK VINA RESULT:     -11.0      2.311      3.867
REMARK SMILES C[C@](NC(=O)CSCc1cccs1)(C(=O)OCCOC(=O)c1ccc(-c2c3nc(c(-c4cccc(S(=O)(=O)[O-])c4F)c4ccc([nH]4)c(-c4cccc(S(=O)(=O)[O-])c4F)c4nc(c(-c5cccc(S(=O)(=O)[O-])c5F)c5ccc2[nH]5)C=C4)C=C3)cc1)C(F)(F)F
REMARK SMILES IDX 17 1 16 2 14 3 15 4 2 5 1 6 85 7 86 8 87 9 88 10 3 11 4 12
REMARK SMILES IDX 5 14 6 15 7 16 8 17 9 18 10 19 13 20 11 21 12 22 18 23 19 24
REMARK SMILES IDX 20 25 21 26 22 27 23 28 84 29 24 30 83 31 25 32 26 33 27 34
REMARK SMILES IDX 77 35 28 36 82 37 76 38 78 39 29 40 81 41 75 42 74 43 30 45
REMARK SMILES IDX 62 46 42 47 61 48 43 49 46 50 60 51 79 52 44 53 45 54 59 56
REMARK SMILES IDX 80 57 47 58 31 59 32 60 40 61 33 62 35 63 41 64 34 65 36 66
REMARK SMILES IDX 37 67 38 68 39 69 63 70 64 71 72 72 65 73 67 74 73 75 66 76
REMARK SMILES IDX 68 77 69 78 70 79 71 80 48 81 49 82 57 83 50 84 52 85 58 86
REMARK SMILES IDX 51 87 53 88 54 89 55 90 56 91
REMARK H PARENT 3 13 78 44 46 55
REMARK Flexibility Score: inf
ROOT
ATOM      1  C   UNL A   1      33.281  29.087  24.518  1.00  0.00     0.274 C 
ENDROOT
BRANCH   1   2
ATOM      2  O   UNL A   1      33.434  27.691  24.876  1.00  0.00    -0.460 OA
BRANCH   2   3
ATOM      3  C   UNL A   1      33.281  26.804  23.848  1.00  0.00     0.341 C 
ATOM      4  O   UNL A   1      33.406  27.111  22.669  1.00  0.00    -0.249 OA
BRANCH   3   5
ATOM      5  C   UNL A   1      32.712  25.462  24.310  1.00  0.00     0.231 C 
ATOM      6  C   UNL A   1      32.253  24.765  23.003  1.00  0.00     0.058 C 
BRANCH   5   7
ATOM      7  C   UNL A   1      33.900  24.649  24.855  1.00  0.00     0.422 C 
ATOM      8  F   UNL A   1      35.053  24.937  24.225  1.00  0.00    -0.168 F 
ATOM      9  F   UNL A   1      34.068  24.902  26.178  1.00  0.00    -0.168 F 
ATOM     10  F   UNL A   1      33.707  23.314  24.750  1.00  0.00    -0.168 F 
ENDBRANCH   5   7
BRANCH   5  11
ATOM     11  N   UNL A   1      31.464  25.496  25.162  1.00  0.00    -0.332 N 
ATOM     12  C   UNL A   1      30.189  25.935  25.037  1.00  0.00     0.231 C 
ATOM     13  H   UNL A   1      31.621  25.091  26.046  1.00  0.00     0.164 HD
ATOM     14  O   UNL A   1      29.529  25.942  26.083  1.00  0.00    -0.274 OA
BRANCH  12  15
ATOM     15  C   UNL A   1      29.544  26.341  23.738  1.00  0.00     0.169 C 
BRANCH  15  16
ATOM     16  S   UNL A   1      29.816  28.042  23.188  1.00  0.00    -0.146 SA
BRANCH  16  17
ATOM     17  C   UNL A   1      28.139  28.684  22.904  1.00  0.00     0.116 C 
BRANCH  17  18
ATOM     18  C   UNL A   1      28.193  30.091  22.401  1.00  0.00     0.014 A 
ATOM     19  C   UNL A   1      28.025  30.544  21.107  1.00  0.00     0.016 A 
ATOM     20  S   UNL A   1      28.482  31.386  23.488  1.00  0.00    -0.148 S 
ATOM     21  C   UNL A   1      28.152  31.960  21.010  1.00  0.00     0.012 A 
ATOM     22  C   UNL A   1      28.407  32.541  22.232  1.00  0.00     0.065 A 
ENDBRANCH  17  18
ENDBRANCH  16  17
ENDBRANCH  15  16
ENDBRANCH  12  15
ENDBRANCH   5  11
ENDBRANCH   3   5
ENDBRANCH   2   3
ENDBRANCH   1   2
BRANCH   1  23
ATOM     23  C   UNL A   1      32.066  29.704  25.197  1.00  0.00     0.275 C 
BRANCH  23  24
ATOM     24  O   UNL A   1      32.341  29.847  26.597  1.00  0.00    -0.458 OA
BRANCH  24  25
ATOM     25  C   UNL A   1      32.880  31.026  26.980  1.00  0.00     0.338 C 
ATOM     26  O   UNL A   1      32.342  32.126  26.936  1.00  0.00    -0.246 OA
BRANCH  25  27
ATOM     27  C   UNL A   1      34.221  30.802  27.547  1.00  0.00     0.060 A 
ATOM     28  C   UNL A   1      34.623  29.515  27.903  1.00  0.00     0.016 A 
ATOM     29  C   UNL A   1      35.040  31.891  27.844  1.00  0.00     0.016 A 
ATOM     30  C   UNL A   1      35.795  29.328  28.632  1.00  0.00     0.010 A 
ATOM     31  C   UNL A   1      36.274  31.681  28.469  1.00  0.00     0.010 A 
ATOM     32  C   UNL A   1      36.662  30.398  28.894  1.00  0.00    -0.014 A 
BRANCH  32  33
ATOM     33  C   UNL A   1      37.972  30.180  29.578  1.00  0.00     0.031 A 
ATOM     34  C   UNL A   1      39.029  29.300  28.958  1.00  0.00     0.074 A 
ATOM     35  C   UNL A   1      38.203  30.715  30.797  1.00  0.00     0.049 A 
ATOM     36  N   UNL A   1      40.076  28.750  29.520  1.00  0.00    -0.248 NA
ATOM     37  C   UNL A   1      38.876  28.970  27.532  1.00  0.00     0.031 C 
ATOM     38  C   UNL A   1      37.287  31.594  31.528  1.00  0.00     0.029 A 
ATOM     39  N   UNL A   1      39.272  30.577  31.652  1.00  0.00    -0.354 N 
ATOM     40  C   UNL A   1      40.644  27.932  28.550  1.00  0.00     0.074 A 
ATOM     41  C   UNL A   1      39.845  28.083  27.351  1.00  0.00     0.031 C 
ATOM     42  C   UNL A   1      37.835  31.934  32.700  1.00  0.00     0.029 A 
ATOM     43  C   UNL A   1      39.089  31.209  32.862  1.00  0.00     0.049 A 
ATOM     44  H   UNL A   1      40.087  30.076  31.422  1.00  0.00     0.167 HD
ATOM     45  C   UNL A   1      41.733  27.132  28.652  1.00  0.00     0.034 A 
ATOM     46  C   UNL A   1      39.800  31.165  34.006  1.00  0.00     0.034 A 
ATOM     47  C   UNL A   1      42.603  27.086  29.798  1.00  0.00     0.049 A 
ATOM     48  C   UNL A   1      41.022  30.299  34.079  1.00  0.00     0.074 A 
ATOM     49  C   UNL A   1      43.785  26.382  29.950  1.00  0.00     0.029 A 
ATOM     50  N   UNL A   1      42.401  27.785  30.977  1.00  0.00    -0.354 N 
ATOM     51  N   UNL A   1      41.564  29.561  33.142  1.00  0.00    -0.248 NA
ATOM     52  C   UNL A   1      41.727  30.252  35.368  1.00  0.00     0.031 C 
ATOM     53  C   UNL A   1      44.295  26.648  31.224  1.00  0.00     0.029 A 
ATOM     54  C   UNL A   1      43.431  27.519  31.864  1.00  0.00     0.049 A 
ATOM     55  H   UNL A   1      41.638  28.381  31.159  1.00  0.00     0.167 HD
ATOM     56  C   UNL A   1      42.668  28.957  33.729  1.00  0.00     0.074 A 
ATOM     57  C   UNL A   1      42.745  29.450  35.089  1.00  0.00     0.031 C 
ATOM     58  C   UNL A   1      43.520  28.045  33.200  1.00  0.00     0.034 A 
BRANCH  45  59
ATOM     59  C   UNL A   1      42.090  26.251  27.485  1.00  0.00     0.023 A 
ATOM     60  C   UNL A   1      42.923  26.743  26.463  1.00  0.00     0.012 A 
ATOM     61  C   UNL A   1      41.704  24.894  27.475  1.00  0.00     0.148 A 
ATOM     62  C   UNL A   1      43.363  25.900  25.443  1.00  0.00     0.002 A 
ATOM     63  C   UNL A   1      42.175  24.052  26.474  1.00  0.00     0.091 A 
ATOM     64  F   UNL A   1      40.895  24.452  28.448  1.00  0.00    -0.205 F 
ATOM     65  C   UNL A   1      43.001  24.554  25.456  1.00  0.00     0.022 A 
BRANCH  63  66
ATOM     66  S   UNL A   1      41.830  22.288  26.448  1.00  0.00     0.127 S 
ATOM     67  O   UNL A   1      42.624  21.849  25.301  1.00  0.00    -0.237 OA
ATOM     68  O   UNL A   1      42.344  21.852  27.746  1.00  0.00    -0.237 OA
ATOM     69  O   UNL A   1      40.387  22.162  26.292  1.00  0.00    -0.744 OA
ENDBRANCH  63  66
ENDBRANCH  45  59
BRANCH  46  70
ATOM     70  C   UNL A   1      39.339  31.952  35.186  1.00  0.00     0.023 A 
ATOM     71  C   UNL A   1      38.532  31.336  36.159  1.00  0.00     0.012 A 
ATOM     72  C   UNL A   1      39.756  33.283  35.384  1.00  0.00     0.148 A 
ATOM     73  C   UNL A   1      38.143  32.034  37.304  1.00  0.00     0.002 A 
ATOM     74  C   UNL A   1      39.426  33.946  36.559  1.00  0.00     0.091 A 
ATOM     75  F   UNL A   1      40.496  33.874  34.434  1.00  0.00    -0.205 F 
ATOM     76  C   UNL A   1      38.605  33.331  37.514  1.00  0.00     0.022 A 
BRANCH  74  77
ATOM     77  S   UNL A   1      40.157  35.541  36.951  1.00  0.00     0.127 S 
ATOM     78  O   UNL A   1      39.657  36.382  35.869  1.00  0.00    -0.237 OA
ATOM     79  O   UNL A   1      39.593  35.836  38.269  1.00  0.00    -0.237 OA
ATOM     80  O   UNL A   1      41.593  35.291  36.969  1.00  0.00    -0.744 OA
ENDBRANCH  74  77
ENDBRANCH  46  70
BRANCH  58  81
ATOM     81  C   UNL A   1      44.601  27.510  34.097  1.00  0.00     0.023 A 
ATOM     82  C   UNL A   1      45.826  28.202  34.177  1.00  0.00     0.012 A 
ATOM     83  C   UNL A   1      44.393  26.372  34.898  1.00  0.00     0.148 A 
ATOM     84  C   UNL A   1      46.838  27.754  35.023  1.00  0.00     0.002 A 
ATOM     85  C   UNL A   1      45.394  25.951  35.766  1.00  0.00     0.091 A 
ATOM     86  F   UNL A   1      43.227  25.717  34.791  1.00  0.00    -0.205 F 
ATOM     87  C   UNL A   1      46.619  26.635  35.824  1.00  0.00     0.022 A 
BRANCH  85  88
ATOM     88  S   UNL A   1      45.174  24.564  36.886  1.00  0.00     0.127 S 
ATOM     89  O   UNL A   1      44.059  25.021  37.713  1.00  0.00    -0.237 OA
ATOM     90  O   UNL A   1      44.846  23.469  35.971  1.00  0.00    -0.237 OA
ATOM     91  O   UNL A   1      46.446  24.407  37.580  1.00  0.00    -0.744 OA
ENDBRANCH  85  88
ENDBRANCH  58  81
ENDBRANCH  32  33
ENDBRANCH  25  27
ENDBRANCH  24  25
ENDBRANCH  23  24
ENDBRANCH   1  23
TORSDOF 20
ENDMDL
MODEL 3
REMARK VINA RESULT:     -11.0      1.695      2.107
REMARK SMILES C[C@](NC(=O)CSCc1cccs1)(C(=O)OCCOC(=O)c1ccc(-c2c3nc(c(-c4cccc(S(=O)(=O)[O-])c4F)c4ccc([nH]4)c(-c4cccc(S(=O)(=O)[O-])c4F)c4nc(c(-c5cccc(S(=O)(=O)[O-])c5F)c5ccc2[nH]5)C=C4)C=C3)cc1)C(F)(F)F
REMARK SMILES IDX 17 1 16 2 14 3 15 4 2 5 1 6 85 7 86 8 87 9 88 10 3 11 4 12
REMARK SMILES IDX 5 14 6 15 7 16 8 17 9 18 10 19 13 20 11 21 12 22 18 23 19 24
REMARK SMILES IDX 20 25 21 26 22 27 23 28 84 29 24 30 83 31 25 32 26 33 27 34
REMARK SMILES IDX 77 35 28 36 82 37 76 38 78 39 29 40 81 41 75 42 74 43 30 45
REMARK SMILES IDX 62 46 42 47 61 48 43 49 46 50 60 51 79 52 44 53 45 54 59 56
REMARK SMILES IDX 80 57 47 58 31 59 32 60 40 61 33 62 35 63 41 64 34 65 36 66
REMARK SMILES IDX 37 67 38 68 39 69 63 70 64 71 72 72 65 73 67 74 73 75 66 76
REMARK SMILES IDX 68 77 69 78 70 79 71 80 48 81 49 82 57 83 50 84 52 85 58 86
REMARK SMILES IDX 51 87 53 88 54 89 55 90 56 91
REMARK H PARENT 3 13 78 44 46 55
REMARK Flexibility Score: inf
ROOT
ATOM      1  C   UNL A   1      31.061  28.848  24.625  1.00  0.00     0.274 C 
ENDROOT
BRANCH   1   2
ATOM      2  O   UNL A   1      31.959  28.053  23.811  1.00  0.00    -0.460 OA
BRANCH   2   3
ATOM      3  C   UNL A   1      31.430  26.893  23.320  1.00  0.00     0.341 C 
ATOM      4  O   UNL A   1      30.419  26.852  22.629  1.00  0.00    -0.249 OA
BRANCH   3   5
ATOM      5  C   UNL A   1      32.091  25.648  23.914  1.00  0.00     0.231 C 
ATOM      6  C   UNL A   1      31.540  24.474  23.064  1.00  0.00     0.058 C 
BRANCH   5   7
ATOM      7  C   UNL A   1      33.593  25.760  23.599  1.00  0.00     0.422 C 
ATOM      8  F   UNL A   1      34.278  26.385  24.572  1.00  0.00    -0.168 F 
ATOM      9  F   UNL A   1      34.127  24.522  23.435  1.00  0.00    -0.168 F 
ATOM     10  F   UNL A   1      33.833  26.427  22.446  1.00  0.00    -0.168 F 
ENDBRANCH   5   7
BRANCH   5  11
ATOM     11  N   UNL A   1      31.719  25.277  25.331  1.00  0.00    -0.332 N 
ATOM     12  C   UNL A   1      32.166  24.424  26.283  1.00  0.00     0.231 C 
ATOM     13  H   UNL A   1      30.942  25.793  25.647  1.00  0.00     0.164 HD
ATOM     14  O   UNL A   1      31.425  24.294  27.265  1.00  0.00    -0.274 OA
BRANCH  12  15
ATOM     15  C   UNL A   1      33.486  23.701  26.238  1.00  0.00     0.169 C 
BRANCH  15  16
ATOM     16  S   UNL A   1      33.563  22.090  27.056  1.00  0.00    -0.146 SA
BRANCH  16  17
ATOM     17  C   UNL A   1      34.563  21.073  25.929  1.00  0.00     0.116 C 
BRANCH  17  18
ATOM     18  C   UNL A   1      33.702  20.455  24.874  1.00  0.00     0.014 A 
ATOM     19  C   UNL A   1      32.871  21.087  23.970  1.00  0.00     0.016 A 
ATOM     20  S   UNL A   1      33.679  18.753  24.667  1.00  0.00    -0.148 S 
ATOM     21  C   UNL A   1      32.201  20.164  23.116  1.00  0.00     0.012 A 
ATOM     22  C   UNL A   1      32.546  18.860  23.393  1.00  0.00     0.065 A 
ENDBRANCH  17  18
ENDBRANCH  16  17
ENDBRANCH  15  16
ENDBRANCH  12  15
ENDBRANCH   5  11
ENDBRANCH   3   5
ENDBRANCH   2   3
ENDBRANCH   1   2
BRANCH   1  23
ATOM     23  C   UNL A   1      31.683  29.181  25.974  1.00  0.00     0.275 C 
BRANCH  23  24
ATOM     24  O   UNL A   1      32.766  30.098  25.770  1.00  0.00    -0.458 OA
BRANCH  24  25
ATOM     25  C   UNL A   1      32.965  31.010  26.747  1.00  0.00     0.338 C 
ATOM     26  O   UNL A   1      32.162  31.848  27.142  1.00  0.00    -0.246 OA
BRANCH  25  27
ATOM     27  C   UNL A   1      34.294  30.814  27.350  1.00  0.00     0.060 A 
ATOM     28  C   UNL A   1      34.732  29.531  27.674  1.00  0.00     0.016 A 
ATOM     29  C   UNL A   1      35.062  31.921  27.714  1.00  0.00     0.016 A 
ATOM     30  C   UNL A   1      35.886  29.359  28.435  1.00  0.00     0.010 A 
ATOM     31  C   UNL A   1      36.281  31.733  28.373  1.00  0.00     0.010 A 
ATOM     32  C   UNL A   1      36.703  30.449  28.765  1.00  0.00    -0.014 A 
BRANCH  32  33
ATOM     33  C   UNL A   1      37.998  30.254  29.485  1.00  0.00     0.031 A 
ATOM     34  C   UNL A   1      39.082  29.383  28.900  1.00  0.00     0.074 A 
ATOM     35  C   UNL A   1      38.190  30.802  30.705  1.00  0.00     0.049 A 
ATOM     36  N   UNL A   1      40.121  28.850  29.493  1.00  0.00    -0.248 NA
ATOM     37  C   UNL A   1      38.970  29.040  27.472  1.00  0.00     0.031 C 
ATOM     38  C   UNL A   1      37.244  31.674  31.403  1.00  0.00     0.029 A 
ATOM     39  N   UNL A   1      39.238  30.684  31.588  1.00  0.00    -0.354 N 
ATOM     40  C   UNL A   1      40.724  28.032  28.545  1.00  0.00     0.074 A 
ATOM     41  C   UNL A   1      39.955  28.163  27.325  1.00  0.00     0.031 C 
ATOM     42  C   UNL A   1      37.757  32.030  32.587  1.00  0.00     0.029 A 
ATOM     43  C   UNL A   1      39.015  31.323  32.787  1.00  0.00     0.049 A 
ATOM     44  H   UNL A   1      40.065  30.192  31.383  1.00  0.00     0.167 HD
ATOM     45  C   UNL A   1      41.820  27.247  28.682  1.00  0.00     0.034 A 
ATOM     46  C   UNL A   1      39.696  31.297  33.950  1.00  0.00     0.034 A 
ATOM     47  C   UNL A   1      42.660  27.222  29.851  1.00  0.00     0.049 A 
ATOM     48  C   UNL A   1      40.927  30.448  34.062  1.00  0.00     0.074 A 
ATOM     49  C   UNL A   1      43.847  26.534  30.040  1.00  0.00     0.029 A 
ATOM     50  N   UNL A   1      42.419  27.927  31.019  1.00  0.00    -0.354 N 
ATOM     51  N   UNL A   1      41.503  29.710  33.146  1.00  0.00    -0.248 NA
ATOM     52  C   UNL A   1      41.598  30.420  35.370  1.00  0.00     0.031 C 
ATOM     53  C   UNL A   1      44.320  26.817  31.324  1.00  0.00     0.029 A 
ATOM     54  C   UNL A   1      43.428  27.682  31.934  1.00  0.00     0.049 A 
ATOM     55  H   UNL A   1      41.644  28.514  31.175  1.00  0.00     0.167 HD
ATOM     56  C   UNL A   1      42.598  29.124  33.767  1.00  0.00     0.074 A 
ATOM     57  C   UNL A   1      42.634  29.629  35.124  1.00  0.00     0.031 C 
ATOM     58  C   UNL A   1      43.476  28.220  33.268  1.00  0.00     0.034 A 
BRANCH  45  59
ATOM     59  C   UNL A   1      42.218  26.361  27.533  1.00  0.00     0.023 A 
ATOM     60  C   UNL A   1      43.112  26.839  26.556  1.00  0.00     0.012 A 
ATOM     61  C   UNL A   1      41.808  25.012  27.499  1.00  0.00     0.148 A 
ATOM     62  C   UNL A   1      43.587  25.989  25.557  1.00  0.00     0.002 A 
ATOM     63  C   UNL A   1      42.312  24.163  26.521  1.00  0.00     0.091 A 
ATOM     64  F   UNL A   1      40.941  24.584  28.428  1.00  0.00    -0.205 F 
ATOM     65  C   UNL A   1      43.198  24.651  25.547  1.00  0.00     0.022 A 
BRANCH  63  66
ATOM     66  S   UNL A   1      41.934  22.406  26.471  1.00  0.00     0.127 S 
ATOM     67  O   UNL A   1      40.485  22.422  26.274  1.00  0.00    -0.237 OA
ATOM     68  O   UNL A   1      42.701  21.957  25.310  1.00  0.00    -0.237 OA
ATOM     69  O   UNL A   1      42.384  21.861  27.745  1.00  0.00    -0.744 OA
ENDBRANCH  63  66
ENDBRANCH  45  59
BRANCH  46  70
ATOM     70  C   UNL A   1      39.195  32.088  35.111  1.00  0.00     0.023 A 
ATOM     71  C   UNL A   1      38.332  31.482  36.041  1.00  0.00     0.012 A 
ATOM     72  C   UNL A   1      39.626  33.410  35.335  1.00  0.00     0.148 A 
ATOM     73  C   UNL A   1      37.902  32.183  37.171  1.00  0.00     0.002 A 
ATOM     74  C   UNL A   1      39.253  34.075  36.497  1.00  0.00     0.091 A 
ATOM     75  F   UNL A   1      40.421  33.991  34.424  1.00  0.00    -0.205 F 
ATOM     76  C   UNL A   1      38.377  33.470  37.409  1.00  0.00     0.022 A 
BRANCH  74  77
ATOM     77  S   UNL A   1      39.994  35.653  36.931  1.00  0.00     0.127 S 
ATOM     78  O   UNL A   1      39.386  35.931  38.228  1.00  0.00    -0.237 OA
ATOM     79  O   UNL A   1      41.422  35.335  36.977  1.00  0.00    -0.237 OA
ATOM     80  O   UNL A   1      39.626  36.545  35.837  1.00  0.00    -0.744 OA
ENDBRANCH  74  77
ENDBRANCH  46  70
BRANCH  58  81
ATOM     81  C   UNL A   1      44.539  27.705  34.197  1.00  0.00     0.023 A 
ATOM     82  C   UNL A   1      45.723  28.453  34.359  1.00  0.00     0.012 A 
ATOM     83  C   UNL A   1      44.352  26.530  34.948  1.00  0.00     0.148 A 
ATOM     84  C   UNL A   1      46.716  28.025  35.238  1.00  0.00     0.002 A 
ATOM     85  C   UNL A   1      45.331  26.128  35.849  1.00  0.00     0.091 A 
ATOM     86  F   UNL A   1      43.227  25.825  34.763  1.00  0.00    -0.205 F 
ATOM     87  C   UNL A   1      46.517  26.868  35.989  1.00  0.00     0.022 A 
BRANCH  85  88
ATOM     88  S   UNL A   1      45.130  24.692  36.909  1.00  0.00     0.127 S 
ATOM     89  O   UNL A   1      44.868  23.635  35.935  1.00  0.00    -0.237 OA
ATOM     90  O   UNL A   1      46.432  24.603  37.571  1.00  0.00    -0.237 OA
ATOM     91  O   UNL A   1      44.022  25.009  37.802  1.00  0.00    -0.744 OA
ENDBRANCH  85  88
ENDBRANCH  58  81
ENDBRANCH  32  33
ENDBRANCH  25  27
ENDBRANCH  24  25
ENDBRANCH  23  24
ENDBRANCH   1  23
TORSDOF 20
ENDMDL
