MODEL 1
REMARK VINA RESULT:     -12.4      0.000      0.000
REMARK SMILES Cc1[nH]cnc1C[NH+]1CCC(Oc2cccc(F)c2)(C(=O)OCCOC(=O)c2ccc(-c3c4nc(c(-c5cccc(S(=O)(=O)[O-])c5F)c5ccc([nH]5)c(-c5cccc(S(=O)(=O)[O-])c5F)c5nc(c(-c6cccc(S(=O)(=O)[O-])c6F)c6ccc3[nH]6)C=C5)C=C4)cc2)CC1
REMARK SMILES IDX 24 1 23 2 22 3 20 4 21 5 11 6 8 7 9 8 92 9 10 11 91 12 7 13
REMARK SMILES IDX 6 14 1 15 2 16 3 17 4 18 5 20 12 21 13 22 14 23 19 24 15 25
REMARK SMILES IDX 17 26 16 27 18 28 25 29 26 30 27 31 28 32 29 33 90 34 30 35
REMARK SMILES IDX 89 36 31 37 32 38 33 39 83 40 34 41 88 42 82 43 84 44 35 45
REMARK SMILES IDX 87 46 81 47 80 48 36 50 68 51 48 52 67 53 49 54 52 55 66 56
REMARK SMILES IDX 85 57 50 58 51 59 65 61 86 62 53 63 37 64 38 65 46 66 39 67
REMARK SMILES IDX 41 68 47 69 40 70 42 71 43 72 44 73 45 74 69 75 70 76 78 77
REMARK SMILES IDX 71 78 73 79 79 80 72 81 74 82 75 83 76 84 77 85 54 86 55 87
REMARK SMILES IDX 63 88 56 89 58 90 64 91 57 92 59 93 60 94 61 95 62 96
REMARK H PARENT 8 10 3 19 84 49 52 60
REMARK Flexibility Score: inf
ROOT
ATOM      1  C   UNL A   1      37.416  21.213  24.560  1.00  0.00     0.275 C 
ENDROOT
BRANCH   1   2
ATOM      2  C   UNL A   1      36.976  22.423  23.748  1.00  0.00     0.274 C 
BRANCH   2   3
ATOM      3  O   UNL A   1      35.996  23.209  24.458  1.00  0.00    -0.459 OA
BRANCH   3   4
ATOM      4  C   UNL A   1      34.817  23.405  23.801  1.00  0.00     0.351 C 
ATOM      5  O   UNL A   1      34.727  24.007  22.734  1.00  0.00    -0.247 OA
BRANCH   4   6
ATOM      6  C   UNL A   1      33.586  22.926  24.592  1.00  0.00     0.216 C 
ATOM      7  N   UNL A   1      32.491  20.320  23.908  1.00  0.00    -0.330 N 
ATOM      8  C   UNL A   1      33.753  20.367  24.643  1.00  0.00     0.267 C 
ATOM      9  C   UNL A   1      32.451  21.381  22.905  1.00  0.00     0.267 C 
ATOM     10  H   UNL A   1      31.751  20.481  24.592  1.00  0.00     0.348 HD
ATOM     11  C   UNL A   1      33.813  21.666  25.446  1.00  0.00     0.122 C 
ATOM     12  C   UNL A   1      32.404  22.734  23.612  1.00  0.00     0.122 C 
BRANCH   7  13
ATOM     13  C   UNL A   1      32.176  18.997  23.330  1.00  0.00     0.321 C 
BRANCH  13  14
ATOM     14  C   UNL A   1      32.592  17.822  24.163  1.00  0.00     0.115 A 
ATOM     15  C   UNL A   1      34.450  16.620  22.752  1.00  0.00     0.066 C 
ATOM     16  C   UNL A   1      33.546  16.853  23.897  1.00  0.00     0.040 A 
ATOM     17  N   UNL A   1      33.546  16.042  25.003  1.00  0.00    -0.348 N 
ATOM     18  C   UNL A   1      32.667  16.567  25.900  1.00  0.00     0.197 A 
ATOM     19  H   UNL A   1      34.085  15.227  25.126  1.00  0.00     0.167 HD
ATOM     20  N   UNL A   1      32.060  17.625  25.419  1.00  0.00    -0.236 NA
ENDBRANCH  13  14
ENDBRANCH   7  13
BRANCH   6  21
ATOM     21  O   UNL A   1      33.506  24.070  25.505  1.00  0.00    -0.475 OA
BRANCH  21  22
ATOM     22  C   UNL A   1      32.437  24.900  25.360  1.00  0.00     0.123 A 
ATOM     23  C   UNL A   1      31.267  24.638  26.072  1.00  0.00     0.047 A 
ATOM     24  C   UNL A   1      32.557  26.052  24.588  1.00  0.00     0.085 A 
ATOM     25  C   UNL A   1      30.180  25.504  25.963  1.00  0.00     0.007 A 
ATOM     26  C   UNL A   1      31.468  26.909  24.487  1.00  0.00     0.126 A 
ATOM     27  C   UNL A   1      30.279  26.642  25.162  1.00  0.00     0.039 A 
ATOM     28  F   UNL A   1      31.561  28.013  23.738  1.00  0.00    -0.207 F 
ENDBRANCH  21  22
ENDBRANCH   6  21
ENDBRANCH   4   6
ENDBRANCH   3   4
ENDBRANCH   2   3
ENDBRANCH   1   2
BRANCH   1  29
ATOM     29  O   UNL A   1      37.782  21.629  25.884  1.00  0.00    -0.458 OA
BRANCH  29  30
ATOM     30  C   UNL A   1      39.102  21.580  26.166  1.00  0.00     0.338 C 
ATOM     31  O   UNL A   1      39.857  20.639  25.944  1.00  0.00    -0.246 OA
BRANCH  30  32
ATOM     32  C   UNL A   1      39.548  22.835  26.806  1.00  0.00     0.060 A 
ATOM     33  C   UNL A   1      39.034  24.076  26.423  1.00  0.00     0.016 A 
ATOM     34  C   UNL A   1      40.605  22.770  27.715  1.00  0.00     0.016 A 
ATOM     35  C   UNL A   1      39.671  25.248  26.832  1.00  0.00     0.010 A 
ATOM     36  C   UNL A   1      41.193  23.944  28.184  1.00  0.00     0.010 A 
ATOM     37  C   UNL A   1      40.757  25.192  27.716  1.00  0.00    -0.014 A 
BRANCH  37  38
ATOM     38  C   UNL A   1      41.396  26.425  28.236  1.00  0.00     0.031 A 
ATOM     39  C   UNL A   1      40.589  27.489  28.927  1.00  0.00     0.074 A 
ATOM     40  C   UNL A   1      42.705  26.618  27.993  1.00  0.00     0.049 A 
ATOM     41  N   UNL A   1      40.928  28.717  29.223  1.00  0.00    -0.248 NA
ATOM     42  C   UNL A   1      39.221  27.131  29.337  1.00  0.00     0.031 C 
ATOM     43  C   UNL A   1      43.587  25.650  27.340  1.00  0.00     0.029 A 
ATOM     44  N   UNL A   1      43.509  27.705  28.223  1.00  0.00    -0.354 N 
ATOM     45  C   UNL A   1      39.812  29.291  29.818  1.00  0.00     0.074 A 
ATOM     46  C   UNL A   1      38.780  28.275  29.845  1.00  0.00     0.031 C 
ATOM     47  C   UNL A   1      44.803  26.190  27.200  1.00  0.00     0.029 A 
ATOM     48  C   UNL A   1      44.765  27.565  27.683  1.00  0.00     0.049 A 
ATOM     49  H   UNL A   1      43.218  28.501  28.724  1.00  0.00     0.167 HD
ATOM     50  C   UNL A   1      39.673  30.546  30.309  1.00  0.00     0.034 A 
ATOM     51  C   UNL A   1      45.763  28.458  27.533  1.00  0.00     0.034 A 
ATOM     52  C   UNL A   1      40.727  31.529  30.320  1.00  0.00     0.049 A 
ATOM     53  C   UNL A   1      45.573  29.853  28.045  1.00  0.00     0.074 A 
ATOM     54  C   UNL A   1      40.701  32.812  30.838  1.00  0.00     0.029 A 
ATOM     55  N   UNL A   1      41.997  31.338  29.795  1.00  0.00    -0.354 N 
ATOM     56  N   UNL A   1      44.530  30.370  28.647  1.00  0.00    -0.248 NA
ATOM     57  C   UNL A   1      46.694  30.784  27.871  1.00  0.00     0.031 C 
ATOM     58  C   UNL A   1      41.952  33.400  30.621  1.00  0.00     0.029 A 
ATOM     59  C   UNL A   1      42.760  32.481  29.971  1.00  0.00     0.049 A 
ATOM     60  H   UNL A   1      42.310  30.511  29.362  1.00  0.00     0.167 HD
ATOM     61  C   UNL A   1      44.869  31.684  28.936  1.00  0.00     0.074 A 
ATOM     62  C   UNL A   1      46.226  31.877  28.463  1.00  0.00     0.031 C 
ATOM     63  C   UNL A   1      44.117  32.647  29.521  1.00  0.00     0.034 A 
BRANCH  50  64
ATOM     64  C   UNL A   1      38.359  30.934  30.934  1.00  0.00     0.023 A 
ATOM     65  C   UNL A   1      38.178  30.752  32.320  1.00  0.00     0.012 A 
ATOM     66  C   UNL A   1      37.364  31.597  30.189  1.00  0.00     0.148 A 
ATOM     67  C   UNL A   1      37.028  31.222  32.953  1.00  0.00     0.002 A 
ATOM     68  C   UNL A   1      36.232  32.088  30.833  1.00  0.00     0.091 A 
ATOM     69  F   UNL A   1      37.544  31.742  28.868  1.00  0.00    -0.205 F 
ATOM     70  C   UNL A   1      36.063  31.901  32.214  1.00  0.00     0.022 A 
BRANCH  68  71
ATOM     71  S   UNL A   1      34.968  33.037  29.976  1.00  0.00     0.127 S 
ATOM     72  O   UNL A   1      34.434  32.046  29.043  1.00  0.00    -0.237 OA
ATOM     73  O   UNL A   1      34.057  33.399  31.063  1.00  0.00    -0.237 OA
ATOM     74  O   UNL A   1      35.658  34.165  29.366  1.00  0.00    -0.744 OA
ENDBRANCH  68  71
ENDBRANCH  50  64
BRANCH  51  75
ATOM     75  C   UNL A   1      47.021  28.009  26.880  1.00  0.00     0.023 A 
ATOM     76  C   UNL A   1      47.967  27.292  27.633  1.00  0.00     0.012 A 
ATOM     77  C   UNL A   1      47.207  28.150  25.489  1.00  0.00     0.148 A 
ATOM     78  C   UNL A   1      49.070  26.707  27.008  1.00  0.00     0.002 A 
ATOM     79  C   UNL A   1      48.271  27.510  24.865  1.00  0.00     0.091 A 
ATOM     80  F   UNL A   1      46.306  28.860  24.794  1.00  0.00    -0.205 F 
ATOM     81  C   UNL A   1      49.209  26.796  25.626  1.00  0.00     0.022 A 
BRANCH  79  82
ATOM     82  S   UNL A   1      48.402  27.424  23.074  1.00  0.00     0.127 S 
ATOM     83  O   UNL A   1      48.307  25.987  22.835  1.00  0.00    -0.237 OA
ATOM     84  O   UNL A   1      47.239  28.199  22.639  1.00  0.00    -0.237 OA
ATOM     85  O   UNL A   1      49.681  28.044  22.753  1.00  0.00    -0.744 OA
ENDBRANCH  79  82
ENDBRANCH  51  75
BRANCH  63  86
ATOM     86  C   UNL A   1      44.739  34.007  29.674  1.00  0.00     0.023 A 
ATOM     87  C   UNL A   1      45.439  34.311  30.859  1.00  0.00     0.012 A 
ATOM     88  C   UNL A   1      44.696  34.952  28.632  1.00  0.00     0.148 A 
ATOM     89  C   UNL A   1      46.070  35.544  31.012  1.00  0.00     0.002 A 
ATOM     90  C   UNL A   1      45.357  36.166  28.777  1.00  0.00     0.091 A 
ATOM     91  F   UNL A   1      44.005  34.652  27.521  1.00  0.00    -0.205 F 
ATOM     92  C   UNL A   1      46.038  36.466  29.968  1.00  0.00     0.022 A 
BRANCH  90  93
ATOM     93  S   UNL A   1      45.425  37.375  27.450  1.00  0.00     0.127 S 
ATOM     94  O   UNL A   1      46.081  36.616  26.387  1.00  0.00    -0.237 OA
ATOM     95  O   UNL A   1      44.011  37.662  27.208  1.00  0.00    -0.237 OA
ATOM     96  O   UNL A   1      46.180  38.501  27.983  1.00  0.00    -0.744 OA
ENDBRANCH  90  93
ENDBRANCH  63  86
ENDBRANCH  37  38
ENDBRANCH  30  32
ENDBRANCH  29  30
ENDBRANCH   1  29
TORSDOF 18
ENDMDL
MODEL 2
REMARK VINA RESULT:     -12.0      5.489     10.503
REMARK SMILES Cc1[nH]cnc1C[NH+]1CCC(Oc2cccc(F)c2)(C(=O)OCCOC(=O)c2ccc(-c3c4nc(c(-c5cccc(S(=O)(=O)[O-])c5F)c5ccc([nH]5)c(-c5cccc(S(=O)(=O)[O-])c5F)c5nc(c(-c6cccc(S(=O)(=O)[O-])c6F)c6ccc3[nH]6)C=C5)C=C4)cc2)CC1
REMARK SMILES IDX 24 1 23 2 22 3 20 4 21 5 11 6 8 7 9 8 92 9 10 11 91 12 7 13
REMARK SMILES IDX 6 14 1 15 2 16 3 17 4 18 5 20 12 21 13 22 14 23 19 24 15 25
REMARK SMILES IDX 17 26 16 27 18 28 25 29 26 30 27 31 28 32 29 33 90 34 30 35
REMARK SMILES IDX 89 36 31 37 32 38 33 39 83 40 34 41 88 42 82 43 84 44 35 45
REMARK SMILES IDX 87 46 81 47 80 48 36 50 68 51 48 52 67 53 49 54 52 55 66 56
REMARK SMILES IDX 85 57 50 58 51 59 65 61 86 62 53 63 37 64 38 65 46 66 39 67
REMARK SMILES IDX 41 68 47 69 40 70 42 71 43 72 44 73 45 74 69 75 70 76 78 77
REMARK SMILES IDX 71 78 73 79 79 80 72 81 74 82 75 83 76 84 77 85 54 86 55 87
REMARK SMILES IDX 63 88 56 89 58 90 64 91 57 92 59 93 60 94 61 95 62 96
REMARK H PARENT 8 10 3 19 84 49 52 60
REMARK Flexibility Score: inf
ROOT
ATOM      1  C   UNL A   1      32.212  29.928  26.905  1.00  0.00     0.275 C 
ENDROOT
BRANCH   1   2
ATOM      2  C   UNL A   1      32.265  28.605  27.658  1.00  0.00     0.274 C 
BRANCH   2   3
ATOM      3  O   UNL A   1      32.846  27.561  26.850  1.00  0.00    -0.459 OA
BRANCH   3   4
ATOM      4  C   UNL A   1      31.959  26.833  26.110  1.00  0.00     0.351 C 
ATOM      5  O   UNL A   1      30.947  26.318  26.579  1.00  0.00    -0.247 OA
BRANCH   4   6
ATOM      6  C   UNL A   1      32.420  26.595  24.661  1.00  0.00     0.216 C 
ATOM      7  N   UNL A   1      31.477  28.460  22.638  1.00  0.00    -0.330 N 
ATOM      8  C   UNL A   1      32.502  28.916  23.574  1.00  0.00     0.267 C 
ATOM      9  C   UNL A   1      30.498  27.623  23.329  1.00  0.00     0.267 C 
ATOM     10  H   UNL A   1      31.956  27.897  21.934  1.00  0.00     0.348 HD
ATOM     11  C   UNL A   1      33.299  27.709  24.067  1.00  0.00     0.122 C 
ATOM     12  C   UNL A   1      31.177  26.330  23.778  1.00  0.00     0.122 C 
BRANCH   7  13
ATOM     13  C   UNL A   1      30.834  29.543  21.867  1.00  0.00     0.321 C 
BRANCH  13  14
ATOM     14  C   UNL A   1      29.478  29.956  22.355  1.00  0.00     0.115 A 
ATOM     15  C   UNL A   1      29.942  31.364  24.522  1.00  0.00     0.066 C 
ATOM     16  C   UNL A   1      29.140  30.720  23.462  1.00  0.00     0.040 A 
ATOM     17  N   UNL A   1      27.773  30.821  23.418  1.00  0.00    -0.348 N 
ATOM     18  C   UNL A   1      27.347  30.192  22.288  1.00  0.00     0.197 A 
ATOM     19  H   UNL A   1      27.202  31.270  24.084  1.00  0.00     0.167 HD
ATOM     20  N   UNL A   1      28.344  29.642  21.638  1.00  0.00    -0.236 NA
ENDBRANCH  13  14
ENDBRANCH   7  13
BRANCH   6  21
ATOM     21  O   UNL A   1      33.288  25.447  24.937  1.00  0.00    -0.475 OA
BRANCH  21  22
ATOM     22  C   UNL A   1      32.987  24.280  24.305  1.00  0.00     0.123 A 
ATOM     23  C   UNL A   1      33.387  24.095  22.983  1.00  0.00     0.047 A 
ATOM     24  C   UNL A   1      32.376  23.249  25.015  1.00  0.00     0.085 A 
ATOM     25  C   UNL A   1      33.119  22.888  22.339  1.00  0.00     0.007 A 
ATOM     26  C   UNL A   1      32.115  22.050  24.363  1.00  0.00     0.126 A 
ATOM     27  C   UNL A   1      32.474  21.862  23.031  1.00  0.00     0.039 A 
ATOM     28  F   UNL A   1      31.515  21.053  25.026  1.00  0.00    -0.207 F 
ENDBRANCH  21  22
ENDBRANCH   6  21
ENDBRANCH   4   6
ENDBRANCH   3   4
ENDBRANCH   2   3
ENDBRANCH   1   2
BRANCH   1  29
ATOM     29  O   UNL A   1      33.542  30.437  26.735  1.00  0.00    -0.458 OA
BRANCH  29  30
ATOM     30  C   UNL A   1      33.862  31.504  27.501  1.00  0.00     0.338 C 
ATOM     31  O   UNL A   1      33.222  32.545  27.597  1.00  0.00    -0.246 OA
BRANCH  30  32
ATOM     32  C   UNL A   1      35.122  31.263  28.233  1.00  0.00     0.060 A 
ATOM     33  C   UNL A   1      36.179  32.176  28.192  1.00  0.00     0.016 A 
ATOM     34  C   UNL A   1      35.293  30.028  28.860  1.00  0.00     0.016 A 
ATOM     35  C   UNL A   1      37.443  31.797  28.646  1.00  0.00     0.010 A 
ATOM     36  C   UNL A   1      36.538  29.679  29.382  1.00  0.00     0.010 A 
ATOM     37  C   UNL A   1      37.634  30.544  29.244  1.00  0.00    -0.014 A 
BRANCH  37  38
ATOM     38  C   UNL A   1      38.945  30.150  29.815  1.00  0.00     0.031 A 
ATOM     39  C   UNL A   1      39.796  29.099  29.158  1.00  0.00     0.074 A 
ATOM     40  C   UNL A   1      39.318  30.688  30.990  1.00  0.00     0.049 A 
ATOM     41  N   UNL A   1      40.835  28.466  29.638  1.00  0.00    -0.248 NA
ATOM     42  C   UNL A   1      39.433  28.704  27.788  1.00  0.00     0.031 C 
ATOM     43  C   UNL A   1      38.574  31.723  31.711  1.00  0.00     0.029 A 
ATOM     44  N   UNL A   1      40.384  30.410  31.806  1.00  0.00    -0.354 N 
ATOM     45  C   UNL A   1      41.230  27.573  28.649  1.00  0.00     0.074 A 
ATOM     46  C   UNL A   1      40.319  27.747  27.536  1.00  0.00     0.031 C 
ATOM     47  C   UNL A   1      39.191  31.978  32.871  1.00  0.00     0.029 A 
ATOM     48  C   UNL A   1      40.327  31.073  33.008  1.00  0.00     0.049 A 
ATOM     49  H   UNL A   1      41.115  29.799  31.556  1.00  0.00     0.167 HD
ATOM     50  C   UNL A   1      42.268  26.703  28.668  1.00  0.00     0.034 A 
ATOM     51  C   UNL A   1      41.064  30.933  34.126  1.00  0.00     0.034 A 
ATOM     52  C   UNL A   1      43.197  26.579  29.763  1.00  0.00     0.049 A 
ATOM     53  C   UNL A   1      42.181  29.935  34.141  1.00  0.00     0.074 A 
ATOM     54  C   UNL A   1      44.310  25.761  29.858  1.00  0.00     0.029 A 
ATOM     55  N   UNL A   1      43.126  27.294  30.949  1.00  0.00    -0.354 N 
ATOM     56  N   UNL A   1      42.573  29.131  33.184  1.00  0.00    -0.248 NA
ATOM     57  C   UNL A   1      42.964  29.831  35.378  1.00  0.00     0.031 C 
ATOM     58  C   UNL A   1      44.908  25.977  31.105  1.00  0.00     0.029 A 
ATOM     59  C   UNL A   1      44.170  26.932  31.784  1.00  0.00     0.049 A 
ATOM     60  H   UNL A   1      42.435  27.962  31.165  1.00  0.00     0.167 HD
ATOM     61  C   UNL A   1      43.656  28.430  33.694  1.00  0.00     0.074 A 
ATOM     62  C   UNL A   1      43.873  28.924  35.041  1.00  0.00     0.031 C 
ATOM     63  C   UNL A   1      44.390  27.453  33.109  1.00  0.00     0.034 A 
BRANCH  50  64
ATOM     64  C   UNL A   1      42.512  25.845  27.453  1.00  0.00     0.023 A 
ATOM     65  C   UNL A   1      43.300  26.353  26.402  1.00  0.00     0.012 A 
ATOM     66  C   UNL A   1      42.082  24.504  27.410  1.00  0.00     0.148 A 
ATOM     67  C   UNL A   1      43.657  25.541  25.326  1.00  0.00     0.002 A 
ATOM     68  C   UNL A   1      42.466  23.691  26.347  1.00  0.00     0.091 A 
ATOM     69  F   UNL A   1      41.315  24.045  28.409  1.00  0.00    -0.205 F 
ATOM     70  C   UNL A   1      43.251  24.209  25.305  1.00  0.00     0.022 A 
BRANCH  68  71
ATOM     71  S   UNL A   1      42.050  21.944  26.268  1.00  0.00     0.127 S 
ATOM     72  O   UNL A   1      42.877  21.493  25.149  1.00  0.00    -0.237 OA
ATOM     73  O   UNL A   1      42.486  21.458  27.578  1.00  0.00    -0.237 OA
ATOM     74  O   UNL A   1      40.612  21.884  26.049  1.00  0.00    -0.744 OA
ENDBRANCH  68  71
ENDBRANCH  50  64
BRANCH  51  75
ATOM     75  C   UNL A   1      40.746  31.796  35.296  1.00  0.00     0.023 A 
ATOM     76  C   UNL A   1      41.462  32.991  35.482  1.00  0.00     0.012 A 
ATOM     77  C   UNL A   1      39.637  31.518  36.122  1.00  0.00     0.148 A 
ATOM     78  C   UNL A   1      41.071  33.903  36.463  1.00  0.00     0.002 A 
ATOM     79  C   UNL A   1      39.214  32.461  37.051  1.00  0.00     0.091 A 
ATOM     80  F   UNL A   1      38.983  30.360  35.944  1.00  0.00    -0.205 F 
ATOM     81  C   UNL A   1      39.936  33.650  37.230  1.00  0.00     0.022 A 
BRANCH  79  82
ATOM     82  S   UNL A   1      37.657  32.284  37.932  1.00  0.00     0.127 S 
ATOM     83  O   UNL A   1      37.959  32.921  39.210  1.00  0.00    -0.237 OA
ATOM     84  O   UNL A   1      36.728  33.026  37.078  1.00  0.00    -0.237 OA
ATOM     85  O   UNL A   1      37.401  30.849  37.975  1.00  0.00    -0.744 OA
ENDBRANCH  79  82
ENDBRANCH  51  75
BRANCH  63  86
ATOM     86  C   UNL A   1      45.494  26.840  33.924  1.00  0.00     0.023 A 
ATOM     87  C   UNL A   1      46.775  27.425  33.892  1.00  0.00     0.012 A 
ATOM     88  C   UNL A   1      45.254  25.739  34.768  1.00  0.00     0.148 A 
ATOM     89  C   UNL A   1      47.807  26.911  34.675  1.00  0.00     0.002 A 
ATOM     90  C   UNL A   1      46.278  25.254  35.572  1.00  0.00     0.091 A 
ATOM     91  F   UNL A   1      44.033  25.182  34.766  1.00  0.00    -0.205 F 
ATOM     92  C   UNL A   1      47.556  25.834  35.522  1.00  0.00     0.022 A 
BRANCH  90  93
ATOM     93  S   UNL A   1      46.014  23.918  36.744  1.00  0.00     0.127 S 
ATOM     94  O   UNL A   1      44.965  24.472  37.598  1.00  0.00    -0.237 OA
ATOM     95  O   UNL A   1      45.578  22.820  35.880  1.00  0.00    -0.237 OA
ATOM     96  O   UNL A   1      47.303  23.698  37.385  1.00  0.00    -0.744 OA
ENDBRANCH  90  93
ENDBRANCH  63  86
ENDBRANCH  37  38
ENDBRANCH  30  32
ENDBRANCH  29  30
ENDBRANCH   1  29
TORSDOF 18
ENDMDL
MODEL 3
REMARK VINA RESULT:     -11.8      5.586     10.597
REMARK SMILES Cc1[nH]cnc1C[NH+]1CCC(Oc2cccc(F)c2)(C(=O)OCCOC(=O)c2ccc(-c3c4nc(c(-c5cccc(S(=O)(=O)[O-])c5F)c5ccc([nH]5)c(-c5cccc(S(=O)(=O)[O-])c5F)c5nc(c(-c6cccc(S(=O)(=O)[O-])c6F)c6ccc3[nH]6)C=C5)C=C4)cc2)CC1
REMARK SMILES IDX 24 1 23 2 22 3 20 4 21 5 11 6 8 7 9 8 92 9 10 11 91 12 7 13
REMARK SMILES IDX 6 14 1 15 2 16 3 17 4 18 5 20 12 21 13 22 14 23 19 24 15 25
REMARK SMILES IDX 17 26 16 27 18 28 25 29 26 30 27 31 28 32 29 33 90 34 30 35
REMARK SMILES IDX 89 36 31 37 32 38 33 39 83 40 34 41 88 42 82 43 84 44 35 45
REMARK SMILES IDX 87 46 81 47 80 48 36 50 68 51 48 52 67 53 49 54 52 55 66 56
REMARK SMILES IDX 85 57 50 58 51 59 65 61 86 62 53 63 37 64 38 65 46 66 39 67
REMARK SMILES IDX 41 68 47 69 40 70 42 71 43 72 44 73 45 74 69 75 70 76 78 77
REMARK SMILES IDX 71 78 73 79 79 80 72 81 74 82 75 83 76 84 77 85 54 86 55 87
REMARK SMILES IDX 63 88 56 89 58 90 64 91 57 92 59 93 60 94 61 95 62 96
REMARK H PARENT 8 10 3 19 84 49 52 60
REMARK Flexibility Score: inf
ROOT
ATOM      1  C   UNL A   1      31.541  30.319  26.579  1.00  0.00     0.275 C 
ENDROOT
BRANCH   1   2
ATOM      2  C   UNL A   1      31.677  28.910  27.139  1.00  0.00     0.274 C 
BRANCH   2   3
ATOM      3  O   UNL A   1      31.435  27.912  26.126  1.00  0.00    -0.459 OA
BRANCH   3   4
ATOM      4  C   UNL A   1      32.512  27.590  25.353  1.00  0.00     0.351 C 
ATOM      5  O   UNL A   1      33.674  27.653  25.749  1.00  0.00    -0.247 OA
BRANCH   4   6
ATOM      6  C   UNL A   1      32.148  27.278  23.891  1.00  0.00     0.216 C 
ATOM      7  N   UNL A   1      29.521  28.116  22.963  1.00  0.00    -0.330 N 
ATOM      8  C   UNL A   1      30.541  29.142  23.169  1.00  0.00     0.267 C 
ATOM      9  C   UNL A   1      29.602  27.105  24.015  1.00  0.00     0.267 C 
ATOM     10  H   UNL A   1      29.728  27.677  22.065  1.00  0.00     0.348 HD
ATOM     11  C   UNL A   1      31.923  28.512  23.000  1.00  0.00     0.122 C 
ATOM     12  C   UNL A   1      30.917  26.340  23.870  1.00  0.00     0.122 C 
BRANCH   7  13
ATOM     13  C   UNL A   1      28.151  28.645  22.807  1.00  0.00     0.321 C 
BRANCH  13  14
ATOM     14  C   UNL A   1      28.060  29.999  22.170  1.00  0.00     0.115 A 
ATOM     15  C   UNL A   1      27.456  31.629  24.136  1.00  0.00     0.066 C 
ATOM     16  C   UNL A   1      27.773  31.224  22.752  1.00  0.00     0.040 A 
ATOM     17  N   UNL A   1      27.856  32.131  21.726  1.00  0.00    -0.348 N 
ATOM     18  C   UNL A   1      28.240  31.458  20.608  1.00  0.00     0.197 A 
ATOM     19  H   UNL A   1      27.671  33.097  21.789  1.00  0.00     0.167 HD
ATOM     20  N   UNL A   1      28.350  30.170  20.834  1.00  0.00    -0.236 NA
ENDBRANCH  13  14
ENDBRANCH   7  13
BRANCH   6  21
ATOM     21  O   UNL A   1      33.433  26.686  23.509  1.00  0.00    -0.475 OA
BRANCH  21  22
ATOM     22  C   UNL A   1      33.466  25.336  23.346  1.00  0.00     0.123 A 
ATOM     23  C   UNL A   1      33.100  24.786  22.118  1.00  0.00     0.047 A 
ATOM     24  C   UNL A   1      33.959  24.529  24.369  1.00  0.00     0.085 A 
ATOM     25  C   UNL A   1      33.169  23.406  21.927  1.00  0.00     0.007 A 
ATOM     26  C   UNL A   1      34.024  23.156  24.167  1.00  0.00     0.126 A 
ATOM     27  C   UNL A   1      33.628  22.587  22.959  1.00  0.00     0.039 A 
ATOM     28  F   UNL A   1      34.482  22.364  25.144  1.00  0.00    -0.207 F 
ENDBRANCH  21  22
ENDBRANCH   6  21
ENDBRANCH   4   6
ENDBRANCH   3   4
ENDBRANCH   2   3
ENDBRANCH   1   2
BRANCH   1  29
ATOM     29  O   UNL A   1      32.841  30.844  26.276  1.00  0.00    -0.458 OA
BRANCH  29  30
ATOM     30  C   UNL A   1      33.325  31.748  27.156  1.00  0.00     0.338 C 
ATOM     31  O   UNL A   1      32.770  32.781  27.513  1.00  0.00    -0.246 OA
BRANCH  30  32
ATOM     32  C   UNL A   1      34.653  31.335  27.653  1.00  0.00     0.060 A 
ATOM     33  C   UNL A   1      34.915  30.019  28.041  1.00  0.00     0.016 A 
ATOM     34  C   UNL A   1      35.614  32.326  27.861  1.00  0.00     0.016 A 
ATOM     35  C   UNL A   1      36.070  29.724  28.767  1.00  0.00     0.010 A 
ATOM     36  C   UNL A   1      36.804  32.015  28.519  1.00  0.00     0.010 A 
ATOM     37  C   UNL A   1      37.024  30.721  29.013  1.00  0.00    -0.014 A 
BRANCH  37  38
ATOM     38  C   UNL A   1      38.300  30.416  29.704  1.00  0.00     0.031 A 
ATOM     39  C   UNL A   1      39.297  29.459  29.112  1.00  0.00     0.074 A 
ATOM     40  C   UNL A   1      38.508  30.943  30.925  1.00  0.00     0.049 A 
ATOM     41  N   UNL A   1      40.333  28.897  29.678  1.00  0.00    -0.248 NA
ATOM     42  C   UNL A   1      39.107  29.081  27.702  1.00  0.00     0.031 C 
ATOM     43  C   UNL A   1      37.613  31.890  31.591  1.00  0.00     0.029 A 
ATOM     44  N   UNL A   1      39.508  30.725  31.837  1.00  0.00    -0.354 N 
ATOM     45  C   UNL A   1      40.898  28.072  28.713  1.00  0.00     0.074 A 
ATOM     46  C   UNL A   1      40.091  28.208  27.518  1.00  0.00     0.031 C 
ATOM     47  C   UNL A   1      38.088  32.155  32.813  1.00  0.00     0.029 A 
ATOM     48  C   UNL A   1      39.276  31.341  33.043  1.00  0.00     0.049 A 
ATOM     49  H   UNL A   1      40.308  30.184  31.648  1.00  0.00     0.167 HD
ATOM     50  C   UNL A   1      41.998  27.288  28.816  1.00  0.00     0.034 A 
ATOM     51  C   UNL A   1      39.908  31.225  34.227  1.00  0.00     0.034 A 
ATOM     52  C   UNL A   1      42.821  27.204  29.996  1.00  0.00     0.049 A 
ATOM     53  C   UNL A   1      41.097  30.320  34.330  1.00  0.00     0.074 A 
ATOM     54  C   UNL A   1      43.983  26.476  30.184  1.00  0.00     0.029 A 
ATOM     55  N   UNL A   1      42.573  27.871  31.186  1.00  0.00    -0.354 N 
ATOM     56  N   UNL A   1      41.649  29.583  33.398  1.00  0.00    -0.248 NA
ATOM     57  C   UNL A   1      41.760  30.239  35.637  1.00  0.00     0.031 C 
ATOM     58  C   UNL A   1      44.435  26.697  31.490  1.00  0.00     0.029 A 
ATOM     59  C   UNL A   1      43.555  27.567  32.114  1.00  0.00     0.049 A 
ATOM     60  H   UNL A   1      41.810  28.473  31.348  1.00  0.00     0.167 HD
ATOM     61  C   UNL A   1      42.731  28.955  33.999  1.00  0.00     0.074 A 
ATOM     62  C   UNL A   1      42.771  29.420  35.372  1.00  0.00     0.031 C 
ATOM     63  C   UNL A   1      43.598  28.060  33.467  1.00  0.00     0.034 A 
BRANCH  50  64
ATOM     64  C   UNL A   1      42.433  26.494  27.611  1.00  0.00     0.023 A 
ATOM     65  C   UNL A   1      43.347  27.066  26.706  1.00  0.00     0.012 A 
ATOM     66  C   UNL A   1      42.049  25.148  27.449  1.00  0.00     0.148 A 
ATOM     67  C   UNL A   1      43.872  26.312  25.656  1.00  0.00     0.002 A 
ATOM     68  C   UNL A   1      42.598  24.394  26.416  1.00  0.00     0.091 A 
ATOM     69  F   UNL A   1      41.161  24.628  28.309  1.00  0.00    -0.205 F 
ATOM     70  C   UNL A   1      43.509  24.975  25.519  1.00  0.00     0.022 A 
BRANCH  68  71
ATOM     71  S   UNL A   1      42.244  22.644  26.202  1.00  0.00     0.127 S 
ATOM     72  O   UNL A   1      40.782  22.633  26.220  1.00  0.00    -0.237 OA
ATOM     73  O   UNL A   1      42.837  22.362  24.894  1.00  0.00    -0.237 OA
ATOM     74  O   UNL A   1      42.890  21.966  27.317  1.00  0.00    -0.744 OA
ENDBRANCH  68  71
ENDBRANCH  50  64
BRANCH  51  75
ATOM     75  C   UNL A   1      39.405  32.019  35.379  1.00  0.00     0.023 A 
ATOM     76  C   UNL A   1      38.552  31.408  36.314  1.00  0.00     0.012 A 
ATOM     77  C   UNL A   1      39.894  33.317  35.634  1.00  0.00     0.148 A 
ATOM     78  C   UNL A   1      38.206  32.070  37.493  1.00  0.00     0.002 A 
ATOM     79  C   UNL A   1      39.599  33.943  36.840  1.00  0.00     0.091 A 
ATOM     80  F   UNL A   1      40.686  33.893  34.717  1.00  0.00    -0.205 F 
ATOM     81  C   UNL A   1      38.747  33.324  37.766  1.00  0.00     0.022 A 
BRANCH  79  82
ATOM     82  S   UNL A   1      40.413  35.467  37.335  1.00  0.00     0.127 S 
ATOM     83  O   UNL A   1      40.058  35.553  38.748  1.00  0.00    -0.237 OA
ATOM     84  O   UNL A   1      41.822  35.170  37.071  1.00  0.00    -0.237 OA
ATOM     85  O   UNL A   1      39.855  36.499  36.470  1.00  0.00    -0.744 OA
ENDBRANCH  79  82
ENDBRANCH  51  75
BRANCH  63  86
ATOM     86  C   UNL A   1      44.663  27.512  34.374  1.00  0.00     0.023 A 
ATOM     87  C   UNL A   1      45.870  28.222  34.522  1.00  0.00     0.012 A 
ATOM     88  C   UNL A   1      44.449  26.343  35.130  1.00  0.00     0.148 A 
ATOM     89  C   UNL A   1      46.858  27.768  35.394  1.00  0.00     0.002 A 
ATOM     90  C   UNL A   1      45.423  25.914  36.023  1.00  0.00     0.091 A 
ATOM     91  F   UNL A   1      43.302  25.668  34.957  1.00  0.00    -0.205 F 
ATOM     92  C   UNL A   1      46.630  26.620  36.152  1.00  0.00     0.022 A 
BRANCH  90  93
ATOM     93  S   UNL A   1      45.173  24.489  37.089  1.00  0.00     0.127 S 
ATOM     94  O   UNL A   1      44.121  24.966  37.985  1.00  0.00    -0.237 OA
ATOM     95  O   UNL A   1      44.745  23.457  36.143  1.00  0.00    -0.237 OA
ATOM     96  O   UNL A   1      46.466  24.233  37.709  1.00  0.00    -0.744 OA
ENDBRANCH  90  93
ENDBRANCH  63  86
ENDBRANCH  37  38
ENDBRANCH  30  32
ENDBRANCH  29  30
ENDBRANCH   1  29
TORSDOF 18
ENDMDL
