MODEL 1
REMARK VINA RESULT:     -10.6      0.000      0.000
REMARK SMILES O=C(OCCOC(=O)[C@H]1C[C@](O)(c2ccccc2Cl)[C@@H](c2ccccc2Cl)O1)c1ccc(-c2c3nc(c(-c4cccc(S(=O)(=O)[O-])c4F)c4ccc([nH]4)c(-c4cccc(S(=O)(=O)[O-])c4F)c4nc(c(-c5cccc(S(=O)(=O)[O-])c5F)c5ccc2[nH]5)C=C4)C=C3)cc1
REMARK SMILES IDX 4 1 3 2 2 3 1 4 29 5 30 6 91 7 31 8 90 9 32 10 33 11 34 12
REMARK SMILES IDX 84 13 35 14 89 15 83 16 85 17 36 18 88 19 82 20 81 21 37 23
REMARK SMILES IDX 69 24 49 25 68 26 50 27 53 28 67 29 86 30 51 31 52 32 66 34
REMARK SMILES IDX 87 35 54 36 38 37 39 38 47 39 40 40 42 41 48 42 41 43 43 44
REMARK SMILES IDX 44 45 45 46 46 47 70 48 71 49 79 50 72 51 74 52 80 53 73 54
REMARK SMILES IDX 75 55 76 56 77 57 78 58 55 59 56 60 64 61 57 62 59 63 65 64
REMARK SMILES IDX 58 65 60 66 61 67 62 68 63 69 5 70 6 71 7 72 8 73 9 74 10 75
REMARK SMILES IDX 28 76 11 77 20 78 13 79 14 80 18 81 15 82 17 83 19 84 16 85
REMARK SMILES IDX 12 86 21 88 22 89 26 90 23 91 25 92 27 93 24 94
REMARK H PARENT 85 22 53 33 12 87
REMARK Flexibility Score: inf
ROOT
ATOM      1  C   UNL A   1      34.086  33.245  28.668  1.00  0.00     0.275 C 
ENDROOT
BRANCH   1   2
ATOM      2  O   UNL A   1      34.105  31.870  29.110  1.00  0.00    -0.458 OA
BRANCH   2   3
ATOM      3  C   UNL A   1      34.606  30.911  28.299  1.00  0.00     0.338 C 
ATOM      4  O   UNL A   1      33.999  30.504  27.324  1.00  0.00    -0.246 OA
BRANCH   3   5
ATOM      5  C   UNL A   1      36.003  30.517  28.656  1.00  0.00     0.060 A 
ATOM      6  C   UNL A   1      36.295  29.687  29.741  1.00  0.00     0.016 A 
ATOM      7  C   UNL A   1      37.043  30.918  27.813  1.00  0.00     0.016 A 
ATOM      8  C   UNL A   1      37.595  29.226  29.941  1.00  0.00     0.010 A 
ATOM      9  C   UNL A   1      38.328  30.389  27.961  1.00  0.00     0.010 A 
ATOM     10  C   UNL A   1      38.623  29.560  29.047  1.00  0.00    -0.014 A 
BRANCH  10  11
ATOM     11  C   UNL A   1      40.003  29.130  29.380  1.00  0.00     0.031 A 
ATOM     12  C   UNL A   1      40.667  29.712  30.594  1.00  0.00     0.074 A 
ATOM     13  C   UNL A   1      40.579  28.113  28.708  1.00  0.00     0.049 A 
ATOM     14  N   UNL A   1      41.614  29.199  31.332  1.00  0.00    -0.248 NA
ATOM     15  C   UNL A   1      40.194  31.028  31.054  1.00  0.00     0.031 C 
ATOM     16  C   UNL A   1      40.070  27.521  27.468  1.00  0.00     0.029 A 
ATOM     17  N   UNL A   1      41.692  27.363  29.001  1.00  0.00    -0.354 N 
ATOM     18  C   UNL A   1      41.827  30.114  32.354  1.00  0.00     0.074 A 
ATOM     19  C   UNL A   1      40.958  31.240  32.112  1.00  0.00     0.031 C 
ATOM     20  C   UNL A   1      40.833  26.464  27.140  1.00  0.00     0.029 A 
ATOM     21  C   UNL A   1      41.870  26.291  28.155  1.00  0.00     0.049 A 
ATOM     22  H   UNL A   1      42.303  27.573  29.744  1.00  0.00     0.167 HD
ATOM     23  C   UNL A   1      42.642  30.009  33.427  1.00  0.00     0.034 A 
ATOM     24  C   UNL A   1      42.729  25.254  28.232  1.00  0.00     0.034 A 
ATOM     25  C   UNL A   1      43.514  28.895  33.650  1.00  0.00     0.049 A 
ATOM     26  C   UNL A   1      43.619  25.145  29.447  1.00  0.00     0.074 A 
ATOM     27  C   UNL A   1      44.372  28.666  34.707  1.00  0.00     0.029 A 
ATOM     28  N   UNL A   1      43.654  27.829  32.772  1.00  0.00    -0.354 N 
ATOM     29  N   UNL A   1      43.657  25.905  30.515  1.00  0.00    -0.248 NA
ATOM     30  C   UNL A   1      44.545  24.003  29.493  1.00  0.00     0.031 C 
ATOM     31  C   UNL A   1      45.051  27.467  34.456  1.00  0.00     0.029 A 
ATOM     32  C   UNL A   1      44.596  26.943  33.255  1.00  0.00     0.049 A 
ATOM     33  H   UNL A   1      43.155  27.722  31.931  1.00  0.00     0.167 HD
ATOM     34  C   UNL A   1      44.577  25.315  31.375  1.00  0.00     0.074 A 
ATOM     35  C   UNL A   1      45.057  24.120  30.711  1.00  0.00     0.031 C 
ATOM     36  C   UNL A   1      45.002  25.728  32.596  1.00  0.00     0.034 A 
BRANCH  23  37
ATOM     37  C   UNL A   1      42.581  31.125  34.432  1.00  0.00     0.023 A 
ATOM     38  C   UNL A   1      41.718  31.006  35.542  1.00  0.00     0.012 A 
ATOM     39  C   UNL A   1      43.334  32.300  34.262  1.00  0.00     0.148 A 
ATOM     40  C   UNL A   1      41.571  32.059  36.443  1.00  0.00     0.002 A 
ATOM     41  C   UNL A   1      43.208  33.332  35.183  1.00  0.00     0.091 A 
ATOM     42  F   UNL A   1      44.125  32.402  33.184  1.00  0.00    -0.205 F 
ATOM     43  C   UNL A   1      42.318  33.220  36.265  1.00  0.00     0.022 A 
BRANCH  41  44
ATOM     44  S   UNL A   1      44.158  34.852  35.066  1.00  0.00     0.127 S 
ATOM     45  O   UNL A   1      43.516  35.681  36.085  1.00  0.00    -0.237 OA
ATOM     46  O   UNL A   1      45.506  34.398  35.411  1.00  0.00    -0.237 OA
ATOM     47  O   UNL A   1      44.007  35.314  33.694  1.00  0.00    -0.744 OA
ENDBRANCH  41  44
ENDBRANCH  23  37
BRANCH  24  48
ATOM     48  C   UNL A   1      42.709  24.169  27.204  1.00  0.00     0.023 A 
ATOM     49  C   UNL A   1      43.592  24.233  26.106  1.00  0.00     0.012 A 
ATOM     50  C   UNL A   1      41.820  23.081  27.300  1.00  0.00     0.148 A 
ATOM     51  C   UNL A   1      43.563  23.258  25.106  1.00  0.00     0.002 A 
ATOM     52  C   UNL A   1      41.830  22.087  26.324  1.00  0.00     0.091 A 
ATOM     53  F   UNL A   1      40.976  23.040  28.339  1.00  0.00    -0.205 F 
ATOM     54  C   UNL A   1      42.688  22.182  25.218  1.00  0.00     0.022 A 
BRANCH  52  55
ATOM     55  S   UNL A   1      40.812  20.610  26.448  1.00  0.00     0.127 S 
ATOM     56  O   UNL A   1      40.915  20.293  27.869  1.00  0.00    -0.237 OA
ATOM     57  O   UNL A   1      39.502  21.107  26.021  1.00  0.00    -0.237 OA
ATOM     58  O   UNL A   1      41.411  19.648  25.534  1.00  0.00    -0.744 OA
ENDBRANCH  52  55
ENDBRANCH  24  48
BRANCH  36  59
ATOM     59  C   UNL A   1      46.016  24.876  33.310  1.00  0.00     0.023 A 
ATOM     60  C   UNL A   1      47.378  25.228  33.264  1.00  0.00     0.012 A 
ATOM     61  C   UNL A   1      45.603  23.803  34.124  1.00  0.00     0.148 A 
ATOM     62  C   UNL A   1      48.319  24.509  33.999  1.00  0.00     0.002 A 
ATOM     63  C   UNL A   1      46.539  23.124  34.893  1.00  0.00     0.091 A 
ATOM     64  F   UNL A   1      44.303  23.470  34.136  1.00  0.00    -0.205 F 
ATOM     65  C   UNL A   1      47.899  23.470  34.825  1.00  0.00     0.022 A 
BRANCH  63  66
ATOM     66  S   UNL A   1      46.060  21.850  36.066  1.00  0.00     0.127 S 
ATOM     67  O   UNL A   1      45.337  22.627  37.071  1.00  0.00    -0.237 OA
ATOM     68  O   UNL A   1      45.220  20.971  35.253  1.00  0.00    -0.237 OA
ATOM     69  O   UNL A   1      47.304  21.241  36.516  1.00  0.00    -0.744 OA
ENDBRANCH  63  66
ENDBRANCH  36  59
ENDBRANCH  10  11
ENDBRANCH   3   5
ENDBRANCH   2   3
ENDBRANCH   1   2
BRANCH   1  70
ATOM     70  C   UNL A   1      33.972  34.379  29.699  1.00  0.00     0.274 C 
BRANCH  70  71
ATOM     71  O   UNL A   1      34.032  33.905  31.050  1.00  0.00    -0.460 OA
BRANCH  71  72
ATOM     72  C   UNL A   1      33.846  34.877  32.002  1.00  0.00     0.335 C 
ATOM     73  O   UNL A   1      32.902  35.659  31.998  1.00  0.00    -0.249 OA
BRANCH  72  74
ATOM     74  C   UNL A   1      34.947  34.806  33.069  1.00  0.00     0.232 C 
ATOM     75  C   UNL A   1      35.174  33.433  33.673  1.00  0.00     0.087 C 
ATOM     76  O   UNL A   1      36.154  35.192  32.438  1.00  0.00    -0.355 OA
ATOM     77  C   UNL A   1      36.691  33.158  33.619  1.00  0.00     0.124 C 
ATOM     78  C   UNL A   1      37.271  34.404  32.889  1.00  0.00     0.187 C 
BRANCH  77  79
ATOM     79  C   UNL A   1      37.187  32.685  34.999  1.00  0.00     0.005 A 
ATOM     80  C   UNL A   1      37.015  33.618  36.060  1.00  0.00     0.008 A 
ATOM     81  C   UNL A   1      37.823  31.477  35.349  1.00  0.00     0.047 A 
ATOM     82  C   UNL A   1      37.373  33.345  37.383  1.00  0.00     0.001 A 
ATOM     83  C   UNL A   1      38.143  31.190  36.691  1.00  0.00     0.021 A 
ATOM     84  Cl  UNL A   1      38.377  30.276  34.246  1.00  0.00    -0.084 Cl
ATOM     85  C   UNL A   1      37.916  32.113  37.704  1.00  0.00     0.002 A 
ENDBRANCH  77  79
BRANCH  77  86
ATOM     86  O   UNL A   1      36.844  32.004  32.750  1.00  0.00    -0.382 OA
ATOM     87  H   UNL A   1      36.177  32.038  32.047  1.00  0.00     0.212 HD
ENDBRANCH  77  86
BRANCH  78  88
ATOM     88  C   UNL A   1      38.126  34.237  31.636  1.00  0.00     0.003 A 
ATOM     89  C   UNL A   1      37.483  34.032  30.396  1.00  0.00     0.008 A 
ATOM     90  C   UNL A   1      39.513  34.474  31.612  1.00  0.00     0.046 A 
ATOM     91  C   UNL A   1      38.174  34.138  29.187  1.00  0.00     0.000 A 
ATOM     92  C   UNL A   1      40.200  34.590  30.396  1.00  0.00     0.021 A 
ATOM     93  Cl  UNL A   1      40.448  34.701  33.043  1.00  0.00    -0.084 Cl
ATOM     94  C   UNL A   1      39.529  34.442  29.186  1.00  0.00     0.002 A 
ENDBRANCH  78  88
ENDBRANCH  72  74
ENDBRANCH  71  72
ENDBRANCH  70  71
ENDBRANCH   1  70
TORSDOF 17
ENDMDL
MODEL 2
REMARK VINA RESULT:     -10.3      1.863      2.252
REMARK SMILES O=C(OCCOC(=O)[C@H]1C[C@](O)(c2ccccc2Cl)[C@@H](c2ccccc2Cl)O1)c1ccc(-c2c3nc(c(-c4cccc(S(=O)(=O)[O-])c4F)c4ccc([nH]4)c(-c4cccc(S(=O)(=O)[O-])c4F)c4nc(c(-c5cccc(S(=O)(=O)[O-])c5F)c5ccc2[nH]5)C=C4)C=C3)cc1
REMARK SMILES IDX 4 1 3 2 2 3 1 4 29 5 30 6 91 7 31 8 90 9 32 10 33 11 34 12
REMARK SMILES IDX 84 13 35 14 89 15 83 16 85 17 36 18 88 19 82 20 81 21 37 23
REMARK SMILES IDX 69 24 49 25 68 26 50 27 53 28 67 29 86 30 51 31 52 32 66 34
REMARK SMILES IDX 87 35 54 36 38 37 39 38 47 39 40 40 42 41 48 42 41 43 43 44
REMARK SMILES IDX 44 45 45 46 46 47 70 48 71 49 79 50 72 51 74 52 80 53 73 54
REMARK SMILES IDX 75 55 76 56 77 57 78 58 55 59 56 60 64 61 57 62 59 63 65 64
REMARK SMILES IDX 58 65 60 66 61 67 62 68 63 69 5 70 6 71 7 72 8 73 9 74 10 75
REMARK SMILES IDX 28 76 11 77 20 78 13 79 14 80 18 81 15 82 17 83 19 84 16 85
REMARK SMILES IDX 12 86 21 88 22 89 26 90 23 91 25 92 27 93 24 94
REMARK H PARENT 85 22 53 33 12 87
REMARK Flexibility Score: inf
ROOT
ATOM      1  C   UNL A   1      34.032  32.979  28.442  1.00  0.00     0.275 C 
ENDROOT
BRANCH   1   2
ATOM      2  O   UNL A   1      34.478  31.727  29.008  1.00  0.00    -0.458 OA
BRANCH   2   3
ATOM      3  C   UNL A   1      34.943  30.751  28.197  1.00  0.00     0.338 C 
ATOM      4  O   UNL A   1      34.323  30.368  27.220  1.00  0.00    -0.246 OA
BRANCH   3   5
ATOM      5  C   UNL A   1      36.324  30.304  28.556  1.00  0.00     0.060 A 
ATOM      6  C   UNL A   1      36.603  29.595  29.726  1.00  0.00     0.016 A 
ATOM      7  C   UNL A   1      37.353  30.522  27.637  1.00  0.00     0.016 A 
ATOM      8  C   UNL A   1      37.876  29.070  29.941  1.00  0.00     0.010 A 
ATOM      9  C   UNL A   1      38.605  29.924  27.809  1.00  0.00     0.010 A 
ATOM     10  C   UNL A   1      38.887  29.217  28.980  1.00  0.00    -0.014 A 
BRANCH  10  11
ATOM     11  C   UNL A   1      40.247  28.732  29.320  1.00  0.00     0.031 A 
ATOM     12  C   UNL A   1      41.032  29.465  30.369  1.00  0.00     0.074 A 
ATOM     13  C   UNL A   1      40.696  27.561  28.823  1.00  0.00     0.049 A 
ATOM     14  N   UNL A   1      41.982  29.012  31.143  1.00  0.00    -0.248 NA
ATOM     15  C   UNL A   1      40.697  30.880  30.596  1.00  0.00     0.031 C 
ATOM     16  C   UNL A   1      40.062  26.801  27.744  1.00  0.00     0.029 A 
ATOM     17  N   UNL A   1      41.763  26.781  29.197  1.00  0.00    -0.354 N 
ATOM     18  C   UNL A   1      42.332  30.076  31.963  1.00  0.00     0.074 A 
ATOM     19  C   UNL A   1      41.542  31.212  31.557  1.00  0.00     0.031 C 
ATOM     20  C   UNL A   1      40.716  25.637  27.583  1.00  0.00     0.029 A 
ATOM     21  C   UNL A   1      41.800  25.560  28.560  1.00  0.00     0.049 A 
ATOM     22  H   UNL A   1      42.435  27.067  29.857  1.00  0.00     0.167 HD
ATOM     23  C   UNL A   1      43.204  30.096  32.996  1.00  0.00     0.034 A 
ATOM     24  C   UNL A   1      42.577  24.482  28.789  1.00  0.00     0.034 A 
ATOM     25  C   UNL A   1      43.998  28.968  33.381  1.00  0.00     0.049 A 
ATOM     26  C   UNL A   1      43.532  24.518  29.957  1.00  0.00     0.074 A 
ATOM     27  C   UNL A   1      44.902  28.860  34.419  1.00  0.00     0.029 A 
ATOM     28  N   UNL A   1      43.996  27.751  32.714  1.00  0.00    -0.354 N 
ATOM     29  N   UNL A   1      43.700  25.454  30.860  1.00  0.00    -0.248 NA
ATOM     30  C   UNL A   1      44.366  23.325  30.172  1.00  0.00     0.031 C 
ATOM     31  C   UNL A   1      45.466  27.579  34.365  1.00  0.00     0.029 A 
ATOM     32  C   UNL A   1      44.894  26.887  33.307  1.00  0.00     0.049 A 
ATOM     33  H   UNL A   1      43.437  27.537  31.933  1.00  0.00     0.167 HD
ATOM     34  C   UNL A   1      44.624  24.951  31.770  1.00  0.00     0.074 A 
ATOM     35  C   UNL A   1      44.963  23.616  31.319  1.00  0.00     0.031 C 
ATOM     36  C   UNL A   1      45.159  25.540  32.869  1.00  0.00     0.034 A 
BRANCH  23  37
ATOM     37  C   UNL A   1      43.297  31.377  33.775  1.00  0.00     0.023 A 
ATOM     38  C   UNL A   1      44.177  32.390  33.335  1.00  0.00     0.012 A 
ATOM     39  C   UNL A   1      42.559  31.566  34.957  1.00  0.00     0.148 A 
ATOM     40  C   UNL A   1      44.353  33.552  34.084  1.00  0.00     0.002 A 
ATOM     41  C   UNL A   1      42.715  32.742  35.680  1.00  0.00     0.091 A 
ATOM     42  F   UNL A   1      41.752  30.579  35.372  1.00  0.00    -0.205 F 
ATOM     43  C   UNL A   1      43.620  33.729  35.254  1.00  0.00     0.022 A 
BRANCH  41  44
ATOM     44  S   UNL A   1      41.784  33.085  37.178  1.00  0.00     0.127 S 
ATOM     45  O   UNL A   1      42.698  33.973  37.896  1.00  0.00    -0.237 OA
ATOM     46  O   UNL A   1      40.587  33.740  36.652  1.00  0.00    -0.237 OA
ATOM     47  O   UNL A   1      41.543  31.794  37.804  1.00  0.00    -0.744 OA
ENDBRANCH  41  44
ENDBRANCH  23  37
BRANCH  24  48
ATOM     48  C   UNL A   1      42.405  23.234  27.985  1.00  0.00     0.023 A 
ATOM     49  C   UNL A   1      41.288  22.404  28.216  1.00  0.00     0.012 A 
ATOM     50  C   UNL A   1      43.340  22.857  27.002  1.00  0.00     0.148 A 
ATOM     51  C   UNL A   1      41.126  21.208  27.512  1.00  0.00     0.002 A 
ATOM     52  C   UNL A   1      43.148  21.687  26.270  1.00  0.00     0.091 A 
ATOM     53  F   UNL A   1      44.406  23.645  26.803  1.00  0.00    -0.205 F 
ATOM     54  C   UNL A   1      42.052  20.853  26.536  1.00  0.00     0.022 A 
BRANCH  52  55
ATOM     55  S   UNL A   1      44.233  21.210  24.919  1.00  0.00     0.127 S 
ATOM     56  O   UNL A   1      43.736  19.876  24.593  1.00  0.00    -0.237 OA
ATOM     57  O   UNL A   1      43.941  22.238  23.917  1.00  0.00    -0.237 OA
ATOM     58  O   UNL A   1      45.582  21.273  25.463  1.00  0.00    -0.744 OA
ENDBRANCH  52  55
ENDBRANCH  24  48
BRANCH  36  59
ATOM     59  C   UNL A   1      46.146  24.746  33.681  1.00  0.00     0.023 A 
ATOM     60  C   UNL A   1      45.680  23.785  34.597  1.00  0.00     0.012 A 
ATOM     61  C   UNL A   1      47.529  24.870  33.446  1.00  0.00     0.148 A 
ATOM     62  C   UNL A   1      46.579  22.972  35.286  1.00  0.00     0.002 A 
ATOM     63  C   UNL A   1      48.415  24.022  34.097  1.00  0.00     0.091 A 
ATOM     64  F   UNL A   1      47.953  25.808  32.585  1.00  0.00    -0.205 F 
ATOM     65  C   UNL A   1      47.943  23.079  35.025  1.00  0.00     0.022 A 
BRANCH  63  66
ATOM     66  S   UNL A   1      50.174  24.020  33.729  1.00  0.00     0.127 S 
ATOM     67  O   UNL A   1      50.577  25.346  34.193  1.00  0.00    -0.237 OA
ATOM     68  O   UNL A   1      50.667  22.911  34.547  1.00  0.00    -0.237 OA
ATOM     69  O   UNL A   1      50.276  23.797  32.293  1.00  0.00    -0.744 OA
ENDBRANCH  63  66
ENDBRANCH  36  59
ENDBRANCH  10  11
ENDBRANCH   3   5
ENDBRANCH   2   3
ENDBRANCH   1   2
BRANCH   1  70
ATOM     70  C   UNL A   1      33.792  34.190  29.356  1.00  0.00     0.274 C 
BRANCH  70  71
ATOM     71  O   UNL A   1      34.668  34.209  30.490  1.00  0.00    -0.460 OA
BRANCH  71  72
ATOM     72  C   UNL A   1      34.090  34.669  31.648  1.00  0.00     0.335 C 
ATOM     73  O   UNL A   1      32.916  35.010  31.732  1.00  0.00    -0.249 OA
BRANCH  72  74
ATOM     74  C   UNL A   1      35.102  34.647  32.802  1.00  0.00     0.232 C 
ATOM     75  C   UNL A   1      35.345  33.285  33.423  1.00  0.00     0.087 C 
ATOM     76  O   UNL A   1      36.337  35.094  32.272  1.00  0.00    -0.355 OA
ATOM     77  C   UNL A   1      36.873  33.084  33.494  1.00  0.00     0.124 C 
ATOM     78  C   UNL A   1      37.450  34.360  32.814  1.00  0.00     0.187 C 
BRANCH  77  79
ATOM     79  C   UNL A   1      37.277  32.631  34.910  1.00  0.00     0.005 A 
ATOM     80  C   UNL A   1      36.913  33.520  35.960  1.00  0.00     0.008 A 
ATOM     81  C   UNL A   1      37.988  31.481  35.307  1.00  0.00     0.047 A 
ATOM     82  C   UNL A   1      37.167  33.254  37.309  1.00  0.00     0.001 A 
ATOM     83  C   UNL A   1      38.203  31.197  36.670  1.00  0.00     0.021 A 
ATOM     84  Cl  UNL A   1      38.758  30.361  34.249  1.00  0.00    -0.084 Cl
ATOM     85  C   UNL A   1      37.791  32.073  37.667  1.00  0.00     0.002 A 
ENDBRANCH  77  79
BRANCH  77  86
ATOM     86  O   UNL A   1      37.153  31.942  32.641  1.00  0.00    -0.382 OA
ATOM     87  H   UNL A   1      36.353  31.703  32.148  1.00  0.00     0.212 HD
ENDBRANCH  77  86
BRANCH  78  88
ATOM     88  C   UNL A   1      38.412  34.239  31.635  1.00  0.00     0.003 A 
ATOM     89  C   UNL A   1      37.883  34.173  30.329  1.00  0.00     0.008 A 
ATOM     90  C   UNL A   1      39.805  34.392  31.760  1.00  0.00     0.046 A 
ATOM     91  C   UNL A   1      38.692  34.330  29.202  1.00  0.00     0.000 A 
ATOM     92  C   UNL A   1      40.613  34.560  30.627  1.00  0.00     0.021 A 
ATOM     93  Cl  UNL A   1      40.608  34.447  33.285  1.00  0.00    -0.084 Cl
ATOM     94  C   UNL A   1      40.055  34.549  29.352  1.00  0.00     0.002 A 
ENDBRANCH  78  88
ENDBRANCH  72  74
ENDBRANCH  71  72
ENDBRANCH  70  71
ENDBRANCH   1  70
TORSDOF 17
ENDMDL
MODEL 3
REMARK VINA RESULT:     -10.3      4.344      7.513
REMARK SMILES O=C(OCCOC(=O)[C@H]1C[C@](O)(c2ccccc2Cl)[C@@H](c2ccccc2Cl)O1)c1ccc(-c2c3nc(c(-c4cccc(S(=O)(=O)[O-])c4F)c4ccc([nH]4)c(-c4cccc(S(=O)(=O)[O-])c4F)c4nc(c(-c5cccc(S(=O)(=O)[O-])c5F)c5ccc2[nH]5)C=C4)C=C3)cc1
REMARK SMILES IDX 4 1 3 2 2 3 1 4 29 5 30 6 91 7 31 8 90 9 32 10 33 11 34 12
REMARK SMILES IDX 84 13 35 14 89 15 83 16 85 17 36 18 88 19 82 20 81 21 37 23
REMARK SMILES IDX 69 24 49 25 68 26 50 27 53 28 67 29 86 30 51 31 52 32 66 34
REMARK SMILES IDX 87 35 54 36 38 37 39 38 47 39 40 40 42 41 48 42 41 43 43 44
REMARK SMILES IDX 44 45 45 46 46 47 70 48 71 49 79 50 72 51 74 52 80 53 73 54
REMARK SMILES IDX 75 55 76 56 77 57 78 58 55 59 56 60 64 61 57 62 59 63 65 64
REMARK SMILES IDX 58 65 60 66 61 67 62 68 63 69 5 70 6 71 7 72 8 73 9 74 10 75
REMARK SMILES IDX 28 76 11 77 20 78 13 79 14 80 18 81 15 82 17 83 19 84 16 85
REMARK SMILES IDX 12 86 21 88 22 89 26 90 23 91 25 92 27 93 24 94
REMARK H PARENT 85 22 53 33 12 87
REMARK Flexibility Score: inf
ROOT
ATOM      1  C   UNL A   1      31.745  29.932  25.974  1.00  0.00     0.275 C 
ENDROOT
BRANCH   1   2
ATOM      2  O   UNL A   1      32.592  30.081  27.134  1.00  0.00    -0.458 OA
BRANCH   2   3
ATOM      3  C   UNL A   1      33.227  31.253  27.356  1.00  0.00     0.338 C 
ATOM      4  O   UNL A   1      32.659  32.327  27.259  1.00  0.00    -0.246 OA
BRANCH   3   5
ATOM      5  C   UNL A   1      34.627  31.074  27.846  1.00  0.00     0.060 A 
ATOM      6  C   UNL A   1      35.526  32.137  27.958  1.00  0.00     0.016 A 
ATOM      7  C   UNL A   1      35.017  29.810  28.299  1.00  0.00     0.016 A 
ATOM      8  C   UNL A   1      36.768  31.946  28.561  1.00  0.00     0.010 A 
ATOM      9  C   UNL A   1      36.224  29.636  28.981  1.00  0.00     0.010 A 
ATOM     10  C   UNL A   1      37.125  30.697  29.092  1.00  0.00    -0.014 A 
BRANCH  10  11
ATOM     11  C   UNL A   1      38.502  30.533  29.618  1.00  0.00     0.031 A 
ATOM     12  C   UNL A   1      38.823  31.076  30.980  1.00  0.00     0.074 A 
ATOM     13  C   UNL A   1      39.395  29.765  28.961  1.00  0.00     0.049 A 
ATOM     14  N   UNL A   1      39.744  30.684  31.819  1.00  0.00    -0.248 NA
ATOM     15  C   UNL A   1      37.992  32.185  31.477  1.00  0.00     0.031 C 
ATOM     16  C   UNL A   1      39.228  29.250  27.600  1.00  0.00     0.029 A 
ATOM     17  N   UNL A   1      40.596  29.241  29.370  1.00  0.00    -0.354 N 
ATOM     18  C   UNL A   1      39.582  31.477  32.947  1.00  0.00     0.074 A 
ATOM     19  C   UNL A   1      38.519  32.412  32.668  1.00  0.00     0.031 C 
ATOM     20  C   UNL A   1      40.259  28.436  27.309  1.00  0.00     0.029 A 
ATOM     21  C   UNL A   1      41.145  28.356  28.467  1.00  0.00     0.049 A 
ATOM     22  H   UNL A   1      41.024  29.474  30.225  1.00  0.00     0.167 HD
ATOM     23  C   UNL A   1      40.231  31.406  34.131  1.00  0.00     0.034 A 
ATOM     24  C   UNL A   1      42.202  27.528  28.592  1.00  0.00     0.034 A 
ATOM     25  C   UNL A   1      41.297  30.487  34.394  1.00  0.00     0.049 A 
ATOM     26  C   UNL A   1      42.902  27.451  29.928  1.00  0.00     0.074 A 
ATOM     27  C   UNL A   1      42.018  30.308  35.557  1.00  0.00     0.029 A 
ATOM     28  N   UNL A   1      41.812  29.605  33.454  1.00  0.00    -0.354 N 
ATOM     29  N   UNL A   1      42.602  28.050  31.055  1.00  0.00    -0.248 NA
ATOM     30  C   UNL A   1      44.054  26.540  30.024  1.00  0.00     0.031 C 
ATOM     31  C   UNL A   1      42.989  29.329  35.313  1.00  0.00     0.029 A 
ATOM     32  C   UNL A   1      42.854  28.886  34.005  1.00  0.00     0.049 A 
ATOM     33  H   UNL A   1      41.483  29.508  32.532  1.00  0.00     0.167 HD
ATOM     34  C   UNL A   1      43.497  27.561  32.002  1.00  0.00     0.074 A 
ATOM     35  C   UNL A   1      44.337  26.598  31.318  1.00  0.00     0.031 C 
ATOM     36  C   UNL A   1      43.627  27.887  33.312  1.00  0.00     0.034 A 
BRANCH  23  37
ATOM     37  C   UNL A   1      39.761  32.336  35.214  1.00  0.00     0.023 A 
ATOM     38  C   UNL A   1      38.768  31.898  36.116  1.00  0.00     0.012 A 
ATOM     39  C   UNL A   1      40.259  33.647  35.315  1.00  0.00     0.148 A 
ATOM     40  C   UNL A   1      38.246  32.766  37.074  1.00  0.00     0.002 A 
ATOM     41  C   UNL A   1      39.759  34.496  36.295  1.00  0.00     0.091 A 
ATOM     42  F   UNL A   1      41.181  34.051  34.429  1.00  0.00    -0.205 F 
ATOM     43  C   UNL A   1      38.744  34.063  37.165  1.00  0.00     0.022 A 
BRANCH  41  44
ATOM     44  S   UNL A   1      40.365  36.171  36.522  1.00  0.00     0.127 S 
ATOM     45  O   UNL A   1      39.632  36.591  37.715  1.00  0.00    -0.237 OA
ATOM     46  O   UNL A   1      41.796  35.955  36.731  1.00  0.00    -0.237 OA
ATOM     47  O   UNL A   1      40.033  36.886  35.299  1.00  0.00    -0.744 OA
ENDBRANCH  41  44
ENDBRANCH  23  37
BRANCH  24  48
ATOM     48  C   UNL A   1      42.591  26.613  27.476  1.00  0.00     0.023 A 
ATOM     49  C   UNL A   1      43.420  27.090  26.440  1.00  0.00     0.012 A 
ATOM     50  C   UNL A   1      42.141  25.280  27.427  1.00  0.00     0.148 A 
ATOM     51  C   UNL A   1      43.761  26.273  25.360  1.00  0.00     0.002 A 
ATOM     52  C   UNL A   1      42.523  24.454  26.372  1.00  0.00     0.091 A 
ATOM     53  F   UNL A   1      41.340  24.842  28.409  1.00  0.00    -0.205 F 
ATOM     54  C   UNL A   1      43.319  24.953  25.329  1.00  0.00     0.022 A 
BRANCH  52  55
ATOM     55  S   UNL A   1      42.089  22.711  26.310  1.00  0.00     0.127 S 
ATOM     56  O   UNL A   1      40.629  22.765  26.336  1.00  0.00    -0.237 OA
ATOM     57  O   UNL A   1      42.667  22.299  25.030  1.00  0.00    -0.237 OA
ATOM     58  O   UNL A   1      42.726  22.111  27.474  1.00  0.00    -0.744 OA
ENDBRANCH  52  55
ENDBRANCH  24  48
BRANCH  36  59
ATOM     59  C   UNL A   1      44.694  27.186  34.107  1.00  0.00     0.023 A 
ATOM     60  C   UNL A   1      46.001  27.709  34.132  1.00  0.00     0.012 A 
ATOM     61  C   UNL A   1      44.372  26.083  34.922  1.00  0.00     0.148 A 
ATOM     62  C   UNL A   1      46.979  27.130  34.939  1.00  0.00     0.002 A 
ATOM     63  C   UNL A   1      45.338  25.544  35.762  1.00  0.00     0.091 A 
ATOM     64  F   UNL A   1      43.127  25.586  34.866  1.00  0.00    -0.205 F 
ATOM     65  C   UNL A   1      46.644  26.060  35.765  1.00  0.00     0.022 A 
BRANCH  63  66
ATOM     66  S   UNL A   1      44.953  24.240  36.937  1.00  0.00     0.127 S 
ATOM     67  O   UNL A   1      43.838  24.826  37.678  1.00  0.00    -0.237 OA
ATOM     68  O   UNL A   1      44.587  23.125  36.063  1.00  0.00    -0.237 OA
ATOM     69  O   UNL A   1      46.174  24.026  37.702  1.00  0.00    -0.744 OA
ENDBRANCH  63  66
ENDBRANCH  36  59
ENDBRANCH  10  11
ENDBRANCH   3   5
ENDBRANCH   2   3
ENDBRANCH   1   2
BRANCH   1  70
ATOM     70  C   UNL A   1      32.333  29.390  24.661  1.00  0.00     0.274 C 
BRANCH  70  71
ATOM     71  O   UNL A   1      32.270  27.961  24.576  1.00  0.00    -0.460 OA
BRANCH  71  72
ATOM     72  C   UNL A   1      32.179  27.472  23.296  1.00  0.00     0.335 C 
ATOM     73  O   UNL A   1      31.736  28.116  22.352  1.00  0.00    -0.249 OA
BRANCH  72  74
ATOM     74  C   UNL A   1      32.743  26.046  23.222  1.00  0.00     0.232 C 
ATOM     75  C   UNL A   1      33.971  25.792  24.075  1.00  0.00     0.087 C 
ATOM     76  O   UNL A   1      31.724  25.178  23.682  1.00  0.00    -0.355 OA
ATOM     77  C   UNL A   1      33.708  24.500  24.877  1.00  0.00     0.124 C 
ATOM     78  C   UNL A   1      32.255  24.107  24.484  1.00  0.00     0.187 C 
BRANCH  77  79
ATOM     79  C   UNL A   1      34.906  23.543  24.737  1.00  0.00     0.005 A 
ATOM     80  C   UNL A   1      35.564  23.573  23.474  1.00  0.00     0.008 A 
ATOM     81  C   UNL A   1      35.417  22.616  25.666  1.00  0.00     0.047 A 
ATOM     82  C   UNL A   1      36.690  22.798  23.181  1.00  0.00     0.001 A 
ATOM     83  C   UNL A   1      36.578  21.870  25.381  1.00  0.00     0.021 A 
ATOM     84  Cl  UNL A   1      34.687  22.190  27.166  1.00  0.00    -0.084 Cl
ATOM     85  C   UNL A   1      37.216  21.962  24.150  1.00  0.00     0.002 A 
ENDBRANCH  77  79
BRANCH  77  86
ATOM     86  O   UNL A   1      33.712  24.905  26.273  1.00  0.00    -0.382 OA
ATOM     87  H   UNL A   1      34.217  25.727  26.370  1.00  0.00     0.212 HD
ENDBRANCH  77  86
BRANCH  78  88
ATOM     88  C   UNL A   1      31.192  23.899  25.560  1.00  0.00     0.003 A 
ATOM     89  C   UNL A   1      30.376  24.989  25.929  1.00  0.00     0.008 A 
ATOM     90  C   UNL A   1      30.844  22.632  26.064  1.00  0.00     0.046 A 
ATOM     91  C   UNL A   1      29.223  24.814  26.698  1.00  0.00     0.000 A 
ATOM     92  C   UNL A   1      29.681  22.458  26.827  1.00  0.00     0.021 A 
ATOM     93  Cl  UNL A   1      31.764  21.210  25.739  1.00  0.00    -0.084 Cl
ATOM     94  C   UNL A   1      28.862  23.543  27.126  1.00  0.00     0.002 A 
ENDBRANCH  78  88
ENDBRANCH  72  74
ENDBRANCH  71  72
ENDBRANCH  70  71
ENDBRANCH   1  70
TORSDOF 17
ENDMDL
