MODEL 1
REMARK VINA RESULT:     -12.9      0.000      0.000
REMARK SMILES C[C@H]1[C@@H](C(=O)OCCOC(=O)c2ccc(-c3c4nc(c(-c5cccc(S(=O)(=O)[O-])c5F)c5ccc([nH]5)c(-c5cccc(S(=O)(=O)[O-])c5F)c5nc(c(-c6cccc(S(=O)(=O)[O-])c6F)c6ccc3[nH]6)C=C5)C=C4)cc2)CCN1C(=O)c1cc2cc(F)ccc2s1
REMARK SMILES IDX 8 1 7 2 6 3 4 4 5 5 3 6 1 7 2 8 77 9 75 10 76 11 78 12 79 13
REMARK SMILES IDX 80 14 81 15 89 16 82 17 88 18 83 19 87 20 84 21 86 22 85 23
REMARK SMILES IDX 9 24 10 25 11 26 12 27 13 28 74 29 14 30 73 31 15 32 16 33
REMARK SMILES IDX 17 34 67 35 18 36 72 37 66 38 68 39 19 40 71 41 65 42 64 43
REMARK SMILES IDX 20 45 52 46 32 47 51 48 33 49 36 50 50 51 69 52 34 53 35 54
REMARK SMILES IDX 49 56 70 57 37 58 21 59 22 60 30 61 23 62 25 63 31 64 24 65
REMARK SMILES IDX 26 66 27 67 28 68 29 69 53 70 54 71 62 72 55 73 57 74 63 75
REMARK SMILES IDX 56 76 58 77 59 78 60 79 61 80 38 81 39 82 47 83 40 84 42 85
REMARK SMILES IDX 48 86 41 87 43 88 44 89 45 90 46 91
REMARK H PARENT 68 44 36 55
REMARK Flexibility Score: inf
ROOT
ATOM      1  C   UNL A   1      31.618  29.519  25.890  1.00  0.00     0.275 C 
ENDROOT
BRANCH   1   2
ATOM      2  C   UNL A   1      31.047  29.437  24.480  1.00  0.00     0.274 C 
BRANCH   2   3
ATOM      3  O   UNL A   1      30.871  28.065  24.073  1.00  0.00    -0.462 OA
BRANCH   3   4
ATOM      4  C   UNL A   1      30.766  27.825  22.750  1.00  0.00     0.311 C 
ATOM      5  O   UNL A   1      30.028  28.448  21.994  1.00  0.00    -0.252 OA
BRANCH   4   6
ATOM      6  C   UNL A   1      31.619  26.680  22.241  1.00  0.00     0.123 C 
ATOM      7  C   UNL A   1      30.161  24.815  23.449  1.00  0.00     0.032 C 
ATOM      8  C   UNL A   1      31.428  25.227  22.718  1.00  0.00     0.096 C 
ATOM      9  N   UNL A   1      32.621  24.898  23.498  1.00  0.00    -0.334 N 
ATOM     10  C   UNL A   1      33.106  26.949  22.509  1.00  0.00     0.039 C 
ATOM     11  C   UNL A   1      33.384  26.108  23.738  1.00  0.00     0.121 C 
BRANCH   9  12
ATOM     12  C   UNL A   1      33.334  23.796  23.040  1.00  0.00     0.264 C 
ATOM     13  O   UNL A   1      34.027  23.871  22.024  1.00  0.00    -0.268 OA
BRANCH  12  14
ATOM     14  C   UNL A   1      33.220  22.576  23.800  1.00  0.00     0.093 A 
ATOM     15  C   UNL A   1      32.283  21.587  23.595  1.00  0.00     0.034 A 
ATOM     16  S   UNL A   1      34.395  22.078  24.930  1.00  0.00    -0.130 S 
ATOM     17  C   UNL A   1      32.838  20.303  23.894  1.00  0.00    -0.004 A 
ATOM     18  C   UNL A   1      34.047  20.423  24.587  1.00  0.00     0.035 A 
ATOM     19  C   UNL A   1      32.414  19.021  23.483  1.00  0.00     0.048 A 
ATOM     20  C   UNL A   1      34.850  19.306  24.875  1.00  0.00     0.022 A 
ATOM     21  C   UNL A   1      33.258  17.935  23.685  1.00  0.00     0.123 A 
ATOM     22  C   UNL A   1      34.459  18.067  24.365  1.00  0.00     0.041 A 
ATOM     23  F   UNL A   1      32.921  16.746  23.169  1.00  0.00    -0.207 F 
ENDBRANCH  12  14
ENDBRANCH   9  12
ENDBRANCH   4   6
ENDBRANCH   3   4
ENDBRANCH   2   3
ENDBRANCH   1   2
BRANCH   1  24
ATOM     24  O   UNL A   1      32.920  30.121  25.853  1.00  0.00    -0.458 OA
BRANCH  24  25
ATOM     25  C   UNL A   1      33.139  31.081  26.775  1.00  0.00     0.338 C 
ATOM     26  O   UNL A   1      32.379  31.975  27.121  1.00  0.00    -0.246 OA
BRANCH  25  27
ATOM     27  C   UNL A   1      34.460  30.877  27.374  1.00  0.00     0.060 A 
ATOM     28  C   UNL A   1      34.883  29.580  27.664  1.00  0.00     0.016 A 
ATOM     29  C   UNL A   1      35.229  31.976  27.744  1.00  0.00     0.016 A 
ATOM     30  C   UNL A   1      36.042  29.378  28.407  1.00  0.00     0.010 A 
ATOM     31  C   UNL A   1      36.443  31.765  28.401  1.00  0.00     0.010 A 
ATOM     32  C   UNL A   1      36.848  30.467  28.766  1.00  0.00    -0.014 A 
BRANCH  32  33
ATOM     33  C   UNL A   1      38.121  30.280  29.513  1.00  0.00     0.031 A 
ATOM     34  C   UNL A   1      39.185  29.372  28.957  1.00  0.00     0.074 A 
ATOM     35  C   UNL A   1      38.289  30.852  30.722  1.00  0.00     0.049 A 
ATOM     36  N   UNL A   1      40.216  28.841  29.559  1.00  0.00    -0.248 NA
ATOM     37  C   UNL A   1      39.058  28.994  27.539  1.00  0.00     0.031 C 
ATOM     38  C   UNL A   1      37.346  31.769  31.364  1.00  0.00     0.029 A 
ATOM     39  N   UNL A   1      39.297  30.716  31.644  1.00  0.00    -0.354 N 
ATOM     40  C   UNL A   1      40.809  28.002  28.625  1.00  0.00     0.074 A 
ATOM     41  C   UNL A   1      40.038  28.112  27.405  1.00  0.00     0.031 C 
ATOM     42  C   UNL A   1      37.813  32.108  32.575  1.00  0.00     0.029 A 
ATOM     43  C   UNL A   1      39.043  31.368  32.829  1.00  0.00     0.049 A 
ATOM     44  H   UNL A   1      40.121  30.204  31.474  1.00  0.00     0.167 HD
ATOM     45  C   UNL A   1      41.898  27.210  28.775  1.00  0.00     0.034 A 
ATOM     46  C   UNL A   1      39.690  31.330  34.011  1.00  0.00     0.034 A 
ATOM     47  C   UNL A   1      42.702  27.171  29.967  1.00  0.00     0.049 A 
ATOM     48  C   UNL A   1      40.909  30.464  34.146  1.00  0.00     0.074 A 
ATOM     49  C   UNL A   1      43.850  26.437  30.207  1.00  0.00     0.029 A 
ATOM     50  N   UNL A   1      42.453  27.913  31.112  1.00  0.00    -0.354 N 
ATOM     51  N   UNL A   1      41.475  29.697  33.246  1.00  0.00    -0.248 NA
ATOM     52  C   UNL A   1      41.584  30.460  35.451  1.00  0.00     0.031 C 
ATOM     53  C   UNL A   1      44.296  26.735  31.499  1.00  0.00     0.029 A 
ATOM     54  C   UNL A   1      43.430  27.661  32.059  1.00  0.00     0.049 A 
ATOM     55  H   UNL A   1      41.694  28.528  31.232  1.00  0.00     0.167 HD
ATOM     56  C   UNL A   1      42.587  29.140  33.865  1.00  0.00     0.074 A 
ATOM     57  C   UNL A   1      42.624  29.670  35.213  1.00  0.00     0.031 C 
ATOM     58  C   UNL A   1      43.484  28.253  33.370  1.00  0.00     0.034 A 
BRANCH  45  59
ATOM     59  C   UNL A   1      42.308  26.343  27.616  1.00  0.00     0.023 A 
ATOM     60  C   UNL A   1      43.165  26.859  26.625  1.00  0.00     0.012 A 
ATOM     61  C   UNL A   1      41.901  24.995  27.545  1.00  0.00     0.148 A 
ATOM     62  C   UNL A   1      43.595  26.054  25.570  1.00  0.00     0.002 A 
ATOM     63  C   UNL A   1      42.363  24.189  26.511  1.00  0.00     0.091 A 
ATOM     64  F   UNL A   1      41.064  24.528  28.483  1.00  0.00    -0.205 F 
ATOM     65  C   UNL A   1      43.204  24.718  25.519  1.00  0.00     0.022 A 
BRANCH  63  66
ATOM     66  S   UNL A   1      41.967  22.438  26.407  1.00  0.00     0.127 S 
ATOM     67  O   UNL A   1      40.512  22.472  26.272  1.00  0.00    -0.237 OA
ATOM     68  O   UNL A   1      42.682  22.026  25.199  1.00  0.00    -0.237 OA
ATOM     69  O   UNL A   1      42.474  21.845  27.637  1.00  0.00    -0.744 OA
ENDBRANCH  63  66
ENDBRANCH  45  59
BRANCH  46  70
ATOM     70  C   UNL A   1      39.190  32.156  35.147  1.00  0.00     0.023 A 
ATOM     71  C   UNL A   1      38.289  31.587  36.067  1.00  0.00     0.012 A 
ATOM     72  C   UNL A   1      39.659  33.467  35.365  1.00  0.00     0.148 A 
ATOM     73  C   UNL A   1      37.859  32.311  37.180  1.00  0.00     0.002 A 
ATOM     74  C   UNL A   1      39.274  34.160  36.509  1.00  0.00     0.091 A 
ATOM     75  F   UNL A   1      40.494  34.005  34.465  1.00  0.00    -0.205 F 
ATOM     76  C   UNL A   1      38.364  33.589  37.410  1.00  0.00     0.022 A 
BRANCH  74  77
ATOM     77  S   UNL A   1      40.007  35.740  36.949  1.00  0.00     0.127 S 
ATOM     78  O   UNL A   1      41.427  35.405  37.015  1.00  0.00    -0.237 OA
ATOM     79  O   UNL A   1      39.626  36.586  35.817  1.00  0.00    -0.237 OA
ATOM     80  O   UNL A   1      39.378  36.116  38.208  1.00  0.00    -0.744 OA
ENDBRANCH  74  77
ENDBRANCH  46  70
BRANCH  58  81
ATOM     81  C   UNL A   1      44.609  27.823  34.269  1.00  0.00     0.023 A 
ATOM     82  C   UNL A   1      45.771  28.614  34.353  1.00  0.00     0.012 A 
ATOM     83  C   UNL A   1      44.470  26.697  35.102  1.00  0.00     0.148 A 
ATOM     84  C   UNL A   1      46.787  28.281  35.247  1.00  0.00     0.002 A 
ATOM     85  C   UNL A   1      45.471  26.392  36.017  1.00  0.00     0.091 A 
ATOM     86  F   UNL A   1      43.362  25.950  34.988  1.00  0.00    -0.205 F 
ATOM     87  C   UNL A   1      46.631  27.180  36.087  1.00  0.00     0.022 A 
BRANCH  85  88
ATOM     88  S   UNL A   1      45.320  25.044  37.193  1.00  0.00     0.127 S 
ATOM     89  O   UNL A   1      46.675  24.972  37.738  1.00  0.00    -0.237 OA
ATOM     90  O   UNL A   1      44.314  25.555  38.126  1.00  0.00    -0.237 OA
ATOM     91  O   UNL A   1      44.893  23.884  36.422  1.00  0.00    -0.744 OA
ENDBRANCH  85  88
ENDBRANCH  58  81
ENDBRANCH  32  33
ENDBRANCH  25  27
ENDBRANCH  24  25
ENDBRANCH   1  24
TORSDOF 16
ENDMDL
MODEL 2
REMARK VINA RESULT:     -12.8      5.154     10.214
REMARK SMILES C[C@H]1[C@@H](C(=O)OCCOC(=O)c2ccc(-c3c4nc(c(-c5cccc(S(=O)(=O)[O-])c5F)c5ccc([nH]5)c(-c5cccc(S(=O)(=O)[O-])c5F)c5nc(c(-c6cccc(S(=O)(=O)[O-])c6F)c6ccc3[nH]6)C=C5)C=C4)cc2)CCN1C(=O)c1cc2cc(F)ccc2s1
REMARK SMILES IDX 8 1 7 2 6 3 4 4 5 5 3 6 1 7 2 8 77 9 75 10 76 11 78 12 79 13
REMARK SMILES IDX 80 14 81 15 89 16 82 17 88 18 83 19 87 20 84 21 86 22 85 23
REMARK SMILES IDX 9 24 10 25 11 26 12 27 13 28 74 29 14 30 73 31 15 32 16 33
REMARK SMILES IDX 17 34 67 35 18 36 72 37 66 38 68 39 19 40 71 41 65 42 64 43
REMARK SMILES IDX 20 45 52 46 32 47 51 48 33 49 36 50 50 51 69 52 34 53 35 54
REMARK SMILES IDX 49 56 70 57 37 58 21 59 22 60 30 61 23 62 25 63 31 64 24 65
REMARK SMILES IDX 26 66 27 67 28 68 29 69 53 70 54 71 62 72 55 73 57 74 63 75
REMARK SMILES IDX 56 76 58 77 59 78 60 79 61 80 38 81 39 82 47 83 40 84 42 85
REMARK SMILES IDX 48 86 41 87 43 88 44 89 45 90 46 91
REMARK H PARENT 68 44 36 55
REMARK Flexibility Score: inf
ROOT
ATOM      1  C   UNL A   1      36.040  21.403  24.618  1.00  0.00     0.275 C 
ENDROOT
BRANCH   1   2
ATOM      2  C   UNL A   1      34.826  20.569  25.010  1.00  0.00     0.274 C 
BRANCH   2   3
ATOM      3  O   UNL A   1      33.844  21.377  25.692  1.00  0.00    -0.462 OA
BRANCH   3   4
ATOM      4  C   UNL A   1      32.547  21.085  25.467  1.00  0.00     0.311 C 
ATOM      5  O   UNL A   1      32.149  20.016  25.017  1.00  0.00    -0.252 OA
BRANCH   4   6
ATOM      6  C   UNL A   1      31.579  22.208  25.783  1.00  0.00     0.123 C 
ATOM      7  C   UNL A   1      31.357  22.977  23.249  1.00  0.00     0.032 C 
ATOM      8  C   UNL A   1      31.129  23.238  24.728  1.00  0.00     0.096 C 
ATOM      9  N   UNL A   1      31.713  24.515  25.137  1.00  0.00    -0.334 N 
ATOM     10  C   UNL A   1      32.113  23.080  26.927  1.00  0.00     0.039 C 
ATOM     11  C   UNL A   1      32.676  24.284  26.198  1.00  0.00     0.121 C 
BRANCH   9  12
ATOM     12  C   UNL A   1      30.796  25.538  25.347  1.00  0.00     0.264 C 
ATOM     13  O   UNL A   1      30.408  25.815  26.482  1.00  0.00    -0.268 OA
BRANCH  12  14
ATOM     14  C   UNL A   1      30.324  26.247  24.183  1.00  0.00     0.093 A 
ATOM     15  C   UNL A   1      29.013  26.586  23.926  1.00  0.00     0.034 A 
ATOM     16  S   UNL A   1      31.373  26.975  23.054  1.00  0.00    -0.130 S 
ATOM     17  C   UNL A   1      28.947  27.830  23.224  1.00  0.00    -0.004 A 
ATOM     18  C   UNL A   1      30.203  28.201  22.731  1.00  0.00     0.035 A 
ATOM     19  C   UNL A   1      27.872  28.735  23.094  1.00  0.00     0.048 A 
ATOM     20  C   UNL A   1      30.422  29.448  22.121  1.00  0.00     0.022 A 
ATOM     21  C   UNL A   1      28.117  30.003  22.579  1.00  0.00     0.123 A 
ATOM     22  C   UNL A   1      29.368  30.363  22.102  1.00  0.00     0.041 A 
ATOM     23  F   UNL A   1      27.130  30.909  22.588  1.00  0.00    -0.207 F 
ENDBRANCH  12  14
ENDBRANCH   9  12
ENDBRANCH   4   6
ENDBRANCH   3   4
ENDBRANCH   2   3
ENDBRANCH   1   2
BRANCH   1  24
ATOM     24  O   UNL A   1      36.785  21.759  25.792  1.00  0.00    -0.458 OA
BRANCH  24  25
ATOM     25  C   UNL A   1      38.065  21.336  25.815  1.00  0.00     0.338 C 
ATOM     26  O   UNL A   1      38.492  20.225  25.529  1.00  0.00    -0.246 OA
BRANCH  25  27
ATOM     27  C   UNL A   1      38.932  22.450  26.203  1.00  0.00     0.060 A 
ATOM     28  C   UNL A   1      40.047  22.198  27.002  1.00  0.00     0.016 A 
ATOM     29  C   UNL A   1      38.579  23.753  25.864  1.00  0.00     0.016 A 
ATOM     30  C   UNL A   1      40.769  23.259  27.540  1.00  0.00     0.010 A 
ATOM     31  C   UNL A   1      39.366  24.810  26.324  1.00  0.00     0.010 A 
ATOM     32  C   UNL A   1      40.450  24.579  27.190  1.00  0.00    -0.014 A 
BRANCH  32  33
ATOM     33  C   UNL A   1      41.235  25.732  27.706  1.00  0.00     0.031 A 
ATOM     34  C   UNL A   1      40.554  26.787  28.535  1.00  0.00     0.074 A 
ATOM     35  C   UNL A   1      42.531  25.878  27.364  1.00  0.00     0.049 A 
ATOM     36  N   UNL A   1      40.957  27.994  28.830  1.00  0.00    -0.248 NA
ATOM     37  C   UNL A   1      39.231  26.444  29.085  1.00  0.00     0.031 C 
ATOM     38  C   UNL A   1      43.315  24.918  26.585  1.00  0.00     0.029 A 
ATOM     39  N   UNL A   1      43.407  26.909  27.596  1.00  0.00    -0.354 N 
ATOM     40  C   UNL A   1      39.908  28.585  29.524  1.00  0.00     0.074 A 
ATOM     41  C   UNL A   1      38.858  27.595  29.629  1.00  0.00     0.031 C 
ATOM     42  C   UNL A   1      44.550  25.406  26.397  1.00  0.00     0.029 A 
ATOM     43  C   UNL A   1      44.620  26.745  26.967  1.00  0.00     0.049 A 
ATOM     44  H   UNL A   1      43.190  27.688  28.159  1.00  0.00     0.167 HD
ATOM     45  C   UNL A   1      39.830  29.840  30.026  1.00  0.00     0.034 A 
ATOM     46  C   UNL A   1      45.653  27.597  26.811  1.00  0.00     0.034 A 
ATOM     47  C   UNL A   1      40.912  30.788  29.985  1.00  0.00     0.049 A 
ATOM     48  C   UNL A   1      45.554  28.976  27.397  1.00  0.00     0.074 A 
ATOM     49  C   UNL A   1      40.952  32.070  30.502  1.00  0.00     0.029 A 
ATOM     50  N   UNL A   1      42.151  30.546  29.411  1.00  0.00    -0.354 N 
ATOM     51  N   UNL A   1      44.568  29.512  28.075  1.00  0.00    -0.248 NA
ATOM     52  C   UNL A   1      46.707  29.867  27.207  1.00  0.00     0.031 C 
ATOM     53  C   UNL A   1      42.218  32.606  30.240  1.00  0.00     0.029 A 
ATOM     54  C   UNL A   1      42.967  31.653  29.568  1.00  0.00     0.049 A 
ATOM     55  H   UNL A   1      42.412  29.712  28.960  1.00  0.00     0.167 HD
ATOM     56  C   UNL A   1      44.989  30.791  28.415  1.00  0.00     0.074 A 
ATOM     57  C   UNL A   1      46.328  30.945  27.883  1.00  0.00     0.031 C 
ATOM     58  C   UNL A   1      44.321  31.758  29.089  1.00  0.00     0.034 A 
BRANCH  45  59
ATOM     59  C   UNL A   1      38.548  30.260  30.691  1.00  0.00     0.023 A 
ATOM     60  C   UNL A   1      38.333  29.958  32.049  1.00  0.00     0.012 A 
ATOM     61  C   UNL A   1      37.585  31.013  29.989  1.00  0.00     0.148 A 
ATOM     62  C   UNL A   1      37.172  30.382  32.695  1.00  0.00     0.002 A 
ATOM     63  C   UNL A   1      36.447  31.463  30.649  1.00  0.00     0.091 A 
ATOM     64  F   UNL A   1      37.793  31.268  28.689  1.00  0.00    -0.205 F 
ATOM     65  C   UNL A   1      36.235  31.143  31.999  1.00  0.00     0.022 A 
BRANCH  63  66
ATOM     66  S   UNL A   1      35.223  32.509  29.849  1.00  0.00     0.127 S 
ATOM     67  O   UNL A   1      34.732  31.631  28.788  1.00  0.00    -0.237 OA
ATOM     68  O   UNL A   1      34.266  32.754  30.929  1.00  0.00    -0.237 OA
ATOM     69  O   UNL A   1      35.945  33.694  29.406  1.00  0.00    -0.744 OA
ENDBRANCH  63  66
ENDBRANCH  45  59
BRANCH  46  70
ATOM     70  C   UNL A   1      46.869  27.147  26.076  1.00  0.00     0.023 A 
ATOM     71  C   UNL A   1      47.008  27.471  24.713  1.00  0.00     0.012 A 
ATOM     72  C   UNL A   1      47.919  26.475  26.732  1.00  0.00     0.148 A 
ATOM     73  C   UNL A   1      48.166  27.126  24.015  1.00  0.00     0.002 A 
ATOM     74  C   UNL A   1      49.096  26.190  26.047  1.00  0.00     0.091 A 
ATOM     75  F   UNL A   1      47.761  26.149  28.023  1.00  0.00    -0.205 F 
ATOM     76  C   UNL A   1      49.216  26.503  24.685  1.00  0.00     0.022 A 
BRANCH  74  77
ATOM     77  S   UNL A   1      50.544  25.535  26.886  1.00  0.00     0.127 S 
ATOM     78  O   UNL A   1      51.460  25.308  25.771  1.00  0.00    -0.237 OA
ATOM     79  O   UNL A   1      50.914  26.638  27.773  1.00  0.00    -0.237 OA
ATOM     80  O   UNL A   1      50.077  24.345  27.584  1.00  0.00    -0.744 OA
ENDBRANCH  74  77
ENDBRANCH  46  70
BRANCH  58  81
ATOM     81  C   UNL A   1      45.032  33.060  29.328  1.00  0.00     0.023 A 
ATOM     82  C   UNL A   1      45.831  33.213  30.477  1.00  0.00     0.012 A 
ATOM     83  C   UNL A   1      44.989  34.087  28.367  1.00  0.00     0.148 A 
ATOM     84  C   UNL A   1      46.570  34.378  30.672  1.00  0.00     0.002 A 
ATOM     85  C   UNL A   1      45.757  35.231  28.550  1.00  0.00     0.091 A 
ATOM     86  F   UNL A   1      44.205  33.924  27.291  1.00  0.00    -0.205 F 
ATOM     87  C   UNL A   1      46.544  35.380  29.704  1.00  0.00     0.022 A 
BRANCH  85  88
ATOM     88  S   UNL A   1      45.849  36.534  27.318  1.00  0.00     0.127 S 
ATOM     89  O   UNL A   1      46.732  37.499  27.972  1.00  0.00    -0.237 OA
ATOM     90  O   UNL A   1      46.443  35.841  26.174  1.00  0.00    -0.237 OA
ATOM     91  O   UNL A   1      44.480  36.984  27.106  1.00  0.00    -0.744 OA
ENDBRANCH  85  88
ENDBRANCH  58  81
ENDBRANCH  32  33
ENDBRANCH  25  27
ENDBRANCH  24  25
ENDBRANCH   1  24
TORSDOF 16
ENDMDL
MODEL 3
REMARK VINA RESULT:     -12.6      1.527      1.887
REMARK SMILES C[C@H]1[C@@H](C(=O)OCCOC(=O)c2ccc(-c3c4nc(c(-c5cccc(S(=O)(=O)[O-])c5F)c5ccc([nH]5)c(-c5cccc(S(=O)(=O)[O-])c5F)c5nc(c(-c6cccc(S(=O)(=O)[O-])c6F)c6ccc3[nH]6)C=C5)C=C4)cc2)CCN1C(=O)c1cc2cc(F)ccc2s1
REMARK SMILES IDX 8 1 7 2 6 3 4 4 5 5 3 6 1 7 2 8 77 9 75 10 76 11 78 12 79 13
REMARK SMILES IDX 80 14 81 15 89 16 82 17 88 18 83 19 87 20 84 21 86 22 85 23
REMARK SMILES IDX 9 24 10 25 11 26 12 27 13 28 74 29 14 30 73 31 15 32 16 33
REMARK SMILES IDX 17 34 67 35 18 36 72 37 66 38 68 39 19 40 71 41 65 42 64 43
REMARK SMILES IDX 20 45 52 46 32 47 51 48 33 49 36 50 50 51 69 52 34 53 35 54
REMARK SMILES IDX 49 56 70 57 37 58 21 59 22 60 30 61 23 62 25 63 31 64 24 65
REMARK SMILES IDX 26 66 27 67 28 68 29 69 53 70 54 71 62 72 55 73 57 74 63 75
REMARK SMILES IDX 56 76 58 77 59 78 60 79 61 80 38 81 39 82 47 83 40 84 42 85
REMARK SMILES IDX 48 86 41 87 43 88 44 89 45 90 46 91
REMARK H PARENT 68 44 36 55
REMARK Flexibility Score: inf
ROOT
ATOM      1  C   UNL A   1      31.616  29.565  25.658  1.00  0.00     0.275 C 
ENDROOT
BRANCH   1   2
ATOM      2  C   UNL A   1      31.270  29.315  24.195  1.00  0.00     0.274 C 
BRANCH   2   3
ATOM      3  O   UNL A   1      31.199  27.902  23.916  1.00  0.00    -0.462 OA
BRANCH   3   4
ATOM      4  C   UNL A   1      32.355  27.277  23.611  1.00  0.00     0.311 C 
ATOM      5  O   UNL A   1      33.140  27.664  22.751  1.00  0.00    -0.252 OA
BRANCH   4   6
ATOM      6  C   UNL A   1      32.620  26.009  24.397  1.00  0.00     0.123 C 
ATOM      7  C   UNL A   1      30.371  24.833  23.609  1.00  0.00     0.032 C 
ATOM      8  C   UNL A   1      31.575  24.884  24.534  1.00  0.00     0.096 C 
ATOM      9  N   UNL A   1      31.166  24.882  25.938  1.00  0.00    -0.334 N 
ATOM     10  C   UNL A   1      32.982  26.337  25.851  1.00  0.00     0.039 C 
ATOM     11  C   UNL A   1      31.686  26.070  26.590  1.00  0.00     0.121 C 
BRANCH   9  12
ATOM     12  C   UNL A   1      31.359  23.677  26.603  1.00  0.00     0.264 C 
ATOM     13  O   UNL A   1      30.512  23.245  27.386  1.00  0.00    -0.268 OA
BRANCH  12  14
ATOM     14  C   UNL A   1      32.587  22.968  26.336  1.00  0.00     0.093 A 
ATOM     15  C   UNL A   1      32.903  22.325  25.159  1.00  0.00     0.034 A 
ATOM     16  S   UNL A   1      33.933  23.026  27.379  1.00  0.00    -0.130 S 
ATOM     17  C   UNL A   1      34.307  22.412  24.904  1.00  0.00    -0.004 A 
ATOM     18  C   UNL A   1      35.002  22.847  26.037  1.00  0.00     0.035 A 
ATOM     19  C   UNL A   1      35.013  22.257  23.692  1.00  0.00     0.048 A 
ATOM     20  C   UNL A   1      36.377  23.140  25.997  1.00  0.00     0.022 A 
ATOM     21  C   UNL A   1      36.348  22.641  23.635  1.00  0.00     0.123 A 
ATOM     22  C   UNL A   1      37.025  23.079  24.763  1.00  0.00     0.041 A 
ATOM     23  F   UNL A   1      36.977  22.629  22.453  1.00  0.00    -0.207 F 
ENDBRANCH  12  14
ENDBRANCH   9  12
ENDBRANCH   4   6
ENDBRANCH   3   4
ENDBRANCH   2   3
ENDBRANCH   1   2
BRANCH   1  24
ATOM     24  O   UNL A   1      32.901  30.198  25.751  1.00  0.00    -0.458 OA
BRANCH  24  25
ATOM     25  C   UNL A   1      33.055  31.042  26.791  1.00  0.00     0.338 C 
ATOM     26  O   UNL A   1      32.241  31.841  27.234  1.00  0.00    -0.246 OA
BRANCH  25  27
ATOM     27  C   UNL A   1      34.378  30.837  27.384  1.00  0.00     0.060 A 
ATOM     28  C   UNL A   1      34.763  29.551  27.761  1.00  0.00     0.016 A 
ATOM     29  C   UNL A   1      35.190  31.933  27.660  1.00  0.00     0.016 A 
ATOM     30  C   UNL A   1      35.928  29.364  28.499  1.00  0.00     0.010 A 
ATOM     31  C   UNL A   1      36.408  31.728  28.311  1.00  0.00     0.010 A 
ATOM     32  C   UNL A   1      36.776  30.448  28.765  1.00  0.00    -0.014 A 
BRANCH  32  33
ATOM     33  C   UNL A   1      38.055  30.272  29.503  1.00  0.00     0.031 A 
ATOM     34  C   UNL A   1      39.122  29.370  28.942  1.00  0.00     0.074 A 
ATOM     35  C   UNL A   1      38.227  30.847  30.710  1.00  0.00     0.049 A 
ATOM     36  N   UNL A   1      40.161  28.848  29.539  1.00  0.00    -0.248 NA
ATOM     37  C   UNL A   1      38.988  28.988  27.527  1.00  0.00     0.031 C 
ATOM     38  C   UNL A   1      37.282  31.760  31.356  1.00  0.00     0.029 A 
ATOM     39  N   UNL A   1      39.242  30.721  31.626  1.00  0.00    -0.354 N 
ATOM     40  C   UNL A   1      40.754  28.011  28.603  1.00  0.00     0.074 A 
ATOM     41  C   UNL A   1      39.974  28.112  27.388  1.00  0.00     0.031 C 
ATOM     42  C   UNL A   1      37.755  32.105  32.563  1.00  0.00     0.029 A 
ATOM     43  C   UNL A   1      38.991  31.374  32.811  1.00  0.00     0.049 A 
ATOM     44  H   UNL A   1      40.069  30.215  31.451  1.00  0.00     0.167 HD
ATOM     45  C   UNL A   1      41.850  27.228  28.747  1.00  0.00     0.034 A 
ATOM     46  C   UNL A   1      39.646  31.344  33.988  1.00  0.00     0.034 A 
ATOM     47  C   UNL A   1      42.662  27.197  29.934  1.00  0.00     0.049 A 
ATOM     48  C   UNL A   1      40.872  30.488  34.117  1.00  0.00     0.074 A 
ATOM     49  C   UNL A   1      43.816  26.472  30.168  1.00  0.00     0.029 A 
ATOM     50  N   UNL A   1      42.415  27.940  31.079  1.00  0.00    -0.354 N 
ATOM     51  N   UNL A   1      41.439  29.723  33.215  1.00  0.00    -0.248 NA
ATOM     52  C   UNL A   1      41.557  30.492  35.418  1.00  0.00     0.031 C 
ATOM     53  C   UNL A   1      44.269  26.777  31.457  1.00  0.00     0.029 A 
ATOM     54  C   UNL A   1      43.400  27.698  32.020  1.00  0.00     0.049 A 
ATOM     55  H   UNL A   1      41.653  28.549  31.203  1.00  0.00     0.167 HD
ATOM     56  C   UNL A   1      42.559  29.175  33.829  1.00  0.00     0.074 A 
ATOM     57  C   UNL A   1      42.600  29.709  35.175  1.00  0.00     0.031 C 
ATOM     58  C   UNL A   1      43.458  28.294  33.330  1.00  0.00     0.034 A 
BRANCH  45  59
ATOM     59  C   UNL A   1      42.258  26.360  27.588  1.00  0.00     0.023 A 
ATOM     60  C   UNL A   1      43.113  26.877  26.596  1.00  0.00     0.012 A 
ATOM     61  C   UNL A   1      41.852  25.012  27.518  1.00  0.00     0.148 A 
ATOM     62  C   UNL A   1      43.542  26.071  25.540  1.00  0.00     0.002 A 
ATOM     63  C   UNL A   1      42.313  24.206  26.483  1.00  0.00     0.091 A 
ATOM     64  F   UNL A   1      41.017  24.545  28.458  1.00  0.00    -0.205 F 
ATOM     65  C   UNL A   1      43.151  24.735  25.490  1.00  0.00     0.022 A 
BRANCH  63  66
ATOM     66  S   UNL A   1      41.917  22.455  26.381  1.00  0.00     0.127 S 
ATOM     67  O   UNL A   1      40.463  22.489  26.234  1.00  0.00    -0.237 OA
ATOM     68  O   UNL A   1      42.642  22.041  25.178  1.00  0.00    -0.237 OA
ATOM     69  O   UNL A   1      42.415  21.865  27.616  1.00  0.00    -0.744 OA
ENDBRANCH  63  66
ENDBRANCH  45  59
BRANCH  46  70
ATOM     70  C   UNL A   1      39.148  32.170  35.125  1.00  0.00     0.023 A 
ATOM     71  C   UNL A   1      38.227  31.609  36.030  1.00  0.00     0.012 A 
ATOM     72  C   UNL A   1      39.637  33.470  35.360  1.00  0.00     0.148 A 
ATOM     73  C   UNL A   1      37.797  32.331  37.144  1.00  0.00     0.002 A 
ATOM     74  C   UNL A   1      39.251  34.160  36.505  1.00  0.00     0.091 A 
ATOM     75  F   UNL A   1      40.492  34.001  34.475  1.00  0.00    -0.205 F 
ATOM     76  C   UNL A   1      38.321  33.598  37.392  1.00  0.00     0.022 A 
BRANCH  74  77
ATOM     77  S   UNL A   1      40.007  35.723  36.968  1.00  0.00     0.127 S 
ATOM     78  O   UNL A   1      39.661  36.573  35.832  1.00  0.00    -0.237 OA
ATOM     79  O   UNL A   1      39.312  36.047  38.214  1.00  0.00    -0.237 OA
ATOM     80  O   UNL A   1      41.423  35.427  37.139  1.00  0.00    -0.744 OA
ENDBRANCH  74  77
ENDBRANCH  46  70
BRANCH  58  81
ATOM     81  C   UNL A   1      44.592  27.874  34.222  1.00  0.00     0.023 A 
ATOM     82  C   UNL A   1      45.810  28.579  34.174  1.00  0.00     0.012 A 
ATOM     83  C   UNL A   1      44.415  26.852  35.174  1.00  0.00     0.148 A 
ATOM     84  C   UNL A   1      46.842  28.263  35.056  1.00  0.00     0.002 A 
ATOM     85  C   UNL A   1      45.434  26.568  36.074  1.00  0.00     0.091 A 
ATOM     86  F   UNL A   1      43.252  26.184  35.186  1.00  0.00    -0.205 F 
ATOM     87  C   UNL A   1      46.650  27.269  36.013  1.00  0.00     0.022 A 
BRANCH  85  88
ATOM     88  S   UNL A   1      45.246  25.363  37.392  1.00  0.00     0.127 S 
ATOM     89  O   UNL A   1      46.543  25.449  38.062  1.00  0.00    -0.237 OA
ATOM     90  O   UNL A   1      44.126  25.912  38.159  1.00  0.00    -0.237 OA
ATOM     91  O   UNL A   1      44.963  24.093  36.737  1.00  0.00    -0.744 OA
ENDBRANCH  85  88
ENDBRANCH  58  81
ENDBRANCH  32  33
ENDBRANCH  25  27
ENDBRANCH  24  25
ENDBRANCH   1  24
TORSDOF 16
ENDMDL
