MODEL 1
REMARK VINA RESULT:     -11.8      0.000      0.000
REMARK SMILES C=CCN1C[C@]2(C(=O)OCCOC(=O)c3ccc(-c4c5nc(c(-c6cccc(S(=O)(=O)[O-])c6F)c6ccc([nH]6)c(-c6cccc(S(=O)(=O)[O-])c6F)c6nc(c(-c7cccc(S(=O)(=O)[O-])c7F)c7ccc4[nH]7)C=C6)C=C5)cc3)CN(C(=O)c3cccc(C#N)c3)C[C@H]2C1=O
REMARK SMILES IDX 10 1 9 2 7 3 8 4 6 5 4 6 5 7 92 8 91 9 93 10 78 11 90 12
REMARK SMILES IDX 79 13 3 14 2 15 1 16 80 17 81 18 82 19 83 20 89 21 84 22
REMARK SMILES IDX 86 23 85 24 87 25 88 26 11 27 12 28 13 29 14 30 15 31 16 32
REMARK SMILES IDX 77 33 17 34 76 35 18 36 19 37 20 38 70 39 21 40 75 41 69 42
REMARK SMILES IDX 71 43 22 44 74 45 68 46 67 47 23 49 55 50 35 51 54 52 36 53
REMARK SMILES IDX 39 54 53 55 72 56 37 57 38 58 52 60 73 61 40 62 24 63 25 64
REMARK SMILES IDX 33 65 26 66 28 67 34 68 27 69 29 70 30 71 31 72 32 73 56 74
REMARK SMILES IDX 57 75 65 76 58 77 60 78 66 79 59 80 61 81 62 82 63 83 64 84
REMARK SMILES IDX 41 85 42 86 50 87 43 88 45 89 51 90 44 91 46 92 47 93 48 94
REMARK SMILES IDX 49 95
REMARK H PARENT 71 48 39 59
REMARK Flexibility Score: inf
ROOT
ATOM      1  C   UNL A   1      33.643  29.251  24.329  1.00  0.00     0.274 C 
ENDROOT
BRANCH   1   2
ATOM      2  O   UNL A   1      33.591  27.809  24.141  1.00  0.00    -0.462 OA
BRANCH   2   3
ATOM      3  C   UNL A   1      32.634  27.381  23.260  1.00  0.00     0.316 C 
ATOM      4  O   UNL A   1      32.821  27.501  22.057  1.00  0.00    -0.251 OA
BRANCH   3   5
ATOM      5  C   UNL A   1      31.313  26.831  23.969  1.00  0.00     0.116 C 
ATOM      6  N   UNL A   1      29.147  27.838  23.278  1.00  0.00    -0.337 N 
ATOM      7  C   UNL A   1      30.527  27.762  22.924  1.00  0.00     0.141 C 
ATOM      8  C   UNL A   1      28.768  26.682  23.893  1.00  0.00     0.229 C 
ATOM      9  C   UNL A   1      30.014  25.852  23.874  1.00  0.00     0.119 C 
ATOM     10  O   UNL A   1      27.656  26.345  24.252  1.00  0.00    -0.274 OA
ATOM     11  C   UNL A   1      32.123  25.445  24.140  1.00  0.00     0.141 C 
ATOM     12  C   UNL A   1      30.033  24.893  25.039  1.00  0.00     0.134 C 
ATOM     13  N   UNL A   1      31.439  24.711  25.203  1.00  0.00    -0.337 N 
BRANCH   6  14
ATOM     14  C   UNL A   1      28.269  28.816  22.671  1.00  0.00     0.146 C 
BRANCH  14  15
ATOM     15  C   UNL A   1      29.019  30.101  22.573  1.00  0.00    -0.014 C 
ATOM     16  C   UNL A   1      28.924  31.106  23.453  1.00  0.00     0.006 C 
ENDBRANCH  14  15
ENDBRANCH   6  14
BRANCH  13  17
ATOM     17  C   UNL A   1      31.953  23.923  26.213  1.00  0.00     0.253 C 
ATOM     18  O   UNL A   1      31.489  23.880  27.348  1.00  0.00    -0.269 OA
BRANCH  17  19
ATOM     19  C   UNL A   1      33.175  23.142  25.934  1.00  0.00     0.041 A 
ATOM     20  C   UNL A   1      33.073  21.820  25.499  1.00  0.00     0.014 A 
ATOM     21  C   UNL A   1      34.430  23.723  26.160  1.00  0.00     0.033 A 
ATOM     22  C   UNL A   1      34.234  21.090  25.233  1.00  0.00     0.002 A 
ATOM     23  C   UNL A   1      35.590  22.996  25.878  1.00  0.00     0.053 A 
ATOM     24  C   UNL A   1      35.488  21.680  25.412  1.00  0.00     0.019 A 
BRANCH  23  25
ATOM     25  C   UNL A   1      36.872  23.607  26.046  1.00  0.00     0.099 C 
ATOM     26  N   UNL A   1      37.912  24.117  26.171  1.00  0.00    -0.192 NA
ENDBRANCH  23  25
ENDBRANCH  17  19
ENDBRANCH  13  17
ENDBRANCH   3   5
ENDBRANCH   2   3
ENDBRANCH   1   2
BRANCH   1  27
ATOM     27  C   UNL A   1      32.453  29.852  25.118  1.00  0.00     0.275 C 
BRANCH  27  28
ATOM     28  O   UNL A   1      32.678  29.938  26.549  1.00  0.00    -0.458 OA
BRANCH  28  29
ATOM     29  C   UNL A   1      33.199  31.104  27.008  1.00  0.00     0.338 C 
ATOM     30  O   UNL A   1      32.602  32.165  27.112  1.00  0.00    -0.246 OA
BRANCH  29  31
ATOM     31  C   UNL A   1      34.565  30.927  27.551  1.00  0.00     0.060 A 
ATOM     32  C   UNL A   1      34.946  29.650  27.972  1.00  0.00     0.016 A 
ATOM     33  C   UNL A   1      35.404  32.007  27.808  1.00  0.00     0.016 A 
ATOM     34  C   UNL A   1      36.161  29.420  28.608  1.00  0.00     0.010 A 
ATOM     35  C   UNL A   1      36.632  31.782  28.452  1.00  0.00     0.010 A 
ATOM     36  C   UNL A   1      37.020  30.487  28.857  1.00  0.00    -0.014 A 
BRANCH  36  37
ATOM     37  C   UNL A   1      38.287  30.273  29.603  1.00  0.00     0.031 A 
ATOM     38  C   UNL A   1      39.338  29.378  29.013  1.00  0.00     0.074 A 
ATOM     39  C   UNL A   1      38.482  30.847  30.806  1.00  0.00     0.049 A 
ATOM     40  N   UNL A   1      40.377  28.832  29.584  1.00  0.00    -0.248 NA
ATOM     41  C   UNL A   1      39.188  29.043  27.586  1.00  0.00     0.031 C 
ATOM     42  C   UNL A   1      37.576  31.801  31.450  1.00  0.00     0.029 A 
ATOM     43  N   UNL A   1      39.490  30.678  31.725  1.00  0.00    -0.354 N 
ATOM     44  C   UNL A   1      40.962  28.026  28.614  1.00  0.00     0.074 A 
ATOM     45  C   UNL A   1      40.170  28.170  27.410  1.00  0.00     0.031 C 
ATOM     46  C   UNL A   1      38.049  32.106  32.668  1.00  0.00     0.029 A 
ATOM     47  C   UNL A   1      39.241  31.308  32.924  1.00  0.00     0.049 A 
ATOM     48  H   UNL A   1      40.306  30.158  31.544  1.00  0.00     0.167 HD
ATOM     49  C   UNL A   1      42.055  27.237  28.723  1.00  0.00     0.034 A 
ATOM     50  C   UNL A   1      39.862  31.198  34.115  1.00  0.00     0.034 A 
ATOM     51  C   UNL A   1      42.844  27.134  29.922  1.00  0.00     0.049 A 
ATOM     52  C   UNL A   1      41.037  30.264  34.233  1.00  0.00     0.074 A 
ATOM     53  C   UNL A   1      43.977  26.374  30.146  1.00  0.00     0.029 A 
ATOM     54  N   UNL A   1      42.578  27.816  31.100  1.00  0.00    -0.354 N 
ATOM     55  N   UNL A   1      41.589  29.513  33.311  1.00  0.00    -0.248 NA
ATOM     56  C   UNL A   1      41.683  30.169  35.551  1.00  0.00     0.031 C 
ATOM     57  C   UNL A   1      44.375  26.568  31.472  1.00  0.00     0.029 A 
ATOM     58  C   UNL A   1      43.521  27.491  32.057  1.00  0.00     0.049 A 
ATOM     59  H   UNL A   1      41.828  28.439  31.236  1.00  0.00     0.167 HD
ATOM     60  C   UNL A   1      42.677  28.899  33.920  1.00  0.00     0.074 A 
ATOM     61  C   UNL A   1      42.708  29.368  35.290  1.00  0.00     0.031 C 
ATOM     62  C   UNL A   1      43.569  28.024  33.395  1.00  0.00     0.034 A 
BRANCH  49  63
ATOM     63  C   UNL A   1      42.454  26.412  27.527  1.00  0.00     0.023 A 
ATOM     64  C   UNL A   1      43.234  26.983  26.501  1.00  0.00     0.012 A 
ATOM     65  C   UNL A   1      42.087  25.054  27.439  1.00  0.00     0.148 A 
ATOM     66  C   UNL A   1      43.607  26.227  25.389  1.00  0.00     0.002 A 
ATOM     67  C   UNL A   1      42.503  24.294  26.353  1.00  0.00     0.091 A 
ATOM     68  F   UNL A   1      41.330  24.533  28.416  1.00  0.00    -0.205 F 
ATOM     69  C   UNL A   1      43.251  24.883  25.320  1.00  0.00     0.022 A 
BRANCH  67  70
ATOM     70  S   UNL A   1      42.162  22.537  26.208  1.00  0.00     0.127 S 
ATOM     71  O   UNL A   1      40.701  22.526  26.138  1.00  0.00    -0.237 OA
ATOM     72  O   UNL A   1      42.835  22.197  24.955  1.00  0.00    -0.237 OA
ATOM     73  O   UNL A   1      42.731  21.915  27.396  1.00  0.00    -0.744 OA
ENDBRANCH  67  70
ENDBRANCH  49  63
BRANCH  50  74
ATOM     74  C   UNL A   1      39.383  31.977  35.294  1.00  0.00     0.023 A 
ATOM     75  C   UNL A   1      38.488  31.377  36.202  1.00  0.00     0.012 A 
ATOM     76  C   UNL A   1      39.805  33.302  35.524  1.00  0.00     0.148 A 
ATOM     77  C   UNL A   1      37.994  32.092  37.294  1.00  0.00     0.002 A 
ATOM     78  C   UNL A   1      39.355  33.989  36.646  1.00  0.00     0.091 A 
ATOM     79  F   UNL A   1      40.646  33.862  34.644  1.00  0.00    -0.205 F 
ATOM     80  C   UNL A   1      38.433  33.394  37.521  1.00  0.00     0.022 A 
BRANCH  78  81
ATOM     81  S   UNL A   1      39.962  35.621  37.089  1.00  0.00     0.127 S 
ATOM     82  O   UNL A   1      39.220  35.893  38.317  1.00  0.00    -0.237 OA
ATOM     83  O   UNL A   1      41.392  35.369  37.275  1.00  0.00    -0.237 OA
ATOM     84  O   UNL A   1      39.646  36.480  35.956  1.00  0.00    -0.744 OA
ENDBRANCH  78  81
ENDBRANCH  50  74
BRANCH  62  85
ATOM     85  C   UNL A   1      44.713  27.580  34.266  1.00  0.00     0.023 A 
ATOM     86  C   UNL A   1      45.893  28.343  34.340  1.00  0.00     0.012 A 
ATOM     87  C   UNL A   1      44.559  26.452  35.097  1.00  0.00     0.148 A 
ATOM     88  C   UNL A   1      46.914  27.977  35.216  1.00  0.00     0.002 A 
ATOM     89  C   UNL A   1      45.555  26.127  36.006  1.00  0.00     0.091 A 
ATOM     90  F   UNL A   1      43.432  25.731  34.993  1.00  0.00    -0.205 F 
ATOM     91  C   UNL A   1      46.739  26.880  36.058  1.00  0.00     0.022 A 
BRANCH  89  92
ATOM     92  S   UNL A   1      45.373  24.802  37.204  1.00  0.00     0.127 S 
ATOM     93  O   UNL A   1      45.265  23.630  36.337  1.00  0.00    -0.237 OA
ATOM     94  O   UNL A   1      46.624  24.894  37.955  1.00  0.00    -0.237 OA
ATOM     95  O   UNL A   1      44.176  25.114  37.974  1.00  0.00    -0.744 OA
ENDBRANCH  89  92
ENDBRANCH  62  85
ENDBRANCH  36  37
ENDBRANCH  29  31
ENDBRANCH  28  29
ENDBRANCH  27  28
ENDBRANCH   1  27
TORSDOF 19
ENDMDL
MODEL 2
REMARK VINA RESULT:     -11.4      1.744      2.329
REMARK SMILES C=CCN1C[C@]2(C(=O)OCCOC(=O)c3ccc(-c4c5nc(c(-c6cccc(S(=O)(=O)[O-])c6F)c6ccc([nH]6)c(-c6cccc(S(=O)(=O)[O-])c6F)c6nc(c(-c7cccc(S(=O)(=O)[O-])c7F)c7ccc4[nH]7)C=C6)C=C5)cc3)CN(C(=O)c3cccc(C#N)c3)C[C@H]2C1=O
REMARK SMILES IDX 10 1 9 2 7 3 8 4 6 5 4 6 5 7 92 8 91 9 93 10 78 11 90 12
REMARK SMILES IDX 79 13 3 14 2 15 1 16 80 17 81 18 82 19 83 20 89 21 84 22
REMARK SMILES IDX 86 23 85 24 87 25 88 26 11 27 12 28 13 29 14 30 15 31 16 32
REMARK SMILES IDX 77 33 17 34 76 35 18 36 19 37 20 38 70 39 21 40 75 41 69 42
REMARK SMILES IDX 71 43 22 44 74 45 68 46 67 47 23 49 55 50 35 51 54 52 36 53
REMARK SMILES IDX 39 54 53 55 72 56 37 57 38 58 52 60 73 61 40 62 24 63 25 64
REMARK SMILES IDX 33 65 26 66 28 67 34 68 27 69 29 70 30 71 31 72 32 73 56 74
REMARK SMILES IDX 57 75 65 76 58 77 60 78 66 79 59 80 61 81 62 82 63 83 64 84
REMARK SMILES IDX 41 85 42 86 50 87 43 88 45 89 51 90 44 91 46 92 47 93 48 94
REMARK SMILES IDX 49 95
REMARK H PARENT 71 48 39 59
REMARK Flexibility Score: inf
ROOT
ATOM      1  C   UNL A   1      31.816  28.968  27.307  1.00  0.00     0.274 C 
ENDROOT
BRANCH   1   2
ATOM      2  O   UNL A   1      31.168  28.195  26.258  1.00  0.00    -0.462 OA
BRANCH   2   3
ATOM      3  C   UNL A   1      31.370  26.842  26.338  1.00  0.00     0.316 C 
ATOM      4  O   UNL A   1      31.647  26.333  27.416  1.00  0.00    -0.251 OA
BRANCH   3   5
ATOM      5  C   UNL A   1      31.285  26.099  24.927  1.00  0.00     0.116 C 
ATOM      6  N   UNL A   1      31.167  27.526  22.894  1.00  0.00    -0.337 N 
ATOM      7  C   UNL A   1      31.425  27.568  24.297  1.00  0.00     0.141 C 
ATOM      8  C   UNL A   1      31.533  26.311  22.398  1.00  0.00     0.229 C 
ATOM      9  C   UNL A   1      32.076  25.594  23.595  1.00  0.00     0.119 C 
ATOM     10  O   UNL A   1      31.546  25.939  21.240  1.00  0.00    -0.274 OA
ATOM     11  C   UNL A   1      32.089  24.897  25.644  1.00  0.00     0.141 C 
ATOM     12  C   UNL A   1      31.895  24.103  23.450  1.00  0.00     0.134 C 
ATOM     13  N   UNL A   1      31.852  23.712  24.822  1.00  0.00    -0.337 N 
BRANCH   6  14
ATOM     14  C   UNL A   1      30.961  28.739  22.132  1.00  0.00     0.146 C 
BRANCH  14  15
ATOM     15  C   UNL A   1      29.574  29.216  22.403  1.00  0.00    -0.014 C 
ATOM     16  C   UNL A   1      29.257  30.167  23.292  1.00  0.00     0.006 C 
ENDBRANCH  14  15
ENDBRANCH   6  14
BRANCH  13  17
ATOM     17  C   UNL A   1      31.648  22.398  25.193  1.00  0.00     0.253 C 
ATOM     18  O   UNL A   1      30.604  21.982  25.688  1.00  0.00    -0.269 OA
BRANCH  17  19
ATOM     19  C   UNL A   1      32.774  21.453  25.056  1.00  0.00     0.041 A 
ATOM     20  C   UNL A   1      34.065  21.852  25.408  1.00  0.00     0.014 A 
ATOM     21  C   UNL A   1      32.544  20.178  24.522  1.00  0.00     0.033 A 
ATOM     22  C   UNL A   1      35.124  20.951  25.281  1.00  0.00     0.002 A 
ATOM     23  C   UNL A   1      33.602  19.273  24.409  1.00  0.00     0.053 A 
ATOM     24  C   UNL A   1      34.891  19.661  24.792  1.00  0.00     0.019 A 
BRANCH  23  25
ATOM     25  C   UNL A   1      33.360  17.949  23.926  1.00  0.00     0.099 C 
ATOM     26  N   UNL A   1      33.167  16.864  23.547  1.00  0.00    -0.192 NA
ENDBRANCH  23  25
ENDBRANCH  17  19
ENDBRANCH  13  17
ENDBRANCH   3   5
ENDBRANCH   2   3
ENDBRANCH   1   2
BRANCH   1  27
ATOM     27  C   UNL A   1      32.046  30.463  26.972  1.00  0.00     0.275 C 
BRANCH  27  28
ATOM     28  O   UNL A   1      33.432  30.802  26.711  1.00  0.00    -0.458 OA
BRANCH  28  29
ATOM     29  C   UNL A   1      33.964  31.792  27.473  1.00  0.00     0.338 C 
ATOM     30  O   UNL A   1      33.383  32.799  27.849  1.00  0.00    -0.246 OA
BRANCH  29  31
ATOM     31  C   UNL A   1      35.316  31.446  27.968  1.00  0.00     0.060 A 
ATOM     32  C   UNL A   1      35.537  30.145  28.427  1.00  0.00     0.016 A 
ATOM     33  C   UNL A   1      36.306  32.408  28.146  1.00  0.00     0.016 A 
ATOM     34  C   UNL A   1      36.736  29.772  29.024  1.00  0.00     0.010 A 
ATOM     35  C   UNL A   1      37.519  32.037  28.749  1.00  0.00     0.010 A 
ATOM     36  C   UNL A   1      37.744  30.717  29.193  1.00  0.00    -0.014 A 
BRANCH  36  37
ATOM     37  C   UNL A   1      39.002  30.356  29.896  1.00  0.00     0.031 A 
ATOM     38  C   UNL A   1      39.924  29.349  29.270  1.00  0.00     0.074 A 
ATOM     39  C   UNL A   1      39.301  30.898  31.092  1.00  0.00     0.049 A 
ATOM     40  N   UNL A   1      40.911  28.685  29.806  1.00  0.00    -0.248 NA
ATOM     41  C   UNL A   1      39.689  29.040  27.849  1.00  0.00     0.031 C 
ATOM     42  C   UNL A   1      38.532  31.947  31.766  1.00  0.00     0.029 A 
ATOM     43  N   UNL A   1      40.313  30.611  31.977  1.00  0.00    -0.354 N 
ATOM     44  C   UNL A   1      41.368  27.822  28.816  1.00  0.00     0.074 A 
ATOM     45  C   UNL A   1      40.558  28.061  27.640  1.00  0.00     0.031 C 
ATOM     46  C   UNL A   1      39.076  32.191  32.968  1.00  0.00     0.029 A 
ATOM     47  C   UNL A   1      40.177  31.260  33.184  1.00  0.00     0.049 A 
ATOM     48  H   UNL A   1      41.058  30.002  31.769  1.00  0.00     0.167 HD
ATOM     49  C   UNL A   1      42.367  26.913  28.889  1.00  0.00     0.034 A 
ATOM     50  C   UNL A   1      40.821  31.074  34.354  1.00  0.00     0.034 A 
ATOM     51  C   UNL A   1      43.177  26.715  30.061  1.00  0.00     0.049 A 
ATOM     52  C   UNL A   1      41.884  30.011  34.432  1.00  0.00     0.074 A 
ATOM     53  C   UNL A   1      44.223  25.829  30.246  1.00  0.00     0.029 A 
ATOM     54  N   UNL A   1      43.030  27.417  31.248  1.00  0.00    -0.354 N 
ATOM     55  N   UNL A   1      42.316  29.207  33.491  1.00  0.00    -0.248 NA
ATOM     56  C   UNL A   1      42.558  29.837  35.727  1.00  0.00     0.031 C 
ATOM     57  C   UNL A   1      44.684  25.970  31.559  1.00  0.00     0.029 A 
ATOM     58  C   UNL A   1      43.961  26.982  32.172  1.00  0.00     0.049 A 
ATOM     59  H   UNL A   1      42.362  28.121  31.409  1.00  0.00     0.167 HD
ATOM     60  C   UNL A   1      43.346  28.470  34.063  1.00  0.00     0.074 A 
ATOM     61  C   UNL A   1      43.475  28.925  35.432  1.00  0.00     0.031 C 
ATOM     62  C   UNL A   1      44.114  27.500  33.508  1.00  0.00     0.034 A 
BRANCH  49  63
ATOM     63  C   UNL A   1      42.628  26.053  27.679  1.00  0.00     0.023 A 
ATOM     64  C   UNL A   1      43.409  26.547  26.615  1.00  0.00     0.012 A 
ATOM     65  C   UNL A   1      42.131  24.735  27.617  1.00  0.00     0.148 A 
ATOM     66  C   UNL A   1      43.656  25.758  25.491  1.00  0.00     0.002 A 
ATOM     67  C   UNL A   1      42.422  23.939  26.515  1.00  0.00     0.091 A 
ATOM     68  F   UNL A   1      41.376  24.289  28.630  1.00  0.00    -0.205 F 
ATOM     69  C   UNL A   1      43.172  24.454  25.446  1.00  0.00     0.022 A 
BRANCH  67  70
ATOM     70  S   UNL A   1      41.910  22.222  26.396  1.00  0.00     0.127 S 
ATOM     71  O   UNL A   1      40.460  22.356  26.254  1.00  0.00    -0.237 OA
ATOM     72  O   UNL A   1      42.603  21.779  25.186  1.00  0.00    -0.237 OA
ATOM     73  O   UNL A   1      42.355  21.580  27.626  1.00  0.00    -0.744 OA
ENDBRANCH  67  70
ENDBRANCH  49  63
BRANCH  50  74
ATOM     74  C   UNL A   1      40.473  31.898  35.548  1.00  0.00     0.023 A 
ATOM     75  C   UNL A   1      41.352  32.916  35.967  1.00  0.00     0.012 A 
ATOM     76  C   UNL A   1      39.281  31.684  36.271  1.00  0.00     0.148 A 
ATOM     77  C   UNL A   1      41.072  33.678  37.101  1.00  0.00     0.002 A 
ATOM     78  C   UNL A   1      38.980  32.487  37.365  1.00  0.00     0.091 A 
ATOM     79  F   UNL A   1      38.461  30.704  35.867  1.00  0.00    -0.205 F 
ATOM     80  C   UNL A   1      39.883  33.470  37.795  1.00  0.00     0.022 A 
BRANCH  78  81
ATOM     81  S   UNL A   1      37.415  32.377  38.243  1.00  0.00     0.127 S 
ATOM     82  O   UNL A   1      37.273  30.935  38.421  1.00  0.00    -0.237 OA
ATOM     83  O   UNL A   1      37.705  33.125  39.466  1.00  0.00    -0.237 OA
ATOM     84  O   UNL A   1      36.430  33.006  37.373  1.00  0.00    -0.744 OA
ENDBRANCH  78  81
ENDBRANCH  50  74
BRANCH  62  85
ATOM     85  C   UNL A   1      45.227  26.924  34.340  1.00  0.00     0.023 A 
ATOM     86  C   UNL A   1      46.499  27.527  34.347  1.00  0.00     0.012 A 
ATOM     87  C   UNL A   1      44.965  25.841  35.202  1.00  0.00     0.148 A 
ATOM     88  C   UNL A   1      47.502  27.044  35.187  1.00  0.00     0.002 A 
ATOM     89  C   UNL A   1      45.949  25.403  36.076  1.00  0.00     0.091 A 
ATOM     90  F   UNL A   1      43.750  25.273  35.163  1.00  0.00    -0.205 F 
ATOM     91  C   UNL A   1      47.223  25.994  36.062  1.00  0.00     0.022 A 
BRANCH  89  92
ATOM     92  S   UNL A   1      45.648  24.135  37.311  1.00  0.00     0.127 S 
ATOM     93  O   UNL A   1      45.321  22.979  36.477  1.00  0.00    -0.237 OA
ATOM     94  O   UNL A   1      46.942  24.053  37.988  1.00  0.00    -0.237 OA
ATOM     95  O   UNL A   1      44.557  24.628  38.141  1.00  0.00    -0.744 OA
ENDBRANCH  89  92
ENDBRANCH  62  85
ENDBRANCH  36  37
ENDBRANCH  29  31
ENDBRANCH  28  29
ENDBRANCH  27  28
ENDBRANCH   1  27
TORSDOF 19
ENDMDL
MODEL 3
REMARK VINA RESULT:     -11.3      1.848      7.777
REMARK SMILES C=CCN1C[C@]2(C(=O)OCCOC(=O)c3ccc(-c4c5nc(c(-c6cccc(S(=O)(=O)[O-])c6F)c6ccc([nH]6)c(-c6cccc(S(=O)(=O)[O-])c6F)c6nc(c(-c7cccc(S(=O)(=O)[O-])c7F)c7ccc4[nH]7)C=C6)C=C5)cc3)CN(C(=O)c3cccc(C#N)c3)C[C@H]2C1=O
REMARK SMILES IDX 10 1 9 2 7 3 8 4 6 5 4 6 5 7 92 8 91 9 93 10 78 11 90 12
REMARK SMILES IDX 79 13 3 14 2 15 1 16 80 17 81 18 82 19 83 20 89 21 84 22
REMARK SMILES IDX 86 23 85 24 87 25 88 26 11 27 12 28 13 29 14 30 15 31 16 32
REMARK SMILES IDX 77 33 17 34 76 35 18 36 19 37 20 38 70 39 21 40 75 41 69 42
REMARK SMILES IDX 71 43 22 44 74 45 68 46 67 47 23 49 55 50 35 51 54 52 36 53
REMARK SMILES IDX 39 54 53 55 72 56 37 57 38 58 52 60 73 61 40 62 24 63 25 64
REMARK SMILES IDX 33 65 26 66 28 67 34 68 27 69 29 70 30 71 31 72 32 73 56 74
REMARK SMILES IDX 57 75 65 76 58 77 60 78 66 79 59 80 61 81 62 82 63 83 64 84
REMARK SMILES IDX 41 85 42 86 50 87 43 88 45 89 51 90 44 91 46 92 47 93 48 94
REMARK SMILES IDX 49 95
REMARK H PARENT 71 48 39 59
REMARK Flexibility Score: inf
ROOT
ATOM      1  C   UNL A   1      31.779  31.181  26.999  1.00  0.00     0.274 C 
ENDROOT
BRANCH   1   2
ATOM      2  O   UNL A   1      31.833  30.156  25.968  1.00  0.00    -0.462 OA
BRANCH   2   3
ATOM      3  C   UNL A   1      31.659  28.876  26.425  1.00  0.00     0.316 C 
ATOM      4  O   UNL A   1      31.793  28.635  27.617  1.00  0.00    -0.251 OA
BRANCH   3   5
ATOM      5  C   UNL A   1      31.364  27.817  25.267  1.00  0.00     0.116 C 
ATOM      6  N   UNL A   1      30.768  28.717  23.027  1.00  0.00    -0.337 N 
ATOM      7  C   UNL A   1      31.280  29.098  24.303  1.00  0.00     0.141 C 
ATOM      8  C   UNL A   1      31.119  27.428  22.758  1.00  0.00     0.229 C 
ATOM      9  C   UNL A   1      31.926  27.030  23.955  1.00  0.00     0.119 C 
ATOM     10  O   UNL A   1      30.942  26.792  21.737  1.00  0.00    -0.274 OA
ATOM     11  C   UNL A   1      32.371  26.840  26.065  1.00  0.00     0.141 C 
ATOM     12  C   UNL A   1      31.827  25.543  24.194  1.00  0.00     0.134 C 
ATOM     13  N   UNL A   1      32.069  25.488  25.599  1.00  0.00    -0.337 N 
BRANCH   6  14
ATOM     14  C   UNL A   1      30.338  29.709  22.065  1.00  0.00     0.146 C 
BRANCH  14  15
ATOM     15  C   UNL A   1      28.851  29.801  22.139  1.00  0.00    -0.014 C 
ATOM     16  C   UNL A   1      28.113  30.716  21.498  1.00  0.00     0.006 C 
ENDBRANCH  14  15
ENDBRANCH   6  14
BRANCH  13  17
ATOM     17  C   UNL A   1      32.031  24.295  26.292  1.00  0.00     0.253 C 
ATOM     18  O   UNL A   1      31.350  24.110  27.296  1.00  0.00    -0.269 OA
BRANCH  17  19
ATOM     19  C   UNL A   1      32.918  23.201  25.846  1.00  0.00     0.041 A 
ATOM     20  C   UNL A   1      34.272  23.452  25.619  1.00  0.00     0.014 A 
ATOM     21  C   UNL A   1      32.377  21.932  25.602  1.00  0.00     0.033 A 
ATOM     22  C   UNL A   1      35.105  22.411  25.201  1.00  0.00     0.002 A 
ATOM     23  C   UNL A   1      33.215  20.889  25.199  1.00  0.00     0.053 A 
ATOM     24  C   UNL A   1      34.579  21.131  25.002  1.00  0.00     0.019 A 
BRANCH  23  25
ATOM     25  C   UNL A   1      32.679  19.576  25.012  1.00  0.00     0.099 C 
ATOM     26  N   UNL A   1      32.230  18.510  24.871  1.00  0.00    -0.192 NA
ENDBRANCH  23  25
ENDBRANCH  17  19
ENDBRANCH  13  17
ENDBRANCH   3   5
ENDBRANCH   2   3
ENDBRANCH   1   2
BRANCH   1  27
ATOM     27  C   UNL A   1      32.769  32.358  26.805  1.00  0.00     0.275 C 
BRANCH  27  28
ATOM     28  O   UNL A   1      32.431  33.544  27.566  1.00  0.00    -0.458 OA
BRANCH  28  29
ATOM     29  C   UNL A   1      33.472  34.246  28.083  1.00  0.00     0.338 C 
ATOM     30  O   UNL A   1      33.502  35.453  28.270  1.00  0.00    -0.246 OA
BRANCH  29  31
ATOM     31  C   UNL A   1      34.551  33.358  28.576  1.00  0.00     0.060 A 
ATOM     32  C   UNL A   1      34.221  32.386  29.525  1.00  0.00     0.016 A 
ATOM     33  C   UNL A   1      35.887  33.573  28.256  1.00  0.00     0.016 A 
ATOM     34  C   UNL A   1      35.192  31.598  30.132  1.00  0.00     0.010 A 
ATOM     35  C   UNL A   1      36.873  32.780  28.868  1.00  0.00     0.010 A 
ATOM     36  C   UNL A   1      36.533  31.786  29.810  1.00  0.00    -0.014 A 
BRANCH  36  37
ATOM     37  C   UNL A   1      37.589  31.005  30.504  1.00  0.00     0.031 A 
ATOM     38  C   UNL A   1      37.935  31.348  31.925  1.00  0.00     0.074 A 
ATOM     39  C   UNL A   1      38.252  30.023  29.862  1.00  0.00     0.049 A 
ATOM     40  N   UNL A   1      38.980  31.006  32.628  1.00  0.00    -0.248 NA
ATOM     41  C   UNL A   1      36.977  32.206  32.644  1.00  0.00     0.031 C 
ATOM     42  C   UNL A   1      37.954  29.539  28.512  1.00  0.00     0.029 A 
ATOM     43  N   UNL A   1      39.344  29.283  30.246  1.00  0.00    -0.354 N 
ATOM     44  C   UNL A   1      38.849  31.666  33.845  1.00  0.00     0.074 A 
ATOM     45  C   UNL A   1      37.612  32.416  33.788  1.00  0.00     0.031 C 
ATOM     46  C   UNL A   1      38.859  28.610  28.168  1.00  0.00     0.029 A 
ATOM     47  C   UNL A   1      39.845  28.494  29.234  1.00  0.00     0.049 A 
ATOM     48  H   UNL A   1      39.728  29.313  31.152  1.00  0.00     0.167 HD
ATOM     49  C   UNL A   1      39.690  31.650  34.905  1.00  0.00     0.034 A 
ATOM     50  C   UNL A   1      41.006  27.814  29.150  1.00  0.00     0.034 A 
ATOM     51  C   UNL A   1      40.899  30.873  34.948  1.00  0.00     0.049 A 
ATOM     52  C   UNL A   1      41.958  27.862  30.315  1.00  0.00     0.074 A 
ATOM     53  C   UNL A   1      41.823  30.772  35.972  1.00  0.00     0.029 A 
ATOM     54  N   UNL A   1      41.351  30.062  33.917  1.00  0.00    -0.354 N 
ATOM     55  N   UNL A   1      41.824  28.480  31.463  1.00  0.00    -0.248 NA
ATOM     56  C   UNL A   1      43.214  27.110  30.181  1.00  0.00     0.031 C 
ATOM     57  C   UNL A   1      42.853  29.927  35.546  1.00  0.00     0.029 A 
ATOM     58  C   UNL A   1      42.543  29.461  34.277  1.00  0.00     0.049 A 
ATOM     59  H   UNL A   1      40.892  29.933  33.056  1.00  0.00     0.167 HD
ATOM     60  C   UNL A   1      42.950  28.150  32.208  1.00  0.00     0.074 A 
ATOM     61  C   UNL A   1      43.755  27.275  31.381  1.00  0.00     0.031 C 
ATOM     62  C   UNL A   1      43.291  28.538  33.461  1.00  0.00     0.034 A 
BRANCH  49  63
ATOM     63  C   UNL A   1      39.342  32.507  36.094  1.00  0.00     0.023 A 
ATOM     64  C   UNL A   1      39.858  33.815  36.201  1.00  0.00     0.012 A 
ATOM     65  C   UNL A   1      38.467  32.028  37.090  1.00  0.00     0.148 A 
ATOM     66  C   UNL A   1      39.542  34.615  37.299  1.00  0.00     0.002 A 
ATOM     67  C   UNL A   1      38.118  32.849  38.156  1.00  0.00     0.091 A 
ATOM     68  F   UNL A   1      37.999  30.776  36.981  1.00  0.00    -0.205 F 
ATOM     69  C   UNL A   1      38.666  34.136  38.269  1.00  0.00     0.022 A 
BRANCH  67  70
ATOM     70  S   UNL A   1      36.937  32.355  39.416  1.00  0.00     0.127 S 
ATOM     71  O   UNL A   1      37.210  33.329  40.473  1.00  0.00    -0.237 OA
ATOM     72  O   UNL A   1      35.659  32.543  38.729  1.00  0.00    -0.237 OA
ATOM     73  O   UNL A   1      37.255  30.973  39.749  1.00  0.00    -0.744 OA
ENDBRANCH  67  70
ENDBRANCH  49  63
BRANCH  50  74
ATOM     74  C   UNL A   1      41.343  27.041  27.918  1.00  0.00     0.023 A 
ATOM     75  C   UNL A   1      41.862  27.719  26.797  1.00  0.00     0.012 A 
ATOM     76  C   UNL A   1      41.157  25.646  27.848  1.00  0.00     0.148 A 
ATOM     77  C   UNL A   1      42.153  27.030  25.619  1.00  0.00     0.002 A 
ATOM     78  C   UNL A   1      41.504  24.957  26.692  1.00  0.00     0.091 A 
ATOM     79  F   UNL A   1      40.651  25.018  28.919  1.00  0.00    -0.205 F 
ATOM     80  C   UNL A   1      41.982  25.649  25.569  1.00  0.00     0.022 A 
BRANCH  78  81
ATOM     81  S   UNL A   1      41.439  23.164  26.577  1.00  0.00     0.127 S 
ATOM     82  O   UNL A   1      42.284  22.908  25.415  1.00  0.00    -0.237 OA
ATOM     83  O   UNL A   1      42.014  22.761  27.860  1.00  0.00    -0.237 OA
ATOM     84  O   UNL A   1      40.029  22.831  26.420  1.00  0.00    -0.744 OA
ENDBRANCH  78  81
ENDBRANCH  50  74
BRANCH  62  85
ATOM     85  C   UNL A   1      44.540  27.954  34.063  1.00  0.00     0.023 A 
ATOM     86  C   UNL A   1      45.764  28.644  33.979  1.00  0.00     0.012 A 
ATOM     87  C   UNL A   1      44.462  26.761  34.810  1.00  0.00     0.148 A 
ATOM     88  C   UNL A   1      46.899  28.142  34.615  1.00  0.00     0.002 A 
ATOM     89  C   UNL A   1      45.581  26.300  35.487  1.00  0.00     0.091 A 
ATOM     90  F   UNL A   1      43.288  26.114  34.859  1.00  0.00    -0.205 F 
ATOM     91  C   UNL A   1      46.804  26.981  35.380  1.00  0.00     0.022 A 
BRANCH  89  92
ATOM     92  S   UNL A   1      45.528  24.878  36.582  1.00  0.00     0.127 S 
ATOM     93  O   UNL A   1      45.253  23.790  35.645  1.00  0.00    -0.237 OA
ATOM     94  O   UNL A   1      46.878  24.874  37.145  1.00  0.00    -0.237 OA
ATOM     95  O   UNL A   1      44.468  25.148  37.545  1.00  0.00    -0.744 OA
ENDBRANCH  89  92
ENDBRANCH  62  85
ENDBRANCH  36  37
ENDBRANCH  29  31
ENDBRANCH  28  29
ENDBRANCH  27  28
ENDBRANCH   1  27
TORSDOF 19
ENDMDL
