MODEL 1
REMARK VINA RESULT:     -11.9      0.000      0.000
REMARK SMILES Cc1ccc(Br)cc1S(=O)(=O)N[C@H]1C=C[C@H](C(=O)OCCOC(=O)c2ccc(-c3c4nc(c(-c5cccc(S(=O)(=O)[O-])c5F)c5ccc([nH]5)c(-c5cccc(S(=O)(=O)[O-])c5F)c5nc(c(-c6cccc(S(=O)(=O)[O-])c6F)c6ccc3[nH]6)C=C5)C=C4)cc2)C1
REMARK SMILES IDX 20 1 19 2 17 3 18 4 16 5 13 6 14 7 88 8 15 9 12 10 9 12
REMARK SMILES IDX 10 13 11 14 8 15 1 16 2 17 3 18 4 19 7 20 5 21 6 22 21 23
REMARK SMILES IDX 22 24 23 25 24 26 25 27 26 28 87 29 27 30 86 31 28 32 29 33
REMARK SMILES IDX 30 34 80 35 31 36 85 37 79 38 81 39 32 40 84 41 78 42 77 43
REMARK SMILES IDX 33 45 65 46 45 47 64 48 46 49 49 50 63 51 82 52 47 53 48 54
REMARK SMILES IDX 62 56 83 57 50 58 34 59 35 60 43 61 36 62 38 63 44 64 37 65
REMARK SMILES IDX 39 66 40 67 41 68 42 69 66 70 67 71 75 72 68 73 70 74 76 75
REMARK SMILES IDX 69 76 71 77 72 78 73 79 74 80 51 81 52 82 60 83 53 84 55 85
REMARK SMILES IDX 61 86 54 87 56 88 57 89 58 90 59 91
REMARK H PARENT 12 11 81 44 49 55
REMARK Flexibility Score: inf
ROOT
ATOM      1  C   UNL A   1      30.948  29.549  24.757  1.00  0.00     0.274 C 
ENDROOT
BRANCH   1   2
ATOM      2  O   UNL A   1      31.682  28.997  23.646  1.00  0.00    -0.462 OA
BRANCH   2   3
ATOM      3  C   UNL A   1      31.079  27.994  22.960  1.00  0.00     0.312 C 
ATOM      4  O   UNL A   1      30.332  28.158  22.001  1.00  0.00    -0.252 OA
BRANCH   3   5
ATOM      5  C   UNL A   1      31.463  26.607  23.458  1.00  0.00     0.123 C 
ATOM      6  C   UNL A   1      31.883  24.290  22.813  1.00  0.00     0.093 C 
ATOM      7  C   UNL A   1      30.505  24.467  23.370  1.00  0.00    -0.011 C 
ATOM      8  C   UNL A   1      32.262  25.736  22.480  1.00  0.00     0.043 C 
ATOM      9  C   UNL A   1      30.284  25.730  23.752  1.00  0.00    -0.015 C 
BRANCH   6  10
ATOM     10  N   UNL A   1      32.647  23.695  23.901  1.00  0.00    -0.204 NA
ATOM     11  H   UNL A   1      32.346  24.168  24.754  1.00  0.00     0.142 HD
BRANCH  10  12
ATOM     12  S   UNL A   1      34.313  23.710  23.926  1.00  0.00     0.241 S 
ATOM     13  O   UNL A   1      34.716  24.642  24.961  1.00  0.00    -0.207 OA
ATOM     14  O   UNL A   1      34.752  23.863  22.560  1.00  0.00    -0.207 OA
BRANCH  12  15
ATOM     15  C   UNL A   1      34.770  22.064  24.436  1.00  0.00     0.086 A 
ATOM     16  C   UNL A   1      37.267  22.626  24.835  1.00  0.00     0.046 C 
ATOM     17  C   UNL A   1      36.092  21.691  24.745  1.00  0.00    -0.031 A 
ATOM     18  C   UNL A   1      36.353  20.330  25.001  1.00  0.00     0.006 A 
ATOM     19  C   UNL A   1      35.328  19.383  25.001  1.00  0.00     0.016 A 
ATOM     20  C   UNL A   1      33.735  21.112  24.461  1.00  0.00     0.037 A 
ATOM     21  C   UNL A   1      34.020  19.782  24.752  1.00  0.00     0.019 A 
ATOM     22  Br  UNL A   1      32.622  18.511  24.796  1.00  0.00    -0.051 Br
ENDBRANCH  12  15
ENDBRANCH  10  12
ENDBRANCH   6  10
ENDBRANCH   3   5
ENDBRANCH   2   3
ENDBRANCH   1   2
BRANCH   1  23
ATOM     23  C   UNL A   1      31.779  29.514  26.039  1.00  0.00     0.275 C 
BRANCH  23  24
ATOM     24  O   UNL A   1      32.975  30.298  25.898  1.00  0.00    -0.458 OA
BRANCH  24  25
ATOM     25  C   UNL A   1      33.193  31.203  26.878  1.00  0.00     0.338 C 
ATOM     26  O   UNL A   1      32.445  32.091  27.249  1.00  0.00    -0.246 OA
BRANCH  25  27
ATOM     27  C   UNL A   1      34.494  30.931  27.499  1.00  0.00     0.060 A 
ATOM     28  C   UNL A   1      34.797  29.631  27.912  1.00  0.00     0.016 A 
ATOM     29  C   UNL A   1      35.374  31.982  27.745  1.00  0.00     0.016 A 
ATOM     30  C   UNL A   1      35.967  29.383  28.623  1.00  0.00     0.010 A 
ATOM     31  C   UNL A   1      36.571  31.721  28.411  1.00  0.00     0.010 A 
ATOM     32  C   UNL A   1      36.867  30.425  28.871  1.00  0.00    -0.014 A 
BRANCH  32  33
ATOM     33  C   UNL A   1      38.130  30.181  29.605  1.00  0.00     0.031 A 
ATOM     34  C   UNL A   1      39.152  29.241  29.035  1.00  0.00     0.074 A 
ATOM     35  C   UNL A   1      38.315  30.745  30.814  1.00  0.00     0.049 A 
ATOM     36  N   UNL A   1      40.209  28.729  29.604  1.00  0.00    -0.248 NA
ATOM     37  C   UNL A   1      38.948  28.809  27.641  1.00  0.00     0.031 C 
ATOM     38  C   UNL A   1      37.395  31.683  31.458  1.00  0.00     0.029 A 
ATOM     39  N   UNL A   1      39.318  30.576  31.733  1.00  0.00    -0.354 N 
ATOM     40  C   UNL A   1      40.765  27.869  28.665  1.00  0.00     0.074 A 
ATOM     41  C   UNL A   1      39.935  27.937  27.482  1.00  0.00     0.031 C 
ATOM     42  C   UNL A   1      37.860  31.985  32.679  1.00  0.00     0.029 A 
ATOM     43  C   UNL A   1      39.076  31.218  32.925  1.00  0.00     0.049 A 
ATOM     44  H   UNL A   1      40.130  30.047  31.558  1.00  0.00     0.167 HD
ATOM     45  C   UNL A   1      41.871  27.098  28.783  1.00  0.00     0.034 A 
ATOM     46  C   UNL A   1      39.734  31.157  34.100  1.00  0.00     0.034 A 
ATOM     47  C   UNL A   1      42.713  27.076  29.947  1.00  0.00     0.049 A 
ATOM     48  C   UNL A   1      40.955  30.287  34.204  1.00  0.00     0.074 A 
ATOM     49  C   UNL A   1      43.885  26.366  30.148  1.00  0.00     0.029 A 
ATOM     50  N   UNL A   1      42.477  27.797  31.107  1.00  0.00    -0.354 N 
ATOM     51  N   UNL A   1      41.515  29.541  33.283  1.00  0.00    -0.248 NA
ATOM     52  C   UNL A   1      41.646  30.263  35.501  1.00  0.00     0.031 C 
ATOM     53  C   UNL A   1      44.350  26.653  31.437  1.00  0.00     0.029 A 
ATOM     54  C   UNL A   1      43.476  27.549  32.031  1.00  0.00     0.049 A 
ATOM     55  H   UNL A   1      41.710  28.397  31.252  1.00  0.00     0.167 HD
ATOM     56  C   UNL A   1      42.641  28.984  33.877  1.00  0.00     0.074 A 
ATOM     57  C   UNL A   1      42.692  29.491  35.233  1.00  0.00     0.031 C 
ATOM     58  C   UNL A   1      43.542  28.117  33.353  1.00  0.00     0.034 A 
BRANCH  45  59
ATOM     59  C   UNL A   1      42.253  26.235  27.611  1.00  0.00     0.023 A 
ATOM     60  C   UNL A   1      43.033  26.778  26.570  1.00  0.00     0.012 A 
ATOM     61  C   UNL A   1      41.892  24.874  27.567  1.00  0.00     0.148 A 
ATOM     62  C   UNL A   1      43.428  25.987  25.493  1.00  0.00     0.002 A 
ATOM     63  C   UNL A   1      42.321  24.082  26.508  1.00  0.00     0.091 A 
ATOM     64  F   UNL A   1      41.127  24.382  28.551  1.00  0.00    -0.205 F 
ATOM     65  C   UNL A   1      43.083  24.638  25.466  1.00  0.00     0.022 A 
BRANCH  63  66
ATOM     66  S   UNL A   1      41.982  22.320  26.424  1.00  0.00     0.127 S 
ATOM     67  O   UNL A   1      42.542  21.850  27.690  1.00  0.00    -0.237 OA
ATOM     68  O   UNL A   1      40.520  22.287  26.356  1.00  0.00    -0.237 OA
ATOM     69  O   UNL A   1      42.653  21.842  25.224  1.00  0.00    -0.744 OA
ENDBRANCH  63  66
ENDBRANCH  45  59
BRANCH  46  70
ATOM     70  C   UNL A   1      39.256  31.967  35.256  1.00  0.00     0.023 A 
ATOM     71  C   UNL A   1      38.383  31.381  36.191  1.00  0.00     0.012 A 
ATOM     72  C   UNL A   1      39.701  33.287  35.463  1.00  0.00     0.148 A 
ATOM     73  C   UNL A   1      37.946  32.102  37.303  1.00  0.00     0.002 A 
ATOM     74  C   UNL A   1      39.305  33.981  36.602  1.00  0.00     0.091 A 
ATOM     75  F   UNL A   1      40.516  33.836  34.551  1.00  0.00    -0.205 F 
ATOM     76  C   UNL A   1      38.416  33.395  37.515  1.00  0.00     0.022 A 
BRANCH  74  77
ATOM     77  S   UNL A   1      39.975  35.596  37.019  1.00  0.00     0.127 S 
ATOM     78  O   UNL A   1      39.278  35.895  38.267  1.00  0.00    -0.237 OA
ATOM     79  O   UNL A   1      41.403  35.307  37.164  1.00  0.00    -0.237 OA
ATOM     80  O   UNL A   1      39.653  36.453  35.886  1.00  0.00    -0.744 OA
ENDBRANCH  74  77
ENDBRANCH  46  70
BRANCH  58  81
ATOM     81  C   UNL A   1      44.687  27.686  34.228  1.00  0.00     0.023 A 
ATOM     82  C   UNL A   1      45.834  28.498  34.323  1.00  0.00     0.012 A 
ATOM     83  C   UNL A   1      44.583  26.533  35.029  1.00  0.00     0.148 A 
ATOM     84  C   UNL A   1      46.869  28.158  35.193  1.00  0.00     0.002 A 
ATOM     85  C   UNL A   1      45.599  26.223  35.923  1.00  0.00     0.091 A 
ATOM     86  F   UNL A   1      43.489  25.765  34.905  1.00  0.00    -0.205 F 
ATOM     87  C   UNL A   1      46.746  27.029  36.001  1.00  0.00     0.022 A 
BRANCH  85  88
ATOM     88  S   UNL A   1      45.485  24.842  37.068  1.00  0.00     0.127 S 
ATOM     89  O   UNL A   1      46.720  24.989  37.835  1.00  0.00    -0.237 OA
ATOM     90  O   UNL A   1      44.264  25.153  37.810  1.00  0.00    -0.237 OA
ATOM     91  O   UNL A   1      45.400  23.644  36.243  1.00  0.00    -0.744 OA
ENDBRANCH  85  88
ENDBRANCH  58  81
ENDBRANCH  32  33
ENDBRANCH  25  27
ENDBRANCH  24  25
ENDBRANCH  23  24
ENDBRANCH   1  23
TORSDOF 17
ENDMDL
MODEL 2
REMARK VINA RESULT:     -11.7      4.898     10.044
REMARK SMILES Cc1ccc(Br)cc1S(=O)(=O)N[C@H]1C=C[C@H](C(=O)OCCOC(=O)c2ccc(-c3c4nc(c(-c5cccc(S(=O)(=O)[O-])c5F)c5ccc([nH]5)c(-c5cccc(S(=O)(=O)[O-])c5F)c5nc(c(-c6cccc(S(=O)(=O)[O-])c6F)c6ccc3[nH]6)C=C5)C=C4)cc2)C1
REMARK SMILES IDX 20 1 19 2 17 3 18 4 16 5 13 6 14 7 88 8 15 9 12 10 9 12
REMARK SMILES IDX 10 13 11 14 8 15 1 16 2 17 3 18 4 19 7 20 5 21 6 22 21 23
REMARK SMILES IDX 22 24 23 25 24 26 25 27 26 28 87 29 27 30 86 31 28 32 29 33
REMARK SMILES IDX 30 34 80 35 31 36 85 37 79 38 81 39 32 40 84 41 78 42 77 43
REMARK SMILES IDX 33 45 65 46 45 47 64 48 46 49 49 50 63 51 82 52 47 53 48 54
REMARK SMILES IDX 62 56 83 57 50 58 34 59 35 60 43 61 36 62 38 63 44 64 37 65
REMARK SMILES IDX 39 66 40 67 41 68 42 69 66 70 67 71 75 72 68 73 70 74 76 75
REMARK SMILES IDX 69 76 71 77 72 78 73 79 74 80 51 81 52 82 60 83 53 84 55 85
REMARK SMILES IDX 61 86 54 87 56 88 57 89 58 90 59 91
REMARK H PARENT 12 11 81 44 49 55
REMARK Flexibility Score: inf
ROOT
ATOM      1  C   UNL A   1      35.092  21.220  24.749  1.00  0.00     0.274 C 
ENDROOT
BRANCH   1   2
ATOM      2  O   UNL A   1      34.145  20.146  24.918  1.00  0.00    -0.462 OA
BRANCH   2   3
ATOM      3  C   UNL A   1      32.842  20.445  24.684  1.00  0.00     0.312 C 
ATOM      4  O   UNL A   1      31.927  19.628  24.703  1.00  0.00    -0.252 OA
BRANCH   3   5
ATOM      5  C   UNL A   1      32.598  21.929  24.448  1.00  0.00     0.123 C 
ATOM      6  C   UNL A   1      30.989  23.754  24.654  1.00  0.00     0.093 C 
ATOM      7  C   UNL A   1      31.024  23.202  23.263  1.00  0.00    -0.011 C 
ATOM      8  C   UNL A   1      31.661  22.626  25.442  1.00  0.00     0.043 C 
ATOM      9  C   UNL A   1      31.927  22.223  23.140  1.00  0.00    -0.015 C 
BRANCH   6  10
ATOM     10  N   UNL A   1      31.760  24.988  24.580  1.00  0.00    -0.204 NA
ATOM     11  H   UNL A   1      32.641  24.748  24.124  1.00  0.00     0.142 HD
BRANCH  10  12
ATOM     12  S   UNL A   1      32.164  25.863  25.939  1.00  0.00     0.241 S 
ATOM     13  O   UNL A   1      33.592  25.705  26.139  1.00  0.00    -0.207 OA
ATOM     14  O   UNL A   1      31.215  25.506  26.966  1.00  0.00    -0.207 OA
BRANCH  12  15
ATOM     15  C   UNL A   1      31.837  27.558  25.497  1.00  0.00     0.086 A 
ATOM     16  C   UNL A   1      33.115  28.576  27.507  1.00  0.00     0.046 C 
ATOM     17  C   UNL A   1      32.242  28.654  26.284  1.00  0.00    -0.031 A 
ATOM     18  C   UNL A   1      31.806  29.938  25.904  1.00  0.00     0.006 A 
ATOM     19  C   UNL A   1      31.039  30.134  24.754  1.00  0.00     0.016 A 
ATOM     20  C   UNL A   1      31.086  27.760  24.326  1.00  0.00     0.037 A 
ATOM     21  C   UNL A   1      30.700  29.046  23.959  1.00  0.00     0.019 A 
ATOM     22  Br  UNL A   1      29.701  29.310  22.377  1.00  0.00    -0.051 Br
ENDBRANCH  12  15
ENDBRANCH  10  12
ENDBRANCH   6  10
ENDBRANCH   3   5
ENDBRANCH   2   3
ENDBRANCH   1   2
BRANCH   1  23
ATOM     23  C   UNL A   1      36.254  21.090  25.732  1.00  0.00     0.275 C 
BRANCH  23  24
ATOM     24  O   UNL A   1      37.450  21.678  25.194  1.00  0.00    -0.458 OA
BRANCH  24  25
ATOM     25  C   UNL A   1      38.604  21.282  25.777  1.00  0.00     0.338 C 
ATOM     26  O   UNL A   1      39.082  20.161  25.794  1.00  0.00    -0.246 OA
BRANCH  25  27
ATOM     27  C   UNL A   1      39.262  22.449  26.374  1.00  0.00     0.060 A 
ATOM     28  C   UNL A   1      38.842  23.732  26.012  1.00  0.00     0.016 A 
ATOM     29  C   UNL A   1      40.349  22.268  27.227  1.00  0.00     0.016 A 
ATOM     30  C   UNL A   1      39.543  24.846  26.464  1.00  0.00     0.010 A 
ATOM     31  C   UNL A   1      41.016  23.387  27.721  1.00  0.00     0.010 A 
ATOM     32  C   UNL A   1      40.631  24.682  27.328  1.00  0.00    -0.014 A 
BRANCH  32  33
ATOM     33  C   UNL A   1      41.379  25.853  27.841  1.00  0.00     0.031 A 
ATOM     34  C   UNL A   1      40.657  26.910  28.625  1.00  0.00     0.074 A 
ATOM     35  C   UNL A   1      42.681  25.997  27.533  1.00  0.00     0.049 A 
ATOM     36  N   UNL A   1      41.066  28.100  28.976  1.00  0.00    -0.248 NA
ATOM     37  C   UNL A   1      39.287  26.591  29.062  1.00  0.00     0.031 C 
ATOM     38  C   UNL A   1      43.485  25.027  26.788  1.00  0.00     0.029 A 
ATOM     39  N   UNL A   1      43.545  27.035  27.770  1.00  0.00    -0.354 N 
ATOM     40  C   UNL A   1      39.988  28.696  29.619  1.00  0.00     0.074 A 
ATOM     41  C   UNL A   1      38.909  27.731  29.623  1.00  0.00     0.031 C 
ATOM     42  C   UNL A   1      44.716  25.526  26.604  1.00  0.00     0.029 A 
ATOM     43  C   UNL A   1      44.770  26.871  27.164  1.00  0.00     0.049 A 
ATOM     44  H   UNL A   1      43.313  27.819  28.319  1.00  0.00     0.167 HD
ATOM     45  C   UNL A   1      39.912  29.933  30.161  1.00  0.00     0.034 A 
ATOM     46  C   UNL A   1      45.801  27.729  27.033  1.00  0.00     0.034 A 
ATOM     47  C   UNL A   1      41.007  30.864  30.192  1.00  0.00     0.049 A 
ATOM     48  C   UNL A   1      45.687  29.100  27.638  1.00  0.00     0.074 A 
ATOM     49  C   UNL A   1      41.049  32.125  30.761  1.00  0.00     0.029 A 
ATOM     50  N   UNL A   1      42.255  30.634  29.634  1.00  0.00    -0.354 N 
ATOM     51  N   UNL A   1      44.691  29.622  28.314  1.00  0.00    -0.248 NA
ATOM     52  C   UNL A   1      46.842  29.995  27.481  1.00  0.00     0.031 C 
ATOM     53  C   UNL A   1      42.322  32.661  30.535  1.00  0.00     0.029 A 
ATOM     54  C   UNL A   1      43.075  31.729  29.840  1.00  0.00     0.049 A 
ATOM     55  H   UNL A   1      42.519  29.812  29.160  1.00  0.00     0.167 HD
ATOM     56  C   UNL A   1      45.110  30.892  28.689  1.00  0.00     0.074 A 
ATOM     57  C   UNL A   1      46.456  31.056  28.180  1.00  0.00     0.031 C 
ATOM     58  C   UNL A   1      44.435  31.844  29.380  1.00  0.00     0.034 A 
BRANCH  45  59
ATOM     59  C   UNL A   1      38.609  30.346  30.791  1.00  0.00     0.023 A 
ATOM     60  C   UNL A   1      38.372  30.058  32.150  1.00  0.00     0.012 A 
ATOM     61  C   UNL A   1      37.648  31.068  30.058  1.00  0.00     0.148 A 
ATOM     62  C   UNL A   1      37.187  30.462  32.764  1.00  0.00     0.002 A 
ATOM     63  C   UNL A   1      36.485  31.499  30.687  1.00  0.00     0.091 A 
ATOM     64  F   UNL A   1      37.880  31.308  28.760  1.00  0.00    -0.205 F 
ATOM     65  C   UNL A   1      36.250  31.192  32.037  1.00  0.00     0.022 A 
BRANCH  63  66
ATOM     66  S   UNL A   1      35.253  32.503  29.848  1.00  0.00     0.127 S 
ATOM     67  O   UNL A   1      34.789  31.590  28.805  1.00  0.00    -0.237 OA
ATOM     68  O   UNL A   1      34.281  32.756  30.912  1.00  0.00    -0.237 OA
ATOM     69  O   UNL A   1      35.957  33.688  29.379  1.00  0.00    -0.744 OA
ENDBRANCH  63  66
ENDBRANCH  45  59
BRANCH  46  70
ATOM     70  C   UNL A   1      47.035  27.296  26.318  1.00  0.00     0.023 A 
ATOM     71  C   UNL A   1      47.220  27.673  24.976  1.00  0.00     0.012 A 
ATOM     72  C   UNL A   1      48.044  26.562  26.972  1.00  0.00     0.148 A 
ATOM     73  C   UNL A   1      48.380  27.314  24.290  1.00  0.00     0.002 A 
ATOM     74  C   UNL A   1      49.222  26.254  26.300  1.00  0.00     0.091 A 
ATOM     75  F   UNL A   1      47.841  26.193  28.245  1.00  0.00    -0.205 F 
ATOM     76  C   UNL A   1      49.386  26.616  24.954  1.00  0.00     0.022 A 
BRANCH  74  77
ATOM     77  S   UNL A   1      50.619  25.481  27.124  1.00  0.00     0.127 S 
ATOM     78  O   UNL A   1      51.554  25.296  26.017  1.00  0.00    -0.237 OA
ATOM     79  O   UNL A   1      51.008  26.506  28.094  1.00  0.00    -0.237 OA
ATOM     80  O   UNL A   1      50.090  24.264  27.724  1.00  0.00    -0.744 OA
ENDBRANCH  74  77
ENDBRANCH  46  70
BRANCH  58  81
ATOM     81  C   UNL A   1      45.148  33.138  29.663  1.00  0.00     0.023 A 
ATOM     82  C   UNL A   1      45.948  33.253  30.816  1.00  0.00     0.012 A 
ATOM     83  C   UNL A   1      45.104  34.199  28.738  1.00  0.00     0.148 A 
ATOM     84  C   UNL A   1      46.683  34.414  31.052  1.00  0.00     0.002 A 
ATOM     85  C   UNL A   1      45.870  35.335  28.959  1.00  0.00     0.091 A 
ATOM     86  F   UNL A   1      44.318  34.073  27.658  1.00  0.00    -0.205 F 
ATOM     87  C   UNL A   1      46.654  35.448  30.119  1.00  0.00     0.022 A 
BRANCH  85  88
ATOM     88  S   UNL A   1      45.966  36.677  27.767  1.00  0.00     0.127 S 
ATOM     89  O   UNL A   1      44.670  37.328  27.948  1.00  0.00    -0.237 OA
ATOM     90  O   UNL A   1      47.109  37.447  28.257  1.00  0.00    -0.237 OA
ATOM     91  O   UNL A   1      46.175  36.047  26.470  1.00  0.00    -0.744 OA
ENDBRANCH  85  88
ENDBRANCH  58  81
ENDBRANCH  32  33
ENDBRANCH  25  27
ENDBRANCH  24  25
ENDBRANCH  23  24
ENDBRANCH   1  23
TORSDOF 17
ENDMDL
MODEL 3
REMARK VINA RESULT:     -11.7      1.690      2.029
REMARK SMILES Cc1ccc(Br)cc1S(=O)(=O)N[C@H]1C=C[C@H](C(=O)OCCOC(=O)c2ccc(-c3c4nc(c(-c5cccc(S(=O)(=O)[O-])c5F)c5ccc([nH]5)c(-c5cccc(S(=O)(=O)[O-])c5F)c5nc(c(-c6cccc(S(=O)(=O)[O-])c6F)c6ccc3[nH]6)C=C5)C=C4)cc2)C1
REMARK SMILES IDX 20 1 19 2 17 3 18 4 16 5 13 6 14 7 88 8 15 9 12 10 9 12
REMARK SMILES IDX 10 13 11 14 8 15 1 16 2 17 3 18 4 19 7 20 5 21 6 22 21 23
REMARK SMILES IDX 22 24 23 25 24 26 25 27 26 28 87 29 27 30 86 31 28 32 29 33
REMARK SMILES IDX 30 34 80 35 31 36 85 37 79 38 81 39 32 40 84 41 78 42 77 43
REMARK SMILES IDX 33 45 65 46 45 47 64 48 46 49 49 50 63 51 82 52 47 53 48 54
REMARK SMILES IDX 62 56 83 57 50 58 34 59 35 60 43 61 36 62 38 63 44 64 37 65
REMARK SMILES IDX 39 66 40 67 41 68 42 69 66 70 67 71 75 72 68 73 70 74 76 75
REMARK SMILES IDX 69 76 71 77 72 78 73 79 74 80 51 81 52 82 60 83 53 84 55 85
REMARK SMILES IDX 61 86 54 87 56 88 57 89 58 90 59 91
REMARK H PARENT 12 11 81 44 49 55
REMARK Flexibility Score: inf
ROOT
ATOM      1  C   UNL A   1      30.994  30.034  24.618  1.00  0.00     0.274 C 
ENDROOT
BRANCH   1   2
ATOM      2  O   UNL A   1      31.715  29.182  23.706  1.00  0.00    -0.462 OA
BRANCH   2   3
ATOM      3  C   UNL A   1      31.012  28.168  23.141  1.00  0.00     0.312 C 
ATOM      4  O   UNL A   1      30.277  28.290  22.167  1.00  0.00    -0.252 OA
BRANCH   3   5
ATOM      5  C   UNL A   1      31.265  26.818  23.800  1.00  0.00     0.123 C 
ATOM      6  C   UNL A   1      30.687  25.360  25.669  1.00  0.00     0.093 C 
ATOM      7  C   UNL A   1      31.970  26.089  25.914  1.00  0.00    -0.011 C 
ATOM      8  C   UNL A   1      30.076  26.195  24.541  1.00  0.00     0.043 C 
ATOM      9  C   UNL A   1      32.305  26.865  24.877  1.00  0.00    -0.015 C 
BRANCH   6  10
ATOM     10  N   UNL A   1      31.094  24.016  25.281  1.00  0.00    -0.204 NA
ATOM     11  H   UNL A   1      30.445  23.720  24.551  1.00  0.00     0.142 HD
BRANCH  10  12
ATOM     12  S   UNL A   1      31.166  22.761  26.374  1.00  0.00     0.241 S 
ATOM     13  O   UNL A   1      29.954  21.982  26.209  1.00  0.00    -0.207 OA
ATOM     14  O   UNL A   1      31.526  23.334  27.649  1.00  0.00    -0.207 OA
BRANCH  12  15
ATOM     15  C   UNL A   1      32.552  21.777  25.839  1.00  0.00     0.086 A 
ATOM     16  C   UNL A   1      34.355  23.465  26.621  1.00  0.00     0.046 C 
ATOM     17  C   UNL A   1      33.890  22.209  25.937  1.00  0.00    -0.031 A 
ATOM     18  C   UNL A   1      34.888  21.404  25.354  1.00  0.00     0.006 A 
ATOM     19  C   UNL A   1      34.576  20.188  24.743  1.00  0.00     0.016 A 
ATOM     20  C   UNL A   1      32.243  20.541  25.246  1.00  0.00     0.037 A 
ATOM     21  C   UNL A   1      33.257  19.752  24.710  1.00  0.00     0.019 A 
ATOM     22  Br  UNL A   1      32.834  18.086  23.925  1.00  0.00    -0.051 Br
ENDBRANCH  12  15
ENDBRANCH  10  12
ENDBRANCH   6  10
ENDBRANCH   3   5
ENDBRANCH   2   3
ENDBRANCH   1   2
BRANCH   1  23
ATOM     23  C   UNL A   1      31.586  29.962  26.025  1.00  0.00     0.275 C 
BRANCH  23  24
ATOM     24  O   UNL A   1      32.923  30.489  26.047  1.00  0.00    -0.458 OA
BRANCH  24  25
ATOM     25  C   UNL A   1      33.170  31.404  27.011  1.00  0.00     0.338 C 
ATOM     26  O   UNL A   1      32.437  32.301  27.389  1.00  0.00    -0.246 OA
BRANCH  25  27
ATOM     27  C   UNL A   1      34.483  31.129  27.606  1.00  0.00     0.060 A 
ATOM     28  C   UNL A   1      34.791  29.828  28.013  1.00  0.00     0.016 A 
ATOM     29  C   UNL A   1      35.370  32.178  27.834  1.00  0.00     0.016 A 
ATOM     30  C   UNL A   1      35.974  29.577  28.699  1.00  0.00     0.010 A 
ATOM     31  C   UNL A   1      36.579  31.915  28.475  1.00  0.00     0.010 A 
ATOM     32  C   UNL A   1      36.882  30.618  28.930  1.00  0.00    -0.014 A 
BRANCH  32  33
ATOM     33  C   UNL A   1      38.159  30.372  29.638  1.00  0.00     0.031 A 
ATOM     34  C   UNL A   1      39.168  29.431  29.046  1.00  0.00     0.074 A 
ATOM     35  C   UNL A   1      38.369  30.932  30.844  1.00  0.00     0.049 A 
ATOM     36  N   UNL A   1      40.236  28.917  29.593  1.00  0.00    -0.248 NA
ATOM     37  C   UNL A   1      38.937  29.003  27.655  1.00  0.00     0.031 C 
ATOM     38  C   UNL A   1      37.462  31.870  31.508  1.00  0.00     0.029 A 
ATOM     39  N   UNL A   1      39.390  30.761  31.743  1.00  0.00    -0.354 N 
ATOM     40  C   UNL A   1      40.772  28.058  28.642  1.00  0.00     0.074 A 
ATOM     41  C   UNL A   1      39.919  28.130  27.475  1.00  0.00     0.031 C 
ATOM     42  C   UNL A   1      37.952  32.169  32.720  1.00  0.00     0.029 A 
ATOM     43  C   UNL A   1      39.172  31.401  32.940  1.00  0.00     0.049 A 
ATOM     44  H   UNL A   1      40.197  30.231  31.550  1.00  0.00     0.167 HD
ATOM     45  C   UNL A   1      41.880  27.286  28.735  1.00  0.00     0.034 A 
ATOM     46  C   UNL A   1      39.852  31.337  34.102  1.00  0.00     0.034 A 
ATOM     47  C   UNL A   1      42.745  27.261  29.882  1.00  0.00     0.049 A 
ATOM     48  C   UNL A   1      41.075  30.466  34.180  1.00  0.00     0.074 A 
ATOM     49  C   UNL A   1      43.919  26.550  30.059  1.00  0.00     0.029 A 
ATOM     50  N   UNL A   1      42.533  27.980  31.048  1.00  0.00    -0.354 N 
ATOM     51  N   UNL A   1      41.616  29.720  33.247  1.00  0.00    -0.248 NA
ATOM     52  C   UNL A   1      41.791  30.439  35.463  1.00  0.00     0.031 C 
ATOM     53  C   UNL A   1      44.410  26.833  31.339  1.00  0.00     0.029 A 
ATOM     54  C   UNL A   1      43.549  27.729  31.952  1.00  0.00     0.049 A 
ATOM     55  H   UNL A   1      41.769  28.580  31.210  1.00  0.00     0.167 HD
ATOM     56  C   UNL A   1      42.752  29.161  33.817  1.00  0.00     0.074 A 
ATOM     57  C   UNL A   1      42.831  29.666  35.173  1.00  0.00     0.031 C 
ATOM     58  C   UNL A   1      43.642  28.294  33.273  1.00  0.00     0.034 A 
BRANCH  45  59
ATOM     59  C   UNL A   1      42.237  26.424  27.555  1.00  0.00     0.023 A 
ATOM     60  C   UNL A   1      42.992  26.971  26.497  1.00  0.00     0.012 A 
ATOM     61  C   UNL A   1      41.878  25.063  27.517  1.00  0.00     0.148 A 
ATOM     62  C   UNL A   1      43.365  26.181  25.410  1.00  0.00     0.002 A 
ATOM     63  C   UNL A   1      42.286  24.273  26.448  1.00  0.00     0.091 A 
ATOM     64  F   UNL A   1      41.137  24.569  28.518  1.00  0.00    -0.205 F 
ATOM     65  C   UNL A   1      43.023  24.832  25.391  1.00  0.00     0.022 A 
BRANCH  63  66
ATOM     66  S   UNL A   1      41.949  22.510  26.370  1.00  0.00     0.127 S 
ATOM     67  O   UNL A   1      40.487  22.490  26.327  1.00  0.00    -0.237 OA
ATOM     68  O   UNL A   1      42.599  22.124  25.118  1.00  0.00    -0.237 OA
ATOM     69  O   UNL A   1      42.550  21.936  27.565  1.00  0.00    -0.744 OA
ENDBRANCH  63  66
ENDBRANCH  45  59
BRANCH  46  70
ATOM     70  C   UNL A   1      39.399  32.145  35.269  1.00  0.00     0.023 A 
ATOM     71  C   UNL A   1      39.625  33.533  35.274  1.00  0.00     0.012 A 
ATOM     72  C   UNL A   1      38.700  31.557  36.342  1.00  0.00     0.148 A 
ATOM     73  C   UNL A   1      39.181  34.321  36.336  1.00  0.00     0.002 A 
ATOM     74  C   UNL A   1      38.212  32.356  37.370  1.00  0.00     0.091 A 
ATOM     75  F   UNL A   1      38.511  30.230  36.330  1.00  0.00    -0.205 F 
ATOM     76  C   UNL A   1      38.464  33.736  37.377  1.00  0.00     0.022 A 
BRANCH  74  77
ATOM     77  S   UNL A   1      37.162  31.702  38.674  1.00  0.00     0.127 S 
ATOM     78  O   UNL A   1      36.030  32.625  38.638  1.00  0.00    -0.237 OA
ATOM     79  O   UNL A   1      36.872  30.352  38.185  1.00  0.00    -0.237 OA
ATOM     80  O   UNL A   1      37.976  31.736  39.881  1.00  0.00    -0.744 OA
ENDBRANCH  74  77
ENDBRANCH  46  70
BRANCH  58  81
ATOM     81  C   UNL A   1      44.804  27.861  34.125  1.00  0.00     0.023 A 
ATOM     82  C   UNL A   1      45.987  28.624  34.128  1.00  0.00     0.012 A 
ATOM     83  C   UNL A   1      44.685  26.758  34.993  1.00  0.00     0.148 A 
ATOM     84  C   UNL A   1      47.043  28.285  34.974  1.00  0.00     0.002 A 
ATOM     85  C   UNL A   1      45.724  26.452  35.862  1.00  0.00     0.091 A 
ATOM     86  F   UNL A   1      43.555  26.035  34.956  1.00  0.00    -0.205 F 
ATOM     87  C   UNL A   1      46.906  27.209  35.848  1.00  0.00     0.022 A 
BRANCH  85  88
ATOM     88  S   UNL A   1      45.600  25.142  37.085  1.00  0.00     0.127 S 
ATOM     89  O   UNL A   1      46.763  25.411  37.928  1.00  0.00    -0.237 OA
ATOM     90  O   UNL A   1      44.310  25.426  37.716  1.00  0.00    -0.237 OA
ATOM     91  O   UNL A   1      45.642  23.891  36.339  1.00  0.00    -0.744 OA
ENDBRANCH  85  88
ENDBRANCH  58  81
ENDBRANCH  32  33
ENDBRANCH  25  27
ENDBRANCH  24  25
ENDBRANCH  23  24
ENDBRANCH   1  23
TORSDOF 17
ENDMDL
