MODEL 1
REMARK VINA RESULT:     -13.0      0.000      0.000
REMARK SMILES Cc1nn(-c2ccccc2)c(C)c1CNC(=O)[C@@H]1[C@@H](C(=O)OCCOC(=O)c2ccc(-c3c4nc(c(-c5cccc(S(=O)(=O)[O-])c5F)c5ccc([nH]5)c(-c5cccc(S(=O)(=O)[O-])c5F)c5nc(c(-c6cccc(S(=O)(=O)[O-])c6F)c6ccc3[nH]6)C=C5)C=C4)cc2)[C@@H]2C=C[C@H]1C2
REMARK SMILES IDX 23 1 22 2 20 3 21 4 19 5 18 6 94 7 91 8 93 9 95 10 92 11
REMARK SMILES IDX 16 12 15 13 17 15 14 16 13 17 1 18 2 19 3 20 4 21 11 22
REMARK SMILES IDX 12 23 5 24 6 25 10 26 7 27 9 28 8 29 24 30 25 31 26 32 27 33
REMARK SMILES IDX 28 34 29 35 90 36 30 37 89 38 31 39 32 40 33 41 83 42 34 43
REMARK SMILES IDX 88 44 82 45 84 46 35 47 87 48 81 49 80 50 36 52 68 53 48 54
REMARK SMILES IDX 67 55 49 56 52 57 66 58 85 59 50 60 51 61 65 63 86 64 53 65
REMARK SMILES IDX 37 66 38 67 46 68 39 69 41 70 47 71 40 72 42 73 43 74 44 75
REMARK SMILES IDX 45 76 69 77 70 78 78 79 71 80 73 81 79 82 72 83 74 84 75 85
REMARK SMILES IDX 76 86 77 87 54 88 55 89 63 90 56 91 58 92 64 93 57 94 59 95
REMARK SMILES IDX 60 96 61 97 62 98
REMARK H PARENT 15 14 84 51 52 62
REMARK Flexibility Score: inf
ROOT
ATOM      1  C   UNL A   1      32.726  29.844  27.219  1.00  0.00     0.274 C 
ENDROOT
BRANCH   1   2
ATOM      2  O   UNL A   1      31.942  29.796  26.000  1.00  0.00    -0.462 OA
BRANCH   2   3
ATOM      3  C   UNL A   1      32.348  28.937  25.025  1.00  0.00     0.310 C 
ATOM      4  O   UNL A   1      33.254  29.190  24.231  1.00  0.00    -0.252 OA
BRANCH   3   5
ATOM      5  C   UNL A   1      31.524  27.658  24.919  1.00  0.00     0.119 C 
ATOM      6  C   UNL A   1      32.252  26.328  24.530  1.00  0.00     0.100 C 
ATOM      7  C   UNL A   1      31.372  25.782  23.371  1.00  0.00     0.025 C 
ATOM      8  C   UNL A   1      30.443  27.770  23.813  1.00  0.00     0.027 C 
ATOM      9  C   UNL A   1      29.954  25.525  23.834  1.00  0.00    -0.027 C 
ATOM     10  C   UNL A   1      31.104  27.079  22.611  1.00  0.00     0.017 C 
ATOM     11  C   UNL A   1      29.397  26.716  24.097  1.00  0.00    -0.027 C 
BRANCH   6  12
ATOM     12  C   UNL A   1      32.323  25.335  25.686  1.00  0.00     0.224 C 
ATOM     13  N   UNL A   1      33.104  24.224  25.588  1.00  0.00    -0.352 N 
ATOM     14  H   UNL A   1      33.015  23.586  26.334  1.00  0.00     0.163 HD
ATOM     15  O   UNL A   1      31.714  25.495  26.747  1.00  0.00    -0.275 OA
BRANCH  13  16
ATOM     16  C   UNL A   1      34.041  23.835  24.563  1.00  0.00     0.155 C 
BRANCH  16  17
ATOM     17  C   UNL A   1      34.301  22.359  24.611  1.00  0.00     0.016 A 
ATOM     18  C   UNL A   1      36.757  22.403  25.506  1.00  0.00     0.069 C 
ATOM     19  C   UNL A   1      35.485  21.745  25.110  1.00  0.00     0.065 A 
ATOM     20  N   UNL A   1      35.361  20.419  25.215  1.00  0.00    -0.173 NA
ATOM     21  N   UNL A   1      34.163  20.133  24.657  1.00  0.00    -0.237 N 
ATOM     22  C   UNL A   1      33.495  21.283  24.257  1.00  0.00     0.046 A 
ATOM     23  C   UNL A   1      32.125  21.243  23.686  1.00  0.00     0.067 C 
BRANCH  21  24
ATOM     24  C   UNL A   1      33.673  18.800  24.630  1.00  0.00     0.065 A 
ATOM     25  C   UNL A   1      34.058  17.953  23.585  1.00  0.00     0.028 A 
ATOM     26  C   UNL A   1      32.905  18.298  25.690  1.00  0.00     0.028 A 
ATOM     27  C   UNL A   1      33.759  16.591  23.659  1.00  0.00     0.002 A 
ATOM     28  C   UNL A   1      32.598  16.941  25.750  1.00  0.00     0.002 A 
ATOM     29  C   UNL A   1      33.042  16.084  24.746  1.00  0.00     0.000 A 
ENDBRANCH  21  24
ENDBRANCH  16  17
ENDBRANCH  13  16
ENDBRANCH   6  12
ENDBRANCH   3   5
ENDBRANCH   2   3
ENDBRANCH   1   2
BRANCH   1  30
ATOM     30  C   UNL A   1      33.661  31.046  27.335  1.00  0.00     0.275 C 
BRANCH  30  31
ATOM     31  O   UNL A   1      35.033  30.659  27.318  1.00  0.00    -0.458 OA
BRANCH  31  32
ATOM     32  C   UNL A   1      35.809  31.590  27.909  1.00  0.00     0.338 C 
ATOM     33  O   UNL A   1      35.864  32.777  27.634  1.00  0.00    -0.246 OA
BRANCH  32  34
ATOM     34  C   UNL A   1      36.729  31.001  28.866  1.00  0.00     0.060 A 
ATOM     35  C   UNL A   1      37.858  31.765  29.168  1.00  0.00     0.016 A 
ATOM     36  C   UNL A   1      36.680  29.618  29.063  1.00  0.00     0.016 A 
ATOM     37  C   UNL A   1      39.026  31.117  29.476  1.00  0.00     0.010 A 
ATOM     38  C   UNL A   1      37.852  28.969  29.377  1.00  0.00     0.010 A 
ATOM     39  C   UNL A   1      39.025  29.722  29.485  1.00  0.00    -0.014 A 
BRANCH  39  40
ATOM     40  C   UNL A   1      40.319  29.088  29.615  1.00  0.00     0.031 A 
ATOM     41  C   UNL A   1      40.739  28.836  31.009  1.00  0.00     0.074 A 
ATOM     42  C   UNL A   1      41.028  28.693  28.543  1.00  0.00     0.049 A 
ATOM     43  N   UNL A   1      41.812  29.237  31.609  1.00  0.00    -0.248 NA
ATOM     44  C   UNL A   1      39.774  28.142  31.876  1.00  0.00     0.031 C 
ATOM     45  C   UNL A   1      40.576  28.634  27.150  1.00  0.00     0.029 A 
ATOM     46  N   UNL A   1      42.244  28.081  28.512  1.00  0.00    -0.354 N 
ATOM     47  C   UNL A   1      41.751  28.666  32.876  1.00  0.00     0.074 A 
ATOM     48  C   UNL A   1      40.419  28.148  33.040  1.00  0.00     0.031 C 
ATOM     49  C   UNL A   1      41.360  27.760  26.484  1.00  0.00     0.029 A 
ATOM     50  C   UNL A   1      42.420  27.312  27.371  1.00  0.00     0.049 A 
ATOM     51  H   UNL A   1      42.922  28.174  29.220  1.00  0.00     0.167 HD
ATOM     52  C   UNL A   1      42.863  28.444  33.622  1.00  0.00     0.034 A 
ATOM     53  C   UNL A   1      43.288  26.285  27.230  1.00  0.00     0.034 A 
ATOM     54  C   UNL A   1      43.992  29.214  33.183  1.00  0.00     0.049 A 
ATOM     55  C   UNL A   1      44.318  26.405  28.288  1.00  0.00     0.074 A 
ATOM     56  C   UNL A   1      44.266  30.558  33.041  1.00  0.00     0.029 A 
ATOM     57  N   UNL A   1      44.982  28.550  32.504  1.00  0.00    -0.354 N 
ATOM     58  N   UNL A   1      45.215  27.351  28.335  1.00  0.00    -0.248 NA
ATOM     59  C   UNL A   1      44.135  25.660  29.524  1.00  0.00     0.031 C 
ATOM     60  C   UNL A   1      45.150  30.644  31.928  1.00  0.00     0.029 A 
ATOM     61  C   UNL A   1      45.361  29.347  31.456  1.00  0.00     0.049 A 
ATOM     62  H   UNL A   1      45.352  27.665  32.727  1.00  0.00     0.167 HD
ATOM     63  C   UNL A   1      45.396  27.599  29.691  1.00  0.00     0.074 A 
ATOM     64  C   UNL A   1      44.819  26.441  30.364  1.00  0.00     0.031 C 
ATOM     65  C   UNL A   1      45.724  28.846  30.147  1.00  0.00     0.034 A 
BRANCH  52  66
ATOM     66  C   UNL A   1      43.008  27.274  34.557  1.00  0.00     0.023 A 
ATOM     67  C   UNL A   1      42.812  27.502  35.934  1.00  0.00     0.012 A 
ATOM     68  C   UNL A   1      43.566  26.032  34.180  1.00  0.00     0.148 A 
ATOM     69  C   UNL A   1      43.174  26.545  36.888  1.00  0.00     0.002 A 
ATOM     70  C   UNL A   1      43.832  25.049  35.123  1.00  0.00     0.091 A 
ATOM     71  F   UNL A   1      43.975  25.830  32.921  1.00  0.00    -0.205 F 
ATOM     72  C   UNL A   1      43.666  25.309  36.483  1.00  0.00     0.022 A 
BRANCH  70  73
ATOM     73  S   UNL A   1      44.378  23.421  34.603  1.00  0.00     0.127 S 
ATOM     74  O   UNL A   1      43.295  23.012  33.714  1.00  0.00    -0.237 OA
ATOM     75  O   UNL A   1      45.649  23.714  33.938  1.00  0.00    -0.237 OA
ATOM     76  O   UNL A   1      44.522  22.671  35.847  1.00  0.00    -0.744 OA
ENDBRANCH  70  73
ENDBRANCH  52  66
BRANCH  53  77
ATOM     77  C   UNL A   1      43.135  25.071  26.399  1.00  0.00     0.023 A 
ATOM     78  C   UNL A   1      43.936  24.911  25.255  1.00  0.00     0.012 A 
ATOM     79  C   UNL A   1      42.364  23.967  26.835  1.00  0.00     0.148 A 
ATOM     80  C   UNL A   1      43.975  23.692  24.570  1.00  0.00     0.002 A 
ATOM     81  C   UNL A   1      42.385  22.766  26.134  1.00  0.00     0.091 A 
ATOM     82  F   UNL A   1      41.683  24.062  27.985  1.00  0.00    -0.205 F 
ATOM     83  C   UNL A   1      43.199  22.621  25.006  1.00  0.00     0.022 A 
BRANCH  81  84
ATOM     84  S   UNL A   1      41.384  21.359  26.638  1.00  0.00     0.127 S 
ATOM     85  O   UNL A   1      41.829  21.139  28.014  1.00  0.00    -0.237 OA
ATOM     86  O   UNL A   1      40.029  21.888  26.511  1.00  0.00    -0.237 OA
ATOM     87  O   UNL A   1      41.737  20.280  25.721  1.00  0.00    -0.744 OA
ENDBRANCH  81  84
ENDBRANCH  53  77
BRANCH  65  88
ATOM     88  C   UNL A   1      46.167  29.884  29.143  1.00  0.00     0.023 A 
ATOM     89  C   UNL A   1      47.514  29.980  28.733  1.00  0.00     0.012 A 
ATOM     90  C   UNL A   1      45.198  30.637  28.457  1.00  0.00     0.148 A 
ATOM     91  C   UNL A   1      47.891  30.828  27.691  1.00  0.00     0.002 A 
ATOM     92  C   UNL A   1      45.570  31.445  27.385  1.00  0.00     0.091 A 
ATOM     93  F   UNL A   1      43.916  30.531  28.842  1.00  0.00    -0.205 F 
ATOM     94  C   UNL A   1      46.918  31.551  27.007  1.00  0.00     0.022 A 
BRANCH  92  95
ATOM     95  S   UNL A   1      44.346  32.286  26.377  1.00  0.00     0.127 S 
ATOM     96  O   UNL A   1      45.149  32.780  25.262  1.00  0.00    -0.237 OA
ATOM     97  O   UNL A   1      43.419  31.207  26.029  1.00  0.00    -0.237 OA
ATOM     98  O   UNL A   1      43.762  33.307  27.241  1.00  0.00    -0.744 OA
ENDBRANCH  92  95
ENDBRANCH  65  88
ENDBRANCH  39  40
ENDBRANCH  32  34
ENDBRANCH  31  32
ENDBRANCH  30  31
ENDBRANCH   1  30
TORSDOF 18
ENDMDL
MODEL 2
REMARK VINA RESULT:     -12.6      1.633      2.349
REMARK SMILES Cc1nn(-c2ccccc2)c(C)c1CNC(=O)[C@@H]1[C@@H](C(=O)OCCOC(=O)c2ccc(-c3c4nc(c(-c5cccc(S(=O)(=O)[O-])c5F)c5ccc([nH]5)c(-c5cccc(S(=O)(=O)[O-])c5F)c5nc(c(-c6cccc(S(=O)(=O)[O-])c6F)c6ccc3[nH]6)C=C5)C=C4)cc2)[C@@H]2C=C[C@H]1C2
REMARK SMILES IDX 23 1 22 2 20 3 21 4 19 5 18 6 94 7 91 8 93 9 95 10 92 11
REMARK SMILES IDX 16 12 15 13 17 15 14 16 13 17 1 18 2 19 3 20 4 21 11 22
REMARK SMILES IDX 12 23 5 24 6 25 10 26 7 27 9 28 8 29 24 30 25 31 26 32 27 33
REMARK SMILES IDX 28 34 29 35 90 36 30 37 89 38 31 39 32 40 33 41 83 42 34 43
REMARK SMILES IDX 88 44 82 45 84 46 35 47 87 48 81 49 80 50 36 52 68 53 48 54
REMARK SMILES IDX 67 55 49 56 52 57 66 58 85 59 50 60 51 61 65 63 86 64 53 65
REMARK SMILES IDX 37 66 38 67 46 68 39 69 41 70 47 71 40 72 42 73 43 74 44 75
REMARK SMILES IDX 45 76 69 77 70 78 78 79 71 80 73 81 79 82 72 83 74 84 75 85
REMARK SMILES IDX 76 86 77 87 54 88 55 89 63 90 56 91 58 92 64 93 57 94 59 95
REMARK SMILES IDX 60 96 61 97 62 98
REMARK H PARENT 15 14 84 51 52 62
REMARK Flexibility Score: inf
ROOT
ATOM      1  C   UNL A   1      32.574  30.968  26.731  1.00  0.00     0.274 C 
ENDROOT
BRANCH   1   2
ATOM      2  O   UNL A   1      32.911  30.146  25.584  1.00  0.00    -0.462 OA
BRANCH   2   3
ATOM      3  C   UNL A   1      32.646  28.814  25.666  1.00  0.00     0.310 C 
ATOM      4  O   UNL A   1      33.438  27.991  26.124  1.00  0.00    -0.252 OA
BRANCH   3   5
ATOM      5  C   UNL A   1      31.317  28.390  25.050  1.00  0.00     0.119 C 
ATOM      6  C   UNL A   1      31.256  27.044  24.253  1.00  0.00     0.100 C 
ATOM      7  C   UNL A   1      30.576  27.464  22.920  1.00  0.00     0.025 C 
ATOM      8  C   UNL A   1      30.830  29.413  23.992  1.00  0.00     0.027 C 
ATOM      9  C   UNL A   1      29.193  28.028  23.165  1.00  0.00    -0.027 C 
ATOM     10  C   UNL A   1      31.292  28.789  22.667  1.00  0.00     0.017 C 
ATOM     11  C   UNL A   1      29.345  29.197  23.806  1.00  0.00    -0.027 C 
BRANCH   6  12
ATOM     12  C   UNL A   1      30.447  25.969  24.973  1.00  0.00     0.224 C 
ATOM     13  N   UNL A   1      30.154  24.797  24.345  1.00  0.00    -0.352 N 
ATOM     14  H   UNL A   1      29.544  24.201  24.839  1.00  0.00     0.163 HD
ATOM     15  O   UNL A   1      30.049  26.093  26.133  1.00  0.00    -0.275 OA
BRANCH  13  16
ATOM     16  C   UNL A   1      30.597  24.291  23.068  1.00  0.00     0.155 C 
BRANCH  16  17
ATOM     17  C   UNL A   1      32.089  24.155  23.038  1.00  0.00     0.016 A 
ATOM     18  C   UNL A   1      32.587  25.541  20.879  1.00  0.00     0.069 C 
ATOM     19  C   UNL A   1      32.958  24.785  22.103  1.00  0.00     0.065 A 
ATOM     20  N   UNL A   1      34.245  24.647  22.436  1.00  0.00    -0.173 NA
ATOM     21  N   UNL A   1      34.245  23.811  23.499  1.00  0.00    -0.237 N 
ATOM     22  C   UNL A   1      32.956  23.470  23.885  1.00  0.00     0.046 A 
ATOM     23  C   UNL A   1      32.684  22.625  25.075  1.00  0.00     0.067 C 
BRANCH  21  24
ATOM     24  C   UNL A   1      35.459  23.467  24.153  1.00  0.00     0.065 A 
ATOM     25  C   UNL A   1      35.879  24.226  25.251  1.00  0.00     0.028 A 
ATOM     26  C   UNL A   1      36.172  22.319  23.782  1.00  0.00     0.028 A 
ATOM     27  C   UNL A   1      36.948  23.775  26.028  1.00  0.00     0.002 A 
ATOM     28  C   UNL A   1      37.247  21.883  24.553  1.00  0.00     0.002 A 
ATOM     29  C   UNL A   1      37.621  22.599  25.687  1.00  0.00     0.000 A 
ENDBRANCH  21  24
ENDBRANCH  16  17
ENDBRANCH  13  16
ENDBRANCH   6  12
ENDBRANCH   3   5
ENDBRANCH   2   3
ENDBRANCH   1   2
BRANCH   1  30
ATOM     30  C   UNL A   1      33.674  31.086  27.783  1.00  0.00     0.275 C 
BRANCH  30  31
ATOM     31  O   UNL A   1      34.975  30.983  27.210  1.00  0.00    -0.458 OA
BRANCH  31  32
ATOM     32  C   UNL A   1      35.856  31.775  27.853  1.00  0.00     0.338 C 
ATOM     33  O   UNL A   1      36.059  32.960  27.646  1.00  0.00    -0.246 OA
BRANCH  32  34
ATOM     34  C   UNL A   1      36.688  31.024  28.777  1.00  0.00     0.060 A 
ATOM     35  C   UNL A   1      37.712  31.746  29.392  1.00  0.00     0.016 A 
ATOM     36  C   UNL A   1      36.712  29.632  28.658  1.00  0.00     0.016 A 
ATOM     37  C   UNL A   1      38.875  31.094  29.710  1.00  0.00     0.010 A 
ATOM     38  C   UNL A   1      37.879  28.977  28.983  1.00  0.00     0.010 A 
ATOM     39  C   UNL A   1      38.972  29.734  29.414  1.00  0.00    -0.014 A 
BRANCH  39  40
ATOM     40  C   UNL A   1      40.281  29.142  29.581  1.00  0.00     0.031 A 
ATOM     41  C   UNL A   1      40.666  28.893  30.986  1.00  0.00     0.074 A 
ATOM     42  C   UNL A   1      41.036  28.778  28.529  1.00  0.00     0.049 A 
ATOM     43  N   UNL A   1      41.706  29.324  31.621  1.00  0.00    -0.248 NA
ATOM     44  C   UNL A   1      39.698  28.163  31.818  1.00  0.00     0.031 C 
ATOM     45  C   UNL A   1      40.630  28.713  27.122  1.00  0.00     0.029 A 
ATOM     46  N   UNL A   1      42.272  28.205  28.533  1.00  0.00    -0.354 N 
ATOM     47  C   UNL A   1      41.625  28.743  32.882  1.00  0.00     0.074 A 
ATOM     48  C   UNL A   1      40.305  28.181  33.001  1.00  0.00     0.031 C 
ATOM     49  C   UNL A   1      41.462  27.870  26.475  1.00  0.00     0.029 A 
ATOM     50  C   UNL A   1      42.508  27.450  27.393  1.00  0.00     0.049 A 
ATOM     51  H   UNL A   1      42.924  28.315  29.262  1.00  0.00     0.167 HD
ATOM     52  C   UNL A   1      42.720  28.551  33.661  1.00  0.00     0.034 A 
ATOM     53  C   UNL A   1      43.413  26.452  27.273  1.00  0.00     0.034 A 
ATOM     54  C   UNL A   1      43.836  29.360  33.263  1.00  0.00     0.049 A 
ATOM     55  C   UNL A   1      44.406  26.599  28.363  1.00  0.00     0.074 A 
ATOM     56  C   UNL A   1      44.070  30.714  33.137  1.00  0.00     0.029 A 
ATOM     57  N   UNL A   1      44.867  28.734  32.610  1.00  0.00    -0.354 N 
ATOM     58  N   UNL A   1      45.269  27.573  28.444  1.00  0.00    -0.248 NA
ATOM     59  C   UNL A   1      44.208  25.839  29.589  1.00  0.00     0.031 C 
ATOM     60  C   UNL A   1      44.985  30.836  32.053  1.00  0.00     0.029 A 
ATOM     61  C   UNL A   1      45.253  29.550  31.580  1.00  0.00     0.049 A 
ATOM     62  H   UNL A   1      45.259  27.860  32.840  1.00  0.00     0.167 HD
ATOM     63  C   UNL A   1      45.399  27.817  29.806  1.00  0.00     0.074 A 
ATOM     64  C   UNL A   1      44.840  26.636  30.454  1.00  0.00     0.031 C 
ATOM     65  C   UNL A   1      45.673  29.070  30.280  1.00  0.00     0.034 A 
BRANCH  52  66
ATOM     66  C   UNL A   1      42.873  27.381  34.593  1.00  0.00     0.023 A 
ATOM     67  C   UNL A   1      42.664  27.600  35.970  1.00  0.00     0.012 A 
ATOM     68  C   UNL A   1      43.450  26.147  34.216  1.00  0.00     0.148 A 
ATOM     69  C   UNL A   1      43.032  26.645  36.923  1.00  0.00     0.002 A 
ATOM     70  C   UNL A   1      43.723  25.164  35.158  1.00  0.00     0.091 A 
ATOM     71  F   UNL A   1      43.871  25.955  32.959  1.00  0.00    -0.205 F 
ATOM     72  C   UNL A   1      43.543  25.418  36.517  1.00  0.00     0.022 A 
BRANCH  70  73
ATOM     73  S   UNL A   1      44.294  23.545  34.636  1.00  0.00     0.127 S 
ATOM     74  O   UNL A   1      44.627  22.920  35.912  1.00  0.00    -0.237 OA
ATOM     75  O   UNL A   1      43.113  22.997  33.966  1.00  0.00    -0.237 OA
ATOM     76  O   UNL A   1      45.406  23.825  33.734  1.00  0.00    -0.744 OA
ENDBRANCH  70  73
ENDBRANCH  52  66
BRANCH  53  77
ATOM     77  C   UNL A   1      43.326  25.240  26.430  1.00  0.00     0.023 A 
ATOM     78  C   UNL A   1      44.119  25.143  25.273  1.00  0.00     0.012 A 
ATOM     79  C   UNL A   1      42.632  24.086  26.864  1.00  0.00     0.148 A 
ATOM     80  C   UNL A   1      44.226  23.937  24.574  1.00  0.00     0.002 A 
ATOM     81  C   UNL A   1      42.719  22.895  26.149  1.00  0.00     0.091 A 
ATOM     82  F   UNL A   1      41.963  24.124  28.024  1.00  0.00    -0.205 F 
ATOM     83  C   UNL A   1      43.525  22.814  25.008  1.00  0.00     0.022 A 
BRANCH  81  84
ATOM     84  S   UNL A   1      41.816  21.423  26.650  1.00  0.00     0.127 S 
ATOM     85  O   UNL A   1      42.341  21.179  27.994  1.00  0.00    -0.237 OA
ATOM     86  O   UNL A   1      40.432  21.885  26.608  1.00  0.00    -0.237 OA
ATOM     87  O   UNL A   1      42.176  20.395  25.679  1.00  0.00    -0.744 OA
ENDBRANCH  81  84
ENDBRANCH  53  77
BRANCH  65  88
ATOM     88  C   UNL A   1      46.113  30.129  29.297  1.00  0.00     0.023 A 
ATOM     89  C   UNL A   1      47.478  30.342  29.011  1.00  0.00     0.012 A 
ATOM     90  C   UNL A   1      45.148  30.779  28.506  1.00  0.00     0.148 A 
ATOM     91  C   UNL A   1      47.874  31.206  27.988  1.00  0.00     0.002 A 
ATOM     92  C   UNL A   1      45.545  31.601  27.455  1.00  0.00     0.091 A 
ATOM     93  F   UNL A   1      43.851  30.562  28.774  1.00  0.00    -0.205 F 
ATOM     94  C   UNL A   1      46.908  31.825  27.200  1.00  0.00     0.022 A 
BRANCH  92  95
ATOM     95  S   UNL A   1      44.350  32.311  26.318  1.00  0.00     0.127 S 
ATOM     96  O   UNL A   1      43.780  33.399  27.108  1.00  0.00    -0.237 OA
ATOM     97  O   UNL A   1      45.189  32.744  25.199  1.00  0.00    -0.237 OA
ATOM     98  O   UNL A   1      43.436  31.224  25.983  1.00  0.00    -0.744 OA
ENDBRANCH  92  95
ENDBRANCH  65  88
ENDBRANCH  39  40
ENDBRANCH  32  34
ENDBRANCH  31  32
ENDBRANCH  30  31
ENDBRANCH   1  30
TORSDOF 18
ENDMDL
MODEL 3
REMARK VINA RESULT:     -12.5      3.079      7.913
REMARK SMILES Cc1nn(-c2ccccc2)c(C)c1CNC(=O)[C@@H]1[C@@H](C(=O)OCCOC(=O)c2ccc(-c3c4nc(c(-c5cccc(S(=O)(=O)[O-])c5F)c5ccc([nH]5)c(-c5cccc(S(=O)(=O)[O-])c5F)c5nc(c(-c6cccc(S(=O)(=O)[O-])c6F)c6ccc3[nH]6)C=C5)C=C4)cc2)[C@@H]2C=C[C@H]1C2
REMARK SMILES IDX 23 1 22 2 20 3 21 4 19 5 18 6 94 7 91 8 93 9 95 10 92 11
REMARK SMILES IDX 16 12 15 13 17 15 14 16 13 17 1 18 2 19 3 20 4 21 11 22
REMARK SMILES IDX 12 23 5 24 6 25 10 26 7 27 9 28 8 29 24 30 25 31 26 32 27 33
REMARK SMILES IDX 28 34 29 35 90 36 30 37 89 38 31 39 32 40 33 41 83 42 34 43
REMARK SMILES IDX 88 44 82 45 84 46 35 47 87 48 81 49 80 50 36 52 68 53 48 54
REMARK SMILES IDX 67 55 49 56 52 57 66 58 85 59 50 60 51 61 65 63 86 64 53 65
REMARK SMILES IDX 37 66 38 67 46 68 39 69 41 70 47 71 40 72 42 73 43 74 44 75
REMARK SMILES IDX 45 76 69 77 70 78 78 79 71 80 73 81 79 82 72 83 74 84 75 85
REMARK SMILES IDX 76 86 77 87 54 88 55 89 63 90 56 91 58 92 64 93 57 94 59 95
REMARK SMILES IDX 60 96 61 97 62 98
REMARK H PARENT 15 14 84 51 52 62
REMARK Flexibility Score: inf
ROOT
ATOM      1  C   UNL A   1      37.609  22.914  25.538  1.00  0.00     0.274 C 
ENDROOT
BRANCH   1   2
ATOM      2  O   UNL A   1      36.787  22.537  24.403  1.00  0.00    -0.462 OA
BRANCH   2   3
ATOM      3  C   UNL A   1      35.547  23.090  24.314  1.00  0.00     0.310 C 
ATOM      4  O   UNL A   1      35.329  24.293  24.447  1.00  0.00    -0.252 OA
BRANCH   3   5
ATOM      5  C   UNL A   1      34.414  22.086  24.132  1.00  0.00     0.119 C 
ATOM      6  C   UNL A   1      32.938  22.587  24.281  1.00  0.00     0.100 C 
ATOM      7  C   UNL A   1      32.325  21.558  25.273  1.00  0.00     0.025 C 
ATOM      8  C   UNL A   1      34.479  20.957  25.193  1.00  0.00     0.027 C 
ATOM      9  C   UNL A   1      32.381  20.155  24.710  1.00  0.00    -0.027 C 
ATOM     10  C   UNL A   1      33.481  21.426  26.262  1.00  0.00     0.017 C 
ATOM     11  C   UNL A   1      33.672  19.794  24.664  1.00  0.00    -0.027 C 
BRANCH   6  12
ATOM     12  C   UNL A   1      32.182  22.596  22.956  1.00  0.00     0.224 C 
ATOM     13  N   UNL A   1      31.052  23.343  22.816  1.00  0.00    -0.352 N 
ATOM     14  H   UNL A   1      30.571  23.215  21.967  1.00  0.00     0.163 HD
ATOM     15  O   UNL A   1      32.557  21.965  21.965  1.00  0.00    -0.275 OA
BRANCH  13  16
ATOM     16  C   UNL A   1      30.450  24.294  23.719  1.00  0.00     0.155 C 
BRANCH  16  17
ATOM     17  C   UNL A   1      31.329  25.496  23.892  1.00  0.00     0.016 A 
ATOM     18  C   UNL A   1      31.799  26.027  21.376  1.00  0.00     0.069 C 
ATOM     19  C   UNL A   1      31.850  26.297  22.836  1.00  0.00     0.065 A 
ATOM     20  N   UNL A   1      32.431  27.412  23.287  1.00  0.00    -0.173 NA
ATOM     21  N   UNL A   1      32.431  27.288  24.634  1.00  0.00    -0.237 N 
ATOM     22  C   UNL A   1      31.789  26.127  25.043  1.00  0.00     0.046 A 
ATOM     23  C   UNL A   1      31.586  25.799  26.477  1.00  0.00     0.067 C 
BRANCH  21  24
ATOM     24  C   UNL A   1      32.942  28.325  25.460  1.00  0.00     0.065 A 
ATOM     25  C   UNL A   1      32.144  29.445  25.719  1.00  0.00     0.028 A 
ATOM     26  C   UNL A   1      34.182  28.186  26.099  1.00  0.00     0.028 A 
ATOM     27  C   UNL A   1      32.546  30.364  26.691  1.00  0.00     0.002 A 
ATOM     28  C   UNL A   1      34.583  29.114  27.057  1.00  0.00     0.002 A 
ATOM     29  C   UNL A   1      33.756  30.191  27.368  1.00  0.00     0.000 A 
ENDBRANCH  21  24
ENDBRANCH  16  17
ENDBRANCH  13  16
ENDBRANCH   6  12
ENDBRANCH   3   5
ENDBRANCH   2   3
ENDBRANCH   1   2
BRANCH   1  30
ATOM     30  C   UNL A   1      38.437  21.780  26.137  1.00  0.00     0.275 C 
BRANCH  30  31
ATOM     31  O   UNL A   1      39.009  20.947  25.132  1.00  0.00    -0.458 OA
BRANCH  31  32
ATOM     32  C   UNL A   1      39.935  20.118  25.654  1.00  0.00     0.338 C 
ATOM     33  O   UNL A   1      39.882  18.899  25.700  1.00  0.00    -0.246 OA
BRANCH  32  34
ATOM     34  C   UNL A   1      41.001  20.845  26.319  1.00  0.00     0.060 A 
ATOM     35  C   UNL A   1      40.964  20.830  27.715  1.00  0.00     0.016 A 
ATOM     36  C   UNL A   1      41.682  21.826  25.593  1.00  0.00     0.016 A 
ATOM     37  C   UNL A   1      41.437  21.921  28.396  1.00  0.00     0.010 A 
ATOM     38  C   UNL A   1      42.161  22.919  26.278  1.00  0.00     0.010 A 
ATOM     39  C   UNL A   1      41.946  22.991  27.657  1.00  0.00    -0.014 A 
BRANCH  39  40
ATOM     40  C   UNL A   1      42.243  24.193  28.406  1.00  0.00     0.031 A 
ATOM     41  C   UNL A   1      41.270  25.289  28.215  1.00  0.00     0.074 A 
ATOM     42  C   UNL A   1      43.276  24.259  29.263  1.00  0.00     0.049 A 
ATOM     43  N   UNL A   1      41.491  26.496  27.808  1.00  0.00    -0.248 NA
ATOM     44  C   UNL A   1      39.850  24.951  28.390  1.00  0.00     0.031 C 
ATOM     45  C   UNL A   1      44.112  23.152  29.736  1.00  0.00     0.029 A 
ATOM     46  N   UNL A   1      43.668  25.310  30.037  1.00  0.00    -0.354 N 
ATOM     47  C   UNL A   1      40.255  27.131  27.877  1.00  0.00     0.074 A 
ATOM     48  C   UNL A   1      39.266  26.106  28.079  1.00  0.00     0.031 C 
ATOM     49  C   UNL A   1      44.683  23.517  30.905  1.00  0.00     0.029 A 
ATOM     50  C   UNL A   1      44.346  24.904  31.177  1.00  0.00     0.049 A 
ATOM     51  H   UNL A   1      43.490  26.252  29.811  1.00  0.00     0.167 HD
ATOM     52  C   UNL A   1      40.141  28.478  27.999  1.00  0.00     0.034 A 
ATOM     53  C   UNL A   1      44.490  25.621  32.314  1.00  0.00     0.034 A 
ATOM     54  C   UNL A   1      41.340  29.175  27.628  1.00  0.00     0.049 A 
ATOM     55  C   UNL A   1      44.226  27.044  31.997  1.00  0.00     0.074 A 
ATOM     56  C   UNL A   1      42.105  29.269  26.484  1.00  0.00     0.029 A 
ATOM     57  N   UNL A   1      42.104  29.698  28.641  1.00  0.00    -0.354 N 
ATOM     58  N   UNL A   1      44.999  27.786  31.254  1.00  0.00    -0.248 NA
ATOM     59  C   UNL A   1      42.886  27.566  32.217  1.00  0.00     0.031 C 
ATOM     60  C   UNL A   1      43.442  29.439  26.942  1.00  0.00     0.029 A 
ATOM     61  C   UNL A   1      43.414  29.437  28.338  1.00  0.00     0.049 A 
ATOM     62  H   UNL A   1      41.772  30.172  29.437  1.00  0.00     0.167 HD
ATOM     63  C   UNL A   1      44.130  28.634  30.577  1.00  0.00     0.074 A 
ATOM     64  C   UNL A   1      42.873  28.548  31.313  1.00  0.00     0.031 C 
ATOM     65  C   UNL A   1      44.419  29.090  29.320  1.00  0.00     0.034 A 
BRANCH  52  66
ATOM     66  C   UNL A   1      39.035  29.145  28.770  1.00  0.00     0.023 A 
ATOM     67  C   UNL A   1      38.196  30.042  28.078  1.00  0.00     0.012 A 
ATOM     68  C   UNL A   1      38.937  29.123  30.179  1.00  0.00     0.148 A 
ATOM     69  C   UNL A   1      37.318  30.890  28.761  1.00  0.00     0.002 A 
ATOM     70  C   UNL A   1      37.995  29.897  30.845  1.00  0.00     0.091 A 
ATOM     71  F   UNL A   1      39.842  28.459  30.909  1.00  0.00    -0.205 F 
ATOM     72  C   UNL A   1      37.202  30.804  30.144  1.00  0.00     0.022 A 
BRANCH  70  73
ATOM     73  S   UNL A   1      37.774  29.725  32.617  1.00  0.00     0.127 S 
ATOM     74  O   UNL A   1      39.057  30.199  33.126  1.00  0.00    -0.237 OA
ATOM     75  O   UNL A   1      36.638  30.610  32.878  1.00  0.00    -0.237 OA
ATOM     76  O   UNL A   1      37.476  28.310  32.811  1.00  0.00    -0.744 OA
ENDBRANCH  70  73
ENDBRANCH  52  66
BRANCH  53  77
ATOM     77  C   UNL A   1      44.592  25.118  33.701  1.00  0.00     0.023 A 
ATOM     78  C   UNL A   1      43.420  24.827  34.420  1.00  0.00     0.012 A 
ATOM     79  C   UNL A   1      45.832  24.715  34.253  1.00  0.00     0.148 A 
ATOM     80  C   UNL A   1      43.475  24.152  35.643  1.00  0.00     0.002 A 
ATOM     81  C   UNL A   1      45.884  24.069  35.484  1.00  0.00     0.091 A 
ATOM     82  F   UNL A   1      46.950  24.881  33.534  1.00  0.00    -0.205 F 
ATOM     83  C   UNL A   1      44.706  23.776  36.178  1.00  0.00     0.022 A 
BRANCH  81  84
ATOM     84  S   UNL A   1      47.446  23.584  36.232  1.00  0.00     0.127 S 
ATOM     85  O   UNL A   1      47.906  22.527  35.331  1.00  0.00    -0.237 OA
ATOM     86  O   UNL A   1      48.215  24.823  36.164  1.00  0.00    -0.237 OA
ATOM     87  O   UNL A   1      47.108  23.115  37.571  1.00  0.00    -0.744 OA
ENDBRANCH  81  84
ENDBRANCH  53  77
BRANCH  65  88
ATOM     88  C   UNL A   1      45.820  28.895  28.791  1.00  0.00     0.023 A 
ATOM     89  C   UNL A   1      46.842  29.832  29.056  1.00  0.00     0.012 A 
ATOM     90  C   UNL A   1      46.167  27.671  28.193  1.00  0.00     0.148 A 
ATOM     91  C   UNL A   1      48.167  29.572  28.705  1.00  0.00     0.002 A 
ATOM     92  C   UNL A   1      47.497  27.393  27.889  1.00  0.00     0.091 A 
ATOM     93  F   UNL A   1      45.193  26.777  27.956  1.00  0.00    -0.205 F 
ATOM     94  C   UNL A   1      48.498  28.347  28.133  1.00  0.00     0.022 A 
BRANCH  92  95
ATOM     95  S   UNL A   1      48.003  25.780  27.285  1.00  0.00     0.127 S 
ATOM     96  O   UNL A   1      47.385  24.879  28.255  1.00  0.00    -0.237 OA
ATOM     97  O   UNL A   1      47.409  25.735  25.948  1.00  0.00    -0.237 OA
ATOM     98  O   UNL A   1      49.462  25.804  27.281  1.00  0.00    -0.744 OA
ENDBRANCH  92  95
ENDBRANCH  65  88
ENDBRANCH  39  40
ENDBRANCH  32  34
ENDBRANCH  31  32
ENDBRANCH  30  31
ENDBRANCH   1  30
TORSDOF 18
ENDMDL
