MODEL 1
REMARK VINA RESULT:     -11.3      0.000      0.000
REMARK SMILES C#CC[N@@H+](CC(=O)OCCOC(=O)c1ccc(-c2c3nc(c(-c4cccc(S(=O)(=O)[O-])c4F)c4ccc([nH]4)c(-c4cccc(S(=O)(=O)[O-])c4F)c4nc(c(-c5cccc(S(=O)(=O)[O-])c5F)c5ccc2[nH]5)C=C4)C=C3)cc1)Cc1cn(CC)c2ccccc12
REMARK SMILES IDX 9 1 8 2 6 3 7 4 5 5 4 6 3 8 2 9 1 10 77 11 78 12 79 13 88 14
REMARK SMILES IDX 80 15 83 16 87 17 84 18 86 19 85 20 81 21 82 22 10 23 11 24
REMARK SMILES IDX 12 25 13 26 14 27 15 28 76 29 16 30 75 31 17 32 18 33 19 34
REMARK SMILES IDX 69 35 20 36 74 37 68 38 70 39 21 40 73 41 67 42 66 43 22 45
REMARK SMILES IDX 54 46 34 47 53 48 35 49 38 50 52 51 71 52 36 53 37 54 51 56
REMARK SMILES IDX 72 57 39 58 23 59 24 60 32 61 25 62 27 63 33 64 26 65 28 66
REMARK SMILES IDX 29 67 30 68 31 69 55 70 56 71 64 72 57 73 59 74 65 75 58 76
REMARK SMILES IDX 60 77 61 78 62 79 63 80 40 81 41 82 49 83 42 84 44 85 50 86
REMARK SMILES IDX 43 87 45 88 46 89 47 90 48 91
REMARK H PARENT 4 7 70 44 38 55
REMARK Flexibility Score: inf
ROOT
ATOM      1  C   UNL A   1      33.177  27.742  24.732  1.00  0.00     0.274 C 
ENDROOT
BRANCH   1   2
ATOM      2  O   UNL A   1      32.929  27.408  23.342  1.00  0.00    -0.458 OA
BRANCH   2   3
ATOM      3  C   UNL A   1      32.105  26.356  23.058  1.00  0.00     0.361 C 
ATOM      4  O   UNL A   1      30.920  26.344  23.381  1.00  0.00    -0.245 OA
BRANCH   3   5
ATOM      5  C   UNL A   1      32.768  25.155  22.305  1.00  0.00     0.387 C 
BRANCH   5   6
ATOM      6  N   UNL A   1      33.099  23.884  23.053  1.00  0.00    -0.312 N 
ATOM      7  H   UNL A   1      32.622  23.949  23.952  1.00  0.00     0.349 HD
BRANCH   6   8
ATOM      8  C   UNL A   1      34.523  23.844  23.100  1.00  0.00     0.354 C 
BRANCH   8   9
ATOM      9  C   UNL A   1      35.304  23.957  24.399  1.00  0.00    -0.047 C 
ATOM     10  C   UNL A   1      35.975  24.054  25.514  1.00  0.00     0.010 C 
ENDBRANCH   8   9
ENDBRANCH   6   8
BRANCH   6  11
ATOM     11  C   UNL A   1      32.579  22.593  22.544  1.00  0.00     0.302 C 
BRANCH  11  12
ATOM     12  C   UNL A   1      32.374  21.659  23.672  1.00  0.00     0.032 A 
ATOM     13  C   UNL A   1      32.389  22.062  24.983  1.00  0.00     0.096 A 
ATOM     14  C   UNL A   1      32.382  20.245  23.685  1.00  0.00     0.008 A 
ATOM     15  N   UNL A   1      32.775  21.006  25.755  1.00  0.00    -0.347 N 
ATOM     16  C   UNL A   1      32.688  19.856  24.999  1.00  0.00     0.048 A 
ATOM     17  C   UNL A   1      32.304  19.275  22.672  1.00  0.00     0.011 A 
ATOM     18  C   UNL A   1      32.936  18.522  25.328  1.00  0.00     0.027 A 
ATOM     19  C   UNL A   1      32.530  17.940  22.997  1.00  0.00     0.001 A 
ATOM     20  C   UNL A   1      32.850  17.574  24.303  1.00  0.00     0.002 A 
BRANCH  15  21
ATOM     21  C   UNL A   1      33.504  21.184  27.003  1.00  0.00     0.119 C 
ATOM     22  C   UNL A   1      33.358  22.540  27.655  1.00  0.00     0.027 C 
ENDBRANCH  15  21
ENDBRANCH  11  12
ENDBRANCH   6  11
ENDBRANCH   5   6
ENDBRANCH   3   5
ENDBRANCH   2   3
ENDBRANCH   1   2
BRANCH   1  23
ATOM     23  C   UNL A   1      32.555  29.115  25.080  1.00  0.00     0.275 C 
BRANCH  23  24
ATOM     24  O   UNL A   1      32.712  29.353  26.493  1.00  0.00    -0.458 OA
BRANCH  24  25
ATOM     25  C   UNL A   1      33.034  30.608  26.931  1.00  0.00     0.338 C 
ATOM     26  O   UNL A   1      32.280  31.562  26.968  1.00  0.00    -0.246 OA
BRANCH  25  27
ATOM     27  C   UNL A   1      34.436  30.585  27.470  1.00  0.00     0.060 A 
ATOM     28  C   UNL A   1      34.981  29.359  27.809  1.00  0.00     0.016 A 
ATOM     29  C   UNL A   1      35.194  31.719  27.758  1.00  0.00     0.016 A 
ATOM     30  C   UNL A   1      36.104  29.234  28.610  1.00  0.00     0.010 A 
ATOM     31  C   UNL A   1      36.456  31.581  28.392  1.00  0.00     0.010 A 
ATOM     32  C   UNL A   1      36.912  30.330  28.858  1.00  0.00    -0.014 A 
BRANCH  32  33
ATOM     33  C   UNL A   1      38.183  30.119  29.619  1.00  0.00     0.031 A 
ATOM     34  C   UNL A   1      39.290  29.320  28.997  1.00  0.00     0.074 A 
ATOM     35  C   UNL A   1      38.397  30.698  30.824  1.00  0.00     0.049 A 
ATOM     36  N   UNL A   1      40.339  28.784  29.562  1.00  0.00    -0.248 NA
ATOM     37  C   UNL A   1      39.201  29.088  27.547  1.00  0.00     0.031 C 
ATOM     38  C   UNL A   1      37.485  31.620  31.507  1.00  0.00     0.029 A 
ATOM     39  N   UNL A   1      39.461  30.611  31.693  1.00  0.00    -0.354 N 
ATOM     40  C   UNL A   1      40.971  28.057  28.562  1.00  0.00     0.074 A 
ATOM     41  C   UNL A   1      40.219  28.264  27.344  1.00  0.00     0.031 C 
ATOM     42  C   UNL A   1      38.041  32.051  32.647  1.00  0.00     0.029 A 
ATOM     43  C   UNL A   1      39.277  31.318  32.864  1.00  0.00     0.049 A 
ATOM     44  H   UNL A   1      40.276  30.093  31.499  1.00  0.00     0.167 HD
ATOM     45  C   UNL A   1      42.067  27.268  28.666  1.00  0.00     0.034 A 
ATOM     46  C   UNL A   1      39.970  31.314  34.022  1.00  0.00     0.034 A 
ATOM     47  C   UNL A   1      42.839  27.131  29.870  1.00  0.00     0.049 A 
ATOM     48  C   UNL A   1      41.153  30.393  34.134  1.00  0.00     0.074 A 
ATOM     49  C   UNL A   1      43.927  26.313  30.114  1.00  0.00     0.029 A 
ATOM     50  N   UNL A   1      42.612  27.853  31.034  1.00  0.00    -0.354 N 
ATOM     51  N   UNL A   1      41.690  29.626  33.216  1.00  0.00    -0.248 NA
ATOM     52  C   UNL A   1      41.816  30.320  35.443  1.00  0.00     0.031 C 
ATOM     53  C   UNL A   1      44.350  26.532  31.431  1.00  0.00     0.029 A 
ATOM     54  C   UNL A   1      43.541  27.505  31.998  1.00  0.00     0.049 A 
ATOM     55  H   UNL A   1      41.896  28.517  31.156  1.00  0.00     0.167 HD
ATOM     56  C   UNL A   1      42.764  28.994  33.829  1.00  0.00     0.074 A 
ATOM     57  C   UNL A   1      42.821  29.493  35.188  1.00  0.00     0.031 C 
ATOM     58  C   UNL A   1      43.612  28.065  33.323  1.00  0.00     0.034 A 
BRANCH  45  59
ATOM     59  C   UNL A   1      42.441  26.451  27.459  1.00  0.00     0.023 A 
ATOM     60  C   UNL A   1      43.126  27.041  26.379  1.00  0.00     0.012 A 
ATOM     61  C   UNL A   1      42.090  25.088  27.395  1.00  0.00     0.148 A 
ATOM     62  C   UNL A   1      43.416  26.297  25.234  1.00  0.00     0.002 A 
ATOM     63  C   UNL A   1      42.417  24.343  26.269  1.00  0.00     0.091 A 
ATOM     64  F   UNL A   1      41.417  24.553  28.423  1.00  0.00    -0.205 F 
ATOM     65  C   UNL A   1      43.067  24.949  25.182  1.00  0.00     0.022 A 
BRANCH  63  66
ATOM     66  S   UNL A   1      42.059  22.588  26.133  1.00  0.00     0.127 S 
ATOM     67  O   UNL A   1      42.786  22.232  24.915  1.00  0.00    -0.237 OA
ATOM     68  O   UNL A   1      42.641  22.059  27.366  1.00  0.00    -0.237 OA
ATOM     69  O   UNL A   1      40.611  22.478  26.049  1.00  0.00    -0.744 OA
ENDBRANCH  63  66
ENDBRANCH  45  59
BRANCH  46  70
ATOM     70  C   UNL A   1      39.532  32.152  35.180  1.00  0.00     0.023 A 
ATOM     71  C   UNL A   1      39.867  33.520  35.217  1.00  0.00     0.012 A 
ATOM     72  C   UNL A   1      38.783  31.610  36.246  1.00  0.00     0.148 A 
ATOM     73  C   UNL A   1      39.490  34.322  36.297  1.00  0.00     0.002 A 
ATOM     74  C   UNL A   1      38.350  32.429  37.284  1.00  0.00     0.091 A 
ATOM     75  F   UNL A   1      38.497  30.300  36.223  1.00  0.00    -0.205 F 
ATOM     76  C   UNL A   1      38.720  33.780  37.323  1.00  0.00     0.022 A 
BRANCH  74  77
ATOM     77  S   UNL A   1      37.229  31.843  38.561  1.00  0.00     0.127 S 
ATOM     78  O   UNL A   1      38.019  32.049  39.773  1.00  0.00    -0.237 OA
ATOM     79  O   UNL A   1      36.090  32.749  38.407  1.00  0.00    -0.237 OA
ATOM     80  O   UNL A   1      36.937  30.457  38.219  1.00  0.00    -0.744 OA
ENDBRANCH  74  77
ENDBRANCH  46  70
BRANCH  58  81
ATOM     81  C   UNL A   1      44.702  27.562  34.228  1.00  0.00     0.023 A 
ATOM     82  C   UNL A   1      45.929  28.250  34.300  1.00  0.00     0.012 A 
ATOM     83  C   UNL A   1      44.477  26.451  35.063  1.00  0.00     0.148 A 
ATOM     84  C   UNL A   1      46.927  27.824  35.174  1.00  0.00     0.002 A 
ATOM     85  C   UNL A   1      45.457  26.062  35.967  1.00  0.00     0.091 A 
ATOM     86  F   UNL A   1      43.313  25.795  34.957  1.00  0.00    -0.205 F 
ATOM     87  C   UNL A   1      46.687  26.740  36.016  1.00  0.00     0.022 A 
BRANCH  85  88
ATOM     88  S   UNL A   1      45.191  24.741  37.154  1.00  0.00     0.127 S 
ATOM     89  O   UNL A   1      46.462  24.726  37.875  1.00  0.00    -0.237 OA
ATOM     90  O   UNL A   1      44.055  25.243  37.929  1.00  0.00    -0.237 OA
ATOM     91  O   UNL A   1      44.900  23.551  36.365  1.00  0.00    -0.744 OA
ENDBRANCH  85  88
ENDBRANCH  58  81
ENDBRANCH  32  33
ENDBRANCH  25  27
ENDBRANCH  24  25
ENDBRANCH  23  24
ENDBRANCH   1  23
TORSDOF 20
ENDMDL
MODEL 2
REMARK VINA RESULT:     -11.1      1.023      2.170
REMARK SMILES C#CC[N@@H+](CC(=O)OCCOC(=O)c1ccc(-c2c3nc(c(-c4cccc(S(=O)(=O)[O-])c4F)c4ccc([nH]4)c(-c4cccc(S(=O)(=O)[O-])c4F)c4nc(c(-c5cccc(S(=O)(=O)[O-])c5F)c5ccc2[nH]5)C=C4)C=C3)cc1)Cc1cn(CC)c2ccccc12
REMARK SMILES IDX 9 1 8 2 6 3 7 4 5 5 4 6 3 8 2 9 1 10 77 11 78 12 79 13 88 14
REMARK SMILES IDX 80 15 83 16 87 17 84 18 86 19 85 20 81 21 82 22 10 23 11 24
REMARK SMILES IDX 12 25 13 26 14 27 15 28 76 29 16 30 75 31 17 32 18 33 19 34
REMARK SMILES IDX 69 35 20 36 74 37 68 38 70 39 21 40 73 41 67 42 66 43 22 45
REMARK SMILES IDX 54 46 34 47 53 48 35 49 38 50 52 51 71 52 36 53 37 54 51 56
REMARK SMILES IDX 72 57 39 58 23 59 24 60 32 61 25 62 27 63 33 64 26 65 28 66
REMARK SMILES IDX 29 67 30 68 31 69 55 70 56 71 64 72 57 73 59 74 65 75 58 76
REMARK SMILES IDX 60 77 61 78 62 79 63 80 40 81 41 82 49 83 42 84 44 85 50 86
REMARK SMILES IDX 43 87 45 88 46 89 47 90 48 91
REMARK H PARENT 4 7 70 44 38 55
REMARK Flexibility Score: inf
ROOT
ATOM      1  C   UNL A   1      31.931  28.797  25.192  1.00  0.00     0.274 C 
ENDROOT
BRANCH   1   2
ATOM      2  O   UNL A   1      32.378  28.962  23.822  1.00  0.00    -0.458 OA
BRANCH   2   3
ATOM      3  C   UNL A   1      33.344  28.122  23.343  1.00  0.00     0.361 C 
ATOM      4  O   UNL A   1      34.023  28.397  22.356  1.00  0.00    -0.245 OA
BRANCH   3   5
ATOM      5  C   UNL A   1      33.525  26.777  24.121  1.00  0.00     0.387 C 
BRANCH   5   6
ATOM      6  N   UNL A   1      32.969  25.493  23.549  1.00  0.00    -0.312 N 
ATOM      7  H   UNL A   1      33.722  25.074  23.004  1.00  0.00     0.349 HD
BRANCH   6   8
ATOM      8  C   UNL A   1      31.809  25.886  22.820  1.00  0.00     0.354 C 
BRANCH   8   9
ATOM      9  C   UNL A   1      30.444  26.036  23.471  1.00  0.00    -0.047 C 
ATOM     10  C   UNL A   1      29.272  26.164  24.029  1.00  0.00     0.010 C 
ENDBRANCH   8   9
ENDBRANCH   6   8
BRANCH   6  11
ATOM     11  C   UNL A   1      32.629  24.383  24.470  1.00  0.00     0.302 C 
BRANCH  11  12
ATOM     12  C   UNL A   1      33.552  23.249  24.248  1.00  0.00     0.032 A 
ATOM     13  C   UNL A   1      33.125  22.011  23.842  1.00  0.00     0.096 A 
ATOM     14  C   UNL A   1      34.909  23.105  24.618  1.00  0.00     0.008 A 
ATOM     15  N   UNL A   1      34.013  21.078  24.289  1.00  0.00    -0.347 N 
ATOM     16  C   UNL A   1      35.163  21.726  24.687  1.00  0.00     0.048 A 
ATOM     17  C   UNL A   1      35.891  24.017  25.042  1.00  0.00     0.011 A 
ATOM     18  C   UNL A   1      36.369  21.229  25.186  1.00  0.00     0.027 A 
ATOM     19  C   UNL A   1      37.103  23.527  25.520  1.00  0.00     0.001 A 
ATOM     20  C   UNL A   1      37.332  22.155  25.598  1.00  0.00     0.002 A 
BRANCH  15  21
ATOM     21  C   UNL A   1      33.608  19.720  24.623  1.00  0.00     0.119 C 
ATOM     22  C   UNL A   1      32.419  19.188  23.856  1.00  0.00     0.027 C 
ENDBRANCH  15  21
ENDBRANCH  11  12
ENDBRANCH   6  11
ENDBRANCH   5   6
ENDBRANCH   3   5
ENDBRANCH   2   3
ENDBRANCH   1   2
BRANCH   1  23
ATOM     23  C   UNL A   1      31.969  30.150  25.942  1.00  0.00     0.275 C 
BRANCH  23  24
ATOM     24  O   UNL A   1      33.085  30.149  26.853  1.00  0.00    -0.458 OA
BRANCH  24  25
ATOM     25  C   UNL A   1      33.549  31.336  27.349  1.00  0.00     0.338 C 
ATOM     26  O   UNL A   1      32.899  32.357  27.469  1.00  0.00    -0.246 OA
BRANCH  25  27
ATOM     27  C   UNL A   1      34.958  31.139  27.832  1.00  0.00     0.060 A 
ATOM     28  C   UNL A   1      35.322  29.879  28.273  1.00  0.00     0.016 A 
ATOM     29  C   UNL A   1      35.897  32.159  27.973  1.00  0.00     0.016 A 
ATOM     30  C   UNL A   1      36.454  29.651  29.038  1.00  0.00     0.010 A 
ATOM     31  C   UNL A   1      37.156  31.880  28.568  1.00  0.00     0.010 A 
ATOM     32  C   UNL A   1      37.436  30.622  29.141  1.00  0.00    -0.014 A 
BRANCH  32  33
ATOM     33  C   UNL A   1      38.698  30.282  29.869  1.00  0.00     0.031 A 
ATOM     34  C   UNL A   1      39.718  29.403  29.206  1.00  0.00     0.074 A 
ATOM     35  C   UNL A   1      38.987  30.812  31.081  1.00  0.00     0.049 A 
ATOM     36  N   UNL A   1      40.726  28.764  29.736  1.00  0.00    -0.248 NA
ATOM     37  C   UNL A   1      39.579  29.214  27.753  1.00  0.00     0.031 C 
ATOM     38  C   UNL A   1      38.173  31.794  31.804  1.00  0.00     0.029 A 
ATOM     39  N   UNL A   1      40.056  30.612  31.925  1.00  0.00    -0.354 N 
ATOM     40  C   UNL A   1      41.271  28.007  28.707  1.00  0.00     0.074 A 
ATOM     41  C   UNL A   1      40.516  28.308  27.510  1.00  0.00     0.031 C 
ATOM     42  C   UNL A   1      38.789  32.149  32.940  1.00  0.00     0.029 A 
ATOM     43  C   UNL A   1      39.959  31.304  33.114  1.00  0.00     0.049 A 
ATOM     44  H   UNL A   1      40.818  30.029  31.702  1.00  0.00     0.167 HD
ATOM     45  C   UNL A   1      42.294  27.123  28.770  1.00  0.00     0.034 A 
ATOM     46  C   UNL A   1      40.672  31.213  34.255  1.00  0.00     0.034 A 
ATOM     47  C   UNL A   1      43.075  26.891  29.954  1.00  0.00     0.049 A 
ATOM     48  C   UNL A   1      41.771  30.188  34.322  1.00  0.00     0.074 A 
ATOM     49  C   UNL A   1      44.092  25.974  30.156  1.00  0.00     0.029 A 
ATOM     50  N   UNL A   1      42.937  27.603  31.137  1.00  0.00    -0.354 N 
ATOM     51  N   UNL A   1      42.220  29.399  33.376  1.00  0.00    -0.248 NA
ATOM     52  C   UNL A   1      42.451  30.028  35.615  1.00  0.00     0.031 C 
ATOM     53  C   UNL A   1      44.559  26.125  31.468  1.00  0.00     0.029 A 
ATOM     54  C   UNL A   1      43.851  27.152  32.073  1.00  0.00     0.049 A 
ATOM     55  H   UNL A   1      42.284  28.324  31.289  1.00  0.00     0.167 HD
ATOM     56  C   UNL A   1      43.245  28.661  33.952  1.00  0.00     0.074 A 
ATOM     57  C   UNL A   1      43.373  29.121  35.320  1.00  0.00     0.031 C 
ATOM     58  C   UNL A   1      43.997  27.673  33.408  1.00  0.00     0.034 A 
BRANCH  45  59
ATOM     59  C   UNL A   1      42.571  26.305  27.537  1.00  0.00     0.023 A 
ATOM     60  C   UNL A   1      43.189  26.887  26.415  1.00  0.00     0.012 A 
ATOM     61  C   UNL A   1      42.192  24.948  27.494  1.00  0.00     0.148 A 
ATOM     62  C   UNL A   1      43.387  26.142  25.251  1.00  0.00     0.002 A 
ATOM     63  C   UNL A   1      42.428  24.201  26.347  1.00  0.00     0.091 A 
ATOM     64  F   UNL A   1      41.582  24.421  28.565  1.00  0.00    -0.205 F 
ATOM     65  C   UNL A   1      43.013  24.800  25.219  1.00  0.00     0.022 A 
BRANCH  63  66
ATOM     66  S   UNL A   1      42.031  22.454  26.231  1.00  0.00     0.127 S 
ATOM     67  O   UNL A   1      42.721  22.076  24.998  1.00  0.00    -0.237 OA
ATOM     68  O   UNL A   1      42.632  21.920  27.454  1.00  0.00    -0.237 OA
ATOM     69  O   UNL A   1      40.579  22.373  26.182  1.00  0.00    -0.744 OA
ENDBRANCH  63  66
ENDBRANCH  45  59
BRANCH  46  70
ATOM     70  C   UNL A   1      40.333  32.059  35.441  1.00  0.00     0.023 A 
ATOM     71  C   UNL A   1      41.109  33.200  35.727  1.00  0.00     0.012 A 
ATOM     72  C   UNL A   1      39.248  31.748  36.288  1.00  0.00     0.148 A 
ATOM     73  C   UNL A   1      40.828  33.996  36.840  1.00  0.00     0.002 A 
ATOM     74  C   UNL A   1      38.931  32.585  37.354  1.00  0.00     0.091 A 
ATOM     75  F   UNL A   1      38.535  30.642  36.031  1.00  0.00    -0.205 F 
ATOM     76  C   UNL A   1      39.732  33.697  37.645  1.00  0.00     0.022 A 
BRANCH  74  77
ATOM     77  S   UNL A   1      37.448  32.354  38.343  1.00  0.00     0.127 S 
ATOM     78  O   UNL A   1      37.808  33.030  39.587  1.00  0.00    -0.237 OA
ATOM     79  O   UNL A   1      36.436  33.040  37.539  1.00  0.00    -0.237 OA
ATOM     80  O   UNL A   1      37.259  30.912  38.432  1.00  0.00    -0.744 OA
ENDBRANCH  74  77
ENDBRANCH  46  70
BRANCH  58  81
ATOM     81  C   UNL A   1      45.056  27.054  34.278  1.00  0.00     0.023 A 
ATOM     82  C   UNL A   1      46.350  27.610  34.310  1.00  0.00     0.012 A 
ATOM     83  C   UNL A   1      44.743  25.971  35.120  1.00  0.00     0.148 A 
ATOM     84  C   UNL A   1      47.326  27.078  35.152  1.00  0.00     0.002 A 
ATOM     85  C   UNL A   1      45.704  25.478  35.991  1.00  0.00     0.091 A 
ATOM     86  F   UNL A   1      43.513  25.442  35.051  1.00  0.00    -0.205 F 
ATOM     87  C   UNL A   1      47.000  26.023  36.002  1.00  0.00     0.022 A 
BRANCH  85  88
ATOM     88  S   UNL A   1      45.338  24.189  37.187  1.00  0.00     0.127 S 
ATOM     89  O   UNL A   1      44.940  23.082  36.320  1.00  0.00    -0.237 OA
ATOM     90  O   UNL A   1      46.627  24.009  37.855  1.00  0.00    -0.237 OA
ATOM     91  O   UNL A   1      44.288  24.727  38.042  1.00  0.00    -0.744 OA
ENDBRANCH  85  88
ENDBRANCH  58  81
ENDBRANCH  32  33
ENDBRANCH  25  27
ENDBRANCH  24  25
ENDBRANCH  23  24
ENDBRANCH   1  23
TORSDOF 20
ENDMDL
MODEL 3
REMARK VINA RESULT:     -11.1      1.547      2.208
REMARK SMILES C#CC[N@@H+](CC(=O)OCCOC(=O)c1ccc(-c2c3nc(c(-c4cccc(S(=O)(=O)[O-])c4F)c4ccc([nH]4)c(-c4cccc(S(=O)(=O)[O-])c4F)c4nc(c(-c5cccc(S(=O)(=O)[O-])c5F)c5ccc2[nH]5)C=C4)C=C3)cc1)Cc1cn(CC)c2ccccc12
REMARK SMILES IDX 9 1 8 2 6 3 7 4 5 5 4 6 3 8 2 9 1 10 77 11 78 12 79 13 88 14
REMARK SMILES IDX 80 15 83 16 87 17 84 18 86 19 85 20 81 21 82 22 10 23 11 24
REMARK SMILES IDX 12 25 13 26 14 27 15 28 76 29 16 30 75 31 17 32 18 33 19 34
REMARK SMILES IDX 69 35 20 36 74 37 68 38 70 39 21 40 73 41 67 42 66 43 22 45
REMARK SMILES IDX 54 46 34 47 53 48 35 49 38 50 52 51 71 52 36 53 37 54 51 56
REMARK SMILES IDX 72 57 39 58 23 59 24 60 32 61 25 62 27 63 33 64 26 65 28 66
REMARK SMILES IDX 29 67 30 68 31 69 55 70 56 71 64 72 57 73 59 74 65 75 58 76
REMARK SMILES IDX 60 77 61 78 62 79 63 80 40 81 41 82 49 83 42 84 44 85 50 86
REMARK SMILES IDX 43 87 45 88 46 89 47 90 48 91
REMARK H PARENT 4 7 70 44 38 55
REMARK Flexibility Score: inf
ROOT
ATOM      1  C   UNL A   1      32.768  28.670  23.786  1.00  0.00     0.274 C 
ENDROOT
BRANCH   1   2
ATOM      2  O   UNL A   1      31.935  28.389  22.631  1.00  0.00    -0.458 OA
BRANCH   2   3
ATOM      3  C   UNL A   1      30.973  27.424  22.737  1.00  0.00     0.361 C 
ATOM      4  O   UNL A   1      29.867  27.649  23.220  1.00  0.00    -0.245 OA
BRANCH   3   5
ATOM      5  C   UNL A   1      31.373  26.003  22.214  1.00  0.00     0.387 C 
BRANCH   5   6
ATOM      6  N   UNL A   1      32.098  25.040  23.126  1.00  0.00    -0.312 N 
ATOM      7  H   UNL A   1      31.734  24.113  22.909  1.00  0.00     0.349 HD
BRANCH   6   8
ATOM      8  C   UNL A   1      31.847  25.521  24.444  1.00  0.00     0.354 C 
BRANCH   8   9
ATOM      9  C   UNL A   1      31.116  24.697  25.492  1.00  0.00    -0.047 C 
ATOM     10  C   UNL A   1      30.489  23.990  26.391  1.00  0.00     0.010 C 
ENDBRANCH   8   9
ENDBRANCH   6   8
BRANCH   6  11
ATOM     11  C   UNL A   1      33.553  24.829  22.939  1.00  0.00     0.302 C 
BRANCH  11  12
ATOM     12  C   UNL A   1      34.051  23.871  23.949  1.00  0.00     0.032 A 
ATOM     13  C   UNL A   1      35.151  24.119  24.730  1.00  0.00     0.096 A 
ATOM     14  C   UNL A   1      33.719  22.511  24.144  1.00  0.00     0.008 A 
ATOM     15  N   UNL A   1      35.709  22.926  25.083  1.00  0.00    -0.347 N 
ATOM     16  C   UNL A   1      34.802  21.923  24.817  1.00  0.00     0.048 A 
ATOM     17  C   UNL A   1      32.667  21.704  23.678  1.00  0.00     0.011 A 
ATOM     18  C   UNL A   1      34.873  20.544  25.023  1.00  0.00     0.027 A 
ATOM     19  C   UNL A   1      32.722  20.330  23.900  1.00  0.00     0.001 A 
ATOM     20  C   UNL A   1      33.813  19.762  24.554  1.00  0.00     0.002 A 
BRANCH  15  21
ATOM     21  C   UNL A   1      37.138  22.779  25.318  1.00  0.00     0.119 C 
ATOM     22  C   UNL A   1      37.780  23.875  26.139  1.00  0.00     0.027 C 
ENDBRANCH  15  21
ENDBRANCH  11  12
ENDBRANCH   6  11
ENDBRANCH   5   6
ENDBRANCH   3   5
ENDBRANCH   2   3
ENDBRANCH   1   2
BRANCH   1  23
ATOM     23  C   UNL A   1      31.953  29.403  24.878  1.00  0.00     0.275 C 
BRANCH  23  24
ATOM     24  O   UNL A   1      32.722  29.430  26.096  1.00  0.00    -0.458 OA
BRANCH  24  25
ATOM     25  C   UNL A   1      32.928  30.621  26.734  1.00  0.00     0.338 C 
ATOM     26  O   UNL A   1      32.095  31.492  26.898  1.00  0.00    -0.246 OA
BRANCH  25  27
ATOM     27  C   UNL A   1      34.318  30.628  27.305  1.00  0.00     0.060 A 
ATOM     28  C   UNL A   1      34.894  29.411  27.627  1.00  0.00     0.016 A 
ATOM     29  C   UNL A   1      35.033  31.777  27.638  1.00  0.00     0.016 A 
ATOM     30  C   UNL A   1      36.002  29.301  28.450  1.00  0.00     0.010 A 
ATOM     31  C   UNL A   1      36.285  31.662  28.297  1.00  0.00     0.010 A 
ATOM     32  C   UNL A   1      36.770  30.415  28.743  1.00  0.00    -0.014 A 
BRANCH  32  33
ATOM     33  C   UNL A   1      38.029  30.224  29.527  1.00  0.00     0.031 A 
ATOM     34  C   UNL A   1      39.164  29.451  28.923  1.00  0.00     0.074 A 
ATOM     35  C   UNL A   1      38.208  30.800  30.739  1.00  0.00     0.049 A 
ATOM     36  N   UNL A   1      40.212  28.932  29.505  1.00  0.00    -0.248 NA
ATOM     37  C   UNL A   1      39.108  29.226  27.470  1.00  0.00     0.031 C 
ATOM     38  C   UNL A   1      37.265  31.699  31.410  1.00  0.00     0.029 A 
ATOM     39  N   UNL A   1      39.256  30.729  31.630  1.00  0.00    -0.354 N 
ATOM     40  C   UNL A   1      40.878  28.223  28.514  1.00  0.00     0.074 A 
ATOM     41  C   UNL A   1      40.146  28.423  27.282  1.00  0.00     0.031 C 
ATOM     42  C   UNL A   1      37.790  32.135  32.563  1.00  0.00     0.029 A 
ATOM     43  C   UNL A   1      39.036  31.424  32.801  1.00  0.00     0.049 A 
ATOM     44  H   UNL A   1      40.085  30.228  31.449  1.00  0.00     0.167 HD
ATOM     45  C   UNL A   1      41.986  27.455  28.635  1.00  0.00     0.034 A 
ATOM     46  C   UNL A   1      39.706  31.427  33.971  1.00  0.00     0.034 A 
ATOM     47  C   UNL A   1      42.737  27.326  29.854  1.00  0.00     0.049 A 
ATOM     48  C   UNL A   1      40.904  30.528  34.102  1.00  0.00     0.074 A 
ATOM     49  C   UNL A   1      43.837  26.528  30.114  1.00  0.00     0.029 A 
ATOM     50  N   UNL A   1      42.473  28.037  31.017  1.00  0.00    -0.354 N 
ATOM     51  N   UNL A   1      41.475  29.778  33.190  1.00  0.00    -0.248 NA
ATOM     52  C   UNL A   1      41.543  30.461  35.423  1.00  0.00     0.031 C 
ATOM     53  C   UNL A   1      44.229  26.748  31.440  1.00  0.00     0.029 A 
ATOM     54  C   UNL A   1      43.390  27.701  31.997  1.00  0.00     0.049 A 
ATOM     55  H   UNL A   1      41.742  28.686  31.128  1.00  0.00     0.167 HD
ATOM     56  C   UNL A   1      42.548  29.164  33.820  1.00  0.00     0.074 A 
ATOM     57  C   UNL A   1      42.568  29.655  35.184  1.00  0.00     0.031 C 
ATOM     58  C   UNL A   1      43.424  28.254  33.326  1.00  0.00     0.034 A 
BRANCH  45  59
ATOM     59  C   UNL A   1      42.401  26.654  27.431  1.00  0.00     0.023 A 
ATOM     60  C   UNL A   1      43.018  27.280  26.331  1.00  0.00     0.012 A 
ATOM     61  C   UNL A   1      42.153  25.267  27.390  1.00  0.00     0.148 A 
ATOM     62  C   UNL A   1      43.343  26.544  25.190  1.00  0.00     0.002 A 
ATOM     63  C   UNL A   1      42.517  24.534  26.267  1.00  0.00     0.091 A 
ATOM     64  F   UNL A   1      41.542  24.696  28.437  1.00  0.00    -0.205 F 
ATOM     65  C   UNL A   1      43.099  25.173  25.161  1.00  0.00     0.022 A 
BRANCH  63  66
ATOM     66  S   UNL A   1      42.292  22.755  26.159  1.00  0.00     0.127 S 
ATOM     67  O   UNL A   1      40.842  22.632  26.304  1.00  0.00    -0.237 OA
ATOM     68  O   UNL A   1      42.798  22.463  24.818  1.00  0.00    -0.237 OA
ATOM     69  O   UNL A   1      43.078  22.183  27.243  1.00  0.00    -0.744 OA
ENDBRANCH  63  66
ENDBRANCH  45  59
BRANCH  46  70
ATOM     70  C   UNL A   1      39.229  32.249  35.126  1.00  0.00     0.023 A 
ATOM     71  C   UNL A   1      38.256  31.725  36.000  1.00  0.00     0.012 A 
ATOM     72  C   UNL A   1      39.731  33.545  35.371  1.00  0.00     0.148 A 
ATOM     73  C   UNL A   1      37.776  32.479  37.073  1.00  0.00     0.002 A 
ATOM     74  C   UNL A   1      39.301  34.263  36.483  1.00  0.00     0.091 A 
ATOM     75  F   UNL A   1      40.632  34.052  34.517  1.00  0.00    -0.205 F 
ATOM     76  C   UNL A   1      38.309  33.742  37.323  1.00  0.00     0.022 A 
BRANCH  74  77
ATOM     77  S   UNL A   1      40.048  35.827  36.959  1.00  0.00     0.127 S 
ATOM     78  O   UNL A   1      39.426  36.074  38.258  1.00  0.00    -0.237 OA
ATOM     79  O   UNL A   1      41.469  35.483  37.011  1.00  0.00    -0.237 OA
ATOM     80  O   UNL A   1      39.702  36.764  35.899  1.00  0.00    -0.744 OA
ENDBRANCH  74  77
ENDBRANCH  46  70
BRANCH  58  81
ATOM     81  C   UNL A   1      44.506  27.767  34.250  1.00  0.00     0.023 A 
ATOM     82  C   UNL A   1      45.751  28.424  34.281  1.00  0.00     0.012 A 
ATOM     83  C   UNL A   1      44.256  26.706  35.141  1.00  0.00     0.148 A 
ATOM     84  C   UNL A   1      46.744  28.015  35.170  1.00  0.00     0.002 A 
ATOM     85  C   UNL A   1      45.231  26.336  36.057  1.00  0.00     0.091 A 
ATOM     86  F   UNL A   1      43.074  26.078  35.074  1.00  0.00    -0.205 F 
ATOM     87  C   UNL A   1      46.479  26.981  36.066  1.00  0.00     0.022 A 
BRANCH  85  88
ATOM     88  S   UNL A   1      44.937  25.084  37.310  1.00  0.00     0.127 S 
ATOM     89  O   UNL A   1      44.387  23.988  36.515  1.00  0.00    -0.237 OA
ATOM     90  O   UNL A   1      46.282  24.843  37.833  1.00  0.00    -0.237 OA
ATOM     91  O   UNL A   1      44.020  25.688  38.268  1.00  0.00    -0.744 OA
ENDBRANCH  85  88
ENDBRANCH  58  81
ENDBRANCH  32  33
ENDBRANCH  25  27
ENDBRANCH  24  25
ENDBRANCH  23  24
ENDBRANCH   1  23
TORSDOF 20
ENDMDL
