MODEL 1
REMARK VINA RESULT:     -11.1      0.000      0.000
REMARK SMILES CCCn1ncc(C(=O)N2CCC[C@@H]2C(=O)OCCOC(=O)c2ccc(-c3c4nc(c(-c5cccc(S(=O)(=O)[O-])c5F)c5ccc([nH]5)c(-c5cccc(S(=O)(=O)[O-])c5F)c5nc(c(-c6cccc(S(=O)(=O)[O-])c6F)c6ccc3[nH]6)C=C5)C=C4)cc2)c1C
REMARK SMILES IDX 18 1 17 2 15 3 16 4 14 5 10 6 11 7 12 8 13 9 8 10 9 11 7 12
REMARK SMILES IDX 4 13 5 14 86 15 6 16 87 17 3 18 2 19 1 20 19 21 20 22 21 23
REMARK SMILES IDX 22 24 23 25 24 26 85 27 25 28 84 29 26 30 27 31 28 32 78 33
REMARK SMILES IDX 29 34 83 35 77 36 79 37 30 38 82 39 76 40 75 41 31 43 63 44
REMARK SMILES IDX 43 45 62 46 44 47 47 48 61 49 80 50 45 51 46 52 60 54 81 55
REMARK SMILES IDX 48 56 32 57 33 58 41 59 34 60 36 61 42 62 35 63 37 64 38 65
REMARK SMILES IDX 39 66 40 67 64 68 65 69 73 70 66 71 68 72 74 73 67 74 69 75
REMARK SMILES IDX 70 76 71 77 72 78 49 79 50 80 58 81 51 82 53 83 59 84 52 85
REMARK SMILES IDX 54 86 55 87 56 88 57 89
REMARK H PARENT 79 42 47 53
REMARK Flexibility Score: inf
ROOT
ATOM      1  C   UNL A   1      31.771  30.307  25.955  1.00  0.00     0.274 C 
ENDROOT
BRANCH   1   2
ATOM      2  O   UNL A   1      31.667  29.326  27.005  1.00  0.00    -0.461 OA
BRANCH   2   3
ATOM      3  C   UNL A   1      31.589  28.033  26.575  1.00  0.00     0.328 C 
ATOM      4  O   UNL A   1      31.089  27.122  27.229  1.00  0.00    -0.250 OA
BRANCH   3   5
ATOM      5  C   UNL A   1      32.316  27.799  25.243  1.00  0.00     0.195 C 
ATOM      6  N   UNL A   1      31.529  26.853  24.466  1.00  0.00    -0.325 N 
ATOM      7  C   UNL A   1      32.376  25.889  23.802  1.00  0.00     0.121 C 
ATOM      8  C   UNL A   1      33.530  25.740  24.767  1.00  0.00     0.024 C 
ATOM      9  C   UNL A   1      33.713  27.159  25.306  1.00  0.00     0.039 C 
BRANCH   6  10
ATOM     10  C   UNL A   1      30.212  27.092  24.178  1.00  0.00     0.258 C 
ATOM     11  O   UNL A   1      29.307  26.327  24.513  1.00  0.00    -0.269 OA
BRANCH  10  12
ATOM     12  C   UNL A   1      30.006  28.205  23.259  1.00  0.00     0.080 A 
ATOM     13  N   UNL A   1      29.088  29.716  21.937  1.00  0.00    -0.269 N 
ATOM     14  N   UNL A   1      30.404  29.808  21.675  1.00  0.00    -0.180 NA
ATOM     15  C   UNL A   1      28.796  28.797  22.918  1.00  0.00     0.048 A 
ATOM     16  C   UNL A   1      30.939  28.835  22.405  1.00  0.00     0.149 A 
ATOM     17  C   UNL A   1      27.425  28.491  23.403  1.00  0.00     0.067 C 
BRANCH  13  18
ATOM     18  C   UNL A   1      28.147  30.535  21.193  1.00  0.00     0.144 C 
BRANCH  18  19
ATOM     19  C   UNL A   1      28.151  32.036  21.508  1.00  0.00     0.020 C 
ATOM     20  C   UNL A   1      28.197  32.346  23.000  1.00  0.00     0.006 C 
ENDBRANCH  18  19
ENDBRANCH  13  18
ENDBRANCH  10  12
ENDBRANCH   6  10
ENDBRANCH   3   5
ENDBRANCH   2   3
ENDBRANCH   1   2
BRANCH   1  21
ATOM     21  C   UNL A   1      31.663  31.723  26.503  1.00  0.00     0.275 C 
BRANCH  21  22
ATOM     22  O   UNL A   1      32.525  31.926  27.623  1.00  0.00    -0.458 OA
BRANCH  22  23
ATOM     23  C   UNL A   1      32.748  33.223  27.927  1.00  0.00     0.338 C 
ATOM     24  O   UNL A   1      32.129  34.188  27.513  1.00  0.00    -0.246 OA
BRANCH  23  25
ATOM     25  C   UNL A   1      34.023  33.384  28.611  1.00  0.00     0.060 A 
ATOM     26  C   UNL A   1      35.107  33.739  27.799  1.00  0.00     0.016 A 
ATOM     27  C   UNL A   1      34.182  32.812  29.878  1.00  0.00     0.016 A 
ATOM     28  C   UNL A   1      36.354  33.308  28.167  1.00  0.00     0.010 A 
ATOM     29  C   UNL A   1      35.428  32.371  30.236  1.00  0.00     0.010 A 
ATOM     30  C   UNL A   1      36.477  32.555  29.339  1.00  0.00    -0.014 A 
BRANCH  30  31
ATOM     31  C   UNL A   1      37.799  32.103  29.702  1.00  0.00     0.031 A 
ATOM     32  C   UNL A   1      38.042  30.725  29.221  1.00  0.00     0.074 A 
ATOM     33  C   UNL A   1      38.696  32.904  30.303  1.00  0.00     0.049 A 
ATOM     34  N   UNL A   1      38.165  29.658  29.937  1.00  0.00    -0.248 NA
ATOM     35  C   UNL A   1      37.889  30.469  27.779  1.00  0.00     0.031 C 
ATOM     36  C   UNL A   1      38.601  34.347  30.543  1.00  0.00     0.029 A 
ATOM     37  N   UNL A   1      39.966  32.614  30.689  1.00  0.00    -0.354 N 
ATOM     38  C   UNL A   1      38.377  28.636  29.017  1.00  0.00     0.074 A 
ATOM     39  C   UNL A   1      37.947  29.139  27.742  1.00  0.00     0.031 C 
ATOM     40  C   UNL A   1      39.841  34.837  30.770  1.00  0.00     0.029 A 
ATOM     41  C   UNL A   1      40.784  33.731  30.811  1.00  0.00     0.049 A 
ATOM     42  H   UNL A   1      40.277  31.696  30.865  1.00  0.00     0.167 HD
ATOM     43  C   UNL A   1      39.189  27.591  29.326  1.00  0.00     0.034 A 
ATOM     44  C   UNL A   1      42.142  33.730  30.830  1.00  0.00     0.034 A 
ATOM     45  C   UNL A   1      39.378  27.484  30.752  1.00  0.00     0.049 A 
ATOM     46  C   UNL A   1      42.574  32.353  31.169  1.00  0.00     0.074 A 
ATOM     47  C   UNL A   1      38.539  27.329  31.837  1.00  0.00     0.029 A 
ATOM     48  N   UNL A   1      40.569  27.953  31.252  1.00  0.00    -0.354 N 
ATOM     49  N   UNL A   1      42.357  31.797  32.327  1.00  0.00    -0.248 NA
ATOM     50  C   UNL A   1      42.832  31.434  30.070  1.00  0.00     0.031 C 
ATOM     51  C   UNL A   1      39.107  28.144  32.859  1.00  0.00     0.029 A 
ATOM     52  C   UNL A   1      40.294  28.692  32.370  1.00  0.00     0.049 A 
ATOM     53  H   UNL A   1      41.462  27.787  30.873  1.00  0.00     0.167 HD
ATOM     54  C   UNL A   1      41.978  30.497  32.016  1.00  0.00     0.074 A 
ATOM     55  C   UNL A   1      42.391  30.302  30.626  1.00  0.00     0.031 C 
ATOM     56  C   UNL A   1      41.097  29.814  32.805  1.00  0.00     0.034 A 
BRANCH  43  57
ATOM     57  C   UNL A   1      40.150  26.950  28.348  1.00  0.00     0.023 A 
ATOM     58  C   UNL A   1      40.340  25.557  28.468  1.00  0.00     0.012 A 
ATOM     59  C   UNL A   1      41.076  27.655  27.539  1.00  0.00     0.148 A 
ATOM     60  C   UNL A   1      41.434  24.914  27.883  1.00  0.00     0.002 A 
ATOM     61  C   UNL A   1      42.117  26.998  26.896  1.00  0.00     0.091 A 
ATOM     62  F   UNL A   1      41.053  28.986  27.482  1.00  0.00    -0.205 F 
ATOM     63  C   UNL A   1      42.322  25.633  27.094  1.00  0.00     0.022 A 
BRANCH  61  64
ATOM     64  S   UNL A   1      43.272  27.877  25.833  1.00  0.00     0.127 S 
ATOM     65  O   UNL A   1      42.403  28.282  24.733  1.00  0.00    -0.237 OA
ATOM     66  O   UNL A   1      43.711  28.962  26.711  1.00  0.00    -0.237 OA
ATOM     67  O   UNL A   1      44.317  26.917  25.503  1.00  0.00    -0.744 OA
ENDBRANCH  61  64
ENDBRANCH  43  57
BRANCH  44  68
ATOM     68  C   UNL A   1      43.091  34.727  30.275  1.00  0.00     0.023 A 
ATOM     69  C   UNL A   1      44.283  35.017  30.971  1.00  0.00     0.012 A 
ATOM     70  C   UNL A   1      42.976  35.178  28.941  1.00  0.00     0.148 A 
ATOM     71  C   UNL A   1      45.334  35.704  30.350  1.00  0.00     0.002 A 
ATOM     72  C   UNL A   1      44.018  35.869  28.332  1.00  0.00     0.091 A 
ATOM     73  F   UNL A   1      41.884  34.847  28.239  1.00  0.00    -0.205 F 
ATOM     74  C   UNL A   1      45.206  36.124  29.028  1.00  0.00     0.022 A 
BRANCH  72  75
ATOM     75  S   UNL A   1      43.931  36.416  26.620  1.00  0.00     0.127 S 
ATOM     76  O   UNL A   1      45.162  37.197  26.491  1.00  0.00    -0.237 OA
ATOM     77  O   UNL A   1      43.931  35.148  25.896  1.00  0.00    -0.237 OA
ATOM     78  O   UNL A   1      42.710  37.203  26.515  1.00  0.00    -0.744 OA
ENDBRANCH  72  75
ENDBRANCH  44  68
BRANCH  56  79
ATOM     79  C   UNL A   1      40.751  30.396  34.152  1.00  0.00     0.023 A 
ATOM     80  C   UNL A   1      41.573  30.242  35.287  1.00  0.00     0.012 A 
ATOM     81  C   UNL A   1      39.654  31.270  34.221  1.00  0.00     0.148 A 
ATOM     82  C   UNL A   1      41.293  30.931  36.473  1.00  0.00     0.002 A 
ATOM     83  C   UNL A   1      39.408  31.990  35.382  1.00  0.00     0.091 A 
ATOM     84  F   UNL A   1      38.885  31.408  33.130  1.00  0.00    -0.205 F 
ATOM     85  C   UNL A   1      40.219  31.816  36.514  1.00  0.00     0.022 A 
BRANCH  83  86
ATOM     86  S   UNL A   1      38.120  33.236  35.452  1.00  0.00     0.127 S 
ATOM     87  O   UNL A   1      36.924  32.456  35.141  1.00  0.00    -0.237 OA
ATOM     88  O   UNL A   1      38.206  33.700  36.838  1.00  0.00    -0.237 OA
ATOM     89  O   UNL A   1      38.483  34.246  34.464  1.00  0.00    -0.744 OA
ENDBRANCH  83  86
ENDBRANCH  56  79
ENDBRANCH  30  31
ENDBRANCH  23  25
ENDBRANCH  22  23
ENDBRANCH  21  22
ENDBRANCH   1  21
TORSDOF 18
ENDMDL
MODEL 2
REMARK VINA RESULT:     -10.8      3.554      7.727
REMARK SMILES CCCn1ncc(C(=O)N2CCC[C@@H]2C(=O)OCCOC(=O)c2ccc(-c3c4nc(c(-c5cccc(S(=O)(=O)[O-])c5F)c5ccc([nH]5)c(-c5cccc(S(=O)(=O)[O-])c5F)c5nc(c(-c6cccc(S(=O)(=O)[O-])c6F)c6ccc3[nH]6)C=C5)C=C4)cc2)c1C
REMARK SMILES IDX 18 1 17 2 15 3 16 4 14 5 10 6 11 7 12 8 13 9 8 10 9 11 7 12
REMARK SMILES IDX 4 13 5 14 86 15 6 16 87 17 3 18 2 19 1 20 19 21 20 22 21 23
REMARK SMILES IDX 22 24 23 25 24 26 85 27 25 28 84 29 26 30 27 31 28 32 78 33
REMARK SMILES IDX 29 34 83 35 77 36 79 37 30 38 82 39 76 40 75 41 31 43 63 44
REMARK SMILES IDX 43 45 62 46 44 47 47 48 61 49 80 50 45 51 46 52 60 54 81 55
REMARK SMILES IDX 48 56 32 57 33 58 41 59 34 60 36 61 42 62 35 63 37 64 38 65
REMARK SMILES IDX 39 66 40 67 64 68 65 69 73 70 66 71 68 72 74 73 67 74 69 75
REMARK SMILES IDX 70 76 71 77 72 78 49 79 50 80 58 81 51 82 53 83 59 84 52 85
REMARK SMILES IDX 54 86 55 87 56 88 57 89
REMARK H PARENT 79 42 47 53
REMARK Flexibility Score: inf
ROOT
ATOM      1  C   UNL A   1      32.662  29.190  26.067  1.00  0.00     0.274 C 
ENDROOT
BRANCH   1   2
ATOM      2  O   UNL A   1      32.968  27.872  26.561  1.00  0.00    -0.461 OA
BRANCH   2   3
ATOM      3  C   UNL A   1      31.951  26.969  26.447  1.00  0.00     0.328 C 
ATOM      4  O   UNL A   1      30.837  27.126  26.942  1.00  0.00    -0.250 OA
BRANCH   3   5
ATOM      5  C   UNL A   1      32.377  25.668  25.754  1.00  0.00     0.195 C 
ATOM      6  N   UNL A   1      31.586  25.529  24.541  1.00  0.00    -0.325 N 
ATOM      7  C   UNL A   1      31.155  24.162  24.352  1.00  0.00     0.121 C 
ATOM      8  C   UNL A   1      30.986  23.668  25.770  1.00  0.00     0.024 C 
ATOM      9  C   UNL A   1      32.132  24.352  26.513  1.00  0.00     0.039 C 
BRANCH   6  10
ATOM     10  C   UNL A   1      31.565  26.512  23.589  1.00  0.00     0.258 C 
ATOM     11  O   UNL A   1      32.590  26.975  23.086  1.00  0.00    -0.269 OA
BRANCH  10  12
ATOM     12  C   UNL A   1      30.250  27.108  23.390  1.00  0.00     0.080 A 
ATOM     13  N   UNL A   1      28.610  28.510  22.921  1.00  0.00    -0.269 N 
ATOM     14  N   UNL A   1      27.998  27.488  23.545  1.00  0.00    -0.180 NA
ATOM     15  C   UNL A   1      29.962  28.312  22.760  1.00  0.00     0.048 A 
ATOM     16  C   UNL A   1      29.001  26.693  23.905  1.00  0.00     0.149 A 
ATOM     17  C   UNL A   1      30.882  29.280  22.107  1.00  0.00     0.067 C 
BRANCH  13  18
ATOM     18  C   UNL A   1      27.837  29.670  22.512  1.00  0.00     0.144 C 
BRANCH  18  19
ATOM     19  C   UNL A   1      27.648  30.770  23.564  1.00  0.00     0.020 C 
ATOM     20  C   UNL A   1      28.683  31.884  23.474  1.00  0.00     0.006 C 
ENDBRANCH  18  19
ENDBRANCH  13  18
ENDBRANCH  10  12
ENDBRANCH   6  10
ENDBRANCH   3   5
ENDBRANCH   2   3
ENDBRANCH   1   2
BRANCH   1  21
ATOM     21  C   UNL A   1      33.119  30.269  27.041  1.00  0.00     0.275 C 
BRANCH  21  22
ATOM     22  O   UNL A   1      34.522  30.512  26.944  1.00  0.00    -0.458 OA
BRANCH  22  23
ATOM     23  C   UNL A   1      34.975  31.490  27.756  1.00  0.00     0.338 C 
ATOM     24  O   UNL A   1      34.759  32.685  27.654  1.00  0.00    -0.246 OA
BRANCH  23  25
ATOM     25  C   UNL A   1      36.013  30.987  28.646  1.00  0.00     0.060 A 
ATOM     26  C   UNL A   1      37.070  31.869  28.903  1.00  0.00     0.016 A 
ATOM     27  C   UNL A   1      36.111  29.607  28.849  1.00  0.00     0.016 A 
ATOM     28  C   UNL A   1      38.307  31.333  29.150  1.00  0.00     0.010 A 
ATOM     29  C   UNL A   1      37.352  29.075  29.083  1.00  0.00     0.010 A 
ATOM     30  C   UNL A   1      38.440  29.941  29.149  1.00  0.00    -0.014 A 
BRANCH  30  31
ATOM     31  C   UNL A   1      39.754  29.400  29.402  1.00  0.00     0.031 A 
ATOM     32  C   UNL A   1      40.134  29.564  30.822  1.00  0.00     0.074 A 
ATOM     33  C   UNL A   1      40.458  28.743  28.463  1.00  0.00     0.049 A 
ATOM     34  N   UNL A   1      41.049  30.338  31.302  1.00  0.00    -0.248 NA
ATOM     35  C   UNL A   1      39.236  28.989  31.839  1.00  0.00     0.031 C 
ATOM     36  C   UNL A   1      40.011  28.313  27.135  1.00  0.00     0.029 A 
ATOM     37  N   UNL A   1      41.690  28.181  28.567  1.00  0.00    -0.354 N 
ATOM     38  C   UNL A   1      41.007  30.126  32.677  1.00  0.00     0.074 A 
ATOM     39  C   UNL A   1      39.741  29.508  32.957  1.00  0.00     0.031 C 
ATOM     40  C   UNL A   1      40.840  27.343  26.686  1.00  0.00     0.029 A 
ATOM     41  C   UNL A   1      41.930  27.179  27.633  1.00  0.00     0.049 A 
ATOM     42  H   UNL A   1      42.352  28.459  29.242  1.00  0.00     0.167 HD
ATOM     43  C   UNL A   1      42.148  30.177  33.415  1.00  0.00     0.034 A 
ATOM     44  C   UNL A   1      42.894  26.226  27.713  1.00  0.00     0.034 A 
ATOM     45  C   UNL A   1      43.193  30.875  32.708  1.00  0.00     0.049 A 
ATOM     46  C   UNL A   1      43.908  26.707  28.682  1.00  0.00     0.074 A 
ATOM     47  C   UNL A   1      43.326  32.138  32.166  1.00  0.00     0.029 A 
ATOM     48  N   UNL A   1      44.162  30.100  32.118  1.00  0.00    -0.354 N 
ATOM     49  N   UNL A   1      44.669  27.743  28.469  1.00  0.00    -0.248 NA
ATOM     50  C   UNL A   1      43.751  26.319  30.076  1.00  0.00     0.031 C 
ATOM     51  C   UNL A   1      44.052  31.942  30.955  1.00  0.00     0.029 A 
ATOM     52  C   UNL A   1      44.385  30.590  30.860  1.00  0.00     0.049 A 
ATOM     53  H   UNL A   1      44.616  29.329  32.528  1.00  0.00     0.167 HD
ATOM     54  C   UNL A   1      44.687  28.409  29.689  1.00  0.00     0.074 A 
ATOM     55  C   UNL A   1      44.196  27.434  30.663  1.00  0.00     0.031 C 
ATOM     56  C   UNL A   1      44.803  29.769  29.745  1.00  0.00     0.034 A 
BRANCH  43  57
ATOM     57  C   UNL A   1      42.456  29.234  34.558  1.00  0.00     0.023 A 
ATOM     58  C   UNL A   1      42.934  29.820  35.750  1.00  0.00     0.012 A 
ATOM     59  C   UNL A   1      42.586  27.828  34.440  1.00  0.00     0.148 A 
ATOM     60  C   UNL A   1      43.577  29.062  36.732  1.00  0.00     0.002 A 
ATOM     61  C   UNL A   1      43.156  27.069  35.454  1.00  0.00     0.091 A 
ATOM     62  F   UNL A   1      42.288  27.212  33.296  1.00  0.00    -0.205 F 
ATOM     63  C   UNL A   1      43.686  27.685  36.586  1.00  0.00     0.022 A 
BRANCH  61  64
ATOM     64  S   UNL A   1      43.287  25.279  35.330  1.00  0.00     0.127 S 
ATOM     65  O   UNL A   1      43.892  24.943  36.616  1.00  0.00    -0.237 OA
ATOM     66  O   UNL A   1      41.884  24.891  35.183  1.00  0.00    -0.237 OA
ATOM     67  O   UNL A   1      44.105  25.021  34.152  1.00  0.00    -0.744 OA
ENDBRANCH  61  64
ENDBRANCH  43  57
BRANCH  44  68
ATOM     68  C   UNL A   1      42.854  24.810  27.271  1.00  0.00     0.023 A 
ATOM     69  C   UNL A   1      41.653  24.079  27.378  1.00  0.00     0.012 A 
ATOM     70  C   UNL A   1      43.894  24.262  26.486  1.00  0.00     0.148 A 
ATOM     71  C   UNL A   1      41.482  22.863  26.704  1.00  0.00     0.002 A 
ATOM     72  C   UNL A   1      43.724  23.049  25.827  1.00  0.00     0.091 A 
ATOM     73  F   UNL A   1      45.014  24.976  26.309  1.00  0.00    -0.205 F 
ATOM     74  C   UNL A   1      42.515  22.351  25.922  1.00  0.00     0.022 A 
BRANCH  72  75
ATOM     75  S   UNL A   1      45.005  22.343  24.780  1.00  0.00     0.127 S 
ATOM     76  O   UNL A   1      46.079  22.097  25.743  1.00  0.00    -0.237 OA
ATOM     77  O   UNL A   1      44.352  21.141  24.270  1.00  0.00    -0.237 OA
ATOM     78  O   UNL A   1      45.316  23.362  23.786  1.00  0.00    -0.744 OA
ENDBRANCH  72  75
ENDBRANCH  44  68
BRANCH  56  79
ATOM     79  C   UNL A   1      45.173  30.503  28.481  1.00  0.00     0.023 A 
ATOM     80  C   UNL A   1      44.212  31.040  27.599  1.00  0.00     0.012 A 
ATOM     81  C   UNL A   1      46.528  30.809  28.278  1.00  0.00     0.148 A 
ATOM     82  C   UNL A   1      44.599  31.849  26.525  1.00  0.00     0.002 A 
ATOM     83  C   UNL A   1      46.905  31.652  27.240  1.00  0.00     0.091 A 
ATOM     84  F   UNL A   1      47.428  30.294  29.129  1.00  0.00    -0.205 F 
ATOM     85  C   UNL A   1      45.945  32.166  26.355  1.00  0.00     0.022 A 
BRANCH  83  86
ATOM     86  S   UNL A   1      48.603  32.197  27.051  1.00  0.00     0.127 S 
ATOM     87  O   UNL A   1      48.891  32.759  28.369  1.00  0.00    -0.237 OA
ATOM     88  O   UNL A   1      49.303  30.946  26.753  1.00  0.00    -0.237 OA
ATOM     89  O   UNL A   1      48.598  33.152  25.949  1.00  0.00    -0.744 OA
ENDBRANCH  83  86
ENDBRANCH  56  79
ENDBRANCH  30  31
ENDBRANCH  23  25
ENDBRANCH  22  23
ENDBRANCH  21  22
ENDBRANCH   1  21
TORSDOF 18
ENDMDL
MODEL 3
REMARK VINA RESULT:     -10.5      5.176     10.484
REMARK SMILES CCCn1ncc(C(=O)N2CCC[C@@H]2C(=O)OCCOC(=O)c2ccc(-c3c4nc(c(-c5cccc(S(=O)(=O)[O-])c5F)c5ccc([nH]5)c(-c5cccc(S(=O)(=O)[O-])c5F)c5nc(c(-c6cccc(S(=O)(=O)[O-])c6F)c6ccc3[nH]6)C=C5)C=C4)cc2)c1C
REMARK SMILES IDX 18 1 17 2 15 3 16 4 14 5 10 6 11 7 12 8 13 9 8 10 9 11 7 12
REMARK SMILES IDX 4 13 5 14 86 15 6 16 87 17 3 18 2 19 1 20 19 21 20 22 21 23
REMARK SMILES IDX 22 24 23 25 24 26 85 27 25 28 84 29 26 30 27 31 28 32 78 33
REMARK SMILES IDX 29 34 83 35 77 36 79 37 30 38 82 39 76 40 75 41 31 43 63 44
REMARK SMILES IDX 43 45 62 46 44 47 47 48 61 49 80 50 45 51 46 52 60 54 81 55
REMARK SMILES IDX 48 56 32 57 33 58 41 59 34 60 36 61 42 62 35 63 37 64 38 65
REMARK SMILES IDX 39 66 40 67 64 68 65 69 73 70 66 71 68 72 74 73 67 74 69 75
REMARK SMILES IDX 70 76 71 77 72 78 49 79 50 80 58 81 51 82 53 83 59 84 52 85
REMARK SMILES IDX 54 86 55 87 56 88 57 89
REMARK H PARENT 79 42 47 53
REMARK Flexibility Score: inf
ROOT
ATOM      1  C   UNL A   1      43.231  21.105  26.208  1.00  0.00     0.274 C 
ENDROOT
BRANCH   1   2
ATOM      2  O   UNL A   1      43.716  22.458  26.310  1.00  0.00    -0.461 OA
BRANCH   2   3
ATOM      3  C   UNL A   1      44.988  22.645  25.851  1.00  0.00     0.328 C 
ATOM      4  O   UNL A   1      45.854  21.774  25.861  1.00  0.00    -0.250 OA
BRANCH   3   5
ATOM      5  C   UNL A   1      45.273  24.097  25.446  1.00  0.00     0.195 C 
ATOM      6  N   UNL A   1      45.395  24.885  26.663  1.00  0.00    -0.325 N 
ATOM      7  C   UNL A   1      44.736  26.164  26.526  1.00  0.00     0.121 C 
ATOM      8  C   UNL A   1      43.584  25.848  25.600  1.00  0.00     0.024 C 
ATOM      9  C   UNL A   1      44.188  24.828  24.635  1.00  0.00     0.039 C 
BRANCH   6  10
ATOM     10  C   UNL A   1      46.293  24.549  27.640  1.00  0.00     0.258 C 
ATOM     11  O   UNL A   1      47.426  24.135  27.389  1.00  0.00    -0.269 OA
BRANCH  10  12
ATOM     12  C   UNL A   1      45.718  24.515  28.978  1.00  0.00     0.080 A 
ATOM     13  N   UNL A   1      45.324  24.863  31.123  1.00  0.00    -0.269 N 
ATOM     14  N   UNL A   1      44.534  23.821  30.810  1.00  0.00    -0.180 NA
ATOM     15  C   UNL A   1      46.026  25.351  30.045  1.00  0.00     0.048 A 
ATOM     16  C   UNL A   1      44.844  23.560  29.545  1.00  0.00     0.149 A 
ATOM     17  C   UNL A   1      46.974  26.494  30.105  1.00  0.00     0.067 C 
BRANCH  13  18
ATOM     18  C   UNL A   1      45.375  25.342  32.493  1.00  0.00     0.144 C 
BRANCH  18  19
ATOM     19  C   UNL A   1      44.073  25.917  33.064  1.00  0.00     0.020 C 
ATOM     20  C   UNL A   1      43.523  25.127  34.245  1.00  0.00     0.006 C 
ENDBRANCH  18  19
ENDBRANCH  13  18
ENDBRANCH  10  12
ENDBRANCH   6  10
ENDBRANCH   3   5
ENDBRANCH   2   3
ENDBRANCH   1   2
BRANCH   1  21
ATOM     21  C   UNL A   1      41.710  21.053  26.273  1.00  0.00     0.275 C 
BRANCH  21  22
ATOM     22  O   UNL A   1      41.199  21.811  27.370  1.00  0.00    -0.458 OA
BRANCH  22  23
ATOM     23  C   UNL A   1      40.234  22.693  27.036  1.00  0.00     0.338 C 
ATOM     24  O   UNL A   1      39.176  22.446  26.484  1.00  0.00    -0.246 OA
BRANCH  23  25
ATOM     25  C   UNL A   1      40.717  24.062  27.158  1.00  0.00     0.060 A 
ATOM     26  C   UNL A   1      41.668  24.282  28.162  1.00  0.00     0.016 A 
ATOM     27  C   UNL A   1      39.960  25.094  26.592  1.00  0.00     0.016 A 
ATOM     28  C   UNL A   1      41.696  25.514  28.760  1.00  0.00     0.010 A 
ATOM     29  C   UNL A   1      39.982  26.320  27.202  1.00  0.00     0.010 A 
ATOM     30  C   UNL A   1      40.789  26.485  28.325  1.00  0.00    -0.014 A 
BRANCH  30  31
ATOM     31  C   UNL A   1      40.830  27.772  28.976  1.00  0.00     0.031 A 
ATOM     32  C   UNL A   1      41.900  28.622  28.410  1.00  0.00     0.074 A 
ATOM     33  C   UNL A   1      39.924  28.145  29.897  1.00  0.00     0.049 A 
ATOM     34  N   UNL A   1      42.991  28.996  28.990  1.00  0.00    -0.248 NA
ATOM     35  C   UNL A   1      41.869  28.883  26.960  1.00  0.00     0.031 C 
ATOM     36  C   UNL A   1      38.692  27.453  30.284  1.00  0.00     0.029 A 
ATOM     37  N   UNL A   1      39.841  29.318  30.577  1.00  0.00    -0.354 N 
ATOM     38  C   UNL A   1      43.650  29.772  28.042  1.00  0.00     0.074 A 
ATOM     39  C   UNL A   1      43.056  29.457  26.772  1.00  0.00     0.031 C 
ATOM     40  C   UNL A   1      37.871  28.332  30.903  1.00  0.00     0.029 A 
ATOM     41  C   UNL A   1      38.568  29.597  31.061  1.00  0.00     0.049 A 
ATOM     42  H   UNL A   1      40.613  29.916  30.714  1.00  0.00     0.167 HD
ATOM     43  C   UNL A   1      44.396  30.841  28.426  1.00  0.00     0.034 A 
ATOM     44  C   UNL A   1      38.110  30.814  31.452  1.00  0.00     0.034 A 
ATOM     45  C   UNL A   1      44.743  30.757  29.823  1.00  0.00     0.049 A 
ATOM     46  C   UNL A   1      39.295  31.664  31.718  1.00  0.00     0.074 A 
ATOM     47  C   UNL A   1      45.410  29.837  30.607  1.00  0.00     0.029 A 
ATOM     48  N   UNL A   1      44.018  31.542  30.686  1.00  0.00    -0.354 N 
ATOM     49  N   UNL A   1      40.133  31.443  32.692  1.00  0.00    -0.248 NA
ATOM     50  C   UNL A   1      39.804  32.479  30.625  1.00  0.00     0.031 C 
ATOM     51  C   UNL A   1      44.697  29.820  31.841  1.00  0.00     0.029 A 
ATOM     52  C   UNL A   1      43.683  30.778  31.771  1.00  0.00     0.049 A 
ATOM     53  H   UNL A   1      43.782  32.488  30.549  1.00  0.00     0.167 HD
ATOM     54  C   UNL A   1      41.381  31.669  32.125  1.00  0.00     0.074 A 
ATOM     55  C   UNL A   1      41.112  32.404  30.889  1.00  0.00     0.031 C 
ATOM     56  C   UNL A   1      42.480  30.976  32.549  1.00  0.00     0.034 A 
BRANCH  43  57
ATOM     57  C   UNL A   1      44.437  32.155  27.676  1.00  0.00     0.023 A 
ATOM     58  C   UNL A   1      45.480  32.316  26.738  1.00  0.00     0.012 A 
ATOM     59  C   UNL A   1      43.718  33.321  28.039  1.00  0.00     0.148 A 
ATOM     60  C   UNL A   1      45.838  33.575  26.250  1.00  0.00     0.002 A 
ATOM     61  C   UNL A   1      44.028  34.559  27.490  1.00  0.00     0.091 A 
ATOM     62  F   UNL A   1      42.813  33.284  29.016  1.00  0.00    -0.205 F 
ATOM     63  C   UNL A   1      45.111  34.698  26.623  1.00  0.00     0.022 A 
BRANCH  61  64
ATOM     64  S   UNL A   1      43.093  36.037  27.913  1.00  0.00     0.127 S 
ATOM     65  O   UNL A   1      43.811  37.059  27.157  1.00  0.00    -0.237 OA
ATOM     66  O   UNL A   1      41.765  35.701  27.400  1.00  0.00    -0.237 OA
ATOM     67  O   UNL A   1      43.162  36.149  29.364  1.00  0.00    -0.744 OA
ENDBRANCH  61  64
ENDBRANCH  43  57
BRANCH  44  68
ATOM     68  C   UNL A   1      36.753  31.398  31.310  1.00  0.00     0.023 A 
ATOM     69  C   UNL A   1      36.098  31.922  32.444  1.00  0.00     0.012 A 
ATOM     70  C   UNL A   1      36.220  31.702  30.038  1.00  0.00     0.148 A 
ATOM     71  C   UNL A   1      34.972  32.745  32.313  1.00  0.00     0.002 A 
ATOM     72  C   UNL A   1      35.095  32.511  29.913  1.00  0.00     0.091 A 
ATOM     73  F   UNL A   1      36.870  31.277  28.946  1.00  0.00    -0.205 F 
ATOM     74  C   UNL A   1      34.474  33.046  31.047  1.00  0.00     0.022 A 
BRANCH  72  75
ATOM     75  S   UNL A   1      34.415  32.962  28.309  1.00  0.00     0.127 S 
ATOM     76  O   UNL A   1      33.432  33.983  28.675  1.00  0.00    -0.237 OA
ATOM     77  O   UNL A   1      35.594  33.468  27.612  1.00  0.00    -0.237 OA
ATOM     78  O   UNL A   1      33.834  31.742  27.764  1.00  0.00    -0.744 OA
ENDBRANCH  72  75
ENDBRANCH  44  68
BRANCH  56  79
ATOM     79  C   UNL A   1      42.363  30.161  33.811  1.00  0.00     0.023 A 
ATOM     80  C   UNL A   1      41.751  28.890  33.848  1.00  0.00     0.012 A 
ATOM     81  C   UNL A   1      43.048  30.618  34.948  1.00  0.00     0.148 A 
ATOM     82  C   UNL A   1      41.805  28.103  35.003  1.00  0.00     0.002 A 
ATOM     83  C   UNL A   1      43.142  29.813  36.076  1.00  0.00     0.091 A 
ATOM     84  F   UNL A   1      43.628  31.826  34.894  1.00  0.00    -0.205 F 
ATOM     85  C   UNL A   1      42.514  28.559  36.112  1.00  0.00     0.022 A 
BRANCH  83  86
ATOM     86  S   UNL A   1      44.147  30.293  37.482  1.00  0.00     0.127 S 
ATOM     87  O   UNL A   1      44.384  29.009  38.139  1.00  0.00    -0.237 OA
ATOM     88  O   UNL A   1      45.324  30.880  36.842  1.00  0.00    -0.237 OA
ATOM     89  O   UNL A   1      43.346  31.247  38.242  1.00  0.00    -0.744 OA
ENDBRANCH  83  86
ENDBRANCH  56  79
ENDBRANCH  30  31
ENDBRANCH  23  25
ENDBRANCH  22  23
ENDBRANCH  21  22
ENDBRANCH   1  21
TORSDOF 18
ENDMDL
