MODEL 1
REMARK VINA RESULT:     -12.5      0.000      0.000
REMARK SMILES Cc1cccc(C(=O)OCCOC(=O)c2ccc(-c3c4nc(c(-c5cccc(S(=O)(=O)[O-])c5F)c5ccc([nH]5)c(-c5cccc(S(=O)(=O)[O-])c5F)c5nc(c(-c6cccc(S(=O)(=O)[O-])c6F)c6ccc3[nH]6)C=C5)C=C4)cc2)c1OC[C@@H]1C[C@H]2CC[C@@H]1C2
REMARK SMILES IDX 10 1 9 2 7 3 8 4 6 5 1 6 2 7 3 8 78 9 4 10 5 11 79 12 80 13
REMARK SMILES IDX 81 14 82 15 86 16 83 17 85 18 87 19 84 20 11 21 12 22 13 23
REMARK SMILES IDX 14 24 15 25 16 26 77 27 17 28 76 29 18 30 19 31 20 32 70 33
REMARK SMILES IDX 21 34 75 35 69 36 71 37 22 38 74 39 68 40 67 41 23 43 55 44
REMARK SMILES IDX 35 45 54 46 36 47 39 48 53 49 72 50 37 51 38 52 52 54 73 55
REMARK SMILES IDX 40 56 24 57 25 58 33 59 26 60 28 61 34 62 27 63 29 64 30 65
REMARK SMILES IDX 31 66 32 67 56 68 57 69 65 70 58 71 60 72 66 73 59 74 61 75
REMARK SMILES IDX 62 76 63 77 64 78 41 79 42 80 50 81 43 82 45 83 51 84 44 85
REMARK SMILES IDX 46 86 47 87 48 88 49 89
REMARK H PARENT 71 42 39 53
REMARK Flexibility Score: inf
ROOT
ATOM      1  C   UNL A   1      31.777  29.830  26.855  1.00  0.00     0.275 C 
ENDROOT
BRANCH   1   2
ATOM      2  O   UNL A   1      31.926  28.447  27.189  1.00  0.00    -0.458 OA
BRANCH   2   3
ATOM      3  C   UNL A   1      31.430  27.538  26.332  1.00  0.00     0.342 C 
ATOM      4  O   UNL A   1      30.661  26.631  26.611  1.00  0.00    -0.246 OA
BRANCH   3   5
ATOM      5  C   UNL A   1      32.011  27.723  24.988  1.00  0.00     0.102 A 
ATOM      6  C   UNL A   1      31.577  26.124  21.695  1.00  0.00     0.048 C 
ATOM      7  C   UNL A   1      31.989  27.196  22.667  1.00  0.00    -0.008 A 
ATOM      8  C   UNL A   1      33.342  27.589  22.577  1.00  0.00     0.007 A 
ATOM      9  C   UNL A   1      31.258  27.484  23.822  1.00  0.00     0.136 A 
ATOM     10  C   UNL A   1      34.041  27.985  23.707  1.00  0.00     0.001 A 
ATOM     11  C   UNL A   1      33.398  27.921  24.932  1.00  0.00     0.019 A 
BRANCH   9  12
ATOM     12  O   UNL A   1      29.906  27.439  23.965  1.00  0.00    -0.492 OA
BRANCH  12  13
ATOM     13  C   UNL A   1      28.939  28.112  23.131  1.00  0.00     0.233 C 
BRANCH  13  14
ATOM     14  C   UNL A   1      29.180  29.555  22.616  1.00  0.00     0.030 C 
ATOM     15  C   UNL A   1      29.642  30.504  23.772  1.00  0.00     0.011 C 
ATOM     16  C   UNL A   1      27.907  30.319  22.158  1.00  0.00    -0.004 C 
ATOM     17  C   UNL A   1      28.679  31.704  23.698  1.00  0.00    -0.010 C 
ATOM     18  C   UNL A   1      28.322  31.541  21.328  1.00  0.00     0.004 C 
ATOM     19  C   UNL A   1      27.371  30.979  23.431  1.00  0.00     0.007 C 
ATOM     20  C   UNL A   1      28.890  32.486  22.389  1.00  0.00     0.004 C 
ENDBRANCH  13  14
ENDBRANCH  12  13
ENDBRANCH   9  12
ENDBRANCH   3   5
ENDBRANCH   2   3
ENDBRANCH   1   2
BRANCH   1  21
ATOM     21  C   UNL A   1      32.913  30.846  27.144  1.00  0.00     0.275 C 
BRANCH  21  22
ATOM     22  O   UNL A   1      34.168  30.595  27.852  1.00  0.00    -0.458 OA
BRANCH  22  23
ATOM     23  C   UNL A   1      35.328  31.283  27.914  1.00  0.00     0.338 C 
ATOM     24  O   UNL A   1      35.439  32.441  27.527  1.00  0.00    -0.246 OA
BRANCH  23  25
ATOM     25  C   UNL A   1      36.486  30.519  28.348  1.00  0.00     0.060 A 
ATOM     26  C   UNL A   1      36.487  29.877  29.595  1.00  0.00     0.016 A 
ATOM     27  C   UNL A   1      37.531  30.389  27.443  1.00  0.00     0.016 A 
ATOM     28  C   UNL A   1      37.496  28.984  29.902  1.00  0.00     0.010 A 
ATOM     29  C   UNL A   1      38.456  29.418  27.684  1.00  0.00     0.010 A 
ATOM     30  C   UNL A   1      38.476  28.791  28.944  1.00  0.00    -0.014 A 
BRANCH  30  31
ATOM     31  C   UNL A   1      39.792  28.284  29.248  1.00  0.00     0.031 A 
ATOM     32  C   UNL A   1      40.154  26.901  28.964  1.00  0.00     0.074 A 
ATOM     33  C   UNL A   1      40.636  29.327  29.405  1.00  0.00     0.049 A 
ATOM     34  N   UNL A   1      41.350  26.461  29.088  1.00  0.00    -0.248 NA
ATOM     35  C   UNL A   1      39.203  25.882  28.528  1.00  0.00     0.031 C 
ATOM     36  C   UNL A   1      42.036  29.501  29.081  1.00  0.00     0.029 A 
ATOM     37  N   UNL A   1      40.284  30.557  29.955  1.00  0.00    -0.354 N 
ATOM     38  C   UNL A   1      41.402  25.229  28.476  1.00  0.00     0.074 A 
ATOM     39  C   UNL A   1      40.030  24.858  28.276  1.00  0.00     0.031 C 
ATOM     40  C   UNL A   1      42.475  30.629  29.683  1.00  0.00     0.029 A 
ATOM     41  C   UNL A   1      41.404  31.095  30.564  1.00  0.00     0.049 A 
ATOM     42  H   UNL A   1      39.393  30.972  29.918  1.00  0.00     0.167 HD
ATOM     43  C   UNL A   1      42.625  24.778  28.087  1.00  0.00     0.034 A 
ATOM     44  C   UNL A   1      41.419  31.027  31.936  1.00  0.00     0.034 A 
ATOM     45  C   UNL A   1      43.656  25.651  28.673  1.00  0.00     0.049 A 
ATOM     46  C   UNL A   1      42.450  30.016  32.403  1.00  0.00     0.074 A 
ATOM     47  C   UNL A   1      44.331  26.753  28.178  1.00  0.00     0.029 A 
ATOM     48  N   UNL A   1      43.782  25.700  30.060  1.00  0.00    -0.354 N 
ATOM     49  N   UNL A   1      42.860  28.990  31.705  1.00  0.00    -0.248 NA
ATOM     50  C   UNL A   1      43.175  30.163  33.658  1.00  0.00     0.031 C 
ATOM     51  C   UNL A   1      44.730  27.546  29.297  1.00  0.00     0.029 A 
ATOM     52  C   UNL A   1      44.330  26.910  30.463  1.00  0.00     0.049 A 
ATOM     53  H   UNL A   1      43.518  24.975  30.671  1.00  0.00     0.167 HD
ATOM     54  C   UNL A   1      43.869  28.349  32.362  1.00  0.00     0.074 A 
ATOM     55  C   UNL A   1      44.045  29.142  33.572  1.00  0.00     0.031 C 
ATOM     56  C   UNL A   1      44.481  27.219  31.885  1.00  0.00     0.034 A 
BRANCH  43  57
ATOM     57  C   UNL A   1      42.933  23.729  27.030  1.00  0.00     0.023 A 
ATOM     58  C   UNL A   1      43.542  24.205  25.843  1.00  0.00     0.012 A 
ATOM     59  C   UNL A   1      42.593  22.352  27.036  1.00  0.00     0.148 A 
ATOM     60  C   UNL A   1      43.772  23.389  24.728  1.00  0.00     0.002 A 
ATOM     61  C   UNL A   1      42.859  21.525  25.935  1.00  0.00     0.091 A 
ATOM     62  F   UNL A   1      41.954  21.823  28.081  1.00  0.00    -0.205 F 
ATOM     63  C   UNL A   1      43.435  22.046  24.775  1.00  0.00     0.022 A 
BRANCH  61  64
ATOM     64  S   UNL A   1      42.487  19.757  25.916  1.00  0.00     0.127 S 
ATOM     65  O   UNL A   1      41.111  19.738  25.421  1.00  0.00    -0.237 OA
ATOM     66  O   UNL A   1      43.478  19.239  24.973  1.00  0.00    -0.237 OA
ATOM     67  O   UNL A   1      42.654  19.285  27.285  1.00  0.00    -0.744 OA
ENDBRANCH  61  64
ENDBRANCH  43  57
BRANCH  44  68
ATOM     68  C   UNL A   1      40.040  31.223  32.541  1.00  0.00     0.023 A 
ATOM     69  C   UNL A   1      39.370  30.056  33.005  1.00  0.00     0.012 A 
ATOM     70  C   UNL A   1      39.578  32.471  33.005  1.00  0.00     0.148 A 
ATOM     71  C   UNL A   1      38.406  30.117  34.016  1.00  0.00     0.002 A 
ATOM     72  C   UNL A   1      38.590  32.525  33.998  1.00  0.00     0.091 A 
ATOM     73  F   UNL A   1      40.125  33.589  32.509  1.00  0.00    -0.205 F 
ATOM     74  C   UNL A   1      38.036  31.351  34.532  1.00  0.00     0.022 A 
BRANCH  72  75
ATOM     75  S   UNL A   1      38.094  34.090  34.745  1.00  0.00     0.127 S 
ATOM     76  O   UNL A   1      37.018  33.668  35.637  1.00  0.00    -0.237 OA
ATOM     77  O   UNL A   1      39.313  34.533  35.429  1.00  0.00    -0.237 OA
ATOM     78  O   UNL A   1      37.714  34.933  33.621  1.00  0.00    -0.744 OA
ENDBRANCH  72  75
ENDBRANCH  44  68
BRANCH  56  79
ATOM     79  C   UNL A   1      45.314  26.298  32.752  1.00  0.00     0.023 A 
ATOM     80  C   UNL A   1      46.708  26.459  32.870  1.00  0.00     0.012 A 
ATOM     81  C   UNL A   1      44.710  25.346  33.611  1.00  0.00     0.148 A 
ATOM     82  C   UNL A   1      47.482  25.649  33.701  1.00  0.00     0.002 A 
ATOM     83  C   UNL A   1      45.467  24.647  34.543  1.00  0.00     0.091 A 
ATOM     84  F   UNL A   1      43.394  25.101  33.528  1.00  0.00    -0.205 F 
ATOM     85  C   UNL A   1      46.858  24.756  34.557  1.00  0.00     0.022 A 
BRANCH  83  86
ATOM     86  S   UNL A   1      44.685  23.722  35.871  1.00  0.00     0.127 S 
ATOM     87  O   UNL A   1      45.839  23.161  36.569  1.00  0.00    -0.237 OA
ATOM     88  O   UNL A   1      43.979  24.774  36.606  1.00  0.00    -0.237 OA
ATOM     89  O   UNL A   1      43.806  22.766  35.212  1.00  0.00    -0.744 OA
ENDBRANCH  83  86
ENDBRANCH  56  79
ENDBRANCH  30  31
ENDBRANCH  23  25
ENDBRANCH  22  23
ENDBRANCH  21  22
ENDBRANCH   1  21
TORSDOF 17
ENDMDL
MODEL 2
REMARK VINA RESULT:     -12.3      1.725      3.499
REMARK SMILES Cc1cccc(C(=O)OCCOC(=O)c2ccc(-c3c4nc(c(-c5cccc(S(=O)(=O)[O-])c5F)c5ccc([nH]5)c(-c5cccc(S(=O)(=O)[O-])c5F)c5nc(c(-c6cccc(S(=O)(=O)[O-])c6F)c6ccc3[nH]6)C=C5)C=C4)cc2)c1OC[C@@H]1C[C@H]2CC[C@@H]1C2
REMARK SMILES IDX 10 1 9 2 7 3 8 4 6 5 1 6 2 7 3 8 78 9 4 10 5 11 79 12 80 13
REMARK SMILES IDX 81 14 82 15 86 16 83 17 85 18 87 19 84 20 11 21 12 22 13 23
REMARK SMILES IDX 14 24 15 25 16 26 77 27 17 28 76 29 18 30 19 31 20 32 70 33
REMARK SMILES IDX 21 34 75 35 69 36 71 37 22 38 74 39 68 40 67 41 23 43 55 44
REMARK SMILES IDX 35 45 54 46 36 47 39 48 53 49 72 50 37 51 38 52 52 54 73 55
REMARK SMILES IDX 40 56 24 57 25 58 33 59 26 60 28 61 34 62 27 63 29 64 30 65
REMARK SMILES IDX 31 66 32 67 56 68 57 69 65 70 58 71 60 72 66 73 59 74 61 75
REMARK SMILES IDX 62 76 63 77 64 78 41 79 42 80 50 81 43 82 45 83 51 84 44 85
REMARK SMILES IDX 46 86 47 87 48 88 49 89
REMARK H PARENT 71 42 39 53
REMARK Flexibility Score: inf
ROOT
ATOM      1  C   UNL A   1      32.955  28.201  27.134  1.00  0.00     0.275 C 
ENDROOT
BRANCH   1   2
ATOM      2  O   UNL A   1      31.652  27.619  27.038  1.00  0.00    -0.458 OA
BRANCH   2   3
ATOM      3  C   UNL A   1      31.530  26.462  26.364  1.00  0.00     0.342 C 
ATOM      4  O   UNL A   1      31.589  25.341  26.843  1.00  0.00    -0.246 OA
BRANCH   3   5
ATOM      5  C   UNL A   1      31.395  26.719  24.916  1.00  0.00     0.102 A 
ATOM      6  C   UNL A   1      33.395  28.469  22.362  1.00  0.00     0.048 C 
ATOM      7  C   UNL A   1      32.353  27.521  22.891  1.00  0.00    -0.008 A 
ATOM      8  C   UNL A   1      31.055  27.715  22.368  1.00  0.00     0.007 A 
ATOM      9  C   UNL A   1      32.524  26.803  24.077  1.00  0.00     0.136 A 
ATOM     10  C   UNL A   1      29.935  27.470  23.148  1.00  0.00     0.001 A 
ATOM     11  C   UNL A   1      30.122  27.097  24.468  1.00  0.00     0.019 A 
BRANCH   9  12
ATOM     12  O   UNL A   1      33.686  26.287  24.559  1.00  0.00    -0.492 OA
BRANCH  12  13
ATOM     13  C   UNL A   1      34.439  25.200  23.980  1.00  0.00     0.233 C 
BRANCH  13  14
ATOM     14  C   UNL A   1      34.632  23.859  24.735  1.00  0.00     0.030 C 
ATOM     15  C   UNL A   1      35.926  23.882  25.617  1.00  0.00     0.011 C 
ATOM     16  C   UNL A   1      34.962  22.634  23.838  1.00  0.00    -0.004 C 
ATOM     17  C   UNL A   1      36.699  22.615  25.205  1.00  0.00    -0.010 C 
ATOM     18  C   UNL A   1      34.739  21.345  24.643  1.00  0.00     0.004 C 
ATOM     19  C   UNL A   1      36.486  22.651  23.701  1.00  0.00     0.007 C 
ATOM     20  C   UNL A   1      35.922  21.351  25.613  1.00  0.00     0.004 C 
ENDBRANCH  13  14
ENDBRANCH  12  13
ENDBRANCH   9  12
ENDBRANCH   3   5
ENDBRANCH   2   3
ENDBRANCH   1   2
BRANCH   1  21
ATOM     21  C   UNL A   1      33.135  29.687  27.540  1.00  0.00     0.275 C 
BRANCH  21  22
ATOM     22  O   UNL A   1      34.190  30.604  27.106  1.00  0.00    -0.458 OA
BRANCH  22  23
ATOM     23  C   UNL A   1      35.106  31.322  27.790  1.00  0.00     0.338 C 
ATOM     24  O   UNL A   1      35.034  32.537  27.928  1.00  0.00    -0.246 OA
BRANCH  23  25
ATOM     25  C   UNL A   1      36.270  30.579  28.245  1.00  0.00     0.060 A 
ATOM     26  C   UNL A   1      36.291  30.007  29.526  1.00  0.00     0.016 A 
ATOM     27  C   UNL A   1      37.298  30.394  27.330  1.00  0.00     0.016 A 
ATOM     28  C   UNL A   1      37.304  29.129  29.864  1.00  0.00     0.010 A 
ATOM     29  C   UNL A   1      38.224  29.435  27.608  1.00  0.00     0.010 A 
ATOM     30  C   UNL A   1      38.266  28.879  28.900  1.00  0.00    -0.014 A 
BRANCH  30  31
ATOM     31  C   UNL A   1      39.586  28.385  29.209  1.00  0.00     0.031 A 
ATOM     32  C   UNL A   1      39.949  26.995  28.964  1.00  0.00     0.074 A 
ATOM     33  C   UNL A   1      40.428  29.435  29.326  1.00  0.00     0.049 A 
ATOM     34  N   UNL A   1      41.148  26.562  29.092  1.00  0.00    -0.248 NA
ATOM     35  C   UNL A   1      38.998  25.960  28.568  1.00  0.00     0.031 C 
ATOM     36  C   UNL A   1      41.825  29.603  28.985  1.00  0.00     0.029 A 
ATOM     37  N   UNL A   1      40.077  30.680  29.841  1.00  0.00    -0.354 N 
ATOM     38  C   UNL A   1      41.197  25.313  28.518  1.00  0.00     0.074 A 
ATOM     39  C   UNL A   1      39.825  24.932  28.340  1.00  0.00     0.031 C 
ATOM     40  C   UNL A   1      42.266  30.750  29.548  1.00  0.00     0.029 A 
ATOM     41  C   UNL A   1      41.201  31.239  30.423  1.00  0.00     0.049 A 
ATOM     42  H   UNL A   1      39.184  31.092  29.799  1.00  0.00     0.167 HD
ATOM     43  C   UNL A   1      42.418  24.853  28.132  1.00  0.00     0.034 A 
ATOM     44  C   UNL A   1      41.228  31.214  31.796  1.00  0.00     0.034 A 
ATOM     45  C   UNL A   1      43.452  25.745  28.681  1.00  0.00     0.049 A 
ATOM     46  C   UNL A   1      42.266  30.221  32.286  1.00  0.00     0.074 A 
ATOM     47  C   UNL A   1      44.120  26.834  28.147  1.00  0.00     0.029 A 
ATOM     48  N   UNL A   1      43.590  25.838  30.066  1.00  0.00    -0.354 N 
ATOM     49  N   UNL A   1      42.672  29.175  31.616  1.00  0.00    -0.248 NA
ATOM     50  C   UNL A   1      43.001  30.408  33.529  1.00  0.00     0.031 C 
ATOM     51  C   UNL A   1      44.526  27.662  29.238  1.00  0.00     0.029 A 
ATOM     52  C   UNL A   1      44.138  27.061  30.426  1.00  0.00     0.049 A 
ATOM     53  H   UNL A   1      43.333  25.131  30.701  1.00  0.00     0.167 HD
ATOM     54  C   UNL A   1      43.689  28.557  32.284  1.00  0.00     0.074 A 
ATOM     55  C   UNL A   1      43.873  29.387  33.467  1.00  0.00     0.031 C 
ATOM     56  C   UNL A   1      44.300  27.414  31.837  1.00  0.00     0.034 A 
BRANCH  43  57
ATOM     57  C   UNL A   1      42.721  23.772  27.105  1.00  0.00     0.023 A 
ATOM     58  C   UNL A   1      43.374  24.204  25.924  1.00  0.00     0.012 A 
ATOM     59  C   UNL A   1      42.338  22.407  27.131  1.00  0.00     0.148 A 
ATOM     60  C   UNL A   1      43.606  23.358  24.833  1.00  0.00     0.002 A 
ATOM     61  C   UNL A   1      42.606  21.549  26.055  1.00  0.00     0.091 A 
ATOM     62  F   UNL A   1      41.658  21.920  28.170  1.00  0.00    -0.205 F 
ATOM     63  C   UNL A   1      43.227  22.027  24.899  1.00  0.00     0.022 A 
BRANCH  61  64
ATOM     64  S   UNL A   1      42.181  19.792  26.063  1.00  0.00     0.127 S 
ATOM     65  O   UNL A   1      42.913  19.293  24.898  1.00  0.00    -0.237 OA
ATOM     66  O   UNL A   1      42.714  19.347  27.350  1.00  0.00    -0.237 OA
ATOM     67  O   UNL A   1      40.729  19.719  25.953  1.00  0.00    -0.744 OA
ENDBRANCH  61  64
ENDBRANCH  43  57
BRANCH  44  68
ATOM     68  C   UNL A   1      39.853  31.425  32.407  1.00  0.00     0.023 A 
ATOM     69  C   UNL A   1      39.222  30.284  32.976  1.00  0.00     0.012 A 
ATOM     70  C   UNL A   1      39.367  32.695  32.775  1.00  0.00     0.148 A 
ATOM     71  C   UNL A   1      38.271  30.405  33.996  1.00  0.00     0.002 A 
ATOM     72  C   UNL A   1      38.392  32.807  33.777  1.00  0.00     0.091 A 
ATOM     73  F   UNL A   1      39.877  33.782  32.180  1.00  0.00    -0.205 F 
ATOM     74  C   UNL A   1      37.878  31.667  34.415  1.00  0.00     0.022 A 
BRANCH  72  75
ATOM     75  S   UNL A   1      37.868  34.415  34.402  1.00  0.00     0.127 S 
ATOM     76  O   UNL A   1      37.213  34.050  35.655  1.00  0.00    -0.237 OA
ATOM     77  O   UNL A   1      39.133  35.137  34.566  1.00  0.00    -0.237 OA
ATOM     78  O   UNL A   1      37.013  34.958  33.357  1.00  0.00    -0.744 OA
ENDBRANCH  72  75
ENDBRANCH  44  68
BRANCH  56  79
ATOM     79  C   UNL A   1      45.143  26.523  32.724  1.00  0.00     0.023 A 
ATOM     80  C   UNL A   1      46.550  26.529  32.651  1.00  0.00     0.012 A 
ATOM     81  C   UNL A   1      44.565  25.773  33.779  1.00  0.00     0.148 A 
ATOM     82  C   UNL A   1      47.341  25.749  33.494  1.00  0.00     0.002 A 
ATOM     83  C   UNL A   1      45.365  25.117  34.708  1.00  0.00     0.091 A 
ATOM     84  F   UNL A   1      43.233  25.678  33.889  1.00  0.00    -0.205 F 
ATOM     85  C   UNL A   1      46.750  25.058  34.540  1.00  0.00     0.022 A 
BRANCH  83  86
ATOM     86  S   UNL A   1      44.678  24.477  36.240  1.00  0.00     0.127 S 
ATOM     87  O   UNL A   1      43.707  23.502  35.751  1.00  0.00    -0.237 OA
ATOM     88  O   UNL A   1      45.856  23.894  36.887  1.00  0.00    -0.237 OA
ATOM     89  O   UNL A   1      44.131  25.636  36.933  1.00  0.00    -0.744 OA
ENDBRANCH  83  86
ENDBRANCH  56  79
ENDBRANCH  30  31
ENDBRANCH  23  25
ENDBRANCH  22  23
ENDBRANCH  21  22
ENDBRANCH   1  21
TORSDOF 17
ENDMDL
MODEL 3
REMARK VINA RESULT:     -12.2      4.098      9.768
REMARK SMILES Cc1cccc(C(=O)OCCOC(=O)c2ccc(-c3c4nc(c(-c5cccc(S(=O)(=O)[O-])c5F)c5ccc([nH]5)c(-c5cccc(S(=O)(=O)[O-])c5F)c5nc(c(-c6cccc(S(=O)(=O)[O-])c6F)c6ccc3[nH]6)C=C5)C=C4)cc2)c1OC[C@@H]1C[C@H]2CC[C@@H]1C2
REMARK SMILES IDX 10 1 9 2 7 3 8 4 6 5 1 6 2 7 3 8 78 9 4 10 5 11 79 12 80 13
REMARK SMILES IDX 81 14 82 15 86 16 83 17 85 18 87 19 84 20 11 21 12 22 13 23
REMARK SMILES IDX 14 24 15 25 16 26 77 27 17 28 76 29 18 30 19 31 20 32 70 33
REMARK SMILES IDX 21 34 75 35 69 36 71 37 22 38 74 39 68 40 67 41 23 43 55 44
REMARK SMILES IDX 35 45 54 46 36 47 39 48 53 49 72 50 37 51 38 52 52 54 73 55
REMARK SMILES IDX 40 56 24 57 25 58 33 59 26 60 28 61 34 62 27 63 29 64 30 65
REMARK SMILES IDX 31 66 32 67 56 68 57 69 65 70 58 71 60 72 66 73 59 74 61 75
REMARK SMILES IDX 62 76 63 77 64 78 41 79 42 80 50 81 43 82 45 83 51 84 44 85
REMARK SMILES IDX 46 86 47 87 48 88 49 89
REMARK H PARENT 71 42 39 53
REMARK Flexibility Score: inf
ROOT
ATOM      1  C   UNL A   1      36.276  22.176  26.068  1.00  0.00     0.275 C 
ENDROOT
BRANCH   1   2
ATOM      2  O   UNL A   1      35.193  22.845  26.722  1.00  0.00    -0.458 OA
BRANCH   2   3
ATOM      3  C   UNL A   1      33.976  22.276  26.660  1.00  0.00     0.342 C 
ATOM      4  O   UNL A   1      33.413  21.681  27.565  1.00  0.00    -0.246 OA
BRANCH   3   5
ATOM      5  C   UNL A   1      33.420  22.391  25.297  1.00  0.00     0.102 A 
ATOM      6  C   UNL A   1      30.603  24.198  23.752  1.00  0.00     0.048 C 
ATOM      7  C   UNL A   1      31.907  23.449  23.795  1.00  0.00    -0.008 A 
ATOM      8  C   UNL A   1      31.966  22.314  22.956  1.00  0.00     0.007 A 
ATOM      9  C   UNL A   1      32.816  23.582  24.847  1.00  0.00     0.136 A 
ATOM     10  C   UNL A   1      32.702  21.199  23.325  1.00  0.00     0.001 A 
ATOM     11  C   UNL A   1      33.319  21.200  24.564  1.00  0.00     0.019 A 
BRANCH   9  12
ATOM     12  O   UNL A   1      33.083  24.710  25.557  1.00  0.00    -0.492 OA
BRANCH  12  13
ATOM     13  C   UNL A   1      33.428  26.000  25.007  1.00  0.00     0.233 C 
BRANCH  13  14
ATOM     14  C   UNL A   1      32.672  27.286  25.428  1.00  0.00     0.030 C 
ATOM     15  C   UNL A   1      33.325  28.564  24.800  1.00  0.00     0.011 C 
ATOM     16  C   UNL A   1      32.785  27.662  26.932  1.00  0.00    -0.004 C 
ATOM     17  C   UNL A   1      33.562  29.507  25.994  1.00  0.00    -0.010 C 
ATOM     18  C   UNL A   1      31.702  28.693  27.277  1.00  0.00     0.004 C 
ATOM     19  C   UNL A   1      34.056  28.508  27.027  1.00  0.00     0.007 C 
ATOM     20  C   UNL A   1      32.221  29.961  26.598  1.00  0.00     0.004 C 
ENDBRANCH  13  14
ENDBRANCH  12  13
ENDBRANCH   9  12
ENDBRANCH   3   5
ENDBRANCH   2   3
ENDBRANCH   1   2
BRANCH   1  21
ATOM     21  C   UNL A   1      37.469  22.975  25.485  1.00  0.00     0.275 C 
BRANCH  21  22
ATOM     22  O   UNL A   1      38.892  22.767  25.754  1.00  0.00    -0.458 OA
BRANCH  22  23
ATOM     23  C   UNL A   1      39.643  22.946  26.862  1.00  0.00     0.338 C 
ATOM     24  O   UNL A   1      40.024  22.018  27.566  1.00  0.00    -0.246 OA
BRANCH  23  25
ATOM     25  C   UNL A   1      39.862  24.329  27.252  1.00  0.00     0.060 A 
ATOM     26  C   UNL A   1      40.468  25.230  26.363  1.00  0.00     0.016 A 
ATOM     27  C   UNL A   1      39.369  24.722  28.489  1.00  0.00     0.016 A 
ATOM     28  C   UNL A   1      40.475  26.580  26.660  1.00  0.00     0.010 A 
ATOM     29  C   UNL A   1      39.258  26.058  28.727  1.00  0.00     0.010 A 
ATOM     30  C   UNL A   1      39.888  26.963  27.853  1.00  0.00    -0.014 A 
BRANCH  30  31
ATOM     31  C   UNL A   1      40.195  28.203  28.525  1.00  0.00     0.031 A 
ATOM     32  C   UNL A   1      39.284  29.339  28.469  1.00  0.00     0.074 A 
ATOM     33  C   UNL A   1      41.145  27.969  29.457  1.00  0.00     0.049 A 
ATOM     34  N   UNL A   1      39.457  30.398  29.169  1.00  0.00    -0.248 NA
ATOM     35  C   UNL A   1      38.102  29.397  27.613  1.00  0.00     0.031 C 
ATOM     36  C   UNL A   1      41.380  28.537  30.768  1.00  0.00     0.029 A 
ATOM     37  N   UNL A   1      42.177  27.044  29.324  1.00  0.00    -0.354 N 
ATOM     38  C   UNL A   1      38.294  31.130  29.103  1.00  0.00     0.074 A 
ATOM     39  C   UNL A   1      37.549  30.545  28.024  1.00  0.00     0.031 C 
ATOM     40  C   UNL A   1      42.611  28.161  31.180  1.00  0.00     0.029 A 
ATOM     41  C   UNL A   1      43.263  27.500  30.049  1.00  0.00     0.049 A 
ATOM     42  H   UNL A   1      42.140  26.209  28.804  1.00  0.00     0.167 HD
ATOM     43  C   UNL A   1      38.072  32.036  30.093  1.00  0.00     0.034 A 
ATOM     44  C   UNL A   1      44.288  28.030  29.304  1.00  0.00     0.034 A 
ATOM     45  C   UNL A   1      39.307  32.185  30.880  1.00  0.00     0.049 A 
ATOM     46  C   UNL A   1      44.355  29.535  29.493  1.00  0.00     0.074 A 
ATOM     47  C   UNL A   1      39.742  31.588  32.050  1.00  0.00     0.029 A 
ATOM     48  N   UNL A   1      40.443  32.698  30.253  1.00  0.00    -0.354 N 
ATOM     49  N   UNL A   1      43.342  30.292  29.820  1.00  0.00    -0.248 NA
ATOM     50  C   UNL A   1      45.608  30.275  29.432  1.00  0.00     0.031 C 
ATOM     51  C   UNL A   1      41.170  31.614  32.038  1.00  0.00     0.029 A 
ATOM     52  C   UNL A   1      41.597  32.255  30.884  1.00  0.00     0.049 A 
ATOM     53  H   UNL A   1      40.427  33.293  29.469  1.00  0.00     0.167 HD
ATOM     54  C   UNL A   1      43.760  31.575  30.021  1.00  0.00     0.074 A 
ATOM     55  C   UNL A   1      45.197  31.504  29.788  1.00  0.00     0.031 C 
ATOM     56  C   UNL A   1      42.914  32.602  30.349  1.00  0.00     0.034 A 
BRANCH  43  57
ATOM     57  C   UNL A   1      36.740  32.629  30.526  1.00  0.00     0.023 A 
ATOM     58  C   UNL A   1      36.317  32.309  31.840  1.00  0.00     0.012 A 
ATOM     59  C   UNL A   1      35.817  33.373  29.747  1.00  0.00     0.148 A 
ATOM     60  C   UNL A   1      35.060  32.670  32.341  1.00  0.00     0.002 A 
ATOM     61  C   UNL A   1      34.574  33.769  30.263  1.00  0.00     0.091 A 
ATOM     62  F   UNL A   1      36.094  33.665  28.476  1.00  0.00    -0.205 F 
ATOM     63  C   UNL A   1      34.189  33.406  31.555  1.00  0.00     0.022 A 
BRANCH  61  64
ATOM     64  S   UNL A   1      33.387  34.758  29.325  1.00  0.00     0.127 S 
ATOM     65  O   UNL A   1      32.421  35.138  30.356  1.00  0.00    -0.237 OA
ATOM     66  O   UNL A   1      34.215  35.860  28.835  1.00  0.00    -0.237 OA
ATOM     67  O   UNL A   1      32.861  33.889  28.280  1.00  0.00    -0.744 OA
ENDBRANCH  61  64
ENDBRANCH  43  57
BRANCH  44  68
ATOM     68  C   UNL A   1      44.488  27.297  27.989  1.00  0.00     0.023 A 
ATOM     69  C   UNL A   1      44.004  27.941  26.815  1.00  0.00     0.012 A 
ATOM     70  C   UNL A   1      45.427  26.259  27.827  1.00  0.00     0.148 A 
ATOM     71  C   UNL A   1      44.559  27.684  25.557  1.00  0.00     0.002 A 
ATOM     72  C   UNL A   1      45.956  25.987  26.557  1.00  0.00     0.091 A 
ATOM     73  F   UNL A   1      45.824  25.571  28.906  1.00  0.00    -0.205 F 
ATOM     74  C   UNL A   1      45.555  26.726  25.433  1.00  0.00     0.022 A 
BRANCH  72  75
ATOM     75  S   UNL A   1      47.285  24.788  26.331  1.00  0.00     0.127 S 
ATOM     76  O   UNL A   1      47.475  24.823  24.883  1.00  0.00    -0.237 OA
ATOM     77  O   UNL A   1      48.389  25.365  27.103  1.00  0.00    -0.237 OA
ATOM     78  O   UNL A   1      46.764  23.549  26.888  1.00  0.00    -0.744 OA
ENDBRANCH  72  75
ENDBRANCH  44  68
BRANCH  56  79
ATOM     79  C   UNL A   1      43.286  34.062  30.204  1.00  0.00     0.023 A 
ATOM     80  C   UNL A   1      43.789  34.806  31.290  1.00  0.00     0.012 A 
ATOM     81  C   UNL A   1      43.307  34.696  28.936  1.00  0.00     0.148 A 
ATOM     82  C   UNL A   1      44.180  36.138  31.160  1.00  0.00     0.002 A 
ATOM     83  C   UNL A   1      43.837  35.972  28.787  1.00  0.00     0.091 A 
ATOM     84  F   UNL A   1      42.803  34.073  27.862  1.00  0.00    -0.205 F 
ATOM     85  C   UNL A   1      44.226  36.717  29.902  1.00  0.00     0.022 A 
BRANCH  83  86
ATOM     86  S   UNL A   1      44.206  36.641  27.161  1.00  0.00     0.127 S 
ATOM     87  O   UNL A   1      44.943  37.857  27.494  1.00  0.00    -0.237 OA
ATOM     88  O   UNL A   1      45.019  35.578  26.566  1.00  0.00    -0.237 OA
ATOM     89  O   UNL A   1      42.913  36.830  26.517  1.00  0.00    -0.744 OA
ENDBRANCH  83  86
ENDBRANCH  56  79
ENDBRANCH  30  31
ENDBRANCH  23  25
ENDBRANCH  22  23
ENDBRANCH  21  22
ENDBRANCH   1  21
TORSDOF 17
ENDMDL
