MODEL 1
REMARK VINA RESULT:     -13.0      0.000      0.000
REMARK SMILES CCC(=O)N1CCC[C@](C[C@H]2CC(c3ccc(C)cc3)=NO2)(C(=O)OCCOC(=O)c2ccc(-c3c4nc(c(-c5cccc(S(=O)(=O)[O-])c5F)c5ccc([nH]5)c(-c5cccc(S(=O)(=O)[O-])c5F)c5nc(c(-c6cccc(S(=O)(=O)[O-])c6F)c6ccc3[nH]6)C=C5)C=C4)cc2)C1
REMARK SMILES IDX 26 1 25 2 23 3 24 4 9 5 5 6 6 7 94 8 7 9 8 10 3 11 4 12 2 13
REMARK SMILES IDX 1 14 10 15 11 16 12 17 22 18 13 19 21 20 14 21 15 22 20 23
REMARK SMILES IDX 16 24 19 25 17 26 18 27 27 28 28 29 29 30 30 31 31 32 32 33
REMARK SMILES IDX 93 34 33 35 92 36 34 37 35 38 36 39 86 40 37 41 91 42 85 43
REMARK SMILES IDX 87 44 38 45 90 46 84 47 83 48 39 50 71 51 51 52 70 53 52 54
REMARK SMILES IDX 55 55 69 56 88 57 53 58 54 59 68 61 89 62 56 63 40 64 41 65
REMARK SMILES IDX 49 66 42 67 44 68 50 69 43 70 45 71 46 72 47 73 48 74 72 75
REMARK SMILES IDX 73 76 81 77 74 78 76 79 82 80 75 81 77 82 78 83 79 84 80 85
REMARK SMILES IDX 57 86 58 87 66 88 59 89 61 90 67 91 60 92 62 93 63 94 64 95
REMARK SMILES IDX 65 96
REMARK H PARENT 87 49 55 60
REMARK Flexibility Score: inf
ROOT
ATOM      1  C   UNL A   1      32.093  29.924  26.551  1.00  0.00     0.274 C 
ENDROOT
BRANCH   1   2
ATOM      2  O   UNL A   1      31.881  29.595  25.169  1.00  0.00    -0.462 OA
BRANCH   2   3
ATOM      3  C   UNL A   1      31.590  28.324  24.818  1.00  0.00     0.314 C 
ATOM      4  O   UNL A   1      31.963  27.362  25.485  1.00  0.00    -0.252 OA
BRANCH   3   5
ATOM      5  C   UNL A   1      30.566  28.187  23.633  1.00  0.00     0.089 C 
ATOM      6  N   UNL A   1      28.568  29.843  23.417  1.00  0.00    -0.342 N 
ATOM      7  C   UNL A   1      27.739  28.765  22.917  1.00  0.00     0.119 C 
ATOM      8  C   UNL A   1      30.007  29.629  23.430  1.00  0.00     0.138 C 
ATOM      9  C   UNL A   1      28.021  27.444  23.590  1.00  0.00     0.023 C 
ATOM     10  C   UNL A   1      29.488  27.093  23.833  1.00  0.00     0.022 C 
BRANCH   6  11
ATOM     11  C   UNL A   1      27.998  31.116  23.288  1.00  0.00     0.222 C 
ATOM     12  O   UNL A   1      26.946  31.406  23.881  1.00  0.00    -0.275 OA
BRANCH  11  13
ATOM     13  C   UNL A   1      28.701  32.249  22.529  1.00  0.00     0.097 C 
ATOM     14  C   UNL A   1      29.077  33.556  23.181  1.00  0.00     0.014 C 
ENDBRANCH  11  13
ENDBRANCH   6  11
BRANCH   5  15
ATOM     15  C   UNL A   1      31.590  27.749  22.515  1.00  0.00     0.069 C 
BRANCH  15  16
ATOM     16  C   UNL A   1      31.879  26.311  22.077  1.00  0.00     0.212 C 
ATOM     17  C   UNL A   1      33.306  25.816  22.087  1.00  0.00     0.108 C 
ATOM     18  O   UNL A   1      31.107  25.349  22.792  1.00  0.00    -0.392 OA
ATOM     19  C   UNL A   1      33.198  24.842  23.198  1.00  0.00     0.091 C 
ATOM     20  N   UNL A   1      31.985  24.510  23.507  1.00  0.00    -0.090 NA
BRANCH  19  21
ATOM     21  C   UNL A   1      34.387  24.238  23.836  1.00  0.00    -0.001 A 
ATOM     22  C   UNL A   1      35.227  23.363  23.141  1.00  0.00     0.010 A 
ATOM     23  C   UNL A   1      34.705  24.612  25.143  1.00  0.00     0.010 A 
ATOM     24  C   UNL A   1      36.391  22.884  23.748  1.00  0.00     0.004 A 
ATOM     25  C   UNL A   1      35.850  24.103  25.761  1.00  0.00     0.004 A 
ATOM     26  C   UNL A   1      36.710  23.248  25.061  1.00  0.00    -0.051 A 
ATOM     27  C   UNL A   1      37.936  22.695  25.727  1.00  0.00     0.044 C 
ENDBRANCH  19  21
ENDBRANCH  15  16
ENDBRANCH   5  15
ENDBRANCH   3   5
ENDBRANCH   2   3
ENDBRANCH   1   2
BRANCH   1  28
ATOM     28  C   UNL A   1      33.361  30.644  27.092  1.00  0.00     0.275 C 
BRANCH  28  29
ATOM     29  O   UNL A   1      34.446  29.970  27.780  1.00  0.00    -0.458 OA
BRANCH  29  30
ATOM     30  C   UNL A   1      35.462  30.515  28.503  1.00  0.00     0.338 C 
ATOM     31  O   UNL A   1      35.354  31.495  29.200  1.00  0.00    -0.246 OA
BRANCH  30  32
ATOM     32  C   UNL A   1      36.705  29.754  28.440  1.00  0.00     0.060 A 
ATOM     33  C   UNL A   1      37.458  29.821  27.266  1.00  0.00     0.016 A 
ATOM     34  C   UNL A   1      37.180  29.164  29.606  1.00  0.00     0.016 A 
ATOM     35  C   UNL A   1      38.773  29.407  27.302  1.00  0.00     0.010 A 
ATOM     36  C   UNL A   1      38.516  28.865  29.669  1.00  0.00     0.010 A 
ATOM     37  C   UNL A   1      39.309  28.995  28.516  1.00  0.00    -0.014 A 
BRANCH  37  38
ATOM     38  C   UNL A   1      40.577  28.303  28.580  1.00  0.00     0.031 A 
ATOM     39  C   UNL A   1      40.705  26.846  28.398  1.00  0.00     0.074 A 
ATOM     40  C   UNL A   1      41.572  29.216  28.647  1.00  0.00     0.049 A 
ATOM     41  N   UNL A   1      41.670  26.163  28.905  1.00  0.00    -0.248 NA
ATOM     42  C   UNL A   1      39.734  25.996  27.697  1.00  0.00     0.031 C 
ATOM     43  C   UNL A   1      42.957  29.137  28.257  1.00  0.00     0.029 A 
ATOM     44  N   UNL A   1      41.440  30.507  29.195  1.00  0.00    -0.354 N 
ATOM     45  C   UNL A   1      41.654  24.914  28.311  1.00  0.00     0.074 A 
ATOM     46  C   UNL A   1      40.351  24.802  27.703  1.00  0.00     0.031 C 
ATOM     47  C   UNL A   1      43.604  30.213  28.756  1.00  0.00     0.029 A 
ATOM     48  C   UNL A   1      42.687  30.941  29.631  1.00  0.00     0.049 A 
ATOM     49  H   UNL A   1      40.601  31.017  29.260  1.00  0.00     0.167 HD
ATOM     50  C   UNL A   1      42.834  24.239  28.192  1.00  0.00     0.034 A 
ATOM     51  C   UNL A   1      42.906  31.302  30.932  1.00  0.00     0.034 A 
ATOM     52  C   UNL A   1      43.912  25.072  28.739  1.00  0.00     0.049 A 
ATOM     53  C   UNL A   1      43.758  30.200  31.590  1.00  0.00     0.074 A 
ATOM     54  C   UNL A   1      44.709  26.018  28.112  1.00  0.00     0.029 A 
ATOM     55  N   UNL A   1      44.008  25.309  30.103  1.00  0.00    -0.354 N 
ATOM     56  N   UNL A   1      43.987  29.027  31.063  1.00  0.00    -0.248 NA
ATOM     57  C   UNL A   1      44.366  30.327  32.912  1.00  0.00     0.031 C 
ATOM     58  C   UNL A   1      45.222  26.883  29.105  1.00  0.00     0.029 A 
ATOM     59  C   UNL A   1      44.752  26.458  30.336  1.00  0.00     0.049 A 
ATOM     60  H   UNL A   1      43.608  24.745  30.804  1.00  0.00     0.167 HD
ATOM     61  C   UNL A   1      44.663  28.235  31.953  1.00  0.00     0.074 A 
ATOM     62  C   UNL A   1      44.881  29.102  33.097  1.00  0.00     0.031 C 
ATOM     63  C   UNL A   1      44.982  26.930  31.692  1.00  0.00     0.034 A 
BRANCH  50  64
ATOM     64  C   UNL A   1      43.128  23.090  27.232  1.00  0.00     0.023 A 
ATOM     65  C   UNL A   1      43.950  23.403  26.119  1.00  0.00     0.012 A 
ATOM     66  C   UNL A   1      42.656  21.759  27.298  1.00  0.00     0.148 A 
ATOM     67  C   UNL A   1      44.213  22.506  25.083  1.00  0.00     0.002 A 
ATOM     68  C   UNL A   1      42.912  20.857  26.249  1.00  0.00     0.091 A 
ATOM     69  F   UNL A   1      41.990  21.352  28.386  1.00  0.00    -0.205 F 
ATOM     70  C   UNL A   1      43.677  21.235  25.137  1.00  0.00     0.022 A 
BRANCH  68  71
ATOM     71  S   UNL A   1      42.265  19.174  26.194  1.00  0.00     0.127 S 
ATOM     72  O   UNL A   1      43.119  18.550  25.182  1.00  0.00    -0.237 OA
ATOM     73  O   UNL A   1      42.499  18.700  27.557  1.00  0.00    -0.237 OA
ATOM     74  O   UNL A   1      40.864  19.292  25.808  1.00  0.00    -0.744 OA
ENDBRANCH  68  71
ENDBRANCH  50  64
BRANCH  51  75
ATOM     75  C   UNL A   1      41.729  31.954  31.641  1.00  0.00     0.023 A 
ATOM     76  C   UNL A   1      40.916  32.913  30.972  1.00  0.00     0.012 A 
ATOM     77  C   UNL A   1      41.171  31.318  32.738  1.00  0.00     0.148 A 
ATOM     78  C   UNL A   1      39.538  33.002  31.229  1.00  0.00     0.002 A 
ATOM     79  C   UNL A   1      39.800  31.245  32.837  1.00  0.00     0.091 A 
ATOM     80  F   UNL A   1      41.917  30.647  33.618  1.00  0.00    -0.205 F 
ATOM     81  C   UNL A   1      38.961  32.096  32.109  1.00  0.00     0.022 A 
BRANCH  79  82
ATOM     82  S   UNL A   1      39.222  29.628  33.360  1.00  0.00     0.127 S 
ATOM     83  O   UNL A   1      40.025  28.765  32.508  1.00  0.00    -0.237 OA
ATOM     84  O   UNL A   1      39.618  29.586  34.762  1.00  0.00    -0.237 OA
ATOM     85  O   UNL A   1      37.796  29.683  33.071  1.00  0.00    -0.744 OA
ENDBRANCH  79  82
ENDBRANCH  51  75
BRANCH  63  86
ATOM     86  C   UNL A   1      45.649  25.993  32.671  1.00  0.00     0.023 A 
ATOM     87  C   UNL A   1      47.046  25.912  32.804  1.00  0.00     0.012 A 
ATOM     88  C   UNL A   1      44.869  25.222  33.573  1.00  0.00     0.148 A 
ATOM     89  C   UNL A   1      47.643  25.014  33.693  1.00  0.00     0.002 A 
ATOM     90  C   UNL A   1      45.470  24.435  34.547  1.00  0.00     0.091 A 
ATOM     91  F   UNL A   1      43.532  25.220  33.474  1.00  0.00    -0.205 F 
ATOM     92  C   UNL A   1      46.856  24.286  34.575  1.00  0.00     0.022 A 
BRANCH  90  93
ATOM     93  S   UNL A   1      44.503  23.708  35.875  1.00  0.00     0.127 S 
ATOM     94  O   UNL A   1      43.827  22.607  35.193  1.00  0.00    -0.237 OA
ATOM     95  O   UNL A   1      45.539  23.294  36.823  1.00  0.00    -0.237 OA
ATOM     96  O   UNL A   1      43.648  24.782  36.363  1.00  0.00    -0.744 OA
ENDBRANCH  90  93
ENDBRANCH  63  86
ENDBRANCH  37  38
ENDBRANCH  30  32
ENDBRANCH  29  30
ENDBRANCH  28  29
ENDBRANCH   1  28
TORSDOF 19
ENDMDL
MODEL 2
REMARK VINA RESULT:     -12.7      2.056      2.474
REMARK SMILES CCC(=O)N1CCC[C@](C[C@H]2CC(c3ccc(C)cc3)=NO2)(C(=O)OCCOC(=O)c2ccc(-c3c4nc(c(-c5cccc(S(=O)(=O)[O-])c5F)c5ccc([nH]5)c(-c5cccc(S(=O)(=O)[O-])c5F)c5nc(c(-c6cccc(S(=O)(=O)[O-])c6F)c6ccc3[nH]6)C=C5)C=C4)cc2)C1
REMARK SMILES IDX 26 1 25 2 23 3 24 4 9 5 5 6 6 7 94 8 7 9 8 10 3 11 4 12 2 13
REMARK SMILES IDX 1 14 10 15 11 16 12 17 22 18 13 19 21 20 14 21 15 22 20 23
REMARK SMILES IDX 16 24 19 25 17 26 18 27 27 28 28 29 29 30 30 31 31 32 32 33
REMARK SMILES IDX 93 34 33 35 92 36 34 37 35 38 36 39 86 40 37 41 91 42 85 43
REMARK SMILES IDX 87 44 38 45 90 46 84 47 83 48 39 50 71 51 51 52 70 53 52 54
REMARK SMILES IDX 55 55 69 56 88 57 53 58 54 59 68 61 89 62 56 63 40 64 41 65
REMARK SMILES IDX 49 66 42 67 44 68 50 69 43 70 45 71 46 72 47 73 48 74 72 75
REMARK SMILES IDX 73 76 81 77 74 78 76 79 82 80 75 81 77 82 78 83 79 84 80 85
REMARK SMILES IDX 57 86 58 87 66 88 59 89 61 90 67 91 60 92 62 93 63 94 64 95
REMARK SMILES IDX 65 96
REMARK H PARENT 87 49 55 60
REMARK Flexibility Score: inf
ROOT
ATOM      1  C   UNL A   1      32.558  29.948  26.938  1.00  0.00     0.274 C 
ENDROOT
BRANCH   1   2
ATOM      2  O   UNL A   1      32.105  29.583  25.624  1.00  0.00    -0.462 OA
BRANCH   2   3
ATOM      3  C   UNL A   1      31.486  28.399  25.431  1.00  0.00     0.314 C 
ATOM      4  O   UNL A   1      31.381  27.564  26.327  1.00  0.00    -0.252 OA
BRANCH   3   5
ATOM      5  C   UNL A   1      30.730  28.268  24.060  1.00  0.00     0.089 C 
ATOM      6  N   UNL A   1      28.720  29.828  23.506  1.00  0.00    -0.342 N 
ATOM      7  C   UNL A   1      28.074  28.735  22.809  1.00  0.00     0.119 C 
ATOM      8  C   UNL A   1      30.138  29.687  23.802  1.00  0.00     0.138 C 
ATOM      9  C   UNL A   1      28.294  27.398  23.475  1.00  0.00     0.023 C 
ATOM     10  C   UNL A   1      29.702  27.111  23.997  1.00  0.00     0.022 C 
BRANCH   6  11
ATOM     11  C   UNL A   1      28.112  31.075  23.312  1.00  0.00     0.222 C 
ATOM     12  O   UNL A   1      27.047  31.360  23.883  1.00  0.00    -0.275 OA
BRANCH  11  13
ATOM     13  C   UNL A   1      28.786  32.192  22.504  1.00  0.00     0.097 C 
ATOM     14  C   UNL A   1      29.289  33.465  23.138  1.00  0.00     0.014 C 
ENDBRANCH  11  13
ENDBRANCH   6  11
BRANCH   5  15
ATOM     15  C   UNL A   1      31.981  27.937  23.156  1.00  0.00     0.069 C 
BRANCH  15  16
ATOM     16  C   UNL A   1      32.256  26.602  22.458  1.00  0.00     0.212 C 
ATOM     17  C   UNL A   1      33.668  26.069  22.429  1.00  0.00     0.108 C 
ATOM     18  O   UNL A   1      31.427  25.547  22.937  1.00  0.00    -0.392 OA
ATOM     19  C   UNL A   1      33.484  24.901  23.323  1.00  0.00     0.091 C 
ATOM     20  N   UNL A   1      32.250  24.555  23.510  1.00  0.00    -0.090 NA
BRANCH  19  21
ATOM     21  C   UNL A   1      34.626  24.145  23.879  1.00  0.00    -0.001 A 
ATOM     22  C   UNL A   1      35.319  23.199  23.118  1.00  0.00     0.010 A 
ATOM     23  C   UNL A   1      35.056  24.443  25.174  1.00  0.00     0.010 A 
ATOM     24  C   UNL A   1      36.451  22.571  23.648  1.00  0.00     0.004 A 
ATOM     25  C   UNL A   1      36.164  23.787  25.714  1.00  0.00     0.004 A 
ATOM     26  C   UNL A   1      36.880  22.859  24.949  1.00  0.00    -0.051 A 
ATOM     27  C   UNL A   1      38.066  22.149  25.532  1.00  0.00     0.044 C 
ENDBRANCH  19  21
ENDBRANCH  15  16
ENDBRANCH   5  15
ENDBRANCH   3   5
ENDBRANCH   2   3
ENDBRANCH   1   2
BRANCH   1  28
ATOM     28  C   UNL A   1      33.882  30.711  27.225  1.00  0.00     0.275 C 
BRANCH  28  29
ATOM     29  O   UNL A   1      35.069  30.095  27.787  1.00  0.00    -0.458 OA
BRANCH  29  30
ATOM     30  C   UNL A   1      36.299  30.644  27.983  1.00  0.00     0.338 C 
ATOM     31  O   UNL A   1      36.499  31.820  28.166  1.00  0.00    -0.246 OA
BRANCH  30  32
ATOM     32  C   UNL A   1      37.378  29.664  28.044  1.00  0.00     0.060 A 
ATOM     33  C   UNL A   1      38.310  29.646  27.004  1.00  0.00     0.016 A 
ATOM     34  C   UNL A   1      37.545  28.936  29.217  1.00  0.00     0.016 A 
ATOM     35  C   UNL A   1      39.505  28.988  27.201  1.00  0.00     0.010 A 
ATOM     36  C   UNL A   1      38.778  28.386  29.454  1.00  0.00     0.010 A 
ATOM     37  C   UNL A   1      39.756  28.421  28.445  1.00  0.00    -0.014 A 
BRANCH  37  38
ATOM     38  C   UNL A   1      40.852  27.498  28.641  1.00  0.00     0.031 A 
ATOM     39  C   UNL A   1      40.734  26.049  28.393  1.00  0.00     0.074 A 
ATOM     40  C   UNL A   1      41.977  28.201  28.897  1.00  0.00     0.049 A 
ATOM     41  N   UNL A   1      41.473  25.179  28.986  1.00  0.00    -0.248 NA
ATOM     42  C   UNL A   1      39.735  25.423  27.517  1.00  0.00     0.031 C 
ATOM     43  C   UNL A   1      43.366  27.871  28.696  1.00  0.00     0.029 A 
ATOM     44  N   UNL A   1      42.008  29.475  29.496  1.00  0.00    -0.354 N 
ATOM     45  C   UNL A   1      41.313  23.976  28.323  1.00  0.00     0.074 A 
ATOM     46  C   UNL A   1      40.114  24.134  27.537  1.00  0.00     0.031 C 
ATOM     47  C   UNL A   1      44.121  28.788  29.340  1.00  0.00     0.029 A 
ATOM     48  C   UNL A   1      43.237  29.649  30.124  1.00  0.00     0.049 A 
ATOM     49  H   UNL A   1      41.277  30.134  29.476  1.00  0.00     0.167 HD
ATOM     50  C   UNL A   1      42.353  23.091  28.326  1.00  0.00     0.034 A 
ATOM     51  C   UNL A   1      43.327  29.920  31.462  1.00  0.00     0.034 A 
ATOM     52  C   UNL A   1      43.475  23.685  29.064  1.00  0.00     0.049 A 
ATOM     53  C   UNL A   1      43.856  28.655  32.164  1.00  0.00     0.074 A 
ATOM     54  C   UNL A   1      44.515  24.481  28.608  1.00  0.00     0.029 A 
ATOM     55  N   UNL A   1      43.414  23.856  30.440  1.00  0.00    -0.354 N 
ATOM     56  N   UNL A   1      43.939  27.477  31.605  1.00  0.00    -0.248 NA
ATOM     57  C   UNL A   1      44.278  28.622  33.562  1.00  0.00     0.031 C 
ATOM     58  C   UNL A   1      45.028  25.200  29.712  1.00  0.00     0.029 A 
ATOM     59  C   UNL A   1      44.315  24.834  30.840  1.00  0.00     0.049 A 
ATOM     60  H   UNL A   1      42.819  23.357  31.045  1.00  0.00     0.167 HD
ATOM     61  C   UNL A   1      44.321  26.543  32.531  1.00  0.00     0.074 A 
ATOM     62  C   UNL A   1      44.526  27.316  33.742  1.00  0.00     0.031 C 
ATOM     63  C   UNL A   1      44.428  25.210  32.240  1.00  0.00     0.034 A 
BRANCH  50  64
ATOM     64  C   UNL A   1      42.566  21.939  27.351  1.00  0.00     0.023 A 
ATOM     65  C   UNL A   1      41.755  20.793  27.554  1.00  0.00     0.012 A 
ATOM     66  C   UNL A   1      43.494  21.859  26.287  1.00  0.00     0.148 A 
ATOM     67  C   UNL A   1      41.906  19.608  26.833  1.00  0.00     0.002 A 
ATOM     68  C   UNL A   1      43.656  20.662  25.567  1.00  0.00     0.091 A 
ATOM     69  F   UNL A   1      44.198  22.947  25.948  1.00  0.00    -0.205 F 
ATOM     70  C   UNL A   1      42.873  19.533  25.850  1.00  0.00     0.022 A 
BRANCH  68  71
ATOM     71  S   UNL A   1      44.884  20.431  24.267  1.00  0.00     0.127 S 
ATOM     72  O   UNL A   1      46.135  20.711  24.974  1.00  0.00    -0.237 OA
ATOM     73  O   UNL A   1      44.698  19.028  23.901  1.00  0.00    -0.237 OA
ATOM     74  O   UNL A   1      44.555  21.395  23.224  1.00  0.00    -0.744 OA
ENDBRANCH  68  71
ENDBRANCH  50  64
BRANCH  51  75
ATOM     75  C   UNL A   1      42.200  30.762  32.040  1.00  0.00     0.023 A 
ATOM     76  C   UNL A   1      41.218  30.180  32.890  1.00  0.00     0.012 A 
ATOM     77  C   UNL A   1      42.366  32.135  32.124  1.00  0.00     0.148 A 
ATOM     78  C   UNL A   1      40.652  30.907  33.951  1.00  0.00     0.002 A 
ATOM     79  C   UNL A   1      41.988  32.779  33.281  1.00  0.00     0.091 A 
ATOM     80  F   UNL A   1      43.014  32.825  31.184  1.00  0.00    -0.205 F 
ATOM     81  C   UNL A   1      41.110  32.194  34.199  1.00  0.00     0.022 A 
BRANCH  79  82
ATOM     82  S   UNL A   1      43.184  34.005  33.820  1.00  0.00     0.127 S 
ATOM     83  O   UNL A   1      42.767  34.202  35.198  1.00  0.00    -0.237 OA
ATOM     84  O   UNL A   1      44.449  33.292  33.695  1.00  0.00    -0.237 OA
ATOM     85  O   UNL A   1      42.950  35.112  32.905  1.00  0.00    -0.744 OA
ENDBRANCH  79  82
ENDBRANCH  51  75
BRANCH  63  86
ATOM     86  C   UNL A   1      44.761  24.132  33.244  1.00  0.00     0.023 A 
ATOM     87  C   UNL A   1      43.808  23.203  33.696  1.00  0.00     0.012 A 
ATOM     88  C   UNL A   1      46.095  23.959  33.696  1.00  0.00     0.148 A 
ATOM     89  C   UNL A   1      44.129  22.234  34.650  1.00  0.00     0.002 A 
ATOM     90  C   UNL A   1      46.435  22.908  34.539  1.00  0.00     0.091 A 
ATOM     91  F   UNL A   1      47.046  24.834  33.338  1.00  0.00    -0.205 F 
ATOM     92  C   UNL A   1      45.445  22.076  35.062  1.00  0.00     0.022 A 
BRANCH  90  93
ATOM     93  S   UNL A   1      48.155  22.502  34.864  1.00  0.00     0.127 S 
ATOM     94  O   UNL A   1      48.251  22.712  36.307  1.00  0.00    -0.237 OA
ATOM     95  O   UNL A   1      48.228  21.101  34.446  1.00  0.00    -0.237 OA
ATOM     96  O   UNL A   1      48.931  23.411  34.030  1.00  0.00    -0.744 OA
ENDBRANCH  90  93
ENDBRANCH  63  86
ENDBRANCH  37  38
ENDBRANCH  30  32
ENDBRANCH  29  30
ENDBRANCH  28  29
ENDBRANCH   1  28
TORSDOF 19
ENDMDL
MODEL 3
REMARK VINA RESULT:     -12.6      2.388      3.823
REMARK SMILES CCC(=O)N1CCC[C@](C[C@H]2CC(c3ccc(C)cc3)=NO2)(C(=O)OCCOC(=O)c2ccc(-c3c4nc(c(-c5cccc(S(=O)(=O)[O-])c5F)c5ccc([nH]5)c(-c5cccc(S(=O)(=O)[O-])c5F)c5nc(c(-c6cccc(S(=O)(=O)[O-])c6F)c6ccc3[nH]6)C=C5)C=C4)cc2)C1
REMARK SMILES IDX 26 1 25 2 23 3 24 4 9 5 5 6 6 7 94 8 7 9 8 10 3 11 4 12 2 13
REMARK SMILES IDX 1 14 10 15 11 16 12 17 22 18 13 19 21 20 14 21 15 22 20 23
REMARK SMILES IDX 16 24 19 25 17 26 18 27 27 28 28 29 29 30 30 31 31 32 32 33
REMARK SMILES IDX 93 34 33 35 92 36 34 37 35 38 36 39 86 40 37 41 91 42 85 43
REMARK SMILES IDX 87 44 38 45 90 46 84 47 83 48 39 50 71 51 51 52 70 53 52 54
REMARK SMILES IDX 55 55 69 56 88 57 53 58 54 59 68 61 89 62 56 63 40 64 41 65
REMARK SMILES IDX 49 66 42 67 44 68 50 69 43 70 45 71 46 72 47 73 48 74 72 75
REMARK SMILES IDX 73 76 81 77 74 78 76 79 82 80 75 81 77 82 78 83 79 84 80 85
REMARK SMILES IDX 57 86 58 87 66 88 59 89 61 90 67 91 60 92 62 93 63 94 64 95
REMARK SMILES IDX 65 96
REMARK H PARENT 87 49 55 60
REMARK Flexibility Score: inf
ROOT
ATOM      1  C   UNL A   1      33.173  29.961  26.100  1.00  0.00     0.274 C 
ENDROOT
BRANCH   1   2
ATOM      2  O   UNL A   1      32.602  28.765  25.545  1.00  0.00    -0.462 OA
BRANCH   2   3
ATOM      3  C   UNL A   1      32.704  28.523  24.220  1.00  0.00     0.314 C 
ATOM      4  O   UNL A   1      33.244  29.317  23.453  1.00  0.00    -0.252 OA
BRANCH   3   5
ATOM      5  C   UNL A   1      32.282  27.074  23.782  1.00  0.00     0.089 C 
ATOM      6  N   UNL A   1      34.061  25.180  23.602  1.00  0.00    -0.342 N 
ATOM      7  C   UNL A   1      33.353  24.635  22.462  1.00  0.00     0.119 C 
ATOM      8  C   UNL A   1      33.351  26.143  24.432  1.00  0.00     0.138 C 
ATOM      9  C   UNL A   1      32.769  25.700  21.566  1.00  0.00     0.023 C 
ATOM     10  C   UNL A   1      32.098  26.889  22.255  1.00  0.00     0.022 C 
BRANCH   6  11
ATOM     11  C   UNL A   1      35.065  24.346  24.110  1.00  0.00     0.222 C 
ATOM     12  O   UNL A   1      35.527  24.526  25.248  1.00  0.00    -0.275 OA
BRANCH  11  13
ATOM     13  C   UNL A   1      35.549  23.102  23.354  1.00  0.00     0.097 C 
ATOM     14  C   UNL A   1      36.639  22.202  23.880  1.00  0.00     0.014 C 
ENDBRANCH  11  13
ENDBRANCH   6  11
BRANCH   5  15
ATOM     15  C   UNL A   1      30.884  27.028  24.511  1.00  0.00     0.069 C 
BRANCH  15  16
ATOM     16  C   UNL A   1      30.247  25.792  25.152  1.00  0.00     0.212 C 
ATOM     17  C   UNL A   1      30.462  24.442  24.511  1.00  0.00     0.108 C 
ATOM     18  O   UNL A   1      30.582  25.649  26.530  1.00  0.00    -0.392 OA
ATOM     19  C   UNL A   1      31.315  23.829  25.556  1.00  0.00     0.091 C 
ATOM     20  N   UNL A   1      31.290  24.442  26.698  1.00  0.00    -0.090 NA
BRANCH  19  21
ATOM     21  C   UNL A   1      32.060  22.573  25.331  1.00  0.00    -0.001 A 
ATOM     22  C   UNL A   1      32.840  21.994  26.336  1.00  0.00     0.010 A 
ATOM     23  C   UNL A   1      31.919  21.925  24.102  1.00  0.00     0.010 A 
ATOM     24  C   UNL A   1      33.456  20.758  26.115  1.00  0.00     0.004 A 
ATOM     25  C   UNL A   1      32.566  20.709  23.871  1.00  0.00     0.004 A 
ATOM     26  C   UNL A   1      33.326  20.109  24.882  1.00  0.00    -0.051 A 
ATOM     27  C   UNL A   1      34.027  18.806  24.632  1.00  0.00     0.044 C 
ENDBRANCH  19  21
ENDBRANCH  15  16
ENDBRANCH   5  15
ENDBRANCH   3   5
ENDBRANCH   2   3
ENDBRANCH   1   2
BRANCH   1  28
ATOM     28  C   UNL A   1      33.808  30.049  27.516  1.00  0.00     0.275 C 
BRANCH  28  29
ATOM     29  O   UNL A   1      34.976  30.848  27.835  1.00  0.00    -0.458 OA
BRANCH  29  30
ATOM     30  C   UNL A   1      35.746  30.819  28.957  1.00  0.00     0.338 C 
ATOM     31  O   UNL A   1      35.465  31.376  29.990  1.00  0.00    -0.246 OA
BRANCH  30  32
ATOM     32  C   UNL A   1      36.925  29.969  28.841  1.00  0.00     0.060 A 
ATOM     33  C   UNL A   1      37.552  29.879  27.596  1.00  0.00     0.016 A 
ATOM     34  C   UNL A   1      37.484  29.451  30.004  1.00  0.00     0.016 A 
ATOM     35  C   UNL A   1      38.834  29.377  27.538  1.00  0.00     0.010 A 
ATOM     36  C   UNL A   1      38.799  29.065  29.960  1.00  0.00     0.010 A 
ATOM     37  C   UNL A   1      39.471  29.036  28.726  1.00  0.00    -0.014 A 
BRANCH  37  38
ATOM     38  C   UNL A   1      40.693  28.264  28.727  1.00  0.00     0.031 A 
ATOM     39  C   UNL A   1      40.714  26.796  28.591  1.00  0.00     0.074 A 
ATOM     40  C   UNL A   1      41.746  29.111  28.691  1.00  0.00     0.049 A 
ATOM     41  N   UNL A   1      41.668  26.068  29.054  1.00  0.00    -0.248 NA
ATOM     42  C   UNL A   1      39.643  25.990  27.991  1.00  0.00     0.031 C 
ATOM     43  C   UNL A   1      43.093  28.927  28.209  1.00  0.00     0.029 A 
ATOM     44  N   UNL A   1      41.737  30.424  29.199  1.00  0.00    -0.354 N 
ATOM     45  C   UNL A   1      41.529  24.804  28.509  1.00  0.00     0.074 A 
ATOM     46  C   UNL A   1      40.182  24.759  27.998  1.00  0.00     0.031 C 
ATOM     47  C   UNL A   1      43.840  29.973  28.621  1.00  0.00     0.029 A 
ATOM     48  C   UNL A   1      43.038  30.789  29.531  1.00  0.00     0.049 A 
ATOM     49  H   UNL A   1      40.939  30.991  29.303  1.00  0.00     0.167 HD
ATOM     50  C   UNL A   1      42.652  24.048  28.333  1.00  0.00     0.034 A 
ATOM     51  C   UNL A   1      43.372  31.176  30.799  1.00  0.00     0.034 A 
ATOM     52  C   UNL A   1      43.818  24.825  28.773  1.00  0.00     0.049 A 
ATOM     53  C   UNL A   1      44.197  30.042  31.436  1.00  0.00     0.074 A 
ATOM     54  C   UNL A   1      44.626  25.695  28.057  1.00  0.00     0.029 A 
ATOM     55  N   UNL A   1      44.027  25.100  30.117  1.00  0.00    -0.354 N 
ATOM     56  N   UNL A   1      44.312  28.840  30.939  1.00  0.00    -0.248 NA
ATOM     57  C   UNL A   1      44.905  30.172  32.707  1.00  0.00     0.031 C 
ATOM     58  C   UNL A   1      45.263  26.556  28.980  1.00  0.00     0.029 A 
ATOM     59  C   UNL A   1      44.857  26.204  30.255  1.00  0.00     0.049 A 
ATOM     60  H   UNL A   1      43.642  24.587  30.865  1.00  0.00     0.167 HD
ATOM     61  C   UNL A   1      44.998  28.034  31.808  1.00  0.00     0.074 A 
ATOM     62  C   UNL A   1      45.352  28.922  32.900  1.00  0.00     0.031 C 
ATOM     63  C   UNL A   1      45.214  26.703  31.574  1.00  0.00     0.034 A 
BRANCH  50  64
ATOM     64  C   UNL A   1      42.802  22.852  27.399  1.00  0.00     0.023 A 
ATOM     65  C   UNL A   1      42.000  21.722  27.701  1.00  0.00     0.012 A 
ATOM     66  C   UNL A   1      43.666  22.719  26.288  1.00  0.00     0.148 A 
ATOM     67  C   UNL A   1      42.103  20.505  27.026  1.00  0.00     0.002 A 
ATOM     68  C   UNL A   1      43.779  21.489  25.613  1.00  0.00     0.091 A 
ATOM     69  F   UNL A   1      44.353  23.785  25.859  1.00  0.00    -0.205 F 
ATOM     70  C   UNL A   1      43.009  20.380  25.992  1.00  0.00     0.022 A 
BRANCH  68  71
ATOM     71  S   UNL A   1      44.928  21.193  24.255  1.00  0.00     0.127 S 
ATOM     72  O   UNL A   1      44.603  19.817  23.873  1.00  0.00    -0.237 OA
ATOM     73  O   UNL A   1      44.526  22.202  23.276  1.00  0.00    -0.237 OA
ATOM     74  O   UNL A   1      46.264  21.362  24.811  1.00  0.00    -0.744 OA
ENDBRANCH  68  71
ENDBRANCH  50  64
BRANCH  51  75
ATOM     75  C   UNL A   1      42.293  31.928  31.563  1.00  0.00     0.023 A 
ATOM     76  C   UNL A   1      41.397  31.237  32.428  1.00  0.00     0.012 A 
ATOM     77  C   UNL A   1      42.451  33.287  31.783  1.00  0.00     0.148 A 
ATOM     78  C   UNL A   1      40.921  31.834  33.608  1.00  0.00     0.002 A 
ATOM     79  C   UNL A   1      42.172  33.794  33.032  1.00  0.00     0.091 A 
ATOM     80  F   UNL A   1      43.005  34.088  30.870  1.00  0.00    -0.205 F 
ATOM     81  C   UNL A   1      41.387  33.095  33.955  1.00  0.00     0.022 A 
BRANCH  79  82
ATOM     82  S   UNL A   1      43.399  34.978  33.595  1.00  0.00     0.127 S 
ATOM     83  O   UNL A   1      43.030  36.144  32.809  1.00  0.00    -0.237 OA
ATOM     84  O   UNL A   1      43.085  35.113  35.011  1.00  0.00    -0.237 OA
ATOM     85  O   UNL A   1      44.657  34.332  33.249  1.00  0.00    -0.744 OA
ENDBRANCH  79  82
ENDBRANCH  51  75
BRANCH  63  86
ATOM     86  C   UNL A   1      45.888  25.756  32.538  1.00  0.00     0.023 A 
ATOM     87  C   UNL A   1      47.285  25.680  32.665  1.00  0.00     0.012 A 
ATOM     88  C   UNL A   1      45.115  24.970  33.432  1.00  0.00     0.148 A 
ATOM     89  C   UNL A   1      47.890  24.773  33.540  1.00  0.00     0.002 A 
ATOM     90  C   UNL A   1      45.722  24.173  34.393  1.00  0.00     0.091 A 
ATOM     91  F   UNL A   1      43.777  24.963  33.337  1.00  0.00    -0.205 F 
ATOM     92  C   UNL A   1      47.110  24.029  34.415  1.00  0.00     0.022 A 
BRANCH  90  93
ATOM     93  S   UNL A   1      44.763  23.424  35.715  1.00  0.00     0.127 S 
ATOM     94  O   UNL A   1      45.791  22.716  36.475  1.00  0.00    -0.237 OA
ATOM     95  O   UNL A   1      44.201  24.594  36.393  1.00  0.00    -0.237 OA
ATOM     96  O   UNL A   1      43.771  22.591  35.048  1.00  0.00    -0.744 OA
ENDBRANCH  90  93
ENDBRANCH  63  86
ENDBRANCH  37  38
ENDBRANCH  30  32
ENDBRANCH  29  30
ENDBRANCH  28  29
ENDBRANCH   1  28
TORSDOF 19
ENDMDL
