MODEL 1
REMARK VINA RESULT:     -12.4      0.000      0.000
REMARK SMILES O=C(OCCOC(=O)[C@@H]1[C@H](C(=O)Nc2ccc(Cn3cncn3)cc2)[C@@H]2C=C[C@H]1CC2)c1ccc(-c2c3nc(c(-c4cccc(S(=O)(=O)[O-])c4F)c4ccc([nH]4)c(-c4cccc(S(=O)(=O)[O-])c4F)c4nc(c(-c5cccc(S(=O)(=O)[O-])c5F)c5ccc2[nH]5)C=C4)C=C3)cc1
REMARK SMILES IDX 5 1 4 2 3 3 2 4 1 5 32 6 33 7 94 8 34 9 93 10 35 11 36 12
REMARK SMILES IDX 37 13 87 14 38 15 92 16 86 17 88 18 39 19 91 20 85 21 84 22
REMARK SMILES IDX 40 24 72 25 52 26 71 27 53 28 56 29 70 30 89 31 54 32 55 33
REMARK SMILES IDX 69 35 90 36 57 37 41 38 42 39 50 40 43 41 45 42 51 43 44 44
REMARK SMILES IDX 46 45 47 46 48 47 49 48 73 49 74 50 82 51 75 52 77 53 83 54
REMARK SMILES IDX 76 55 78 56 79 57 80 58 81 59 58 60 59 61 67 62 60 63 62 64
REMARK SMILES IDX 68 65 61 66 63 67 64 68 65 69 66 70 6 71 7 72 8 73 9 74
REMARK SMILES IDX 10 75 29 76 26 77 28 78 30 79 27 80 31 81 11 82 12 83 13 84
REMARK SMILES IDX 14 86 15 87 25 88 16 89 24 90 17 91 18 92 19 93 20 94 23 95
REMARK SMILES IDX 21 96 22 97
REMARK H PARENT 88 23 56 34 13 85
REMARK Flexibility Score: inf
ROOT
ATOM      1  C   UNL A   1      31.913  29.900  26.909  1.00  0.00     0.274 C 
ENDROOT
BRANCH   1   2
ATOM      2  C   UNL A   1      33.320  30.472  26.760  1.00  0.00     0.275 C 
BRANCH   2   3
ATOM      3  O   UNL A   1      34.116  30.477  27.963  1.00  0.00    -0.458 OA
BRANCH   3   4
ATOM      4  C   UNL A   1      35.039  31.456  28.071  1.00  0.00     0.338 C 
ATOM      5  O   UNL A   1      34.750  32.652  28.111  1.00  0.00    -0.246 OA
BRANCH   4   6
ATOM      6  C   UNL A   1      36.416  30.935  28.199  1.00  0.00     0.060 A 
ATOM      7  C   UNL A   1      36.787  29.712  27.623  1.00  0.00     0.016 A 
ATOM      8  C   UNL A   1      37.342  31.687  28.934  1.00  0.00     0.016 A 
ATOM      9  C   UNL A   1      38.053  29.205  27.847  1.00  0.00     0.010 A 
ATOM     10  C   UNL A   1      38.607  31.174  29.172  1.00  0.00     0.010 A 
ATOM     11  C   UNL A   1      38.931  29.910  28.669  1.00  0.00    -0.014 A 
BRANCH  11  12
ATOM     12  C   UNL A   1      40.121  29.201  29.108  1.00  0.00     0.031 A 
ATOM     13  C   UNL A   1      40.279  28.939  30.559  1.00  0.00     0.074 A 
ATOM     14  C   UNL A   1      41.014  28.770  28.196  1.00  0.00     0.049 A 
ATOM     15  N   UNL A   1      41.222  29.348  31.347  1.00  0.00    -0.248 NA
ATOM     16  C   UNL A   1      39.222  28.177  31.233  1.00  0.00     0.031 C 
ATOM     17  C   UNL A   1      40.829  28.709  26.741  1.00  0.00     0.029 A 
ATOM     18  N   UNL A   1      42.211  28.154  28.389  1.00  0.00    -0.354 N 
ATOM     19  C   UNL A   1      40.997  28.711  32.569  1.00  0.00     0.074 A 
ATOM     20  C   UNL A   1      39.681  28.137  32.484  1.00  0.00     0.031 C 
ATOM     21  C   UNL A   1      41.740  27.862  26.220  1.00  0.00     0.029 A 
ATOM     22  C   UNL A   1      42.639  27.439  27.279  1.00  0.00     0.049 A 
ATOM     23  H   UNL A   1      42.723  28.210  29.228  1.00  0.00     0.167 HD
ATOM     24  C   UNL A   1      42.002  28.515  33.470  1.00  0.00     0.034 A 
ATOM     25  C   UNL A   1      43.595  26.483  27.255  1.00  0.00     0.034 A 
ATOM     26  C   UNL A   1      43.124  29.383  33.219  1.00  0.00     0.049 A 
ATOM     27  C   UNL A   1      44.447  26.660  28.452  1.00  0.00     0.074 A 
ATOM     28  C   UNL A   1      43.322  30.747  33.146  1.00  0.00     0.029 A 
ATOM     29  N   UNL A   1      44.260  28.815  32.700  1.00  0.00    -0.354 N 
ATOM     30  N   UNL A   1      45.242  27.678  28.636  1.00  0.00    -0.248 NA
ATOM     31  C   UNL A   1      44.135  25.886  29.643  1.00  0.00     0.031 C 
ATOM     32  C   UNL A   1      44.348  30.922  32.172  1.00  0.00     0.029 A 
ATOM     33  C   UNL A   1      44.726  29.654  31.728  1.00  0.00     0.049 A 
ATOM     34  H   UNL A   1      44.666  27.961  32.978  1.00  0.00     0.167 HD
ATOM     35  C   UNL A   1      45.178  27.928  30.000  1.00  0.00     0.074 A 
ATOM     36  C   UNL A   1      44.596  26.720  30.577  1.00  0.00     0.031 C 
ATOM     37  C   UNL A   1      45.327  29.194  30.495  1.00  0.00     0.034 A 
BRANCH  24  38
ATOM     38  C   UNL A   1      42.151  27.296  34.368  1.00  0.00     0.023 A 
ATOM     39  C   UNL A   1      41.732  27.435  35.715  1.00  0.00     0.012 A 
ATOM     40  C   UNL A   1      42.938  26.162  34.067  1.00  0.00     0.148 A 
ATOM     41  C   UNL A   1      42.162  26.561  36.720  1.00  0.00     0.002 A 
ATOM     42  C   UNL A   1      43.301  25.253  35.058  1.00  0.00     0.091 A 
ATOM     43  F   UNL A   1      43.457  26.004  32.848  1.00  0.00    -0.205 F 
ATOM     44  C   UNL A   1      42.952  25.470  36.392  1.00  0.00     0.022 A 
BRANCH  42  45
ATOM     45  S   UNL A   1      44.273  23.794  34.665  1.00  0.00     0.127 S 
ATOM     46  O   UNL A   1      45.523  24.391  34.207  1.00  0.00    -0.237 OA
ATOM     47  O   UNL A   1      44.346  23.118  35.962  1.00  0.00    -0.237 OA
ATOM     48  O   UNL A   1      43.492  23.074  33.666  1.00  0.00    -0.744 OA
ENDBRANCH  42  45
ENDBRANCH  24  38
BRANCH  25  49
ATOM     49  C   UNL A   1      43.654  25.279  26.399  1.00  0.00     0.023 A 
ATOM     50  C   UNL A   1      44.655  25.163  25.420  1.00  0.00     0.012 A 
ATOM     51  C   UNL A   1      42.869  24.139  26.694  1.00  0.00     0.148 A 
ATOM     52  C   UNL A   1      44.876  23.949  24.761  1.00  0.00     0.002 A 
ATOM     53  C   UNL A   1      43.078  22.941  26.021  1.00  0.00     0.091 A 
ATOM     54  F   UNL A   1      41.982  24.205  27.696  1.00  0.00    -0.205 F 
ATOM     55  C   UNL A   1      44.089  22.839  25.060  1.00  0.00     0.022 A 
BRANCH  53  56
ATOM     56  S   UNL A   1      42.091  21.477  26.360  1.00  0.00     0.127 S 
ATOM     57  O   UNL A   1      40.751  21.914  25.966  1.00  0.00    -0.237 OA
ATOM     58  O   UNL A   1      42.698  20.490  25.473  1.00  0.00    -0.237 OA
ATOM     59  O   UNL A   1      42.238  21.225  27.789  1.00  0.00    -0.744 OA
ENDBRANCH  53  56
ENDBRANCH  25  49
BRANCH  37  60
ATOM     60  C   UNL A   1      45.843  30.272  29.575  1.00  0.00     0.023 A 
ATOM     61  C   UNL A   1      47.222  30.550  29.467  1.00  0.00     0.012 A 
ATOM     62  C   UNL A   1      44.957  30.868  28.661  1.00  0.00     0.148 A 
ATOM     63  C   UNL A   1      47.703  31.419  28.487  1.00  0.00     0.002 A 
ATOM     64  C   UNL A   1      45.445  31.696  27.656  1.00  0.00     0.091 A 
ATOM     65  F   UNL A   1      43.648  30.587  28.767  1.00  0.00    -0.205 F 
ATOM     66  C   UNL A   1      46.816  31.981  27.572  1.00  0.00     0.022 A 
BRANCH  64  67
ATOM     67  S   UNL A   1      44.373  32.331  26.363  1.00  0.00     0.127 S 
ATOM     68  O   UNL A   1      43.762  33.489  27.012  1.00  0.00    -0.237 OA
ATOM     69  O   UNL A   1      45.320  32.658  25.296  1.00  0.00    -0.237 OA
ATOM     70  O   UNL A   1      43.465  31.240  26.031  1.00  0.00    -0.744 OA
ENDBRANCH  64  67
ENDBRANCH  37  60
ENDBRANCH  11  12
ENDBRANCH   4   6
ENDBRANCH   3   4
ENDBRANCH   2   3
ENDBRANCH   1   2
BRANCH   1  71
ATOM     71  O   UNL A   1      31.458  29.296  25.670  1.00  0.00    -0.462 OA
BRANCH  71  72
ATOM     72  C   UNL A   1      31.769  27.978  25.573  1.00  0.00     0.310 C 
ATOM     73  O   UNL A   1      31.765  27.218  26.537  1.00  0.00    -0.252 OA
BRANCH  72  74
ATOM     74  C   UNL A   1      32.215  27.489  24.202  1.00  0.00     0.119 C 
ATOM     75  C   UNL A   1      31.129  26.572  23.571  1.00  0.00     0.100 C 
ATOM     76  C   UNL A   1      33.635  26.928  23.831  1.00  0.00     0.026 C 
ATOM     77  C   UNL A   1      31.775  25.624  22.528  1.00  0.00     0.025 C 
ATOM     78  C   UNL A   1      33.735  25.409  23.881  1.00  0.00    -0.027 C 
ATOM     79  C   UNL A   1      33.803  27.173  22.300  1.00  0.00     0.009 C 
ATOM     80  C   UNL A   1      32.773  24.739  23.222  1.00  0.00    -0.027 C 
ATOM     81  C   UNL A   1      32.622  26.487  21.542  1.00  0.00     0.009 C 
BRANCH  75  82
ATOM     82  C   UNL A   1      30.014  25.910  24.421  1.00  0.00     0.228 C 
ATOM     83  O   UNL A   1      28.869  26.389  24.321  1.00  0.00    -0.274 OA
ATOM     84  N   UNL A   1      30.056  24.768  25.164  1.00  0.00    -0.326 N 
ATOM     85  H   UNL A   1      29.151  24.472  25.413  1.00  0.00     0.169 HD
BRANCH  84  86
ATOM     86  C   UNL A   1      31.032  23.899  25.672  1.00  0.00     0.041 A 
ATOM     87  C   UNL A   1      31.200  22.642  25.092  1.00  0.00     0.026 A 
ATOM     88  C   UNL A   1      31.833  24.192  26.752  1.00  0.00     0.026 A 
ATOM     89  C   UNL A   1      32.265  21.808  25.485  1.00  0.00     0.008 A 
ATOM     90  C   UNL A   1      32.868  23.373  27.185  1.00  0.00     0.008 A 
ATOM     91  C   UNL A   1      33.146  22.201  26.502  1.00  0.00    -0.026 A 
BRANCH  91  92
ATOM     92  C   UNL A   1      34.394  21.443  26.863  1.00  0.00     0.181 C 
BRANCH  92  93
ATOM     93  N   UNL A   1      35.494  21.773  25.987  1.00  0.00    -0.249 N 
ATOM     94  C   UNL A   1      35.938  21.057  24.919  1.00  0.00     0.220 A 
ATOM     95  N   UNL A   1      36.166  22.935  26.102  1.00  0.00    -0.160 NA
ATOM     96  N   UNL A   1      36.899  21.717  24.316  1.00  0.00    -0.224 NA
ATOM     97  C   UNL A   1      37.007  22.854  25.068  1.00  0.00     0.246 A 
ENDBRANCH  92  93
ENDBRANCH  91  92
ENDBRANCH  84  86
ENDBRANCH  75  82
ENDBRANCH  72  74
ENDBRANCH  71  72
ENDBRANCH   1  71
TORSDOF 18
ENDMDL
MODEL 2
REMARK VINA RESULT:     -12.2      1.738      2.155
REMARK SMILES O=C(OCCOC(=O)[C@@H]1[C@H](C(=O)Nc2ccc(Cn3cncn3)cc2)[C@@H]2C=C[C@H]1CC2)c1ccc(-c2c3nc(c(-c4cccc(S(=O)(=O)[O-])c4F)c4ccc([nH]4)c(-c4cccc(S(=O)(=O)[O-])c4F)c4nc(c(-c5cccc(S(=O)(=O)[O-])c5F)c5ccc2[nH]5)C=C4)C=C3)cc1
REMARK SMILES IDX 5 1 4 2 3 3 2 4 1 5 32 6 33 7 94 8 34 9 93 10 35 11 36 12
REMARK SMILES IDX 37 13 87 14 38 15 92 16 86 17 88 18 39 19 91 20 85 21 84 22
REMARK SMILES IDX 40 24 72 25 52 26 71 27 53 28 56 29 70 30 89 31 54 32 55 33
REMARK SMILES IDX 69 35 90 36 57 37 41 38 42 39 50 40 43 41 45 42 51 43 44 44
REMARK SMILES IDX 46 45 47 46 48 47 49 48 73 49 74 50 82 51 75 52 77 53 83 54
REMARK SMILES IDX 76 55 78 56 79 57 80 58 81 59 58 60 59 61 67 62 60 63 62 64
REMARK SMILES IDX 68 65 61 66 63 67 64 68 65 69 66 70 6 71 7 72 8 73 9 74
REMARK SMILES IDX 10 75 29 76 26 77 28 78 30 79 27 80 31 81 11 82 12 83 13 84
REMARK SMILES IDX 14 86 15 87 25 88 16 89 24 90 17 91 18 92 19 93 20 94 23 95
REMARK SMILES IDX 21 96 22 97
REMARK H PARENT 88 23 56 34 13 85
REMARK Flexibility Score: inf
ROOT
ATOM      1  C   UNL A   1      31.929  29.902  25.606  1.00  0.00     0.274 C 
ENDROOT
BRANCH   1   2
ATOM      2  C   UNL A   1      32.167  30.939  26.701  1.00  0.00     0.275 C 
BRANCH   2   3
ATOM      3  O   UNL A   1      33.229  30.629  27.626  1.00  0.00    -0.458 OA
BRANCH   3   4
ATOM      4  C   UNL A   1      34.106  31.620  27.891  1.00  0.00     0.338 C 
ATOM      5  O   UNL A   1      33.771  32.796  28.030  1.00  0.00    -0.246 OA
BRANCH   4   6
ATOM      6  C   UNL A   1      35.491  31.132  28.056  1.00  0.00     0.060 A 
ATOM      7  C   UNL A   1      35.809  29.775  27.894  1.00  0.00     0.016 A 
ATOM      8  C   UNL A   1      36.482  32.059  28.404  1.00  0.00     0.016 A 
ATOM      9  C   UNL A   1      37.093  29.336  28.156  1.00  0.00     0.010 A 
ATOM     10  C   UNL A   1      37.767  31.618  28.681  1.00  0.00     0.010 A 
ATOM     11  C   UNL A   1      38.044  30.250  28.605  1.00  0.00    -0.014 A 
BRANCH  11  12
ATOM     12  C   UNL A   1      39.275  29.695  29.143  1.00  0.00     0.031 A 
ATOM     13  C   UNL A   1      39.589  29.952  30.569  1.00  0.00     0.074 A 
ATOM     14  C   UNL A   1      40.064  28.938  28.356  1.00  0.00     0.049 A 
ATOM     15  N   UNL A   1      40.612  30.574  31.062  1.00  0.00    -0.248 NA
ATOM     16  C   UNL A   1      38.611  29.515  31.572  1.00  0.00     0.031 C 
ATOM     17  C   UNL A   1      39.723  28.378  27.042  1.00  0.00     0.029 A 
ATOM     18  N   UNL A   1      41.275  28.383  28.631  1.00  0.00    -0.354 N 
ATOM     19  C   UNL A   1      40.520  30.415  32.447  1.00  0.00     0.074 A 
ATOM     20  C   UNL A   1      39.202  29.899  32.703  1.00  0.00     0.031 C 
ATOM     21  C   UNL A   1      40.572  27.368  26.764  1.00  0.00     0.029 A 
ATOM     22  C   UNL A   1      41.580  27.309  27.807  1.00  0.00     0.049 A 
ATOM     23  H   UNL A   1      41.874  28.710  29.341  1.00  0.00     0.167 HD
ATOM     24  C   UNL A   1      41.616  30.509  33.253  1.00  0.00     0.034 A 
ATOM     25  C   UNL A   1      42.529  26.370  28.025  1.00  0.00     0.034 A 
ATOM     26  C   UNL A   1      42.705  31.191  32.600  1.00  0.00     0.049 A 
ATOM     27  C   UNL A   1      43.505  26.922  28.990  1.00  0.00     0.074 A 
ATOM     28  C   UNL A   1      42.894  32.433  32.031  1.00  0.00     0.029 A 
ATOM     29  N   UNL A   1      43.778  30.434  32.202  1.00  0.00    -0.354 N 
ATOM     30  N   UNL A   1      44.315  27.908  28.722  1.00  0.00    -0.248 NA
ATOM     31  C   UNL A   1      43.323  26.627  30.402  1.00  0.00     0.031 C 
ATOM     32  C   UNL A   1      43.809  32.217  30.960  1.00  0.00     0.029 A 
ATOM     33  C   UNL A   1      44.137  30.860  30.955  1.00  0.00     0.049 A 
ATOM     34  H   UNL A   1      44.211  29.716  32.720  1.00  0.00     0.167 HD
ATOM     35  C   UNL A   1      44.399  28.622  29.910  1.00  0.00     0.074 A 
ATOM     36  C   UNL A   1      43.882  27.717  30.931  1.00  0.00     0.031 C 
ATOM     37  C   UNL A   1      44.601  29.975  29.909  1.00  0.00     0.034 A 
BRANCH  24  38
ATOM     38  C   UNL A   1      41.862  29.677  34.503  1.00  0.00     0.023 A 
ATOM     39  C   UNL A   1      42.511  30.320  35.585  1.00  0.00     0.012 A 
ATOM     40  C   UNL A   1      41.780  28.268  34.564  1.00  0.00     0.148 A 
ATOM     41  C   UNL A   1      43.138  29.600  36.609  1.00  0.00     0.002 A 
ATOM     42  C   UNL A   1      42.340  27.559  35.624  1.00  0.00     0.091 A 
ATOM     43  F   UNL A   1      41.273  27.575  33.543  1.00  0.00    -0.205 F 
ATOM     44  C   UNL A   1      43.056  28.216  36.627  1.00  0.00     0.022 A 
BRANCH  42  45
ATOM     45  S   UNL A   1      42.205  25.770  35.718  1.00  0.00     0.127 S 
ATOM     46  O   UNL A   1      43.052  25.356  34.605  1.00  0.00    -0.237 OA
ATOM     47  O   UNL A   1      42.746  25.492  37.049  1.00  0.00    -0.237 OA
ATOM     48  O   UNL A   1      40.779  25.490  35.589  1.00  0.00    -0.744 OA
ENDBRANCH  42  45
ENDBRANCH  24  38
BRANCH  25  49
ATOM     49  C   UNL A   1      42.494  24.941  27.647  1.00  0.00     0.023 A 
ATOM     50  C   UNL A   1      41.377  24.155  27.979  1.00  0.00     0.012 A 
ATOM     51  C   UNL A   1      43.453  24.400  26.759  1.00  0.00     0.148 A 
ATOM     52  C   UNL A   1      41.214  22.875  27.437  1.00  0.00     0.002 A 
ATOM     53  C   UNL A   1      43.298  23.120  26.240  1.00  0.00     0.091 A 
ATOM     54  F   UNL A   1      44.468  25.175  26.352  1.00  0.00    -0.205 F 
ATOM     55  C   UNL A   1      42.173  22.357  26.569  1.00  0.00     0.022 A 
BRANCH  53  56
ATOM     56  S   UNL A   1      44.504  22.396  25.120  1.00  0.00     0.127 S 
ATOM     57  O   UNL A   1      45.679  22.263  25.982  1.00  0.00    -0.237 OA
ATOM     58  O   UNL A   1      43.864  21.136  24.758  1.00  0.00    -0.237 OA
ATOM     59  O   UNL A   1      44.667  23.362  24.039  1.00  0.00    -0.744 OA
ENDBRANCH  53  56
ENDBRANCH  25  49
BRANCH  37  60
ATOM     60  C   UNL A   1      45.014  30.642  28.622  1.00  0.00     0.023 A 
ATOM     61  C   UNL A   1      44.062  31.196  27.740  1.00  0.00     0.012 A 
ATOM     62  C   UNL A   1      46.379  30.897  28.395  1.00  0.00     0.148 A 
ATOM     63  C   UNL A   1      44.462  31.966  26.646  1.00  0.00     0.002 A 
ATOM     64  C   UNL A   1      46.769  31.703  27.332  1.00  0.00     0.091 A 
ATOM     65  F   UNL A   1      47.274  30.373  29.247  1.00  0.00    -0.205 F 
ATOM     66  C   UNL A   1      45.814  32.232  26.450  1.00  0.00     0.022 A 
BRANCH  64  67
ATOM     67  S   UNL A   1      48.481  32.200  27.113  1.00  0.00     0.127 S 
ATOM     68  O   UNL A   1      48.787  32.826  28.398  1.00  0.00    -0.237 OA
ATOM     69  O   UNL A   1      49.156  30.922  26.881  1.00  0.00    -0.237 OA
ATOM     70  O   UNL A   1      48.490  33.089  25.959  1.00  0.00    -0.744 OA
ENDBRANCH  64  67
ENDBRANCH  37  60
ENDBRANCH  11  12
ENDBRANCH   4   6
ENDBRANCH   3   4
ENDBRANCH   2   3
ENDBRANCH   1   2
BRANCH   1  71
ATOM     71  O   UNL A   1      31.164  28.775  26.108  1.00  0.00    -0.462 OA
BRANCH  71  72
ATOM     72  C   UNL A   1      31.750  27.578  25.858  1.00  0.00     0.310 C 
ATOM     73  O   UNL A   1      31.950  26.736  26.730  1.00  0.00    -0.252 OA
BRANCH  72  74
ATOM     74  C   UNL A   1      32.239  27.348  24.434  1.00  0.00     0.119 C 
ATOM     75  C   UNL A   1      31.159  26.600  23.602  1.00  0.00     0.100 C 
ATOM     76  C   UNL A   1      33.659  26.831  24.010  1.00  0.00     0.026 C 
ATOM     77  C   UNL A   1      31.824  25.853  22.418  1.00  0.00     0.025 C 
ATOM     78  C   UNL A   1      33.726  25.328  23.768  1.00  0.00    -0.027 C 
ATOM     79  C   UNL A   1      33.891  27.360  22.561  1.00  0.00     0.009 C 
ATOM     80  C   UNL A   1      32.777  24.824  22.960  1.00  0.00    -0.027 C 
ATOM     81  C   UNL A   1      32.726  26.865  21.645  1.00  0.00     0.009 C 
BRANCH  75  82
ATOM     82  C   UNL A   1      29.999  25.818  24.270  1.00  0.00     0.228 C 
ATOM     83  O   UNL A   1      28.845  26.250  24.082  1.00  0.00    -0.274 OA
ATOM     84  N   UNL A   1      30.025  24.622  24.923  1.00  0.00    -0.326 N 
ATOM     85  H   UNL A   1      29.116  24.264  25.046  1.00  0.00     0.169 HD
BRANCH  84  86
ATOM     86  C   UNL A   1      30.989  23.761  25.466  1.00  0.00     0.041 A 
ATOM     87  C   UNL A   1      31.397  22.642  24.741  1.00  0.00     0.026 A 
ATOM     88  C   UNL A   1      31.550  23.927  26.712  1.00  0.00     0.026 A 
ATOM     89  C   UNL A   1      32.464  21.843  25.196  1.00  0.00     0.008 A 
ATOM     90  C   UNL A   1      32.578  23.132  27.203  1.00  0.00     0.008 A 
ATOM     91  C   UNL A   1      33.103  22.124  26.412  1.00  0.00    -0.026 A 
BRANCH  91  92
ATOM     92  C   UNL A   1      34.345  21.420  26.883  1.00  0.00     0.181 C 
BRANCH  92  93
ATOM     93  N   UNL A   1      35.463  21.654  25.997  1.00  0.00    -0.249 N 
ATOM     94  C   UNL A   1      36.238  22.768  25.929  1.00  0.00     0.220 A 
ATOM     95  N   UNL A   1      35.920  20.695  25.168  1.00  0.00    -0.160 NA
ATOM     96  N   UNL A   1      37.209  22.577  25.066  1.00  0.00    -0.224 NA
ATOM     97  C   UNL A   1      36.978  21.302  24.625  1.00  0.00     0.246 A 
ENDBRANCH  92  93
ENDBRANCH  91  92
ENDBRANCH  84  86
ENDBRANCH  75  82
ENDBRANCH  72  74
ENDBRANCH  71  72
ENDBRANCH   1  71
TORSDOF 18
ENDMDL
MODEL 3
REMARK VINA RESULT:     -12.2      1.424      2.066
REMARK SMILES O=C(OCCOC(=O)[C@@H]1[C@H](C(=O)Nc2ccc(Cn3cncn3)cc2)[C@@H]2C=C[C@H]1CC2)c1ccc(-c2c3nc(c(-c4cccc(S(=O)(=O)[O-])c4F)c4ccc([nH]4)c(-c4cccc(S(=O)(=O)[O-])c4F)c4nc(c(-c5cccc(S(=O)(=O)[O-])c5F)c5ccc2[nH]5)C=C4)C=C3)cc1
REMARK SMILES IDX 5 1 4 2 3 3 2 4 1 5 32 6 33 7 94 8 34 9 93 10 35 11 36 12
REMARK SMILES IDX 37 13 87 14 38 15 92 16 86 17 88 18 39 19 91 20 85 21 84 22
REMARK SMILES IDX 40 24 72 25 52 26 71 27 53 28 56 29 70 30 89 31 54 32 55 33
REMARK SMILES IDX 69 35 90 36 57 37 41 38 42 39 50 40 43 41 45 42 51 43 44 44
REMARK SMILES IDX 46 45 47 46 48 47 49 48 73 49 74 50 82 51 75 52 77 53 83 54
REMARK SMILES IDX 76 55 78 56 79 57 80 58 81 59 58 60 59 61 67 62 60 63 62 64
REMARK SMILES IDX 68 65 61 66 63 67 64 68 65 69 66 70 6 71 7 72 8 73 9 74
REMARK SMILES IDX 10 75 29 76 26 77 28 78 30 79 27 80 31 81 11 82 12 83 13 84
REMARK SMILES IDX 14 86 15 87 25 88 16 89 24 90 17 91 18 92 19 93 20 94 23 95
REMARK SMILES IDX 21 96 22 97
REMARK H PARENT 88 23 56 34 13 85
REMARK Flexibility Score: inf
ROOT
ATOM      1  C   UNL A   1      32.985  29.589  27.230  1.00  0.00     0.274 C 
ENDROOT
BRANCH   1   2
ATOM      2  C   UNL A   1      33.253  31.073  27.460  1.00  0.00     0.275 C 
BRANCH   2   3
ATOM      3  O   UNL A   1      34.636  31.472  27.372  1.00  0.00    -0.458 OA
BRANCH   3   4
ATOM      4  C   UNL A   1      35.281  31.676  28.540  1.00  0.00     0.338 C 
ATOM      5  O   UNL A   1      34.778  32.272  29.492  1.00  0.00    -0.246 OA
BRANCH   4   6
ATOM      6  C   UNL A   1      36.623  31.056  28.570  1.00  0.00     0.060 A 
ATOM      7  C   UNL A   1      36.841  29.769  28.059  1.00  0.00     0.016 A 
ATOM      8  C   UNL A   1      37.673  31.782  29.148  1.00  0.00     0.016 A 
ATOM      9  C   UNL A   1      38.083  29.179  28.196  1.00  0.00     0.010 A 
ATOM     10  C   UNL A   1      38.916  31.187  29.298  1.00  0.00     0.010 A 
ATOM     11  C   UNL A   1      39.092  29.869  28.868  1.00  0.00    -0.014 A 
BRANCH  11  12
ATOM     12  C   UNL A   1      40.267  29.099  29.241  1.00  0.00     0.031 A 
ATOM     13  C   UNL A   1      40.486  28.819  30.680  1.00  0.00     0.074 A 
ATOM     14  C   UNL A   1      41.089  28.632  28.281  1.00  0.00     0.049 A 
ATOM     15  N   UNL A   1      41.488  29.175  31.420  1.00  0.00    -0.248 NA
ATOM     16  C   UNL A   1      39.430  28.104  31.404  1.00  0.00     0.031 C 
ATOM     17  C   UNL A   1      40.827  28.591  26.838  1.00  0.00     0.029 A 
ATOM     18  N   UNL A   1      42.264  27.957  28.408  1.00  0.00    -0.354 N 
ATOM     19  C   UNL A   1      41.296  28.541  32.649  1.00  0.00     0.074 A 
ATOM     20  C   UNL A   1      39.950  28.032  32.629  1.00  0.00     0.031 C 
ATOM     21  C   UNL A   1      41.667  27.705  26.266  1.00  0.00     0.029 A 
ATOM     22  C   UNL A   1      42.598  27.230  27.274  1.00  0.00     0.049 A 
ATOM     23  H   UNL A   1      42.820  27.982  29.221  1.00  0.00     0.167 HD
ATOM     24  C   UNL A   1      42.334  28.290  33.496  1.00  0.00     0.034 A 
ATOM     25  C   UNL A   1      43.504  26.230  27.196  1.00  0.00     0.034 A 
ATOM     26  C   UNL A   1      43.484  29.104  33.191  1.00  0.00     0.049 A 
ATOM     27  C   UNL A   1      44.424  26.356  28.348  1.00  0.00     0.074 A 
ATOM     28  C   UNL A   1      43.744  30.457  33.114  1.00  0.00     0.029 A 
ATOM     29  N   UNL A   1      44.562  28.485  32.611  1.00  0.00    -0.354 N 
ATOM     30  N   UNL A   1      45.276  27.333  28.495  1.00  0.00    -0.248 NA
ATOM     31  C   UNL A   1      44.137  25.589  29.550  1.00  0.00     0.031 C 
ATOM     32  C   UNL A   1      44.726  30.590  32.090  1.00  0.00     0.029 A 
ATOM     33  C   UNL A   1      45.018  29.308  31.620  1.00  0.00     0.049 A 
ATOM     34  H   UNL A   1      44.939  27.610  32.863  1.00  0.00     0.167 HD
ATOM     35  C   UNL A   1      45.295  27.575  29.862  1.00  0.00     0.074 A 
ATOM     36  C   UNL A   1      44.685  26.393  30.463  1.00  0.00     0.031 C 
ATOM     37  C   UNL A   1      45.531  28.828  30.355  1.00  0.00     0.034 A 
BRANCH  24  38
ATOM     38  C   UNL A   1      42.470  27.058  34.379  1.00  0.00     0.023 A 
ATOM     39  C   UNL A   1      42.121  27.205  35.744  1.00  0.00     0.012 A 
ATOM     40  C   UNL A   1      43.190  25.892  34.034  1.00  0.00     0.148 A 
ATOM     41  C   UNL A   1      42.557  26.304  36.723  1.00  0.00     0.002 A 
ATOM     42  C   UNL A   1      43.557  24.960  35.001  1.00  0.00     0.091 A 
ATOM     43  F   UNL A   1      43.644  25.720  32.791  1.00  0.00    -0.205 F 
ATOM     44  C   UNL A   1      43.281  25.181  36.352  1.00  0.00     0.022 A 
BRANCH  42  45
ATOM     45  S   UNL A   1      44.442  23.461  34.555  1.00  0.00     0.127 S 
ATOM     46  O   UNL A   1      44.548  22.790  35.847  1.00  0.00    -0.237 OA
ATOM     47  O   UNL A   1      43.523  22.836  33.603  1.00  0.00    -0.237 OA
ATOM     48  O   UNL A   1      45.691  23.921  33.957  1.00  0.00    -0.744 OA
ENDBRANCH  42  45
ENDBRANCH  24  38
BRANCH  25  49
ATOM     49  C   UNL A   1      43.459  25.031  26.332  1.00  0.00     0.023 A 
ATOM     50  C   UNL A   1      44.377  24.893  25.277  1.00  0.00     0.012 A 
ATOM     51  C   UNL A   1      42.667  23.913  26.682  1.00  0.00     0.148 A 
ATOM     52  C   UNL A   1      44.509  23.677  24.596  1.00  0.00     0.002 A 
ATOM     53  C   UNL A   1      42.786  22.714  25.989  1.00  0.00     0.091 A 
ATOM     54  F   UNL A   1      41.863  23.997  27.751  1.00  0.00    -0.205 F 
ATOM     55  C   UNL A   1      43.715  22.589  24.951  1.00  0.00     0.022 A 
BRANCH  53  56
ATOM     56  S   UNL A   1      41.785  21.277  26.397  1.00  0.00     0.127 S 
ATOM     57  O   UNL A   1      42.316  20.266  25.482  1.00  0.00    -0.237 OA
ATOM     58  O   UNL A   1      42.116  21.065  27.803  1.00  0.00    -0.237 OA
ATOM     59  O   UNL A   1      40.407  21.665  26.118  1.00  0.00    -0.744 OA
ENDBRANCH  53  56
ENDBRANCH  25  49
BRANCH  37  60
ATOM     60  C   UNL A   1      46.051  29.887  29.416  1.00  0.00     0.023 A 
ATOM     61  C   UNL A   1      47.433  30.046  29.178  1.00  0.00     0.012 A 
ATOM     62  C   UNL A   1      45.138  30.589  28.610  1.00  0.00     0.148 A 
ATOM     63  C   UNL A   1      47.893  30.902  28.175  1.00  0.00     0.002 A 
ATOM     64  C   UNL A   1      45.600  31.404  27.582  1.00  0.00     0.091 A 
ATOM     65  F   UNL A   1      43.826  30.421  28.839  1.00  0.00    -0.205 F 
ATOM     66  C   UNL A   1      46.976  31.570  27.368  1.00  0.00     0.022 A 
BRANCH  64  67
ATOM     67  S   UNL A   1      44.469  32.175  26.419  1.00  0.00     0.127 S 
ATOM     68  O   UNL A   1      43.570  31.072  26.086  1.00  0.00    -0.237 OA
ATOM     69  O   UNL A   1      43.862  33.238  27.222  1.00  0.00    -0.237 OA
ATOM     70  O   UNL A   1      45.300  32.664  25.326  1.00  0.00    -0.744 OA
ENDBRANCH  64  67
ENDBRANCH  37  60
ENDBRANCH  11  12
ENDBRANCH   4   6
ENDBRANCH   3   4
ENDBRANCH   2   3
ENDBRANCH   1   2
BRANCH   1  71
ATOM     71  O   UNL A   1      31.700  29.381  26.588  1.00  0.00    -0.462 OA
BRANCH  71  72
ATOM     72  C   UNL A   1      31.471  28.084  26.259  1.00  0.00     0.310 C 
ATOM     73  O   UNL A   1      31.395  27.186  27.092  1.00  0.00    -0.252 OA
BRANCH  72  74
ATOM     74  C   UNL A   1      31.396  27.769  24.771  1.00  0.00     0.119 C 
ATOM     75  C   UNL A   1      32.301  26.553  24.426  1.00  0.00     0.100 C 
ATOM     76  C   UNL A   1      31.467  28.808  23.595  1.00  0.00     0.026 C 
ATOM     77  C   UNL A   1      32.702  26.597  22.929  1.00  0.00     0.025 C 
ATOM     78  C   UNL A   1      32.859  28.982  23.003  1.00  0.00    -0.027 C 
ATOM     79  C   UNL A   1      30.730  28.141  22.393  1.00  0.00     0.009 C 
ATOM     80  C   UNL A   1      33.499  27.846  22.672  1.00  0.00    -0.027 C 
ATOM     81  C   UNL A   1      31.405  26.768  22.079  1.00  0.00     0.009 C 
BRANCH  75  82
ATOM     82  C   UNL A   1      33.434  26.074  25.369  1.00  0.00     0.228 C 
ATOM     83  O   UNL A   1      34.035  26.950  26.020  1.00  0.00    -0.274 OA
ATOM     84  N   UNL A   1      33.788  24.806  25.721  1.00  0.00    -0.326 N 
ATOM     85  H   UNL A   1      34.391  24.807  26.499  1.00  0.00     0.169 HD
BRANCH  84  86
ATOM     86  C   UNL A   1      33.530  23.500  25.281  1.00  0.00     0.041 A 
ATOM     87  C   UNL A   1      32.589  22.722  25.955  1.00  0.00     0.026 A 
ATOM     88  C   UNL A   1      34.182  22.902  24.227  1.00  0.00     0.026 A 
ATOM     89  C   UNL A   1      32.205  21.464  25.451  1.00  0.00     0.008 A 
ATOM     90  C   UNL A   1      33.851  21.648  23.729  1.00  0.00     0.008 A 
ATOM     91  C   UNL A   1      32.799  20.944  24.292  1.00  0.00    -0.026 A 
BRANCH  91  92
ATOM     92  C   UNL A   1      32.331  19.691  23.606  1.00  0.00     0.181 C 
BRANCH  92  93
ATOM     93  N   UNL A   1      32.799  18.502  24.282  1.00  0.00    -0.249 N 
ATOM     94  C   UNL A   1      33.887  17.752  23.965  1.00  0.00     0.220 A 
ATOM     95  N   UNL A   1      32.212  18.053  25.408  1.00  0.00    -0.160 NA
ATOM     96  N   UNL A   1      34.042  16.803  24.860  1.00  0.00    -0.224 NA
ATOM     97  C   UNL A   1      33.001  17.022  25.720  1.00  0.00     0.246 A 
ENDBRANCH  92  93
ENDBRANCH  91  92
ENDBRANCH  84  86
ENDBRANCH  75  82
ENDBRANCH  72  74
ENDBRANCH  71  72
ENDBRANCH   1  71
TORSDOF 18
ENDMDL
