MODEL 1
REMARK VINA RESULT:     -11.7      0.000      0.000
REMARK SMILES CC/C(C(=O)OCCOC(=O)c1ccc(-c2c3nc(c(-c4cccc(S(=O)(=O)[O-])c4F)c4ccc([nH]4)c(-c4cccc(S(=O)(=O)[O-])c4F)c4nc(c(-c5cccc(S(=O)(=O)[O-])c5F)c5ccc2[nH]5)C=C4)C=C3)cc1)=C1\CCc2ccccc21
REMARK SMILES IDX 8 1 7 2 6 3 4 4 5 5 3 6 75 7 76 8 83 9 77 10 78 11 82 12
REMARK SMILES IDX 79 13 81 14 80 15 2 16 1 17 9 18 10 19 11 20 12 21 13 22
REMARK SMILES IDX 74 23 14 24 73 25 15 26 16 27 17 28 67 29 18 30 72 31 66 32
REMARK SMILES IDX 68 33 19 34 71 35 65 36 64 37 20 39 52 40 32 41 51 42 33 43
REMARK SMILES IDX 36 44 50 45 69 46 34 47 35 48 49 50 70 51 37 52 21 53 22 54
REMARK SMILES IDX 30 55 23 56 25 57 31 58 24 59 26 60 27 61 28 62 29 63 53 64
REMARK SMILES IDX 54 65 62 66 55 67 57 68 63 69 56 70 58 71 59 72 60 73 61 74
REMARK SMILES IDX 38 75 39 76 47 77 40 78 42 79 48 80 41 81 43 82 44 83 45 84
REMARK SMILES IDX 46 85
REMARK H PARENT 68 38 36 49
REMARK Flexibility Score: inf
ROOT
ATOM      1  C   UNL A   1      36.898  21.616  24.097  1.00  0.00     0.275 C 
ENDROOT
BRANCH   1   2
ATOM      2  C   UNL A   1      36.646  22.969  23.446  1.00  0.00     0.275 C 
BRANCH   2   3
ATOM      3  O   UNL A   1      35.333  22.985  22.850  1.00  0.00    -0.459 OA
BRANCH   3   4
ATOM      4  C   UNL A   1      34.544  24.030  23.177  1.00  0.00     0.334 C 
ATOM      5  O   UNL A   1      34.098  24.861  22.397  1.00  0.00    -0.247 OA
BRANCH   4   6
ATOM      6  C   UNL A   1      34.194  24.037  24.624  1.00  0.00     0.041 C 
ATOM      7  C   UNL A   1      33.631  22.965  25.228  1.00  0.00    -0.030 C 
ATOM      8  C   UNL A   1      33.606  22.721  26.730  1.00  0.00     0.041 C 
ATOM      9  C   UNL A   1      33.171  21.685  24.659  1.00  0.00    -0.019 A 
ATOM     10  C   UNL A   1      33.951  21.232  26.876  1.00  0.00     0.041 C 
ATOM     11  C   UNL A   1      33.404  20.675  25.600  1.00  0.00    -0.040 A 
ATOM     12  C   UNL A   1      32.515  21.372  23.480  1.00  0.00     0.009 A 
ATOM     13  C   UNL A   1      33.143  19.340  25.317  1.00  0.00     0.004 A 
ATOM     14  C   UNL A   1      32.223  20.036  23.189  1.00  0.00     0.001 A 
ATOM     15  C   UNL A   1      32.562  19.022  24.092  1.00  0.00     0.000 A 
BRANCH   6  16
ATOM     16  C   UNL A   1      34.783  25.218  25.368  1.00  0.00     0.040 C 
ATOM     17  C   UNL A   1      33.759  26.318  25.600  1.00  0.00     0.009 C 
ENDBRANCH   6  16
ENDBRANCH   4   6
ENDBRANCH   3   4
ENDBRANCH   2   3
ENDBRANCH   1   2
BRANCH   1  18
ATOM     18  O   UNL A   1      37.187  21.832  25.487  1.00  0.00    -0.458 OA
BRANCH  18  19
ATOM     19  C   UNL A   1      38.469  21.592  25.839  1.00  0.00     0.338 C 
ATOM     20  O   UNL A   1      39.168  20.647  25.516  1.00  0.00    -0.246 OA
BRANCH  19  21
ATOM     21  C   UNL A   1      38.978  22.716  26.633  1.00  0.00     0.060 A 
ATOM     22  C   UNL A   1      38.383  23.965  26.476  1.00  0.00     0.016 A 
ATOM     23  C   UNL A   1      40.172  22.581  27.337  1.00  0.00     0.016 A 
ATOM     24  C   UNL A   1      39.077  25.104  26.877  1.00  0.00     0.010 A 
ATOM     25  C   UNL A   1      40.798  23.722  27.849  1.00  0.00     0.010 A 
ATOM     26  C   UNL A   1      40.303  25.006  27.557  1.00  0.00    -0.014 A 
BRANCH  26  27
ATOM     27  C   UNL A   1      41.101  26.231  27.883  1.00  0.00     0.031 A 
ATOM     28  C   UNL A   1      40.516  27.321  28.757  1.00  0.00     0.074 A 
ATOM     29  C   UNL A   1      42.360  26.376  27.421  1.00  0.00     0.049 A 
ATOM     30  N   UNL A   1      40.972  28.525  28.997  1.00  0.00    -0.248 NA
ATOM     31  C   UNL A   1      39.237  27.030  29.428  1.00  0.00     0.031 C 
ATOM     32  C   UNL A   1      43.070  25.414  26.577  1.00  0.00     0.029 A 
ATOM     33  N   UNL A   1      43.272  27.389  27.600  1.00  0.00    -0.354 N 
ATOM     34  C   UNL A   1      39.993  29.165  29.754  1.00  0.00     0.074 A 
ATOM     35  C   UNL A   1      38.925  28.208  29.950  1.00  0.00     0.031 C 
ATOM     36  C   UNL A   1      44.318  25.851  26.361  1.00  0.00     0.029 A 
ATOM     37  C   UNL A   1      44.469  27.173  26.956  1.00  0.00     0.049 A 
ATOM     38  H   UNL A   1      43.087  28.193  28.138  1.00  0.00     0.167 HD
ATOM     39  C   UNL A   1      39.984  30.429  30.245  1.00  0.00     0.034 A 
ATOM     40  C   UNL A   1      45.553  27.961  26.814  1.00  0.00     0.034 A 
ATOM     41  C   UNL A   1      41.094  31.342  30.146  1.00  0.00     0.049 A 
ATOM     42  C   UNL A   1      45.546  29.332  27.425  1.00  0.00     0.074 A 
ATOM     43  C   UNL A   1      41.198  32.629  30.646  1.00  0.00     0.029 A 
ATOM     44  N   UNL A   1      42.304  31.056  29.533  1.00  0.00    -0.354 N 
ATOM     45  N   UNL A   1      44.611  29.916  28.134  1.00  0.00    -0.248 NA
ATOM     46  C   UNL A   1      46.747  30.153  27.221  1.00  0.00     0.031 C 
ATOM     47  C   UNL A   1      42.469  33.123  30.330  1.00  0.00     0.029 A 
ATOM     48  C   UNL A   1      43.164  32.136  29.652  1.00  0.00     0.049 A 
ATOM     49  H   UNL A   1      42.521  30.209  29.080  1.00  0.00     0.167 HD
ATOM     50  C   UNL A   1      45.113  31.166  28.470  1.00  0.00     0.074 A 
ATOM     51  C   UNL A   1      46.453  31.239  27.923  1.00  0.00     0.031 C 
ATOM     52  C   UNL A   1      44.511  32.176  29.145  1.00  0.00     0.034 A 
BRANCH  39  53
ATOM     53  C   UNL A   1      38.741  30.905  30.957  1.00  0.00     0.023 A 
ATOM     54  C   UNL A   1      38.668  30.862  32.363  1.00  0.00     0.012 A 
ATOM     55  C   UNL A   1      37.665  31.457  30.229  1.00  0.00     0.148 A 
ATOM     56  C   UNL A   1      37.534  31.326  33.032  1.00  0.00     0.002 A 
ATOM     57  C   UNL A   1      36.558  31.961  30.904  1.00  0.00     0.091 A 
ATOM     58  F   UNL A   1      37.742  31.475  28.891  1.00  0.00    -0.205 F 
ATOM     59  C   UNL A   1      36.486  31.885  32.304  1.00  0.00     0.022 A 
BRANCH  57  60
ATOM     60  S   UNL A   1      35.198  32.777  30.060  1.00  0.00     0.127 S 
ATOM     61  O   UNL A   1      34.257  32.994  31.159  1.00  0.00    -0.237 OA
ATOM     62  O   UNL A   1      35.833  33.994  29.554  1.00  0.00    -0.237 OA
ATOM     63  O   UNL A   1      34.754  31.852  29.028  1.00  0.00    -0.744 OA
ENDBRANCH  57  60
ENDBRANCH  39  53
BRANCH  40  64
ATOM     64  C   UNL A   1      46.739  27.458  26.062  1.00  0.00     0.023 A 
ATOM     65  C   UNL A   1      46.853  27.725  24.684  1.00  0.00     0.012 A 
ATOM     66  C   UNL A   1      47.778  26.766  26.714  1.00  0.00     0.148 A 
ATOM     67  C   UNL A   1      47.971  27.296  23.968  1.00  0.00     0.002 A 
ATOM     68  C   UNL A   1      48.921  26.408  26.011  1.00  0.00     0.091 A 
ATOM     69  F   UNL A   1      47.640  26.492  28.019  1.00  0.00    -0.205 F 
ATOM     70  C   UNL A   1      49.012  26.654  24.633  1.00  0.00     0.022 A 
BRANCH  68  71
ATOM     71  S   UNL A   1      50.371  25.738  26.833  1.00  0.00     0.127 S 
ATOM     72  O   UNL A   1      49.868  24.466  27.341  1.00  0.00    -0.237 OA
ATOM     73  O   UNL A   1      51.325  25.628  25.729  1.00  0.00    -0.237 OA
ATOM     74  O   UNL A   1      50.737  26.728  27.838  1.00  0.00    -0.744 OA
ENDBRANCH  68  71
ENDBRANCH  40  64
BRANCH  52  75
ATOM     75  C   UNL A   1      45.312  33.435  29.355  1.00  0.00     0.023 A 
ATOM     76  C   UNL A   1      46.091  33.581  30.521  1.00  0.00     0.012 A 
ATOM     77  C   UNL A   1      45.315  34.458  28.389  1.00  0.00     0.148 A 
ATOM     78  C   UNL A   1      46.823  34.747  30.743  1.00  0.00     0.002 A 
ATOM     79  C   UNL A   1      46.084  35.598  28.596  1.00  0.00     0.091 A 
ATOM     80  F   UNL A   1      44.550  34.313  27.297  1.00  0.00    -0.205 F 
ATOM     81  C   UNL A   1      46.827  35.751  29.778  1.00  0.00     0.022 A 
BRANCH  79  82
ATOM     82  S   UNL A   1      46.210  36.896  27.362  1.00  0.00     0.127 S 
ATOM     83  O   UNL A   1      44.813  37.293  27.200  1.00  0.00    -0.237 OA
ATOM     84  O   UNL A   1      47.051  37.889  28.032  1.00  0.00    -0.237 OA
ATOM     85  O   UNL A   1      46.831  36.275  26.198  1.00  0.00    -0.744 OA
ENDBRANCH  79  82
ENDBRANCH  52  75
ENDBRANCH  26  27
ENDBRANCH  19  21
ENDBRANCH  18  19
ENDBRANCH   1  18
TORSDOF 15
ENDMDL
MODEL 2
REMARK VINA RESULT:     -11.6      1.560      2.691
REMARK SMILES CC/C(C(=O)OCCOC(=O)c1ccc(-c2c3nc(c(-c4cccc(S(=O)(=O)[O-])c4F)c4ccc([nH]4)c(-c4cccc(S(=O)(=O)[O-])c4F)c4nc(c(-c5cccc(S(=O)(=O)[O-])c5F)c5ccc2[nH]5)C=C4)C=C3)cc1)=C1\CCc2ccccc21
REMARK SMILES IDX 8 1 7 2 6 3 4 4 5 5 3 6 75 7 76 8 83 9 77 10 78 11 82 12
REMARK SMILES IDX 79 13 81 14 80 15 2 16 1 17 9 18 10 19 11 20 12 21 13 22
REMARK SMILES IDX 74 23 14 24 73 25 15 26 16 27 17 28 67 29 18 30 72 31 66 32
REMARK SMILES IDX 68 33 19 34 71 35 65 36 64 37 20 39 52 40 32 41 51 42 33 43
REMARK SMILES IDX 36 44 50 45 69 46 34 47 35 48 49 50 70 51 37 52 21 53 22 54
REMARK SMILES IDX 30 55 23 56 25 57 31 58 24 59 26 60 27 61 28 62 29 63 53 64
REMARK SMILES IDX 54 65 62 66 55 67 57 68 63 69 56 70 58 71 59 72 60 73 61 74
REMARK SMILES IDX 38 75 39 76 47 77 40 78 42 79 48 80 41 81 43 82 44 83 45 84
REMARK SMILES IDX 46 85
REMARK H PARENT 68 38 36 49
REMARK Flexibility Score: inf
ROOT
ATOM      1  C   UNL A   1      36.750  20.571  25.006  1.00  0.00     0.275 C 
ENDROOT
BRANCH   1   2
ATOM      2  C   UNL A   1      35.540  21.378  25.459  1.00  0.00     0.275 C 
BRANCH   2   3
ATOM      3  O   UNL A   1      35.569  22.684  24.845  1.00  0.00    -0.459 OA
BRANCH   3   4
ATOM      4  C   UNL A   1      34.693  22.887  23.838  1.00  0.00     0.334 C 
ATOM      5  O   UNL A   1      34.981  23.207  22.693  1.00  0.00    -0.247 OA
BRANCH   4   6
ATOM      6  C   UNL A   1      33.291  22.603  24.250  1.00  0.00     0.041 C 
ATOM      7  C   UNL A   1      32.491  23.562  24.772  1.00  0.00    -0.030 C 
ATOM      8  C   UNL A   1      30.973  23.488  24.847  1.00  0.00     0.041 C 
ATOM      9  C   UNL A   1      32.791  24.961  25.127  1.00  0.00    -0.019 A 
ATOM     10  C   UNL A   1      30.506  24.886  24.419  1.00  0.00     0.041 C 
ATOM     11  C   UNL A   1      31.652  25.734  24.873  1.00  0.00    -0.040 A 
ATOM     12  C   UNL A   1      33.896  25.558  25.711  1.00  0.00     0.009 A 
ATOM     13  C   UNL A   1      31.654  27.113  25.039  1.00  0.00     0.004 A 
ATOM     14  C   UNL A   1      33.908  26.942  25.906  1.00  0.00     0.001 A 
ATOM     15  C   UNL A   1      32.802  27.719  25.545  1.00  0.00     0.000 A 
BRANCH   6  16
ATOM     16  C   UNL A   1      32.796  21.255  23.768  1.00  0.00     0.040 C 
ATOM     17  C   UNL A   1      32.143  21.340  22.397  1.00  0.00     0.009 C 
ENDBRANCH   6  16
ENDBRANCH   4   6
ENDBRANCH   3   4
ENDBRANCH   2   3
ENDBRANCH   1   2
BRANCH   1  18
ATOM     18  O   UNL A   1      37.875  21.459  24.915  1.00  0.00    -0.458 OA
BRANCH  18  19
ATOM     19  C   UNL A   1      38.910  21.139  25.722  1.00  0.00     0.338 C 
ATOM     20  O   UNL A   1      39.502  20.077  25.792  1.00  0.00    -0.246 OA
BRANCH  19  21
ATOM     21  C   UNL A   1      39.316  22.322  26.490  1.00  0.00     0.060 A 
ATOM     22  C   UNL A   1      38.764  23.556  26.152  1.00  0.00     0.016 A 
ATOM     23  C   UNL A   1      40.397  22.243  27.363  1.00  0.00     0.016 A 
ATOM     24  C   UNL A   1      39.409  24.722  26.557  1.00  0.00     0.010 A 
ATOM     25  C   UNL A   1      40.959  23.420  27.867  1.00  0.00     0.010 A 
ATOM     26  C   UNL A   1      40.526  24.677  27.409  1.00  0.00    -0.014 A 
BRANCH  26  27
ATOM     27  C   UNL A   1      41.285  25.924  27.746  1.00  0.00     0.031 A 
ATOM     28  C   UNL A   1      40.663  26.991  28.623  1.00  0.00     0.074 A 
ATOM     29  C   UNL A   1      42.543  26.107  27.293  1.00  0.00     0.049 A 
ATOM     30  N   UNL A   1      41.081  28.206  28.873  1.00  0.00    -0.248 NA
ATOM     31  C   UNL A   1      39.389  26.658  29.284  1.00  0.00     0.031 C 
ATOM     32  C   UNL A   1      43.286  25.172  26.449  1.00  0.00     0.029 A 
ATOM     33  N   UNL A   1      43.423  27.146  27.484  1.00  0.00    -0.354 N 
ATOM     34  C   UNL A   1      40.079  28.813  29.626  1.00  0.00     0.074 A 
ATOM     35  C   UNL A   1      39.039  27.824  29.811  1.00  0.00     0.031 C 
ATOM     36  C   UNL A   1      44.522  25.647  26.243  1.00  0.00     0.029 A 
ATOM     37  C   UNL A   1      44.630  26.969  26.847  1.00  0.00     0.049 A 
ATOM     38  H   UNL A   1      43.211  27.941  28.026  1.00  0.00     0.167 HD
ATOM     39  C   UNL A   1      40.031  30.073  30.125  1.00  0.00     0.034 A 
ATOM     40  C   UNL A   1      45.692  27.789  26.717  1.00  0.00     0.034 A 
ATOM     41  C   UNL A   1      41.114  31.019  30.038  1.00  0.00     0.049 A 
ATOM     42  C   UNL A   1      45.640  29.156  27.335  1.00  0.00     0.074 A 
ATOM     43  C   UNL A   1      41.177  32.305  30.546  1.00  0.00     0.029 A 
ATOM     44  N   UNL A   1      42.336  30.772  29.431  1.00  0.00    -0.354 N 
ATOM     45  N   UNL A   1      44.683  29.708  28.041  1.00  0.00    -0.248 NA
ATOM     46  C   UNL A   1      46.818  30.014  27.143  1.00  0.00     0.031 C 
ATOM     47  C   UNL A   1      42.434  32.839  30.241  1.00  0.00     0.029 A 
ATOM     48  C   UNL A   1      43.163  31.876  29.562  1.00  0.00     0.049 A 
ATOM     49  H   UNL A   1      42.580  29.935  28.975  1.00  0.00     0.167 HD
ATOM     50  C   UNL A   1      45.147  30.970  28.388  1.00  0.00     0.074 A 
ATOM     51  C   UNL A   1      46.488  31.086  27.849  1.00  0.00     0.031 C 
ATOM     52  C   UNL A   1      44.511  31.959  29.064  1.00  0.00     0.034 A 
BRANCH  39  53
ATOM     53  C   UNL A   1      38.769  30.508  30.831  1.00  0.00     0.023 A 
ATOM     54  C   UNL A   1      38.633  30.318  32.220  1.00  0.00     0.012 A 
ATOM     55  C   UNL A   1      37.742  31.167  30.123  1.00  0.00     0.148 A 
ATOM     56  C   UNL A   1      37.482  30.742  32.887  1.00  0.00     0.002 A 
ATOM     57  C   UNL A   1      36.619  31.630  30.801  1.00  0.00     0.091 A 
ATOM     58  F   UNL A   1      37.879  31.326  28.799  1.00  0.00    -0.205 F 
ATOM     59  C   UNL A   1      36.483  31.407  32.180  1.00  0.00     0.022 A 
BRANCH  57  60
ATOM     60  S   UNL A   1      35.320  32.573  29.994  1.00  0.00     0.127 S 
ATOM     61  O   UNL A   1      36.022  33.808  29.650  1.00  0.00    -0.237 OA
ATOM     62  O   UNL A   1      34.985  31.723  28.851  1.00  0.00    -0.237 OA
ATOM     63  O   UNL A   1      34.255  32.710  30.978  1.00  0.00    -0.744 OA
ENDBRANCH  57  60
ENDBRANCH  39  53
BRANCH  40  64
ATOM     64  C   UNL A   1      46.897  27.326  25.970  1.00  0.00     0.023 A 
ATOM     65  C   UNL A   1      47.774  26.402  26.569  1.00  0.00     0.012 A 
ATOM     66  C   UNL A   1      47.149  27.754  24.652  1.00  0.00     0.148 A 
ATOM     67  C   UNL A   1      48.888  25.927  25.877  1.00  0.00     0.002 A 
ATOM     68  C   UNL A   1      48.217  27.221  23.942  1.00  0.00     0.091 A 
ATOM     69  F   UNL A   1      46.322  28.659  24.107  1.00  0.00    -0.205 F 
ATOM     70  C   UNL A   1      49.100  26.322  24.558  1.00  0.00     0.022 A 
BRANCH  68  71
ATOM     71  S   UNL A   1      48.450  27.546  22.191  1.00  0.00     0.127 S 
ATOM     72  O   UNL A   1      48.607  26.199  21.653  1.00  0.00    -0.237 OA
ATOM     73  O   UNL A   1      47.196  28.211  21.834  1.00  0.00    -0.237 OA
ATOM     74  O   UNL A   1      49.622  28.408  22.111  1.00  0.00    -0.744 OA
ENDBRANCH  68  71
ENDBRANCH  40  64
BRANCH  52  75
ATOM     75  C   UNL A   1      45.274  33.239  29.286  1.00  0.00     0.023 A 
ATOM     76  C   UNL A   1      46.065  33.389  30.443  1.00  0.00     0.012 A 
ATOM     77  C   UNL A   1      45.227  34.280  28.340  1.00  0.00     0.148 A 
ATOM     78  C   UNL A   1      46.761  34.574  30.677  1.00  0.00     0.002 A 
ATOM     79  C   UNL A   1      45.961  35.441  28.557  1.00  0.00     0.091 A 
ATOM     80  F   UNL A   1      44.451  34.130  27.257  1.00  0.00    -0.205 F 
ATOM     81  C   UNL A   1      46.717  35.596  29.731  1.00  0.00     0.022 A 
BRANCH  79  82
ATOM     82  S   UNL A   1      46.026  36.766  27.347  1.00  0.00     0.127 S 
ATOM     83  O   UNL A   1      44.628  37.187  27.289  1.00  0.00    -0.237 OA
ATOM     84  O   UNL A   1      46.927  37.729  27.980  1.00  0.00    -0.237 OA
ATOM     85  O   UNL A   1      46.555  36.162  26.130  1.00  0.00    -0.744 OA
ENDBRANCH  79  82
ENDBRANCH  52  75
ENDBRANCH  26  27
ENDBRANCH  19  21
ENDBRANCH  18  19
ENDBRANCH   1  18
TORSDOF 15
ENDMDL
MODEL 3
REMARK VINA RESULT:     -11.5      5.037     10.048
REMARK SMILES CC/C(C(=O)OCCOC(=O)c1ccc(-c2c3nc(c(-c4cccc(S(=O)(=O)[O-])c4F)c4ccc([nH]4)c(-c4cccc(S(=O)(=O)[O-])c4F)c4nc(c(-c5cccc(S(=O)(=O)[O-])c5F)c5ccc2[nH]5)C=C4)C=C3)cc1)=C1\CCc2ccccc21
REMARK SMILES IDX 8 1 7 2 6 3 4 4 5 5 3 6 75 7 76 8 83 9 77 10 78 11 82 12
REMARK SMILES IDX 79 13 81 14 80 15 2 16 1 17 9 18 10 19 11 20 12 21 13 22
REMARK SMILES IDX 74 23 14 24 73 25 15 26 16 27 17 28 67 29 18 30 72 31 66 32
REMARK SMILES IDX 68 33 19 34 71 35 65 36 64 37 20 39 52 40 32 41 51 42 33 43
REMARK SMILES IDX 36 44 50 45 69 46 34 47 35 48 49 50 70 51 37 52 21 53 22 54
REMARK SMILES IDX 30 55 23 56 25 57 31 58 24 59 26 60 27 61 28 62 29 63 53 64
REMARK SMILES IDX 54 65 62 66 55 67 57 68 63 69 56 70 58 71 59 72 60 73 61 74
REMARK SMILES IDX 38 75 39 76 47 77 40 78 42 79 48 80 41 81 43 82 44 83 45 84
REMARK SMILES IDX 46 85
REMARK H PARENT 68 38 36 49
REMARK Flexibility Score: inf
ROOT
ATOM      1  C   UNL A   1      31.823  30.178  26.023  1.00  0.00     0.275 C 
ENDROOT
BRANCH   1   2
ATOM      2  C   UNL A   1      32.198  28.729  25.742  1.00  0.00     0.275 C 
BRANCH   2   3
ATOM      3  O   UNL A   1      31.185  27.852  26.279  1.00  0.00    -0.459 OA
BRANCH   3   4
ATOM      4  C   UNL A   1      31.103  26.626  25.719  1.00  0.00     0.334 C 
ATOM      5  O   UNL A   1      30.912  25.577  26.319  1.00  0.00    -0.247 OA
BRANCH   4   6
ATOM      6  C   UNL A   1      31.200  26.681  24.234  1.00  0.00     0.041 C 
ATOM      7  C   UNL A   1      32.190  26.053  23.559  1.00  0.00    -0.030 C 
ATOM      8  C   UNL A   1      32.158  25.715  22.076  1.00  0.00     0.041 C 
ATOM      9  C   UNL A   1      33.364  25.315  24.060  1.00  0.00    -0.019 A 
ATOM     10  C   UNL A   1      32.706  24.282  22.004  1.00  0.00     0.041 C 
ATOM     11  C   UNL A   1      33.628  24.258  23.181  1.00  0.00    -0.040 A 
ATOM     12  C   UNL A   1      34.225  25.543  25.121  1.00  0.00     0.009 A 
ATOM     13  C   UNL A   1      34.635  23.334  23.432  1.00  0.00     0.004 A 
ATOM     14  C   UNL A   1      35.258  24.636  25.376  1.00  0.00     0.001 A 
ATOM     15  C   UNL A   1      35.444  23.521  24.551  1.00  0.00     0.000 A 
BRANCH   6  16
ATOM     16  C   UNL A   1      29.956  27.248  23.583  1.00  0.00     0.040 C 
ATOM     17  C   UNL A   1      28.715  26.429  23.906  1.00  0.00     0.009 C 
ENDBRANCH   6  16
ENDBRANCH   4   6
ENDBRANCH   3   4
ENDBRANCH   2   3
ENDBRANCH   1   2
BRANCH   1  18
ATOM     18  O   UNL A   1      32.342  30.535  27.314  1.00  0.00    -0.458 OA
BRANCH  18  19
ATOM     19  C   UNL A   1      33.098  31.654  27.326  1.00  0.00     0.338 C 
ATOM     20  O   UNL A   1      32.728  32.807  27.199  1.00  0.00    -0.246 OA
BRANCH  19  21
ATOM     21  C   UNL A   1      34.492  31.299  27.616  1.00  0.00     0.060 A 
ATOM     22  C   UNL A   1      34.814  29.956  27.795  1.00  0.00     0.016 A 
ATOM     23  C   UNL A   1      35.408  32.299  27.937  1.00  0.00     0.016 A 
ATOM     24  C   UNL A   1      35.991  29.622  28.461  1.00  0.00     0.010 A 
ATOM     25  C   UNL A   1      36.643  31.944  28.488  1.00  0.00     0.010 A 
ATOM     26  C   UNL A   1      36.921  30.609  28.833  1.00  0.00    -0.014 A 
BRANCH  26  27
ATOM     27  C   UNL A   1      38.127  30.259  29.650  1.00  0.00     0.031 A 
ATOM     28  C   UNL A   1      39.226  29.395  29.068  1.00  0.00     0.074 A 
ATOM     29  C   UNL A   1      38.264  30.725  30.909  1.00  0.00     0.049 A 
ATOM     30  N   UNL A   1      40.247  28.836  29.669  1.00  0.00    -0.248 NA
ATOM     31  C   UNL A   1      39.155  29.097  27.627  1.00  0.00     0.031 C 
ATOM     32  C   UNL A   1      37.301  31.576  31.609  1.00  0.00     0.029 A 
ATOM     33  N   UNL A   1      39.274  30.551  31.825  1.00  0.00    -0.354 N 
ATOM     34  C   UNL A   1      40.872  28.042  28.711  1.00  0.00     0.074 A 
ATOM     35  C   UNL A   1      40.128  28.208  27.481  1.00  0.00     0.031 C 
ATOM     36  C   UNL A   1      37.789  31.896  32.815  1.00  0.00     0.029 A 
ATOM     37  C   UNL A   1      39.047  31.190  33.022  1.00  0.00     0.049 A 
ATOM     38  H   UNL A   1      40.083  30.020  31.642  1.00  0.00     0.167 HD
ATOM     39  C   UNL A   1      41.968  27.254  28.839  1.00  0.00     0.034 A 
ATOM     40  C   UNL A   1      39.741  31.179  34.178  1.00  0.00     0.034 A 
ATOM     41  C   UNL A   1      42.774  27.177  30.030  1.00  0.00     0.049 A 
ATOM     42  C   UNL A   1      40.989  30.350  34.274  1.00  0.00     0.074 A 
ATOM     43  C   UNL A   1      43.925  26.439  30.246  1.00  0.00     0.029 A 
ATOM     44  N   UNL A   1      42.534  27.887  31.197  1.00  0.00    -0.354 N 
ATOM     45  N   UNL A   1      41.560  29.608  33.357  1.00  0.00    -0.248 NA
ATOM     46  C   UNL A   1      41.691  30.361  35.565  1.00  0.00     0.031 C 
ATOM     47  C   UNL A   1      44.378  26.698  31.545  1.00  0.00     0.029 A 
ATOM     48  C   UNL A   1      43.521  27.614  32.131  1.00  0.00     0.049 A 
ATOM     49  H   UNL A   1      41.774  28.496  31.341  1.00  0.00     0.167 HD
ATOM     50  C   UNL A   1      42.694  29.073  33.954  1.00  0.00     0.074 A 
ATOM     51  C   UNL A   1      42.752  29.610  35.299  1.00  0.00     0.031 C 
ATOM     52  C   UNL A   1      43.592  28.192  33.447  1.00  0.00     0.034 A 
BRANCH  39  53
ATOM     53  C   UNL A   1      42.381  26.416  27.653  1.00  0.00     0.023 A 
ATOM     54  C   UNL A   1      43.224  26.957  26.662  1.00  0.00     0.012 A 
ATOM     55  C   UNL A   1      41.984  25.065  27.556  1.00  0.00     0.148 A 
ATOM     56  C   UNL A   1      43.634  26.181  25.576  1.00  0.00     0.002 A 
ATOM     57  C   UNL A   1      42.435  24.285  26.497  1.00  0.00     0.091 A 
ATOM     58  F   UNL A   1      41.169  24.570  28.498  1.00  0.00    -0.205 F 
ATOM     59  C   UNL A   1      43.249  24.844  25.500  1.00  0.00     0.022 A 
BRANCH  57  60
ATOM     60  S   UNL A   1      42.064  22.531  26.359  1.00  0.00     0.127 S 
ATOM     61  O   UNL A   1      42.758  22.180  25.121  1.00  0.00    -0.237 OA
ATOM     62  O   UNL A   1      42.676  21.989  27.573  1.00  0.00    -0.237 OA
ATOM     63  O   UNL A   1      40.613  22.431  26.316  1.00  0.00    -0.744 OA
ENDBRANCH  57  60
ENDBRANCH  39  53
BRANCH  40  64
ATOM     64  C   UNL A   1      39.264  31.991  35.335  1.00  0.00     0.023 A 
ATOM     65  C   UNL A   1      38.424  31.401  36.299  1.00  0.00     0.012 A 
ATOM     66  C   UNL A   1      39.679  33.324  35.513  1.00  0.00     0.148 A 
ATOM     67  C   UNL A   1      37.994  32.129  37.409  1.00  0.00     0.002 A 
ATOM     68  C   UNL A   1      39.309  34.020  36.657  1.00  0.00     0.091 A 
ATOM     69  F   UNL A   1      40.452  33.881  34.569  1.00  0.00    -0.205 F 
ATOM     70  C   UNL A   1      38.451  33.432  37.597  1.00  0.00     0.022 A 
BRANCH  68  71
ATOM     71  S   UNL A   1      39.997  35.631  37.053  1.00  0.00     0.127 S 
ATOM     72  O   UNL A   1      41.421  35.332  37.161  1.00  0.00    -0.237 OA
ATOM     73  O   UNL A   1      39.619  36.421  35.881  1.00  0.00    -0.237 OA
ATOM     74  O   UNL A   1      39.335  36.041  38.284  1.00  0.00    -0.744 OA
ENDBRANCH  68  71
ENDBRANCH  40  64
BRANCH  52  75
ATOM     75  C   UNL A   1      44.732  27.782  34.343  1.00  0.00     0.023 A 
ATOM     76  C   UNL A   1      45.930  28.523  34.334  1.00  0.00     0.012 A 
ATOM     77  C   UNL A   1      44.607  26.681  35.211  1.00  0.00     0.148 A 
ATOM     78  C   UNL A   1      47.003  28.147  35.141  1.00  0.00     0.002 A 
ATOM     79  C   UNL A   1      45.664  26.339  36.047  1.00  0.00     0.091 A 
ATOM     80  F   UNL A   1      43.468  25.972  35.191  1.00  0.00    -0.205 F 
ATOM     81  C   UNL A   1      46.868  27.062  36.003  1.00  0.00     0.022 A 
BRANCH  79  82
ATOM     82  S   UNL A   1      45.536  25.010  37.247  1.00  0.00     0.127 S 
ATOM     83  O   UNL A   1      44.394  25.439  38.050  1.00  0.00    -0.237 OA
ATOM     84  O   UNL A   1      45.282  23.843  36.400  1.00  0.00    -0.237 OA
ATOM     85  O   UNL A   1      46.819  24.978  37.939  1.00  0.00    -0.744 OA
ENDBRANCH  79  82
ENDBRANCH  52  75
ENDBRANCH  26  27
ENDBRANCH  19  21
ENDBRANCH  18  19
ENDBRANCH   1  18
TORSDOF 15
ENDMDL
