MODEL 1
REMARK VINA RESULT:     -12.2      0.000      0.000
REMARK SMILES C[C@H]1CCCCN1C(=O)N1Cc2nc[nH]c2C[C@H]1C(=O)OCCOC(=O)c1ccc(-c2c3nc(c(-c4cccc(S(=O)(=O)[O-])c4F)c4ccc([nH]4)c(-c4cccc(S(=O)(=O)[O-])c4F)c4nc(c(-c5cccc(S(=O)(=O)[O-])c5F)c5ccc2[nH]5)C=C4)C=C3)cc1
REMARK SMILES IDX 23 1 22 2 21 3 19 4 20 5 18 6 10 7 11 8 12 9 17 10 13 11
REMARK SMILES IDX 16 12 14 13 15 14 8 16 9 17 7 18 1 19 2 20 3 21 4 22 6 23
REMARK SMILES IDX 5 24 24 25 25 26 26 27 27 28 28 29 89 30 29 31 88 32 30 33
REMARK SMILES IDX 31 34 32 35 82 36 33 37 87 38 81 39 83 40 34 41 86 42 80 43
REMARK SMILES IDX 79 44 35 46 67 47 47 48 66 49 48 50 51 51 65 52 84 53 49 54
REMARK SMILES IDX 50 55 64 57 85 58 52 59 36 60 37 61 45 62 38 63 40 64 46 65
REMARK SMILES IDX 39 66 41 67 42 68 43 69 44 70 68 71 69 72 77 73 70 74 72 75
REMARK SMILES IDX 78 76 71 77 73 78 74 79 75 80 76 81 53 82 54 83 62 84 55 85
REMARK SMILES IDX 57 86 63 87 56 88 58 89 59 90 60 91 61 92
REMARK H PARENT 15 15 83 45 51 56
REMARK Flexibility Score: inf
ROOT
ATOM      1  C   UNL A   1      35.288  29.536  27.532  1.00  0.00     0.275 C 
ENDROOT
BRANCH   1   2
ATOM      2  C   UNL A   1      33.953  30.107  27.058  1.00  0.00     0.274 C 
BRANCH   2   3
ATOM      3  O   UNL A   1      33.571  29.727  25.717  1.00  0.00    -0.461 OA
BRANCH   3   4
ATOM      4  C   UNL A   1      32.971  28.514  25.581  1.00  0.00     0.329 C 
ATOM      5  O   UNL A   1      32.189  28.044  26.408  1.00  0.00    -0.250 OA
BRANCH   4   6
ATOM      6  C   UNL A   1      33.523  27.647  24.410  1.00  0.00     0.203 C 
ATOM      7  N   UNL A   1      32.859  26.352  24.038  1.00  0.00    -0.304 N 
ATOM      8  C   UNL A   1      31.470  26.413  23.524  1.00  0.00     0.180 C 
ATOM      9  C   UNL A   1      31.227  27.701  22.800  1.00  0.00     0.081 A 
ATOM     10  C   UNL A   1      33.553  28.620  23.186  1.00  0.00     0.093 C 
ATOM     11  N   UNL A   1      30.014  28.124  22.321  1.00  0.00    -0.240 NA
ATOM     12  C   UNL A   1      32.167  28.697  22.658  1.00  0.00     0.042 A 
ATOM     13  C   UNL A   1      30.219  29.355  21.903  1.00  0.00     0.197 A 
ATOM     14  N   UNL A   1      31.519  29.750  22.089  1.00  0.00    -0.348 N 
ATOM     15  H   UNL A   1      31.906  30.625  21.856  1.00  0.00     0.167 HD
BRANCH   7  16
ATOM     16  C   UNL A   1      33.638  25.331  23.525  1.00  0.00     0.321 C 
ATOM     17  O   UNL A   1      33.949  25.352  22.332  1.00  0.00    -0.248 OA
BRANCH  16  18
ATOM     18  N   UNL A   1      34.020  24.292  24.372  1.00  0.00    -0.322 N 
ATOM     19  C   UNL A   1      32.275  22.553  23.679  1.00  0.00     0.031 C 
ATOM     20  C   UNL A   1      33.461  22.930  24.524  1.00  0.00     0.083 C 
ATOM     21  C   UNL A   1      34.533  21.853  24.286  1.00  0.00     0.025 C 
ATOM     22  C   UNL A   1      35.709  22.039  25.224  1.00  0.00     0.004 C 
ATOM     23  C   UNL A   1      35.193  24.518  25.236  1.00  0.00     0.121 C 
ATOM     24  C   UNL A   1      36.273  23.443  25.062  1.00  0.00     0.022 C 
ENDBRANCH  16  18
ENDBRANCH   7  16
ENDBRANCH   4   6
ENDBRANCH   3   4
ENDBRANCH   2   3
ENDBRANCH   1   2
BRANCH   1  25
ATOM     25  O   UNL A   1      35.855  30.302  28.600  1.00  0.00    -0.458 OA
BRANCH  25  26
ATOM     26  C   UNL A   1      36.913  29.657  29.126  1.00  0.00     0.338 C 
ATOM     27  O   UNL A   1      37.242  29.639  30.302  1.00  0.00    -0.246 OA
BRANCH  26  28
ATOM     28  C   UNL A   1      37.754  29.018  28.109  1.00  0.00     0.060 A 
ATOM     29  C   UNL A   1      38.006  27.660  28.326  1.00  0.00     0.016 A 
ATOM     30  C   UNL A   1      38.753  29.877  27.652  1.00  0.00     0.016 A 
ATOM     31  C   UNL A   1      39.327  27.256  28.458  1.00  0.00     0.010 A 
ATOM     32  C   UNL A   1      40.064  29.451  27.724  1.00  0.00     0.010 A 
ATOM     33  C   UNL A   1      40.351  28.192  28.271  1.00  0.00    -0.014 A 
BRANCH  33  34
ATOM     34  C   UNL A   1      41.750  27.805  28.517  1.00  0.00     0.031 A 
ATOM     35  C   UNL A   1      42.249  28.124  29.889  1.00  0.00     0.074 A 
ATOM     36  C   UNL A   1      42.394  26.992  27.645  1.00  0.00     0.049 A 
ATOM     37  N   UNL A   1      43.443  28.452  30.276  1.00  0.00    -0.248 NA
ATOM     38  C   UNL A   1      41.239  28.180  30.966  1.00  0.00     0.031 C 
ATOM     39  C   UNL A   1      41.878  26.520  26.351  1.00  0.00     0.029 A 
ATOM     40  N   UNL A   1      43.501  26.202  27.839  1.00  0.00    -0.354 N 
ATOM     41  C   UNL A   1      43.359  28.533  31.667  1.00  0.00     0.074 A 
ATOM     42  C   UNL A   1      41.965  28.561  32.009  1.00  0.00     0.031 C 
ATOM     43  C   UNL A   1      42.440  25.330  26.065  1.00  0.00     0.029 A 
ATOM     44  C   UNL A   1      43.401  25.013  27.106  1.00  0.00     0.049 A 
ATOM     45  H   UNL A   1      44.263  26.441  28.416  1.00  0.00     0.167 HD
ATOM     46  C   UNL A   1      44.410  28.288  32.490  1.00  0.00     0.034 A 
ATOM     47  C   UNL A   1      43.928  23.800  27.413  1.00  0.00     0.034 A 
ATOM     48  C   UNL A   1      45.679  28.446  31.849  1.00  0.00     0.049 A 
ATOM     49  C   UNL A   1      44.967  23.996  28.444  1.00  0.00     0.074 A 
ATOM     50  C   UNL A   1      46.323  29.481  31.204  1.00  0.00     0.029 A 
ATOM     51  N   UNL A   1      46.393  27.310  31.564  1.00  0.00    -0.354 N 
ATOM     52  N   UNL A   1      46.123  24.550  28.223  1.00  0.00    -0.248 NA
ATOM     53  C   UNL A   1      44.580  23.886  29.843  1.00  0.00     0.031 C 
ATOM     54  C   UNL A   1      47.133  28.859  30.217  1.00  0.00     0.029 A 
ATOM     55  C   UNL A   1      46.941  27.480  30.322  1.00  0.00     0.049 A 
ATOM     56  H   UNL A   1      46.492  26.521  32.144  1.00  0.00     0.167 HD
ATOM     57  C   UNL A   1      46.398  25.248  29.391  1.00  0.00     0.074 A 
ATOM     58  C   UNL A   1      45.494  24.690  30.390  1.00  0.00     0.031 C 
ATOM     59  C   UNL A   1      47.105  26.415  29.359  1.00  0.00     0.034 A 
BRANCH  46  60
ATOM     60  C   UNL A   1      44.252  27.578  33.808  1.00  0.00     0.023 A 
ATOM     61  C   UNL A   1      44.663  28.240  34.981  1.00  0.00     0.012 A 
ATOM     62  C   UNL A   1      43.941  26.201  33.918  1.00  0.00     0.148 A 
ATOM     63  C   UNL A   1      44.761  27.560  36.201  1.00  0.00     0.002 A 
ATOM     64  C   UNL A   1      43.940  25.559  35.148  1.00  0.00     0.091 A 
ATOM     65  F   UNL A   1      43.772  25.460  32.816  1.00  0.00    -0.205 F 
ATOM     66  C   UNL A   1      44.377  26.226  36.292  1.00  0.00     0.022 A 
BRANCH  64  67
ATOM     67  S   UNL A   1      43.356  23.867  35.290  1.00  0.00     0.127 S 
ATOM     68  O   UNL A   1      44.253  23.325  36.302  1.00  0.00    -0.237 OA
ATOM     69  O   UNL A   1      41.971  24.053  35.720  1.00  0.00    -0.237 OA
ATOM     70  O   UNL A   1      43.485  23.320  33.941  1.00  0.00    -0.744 OA
ENDBRANCH  64  67
ENDBRANCH  46  60
BRANCH  47  71
ATOM     71  C   UNL A   1      43.446  22.443  27.043  1.00  0.00     0.023 A 
ATOM     72  C   UNL A   1      42.147  22.043  27.413  1.00  0.00     0.012 A 
ATOM     73  C   UNL A   1      44.164  21.608  26.157  1.00  0.00     0.148 A 
ATOM     74  C   UNL A   1      41.585  20.858  26.922  1.00  0.00     0.002 A 
ATOM     75  C   UNL A   1      43.616  20.412  25.699  1.00  0.00     0.091 A 
ATOM     76  F   UNL A   1      45.346  22.025  25.683  1.00  0.00    -0.205 F 
ATOM     77  C   UNL A   1      42.321  20.038  26.071  1.00  0.00     0.022 A 
BRANCH  75  78
ATOM     78  S   UNL A   1      44.536  19.305  24.621  1.00  0.00     0.127 S 
ATOM     79  O   UNL A   1      44.570  20.053  23.363  1.00  0.00    -0.237 OA
ATOM     80  O   UNL A   1      45.820  19.205  25.308  1.00  0.00    -0.237 OA
ATOM     81  O   UNL A   1      43.747  18.080  24.560  1.00  0.00    -0.744 OA
ENDBRANCH  75  78
ENDBRANCH  47  71
BRANCH  59  82
ATOM     82  C   UNL A   1      47.822  26.787  28.084  1.00  0.00     0.023 A 
ATOM     83  C   UNL A   1      49.123  26.319  27.807  1.00  0.00     0.012 A 
ATOM     84  C   UNL A   1      47.101  27.430  27.063  1.00  0.00     0.148 A 
ATOM     85  C   UNL A   1      49.703  26.508  26.552  1.00  0.00     0.002 A 
ATOM     86  C   UNL A   1      47.659  27.567  25.798  1.00  0.00     0.091 A 
ATOM     87  F   UNL A   1      45.860  27.866  27.335  1.00  0.00    -0.205 F 
ATOM     88  C   UNL A   1      48.965  27.117  25.542  1.00  0.00     0.022 A 
BRANCH  86  89
ATOM     89  S   UNL A   1      46.699  28.195  24.418  1.00  0.00     0.127 S 
ATOM     90  O   UNL A   1      47.611  27.997  23.293  1.00  0.00    -0.237 OA
ATOM     91  O   UNL A   1      45.527  27.314  24.417  1.00  0.00    -0.237 OA
ATOM     92  O   UNL A   1      46.393  29.581  24.750  1.00  0.00    -0.744 OA
ENDBRANCH  86  89
ENDBRANCH  59  82
ENDBRANCH  33  34
ENDBRANCH  26  28
ENDBRANCH  25  26
ENDBRANCH   1  25
TORSDOF 16
ENDMDL
MODEL 2
REMARK VINA RESULT:     -12.2      4.704      9.338
REMARK SMILES C[C@H]1CCCCN1C(=O)N1Cc2nc[nH]c2C[C@H]1C(=O)OCCOC(=O)c1ccc(-c2c3nc(c(-c4cccc(S(=O)(=O)[O-])c4F)c4ccc([nH]4)c(-c4cccc(S(=O)(=O)[O-])c4F)c4nc(c(-c5cccc(S(=O)(=O)[O-])c5F)c5ccc2[nH]5)C=C4)C=C3)cc1
REMARK SMILES IDX 23 1 22 2 21 3 19 4 20 5 18 6 10 7 11 8 12 9 17 10 13 11
REMARK SMILES IDX 16 12 14 13 15 14 8 16 9 17 7 18 1 19 2 20 3 21 4 22 6 23
REMARK SMILES IDX 5 24 24 25 25 26 26 27 27 28 28 29 89 30 29 31 88 32 30 33
REMARK SMILES IDX 31 34 32 35 82 36 33 37 87 38 81 39 83 40 34 41 86 42 80 43
REMARK SMILES IDX 79 44 35 46 67 47 47 48 66 49 48 50 51 51 65 52 84 53 49 54
REMARK SMILES IDX 50 55 64 57 85 58 52 59 36 60 37 61 45 62 38 63 40 64 46 65
REMARK SMILES IDX 39 66 41 67 42 68 43 69 44 70 68 71 69 72 77 73 70 74 72 75
REMARK SMILES IDX 78 76 71 77 73 78 74 79 75 80 76 81 53 82 54 83 62 84 55 85
REMARK SMILES IDX 57 86 63 87 56 88 58 89 59 90 60 91 61 92
REMARK H PARENT 15 15 83 45 51 56
REMARK Flexibility Score: inf
ROOT
ATOM      1  C   UNL A   1      32.274  31.138  27.081  1.00  0.00     0.275 C 
ENDROOT
BRANCH   1   2
ATOM      2  C   UNL A   1      32.716  29.679  27.160  1.00  0.00     0.274 C 
BRANCH   2   3
ATOM      3  O   UNL A   1      32.476  28.904  25.964  1.00  0.00    -0.461 OA
BRANCH   3   4
ATOM      4  C   UNL A   1      31.709  27.790  26.109  1.00  0.00     0.329 C 
ATOM      5  O   UNL A   1      31.097  27.515  27.142  1.00  0.00    -0.250 OA
BRANCH   4   6
ATOM      6  C   UNL A   1      31.844  26.756  24.952  1.00  0.00     0.203 C 
ATOM      7  N   UNL A   1      30.685  25.880  24.571  1.00  0.00    -0.304 N 
ATOM      8  C   UNL A   1      29.473  26.539  24.028  1.00  0.00     0.180 C 
ATOM      9  C   UNL A   1      29.833  27.795  23.296  1.00  0.00     0.081 A 
ATOM     10  C   UNL A   1      32.319  27.603  23.727  1.00  0.00     0.093 C 
ATOM     11  N   UNL A   1      28.937  28.701  22.792  1.00  0.00    -0.240 NA
ATOM     12  C   UNL A   1      31.117  28.275  23.171  1.00  0.00     0.042 A 
ATOM     13  C   UNL A   1      29.670  29.713  22.375  1.00  0.00     0.197 A 
ATOM     14  N   UNL A   1      31.007  29.499  22.585  1.00  0.00    -0.348 N 
ATOM     15  H   UNL A   1      31.743  30.112  22.359  1.00  0.00     0.167 HD
BRANCH   7  16
ATOM     16  C   UNL A   1      30.945  24.615  24.076  1.00  0.00     0.321 C 
ATOM     17  O   UNL A   1      30.302  24.202  23.108  1.00  0.00    -0.248 OA
BRANCH  16  18
ATOM     18  N   UNL A   1      31.908  23.834  24.713  1.00  0.00    -0.322 N 
ATOM     19  C   UNL A   1      33.859  24.217  23.103  1.00  0.00     0.031 C 
ATOM     20  C   UNL A   1      33.322  23.581  24.355  1.00  0.00     0.083 C 
ATOM     21  C   UNL A   1      34.271  23.985  25.497  1.00  0.00     0.025 C 
ATOM     22  C   UNL A   1      33.922  23.254  26.778  1.00  0.00     0.004 C 
ATOM     23  C   UNL A   1      31.522  23.177  25.975  1.00  0.00     0.121 C 
ATOM     24  C   UNL A   1      32.466  23.518  27.135  1.00  0.00     0.022 C 
ENDBRANCH  16  18
ENDBRANCH   7  16
ENDBRANCH   4   6
ENDBRANCH   3   4
ENDBRANCH   2   3
ENDBRANCH   1   2
BRANCH   1  25
ATOM     25  O   UNL A   1      33.379  32.044  27.172  1.00  0.00    -0.458 OA
BRANCH  25  26
ATOM     26  C   UNL A   1      32.962  33.245  27.613  1.00  0.00     0.338 C 
ATOM     27  O   UNL A   1      31.905  33.792  27.342  1.00  0.00    -0.246 OA
BRANCH  26  28
ATOM     28  C   UNL A   1      33.974  33.939  28.416  1.00  0.00     0.060 A 
ATOM     29  C   UNL A   1      35.211  34.104  27.786  1.00  0.00     0.016 A 
ATOM     30  C   UNL A   1      33.887  33.595  29.765  1.00  0.00     0.016 A 
ATOM     31  C   UNL A   1      36.330  33.550  28.393  1.00  0.00     0.010 A 
ATOM     32  C   UNL A   1      35.017  33.103  30.387  1.00  0.00     0.010 A 
ATOM     33  C   UNL A   1      36.198  32.943  29.648  1.00  0.00    -0.014 A 
BRANCH  33  34
ATOM     34  C   UNL A   1      37.350  32.255  30.253  1.00  0.00     0.031 A 
ATOM     35  C   UNL A   1      37.567  30.861  29.761  1.00  0.00     0.074 A 
ATOM     36  C   UNL A   1      38.258  32.956  30.974  1.00  0.00     0.049 A 
ATOM     37  N   UNL A   1      38.045  29.831  30.389  1.00  0.00    -0.248 NA
ATOM     38  C   UNL A   1      37.084  30.555  28.398  1.00  0.00     0.031 C 
ATOM     39  C   UNL A   1      38.165  34.376  31.348  1.00  0.00     0.029 A 
ATOM     40  N   UNL A   1      39.559  32.643  31.283  1.00  0.00    -0.354 N 
ATOM     41  C   UNL A   1      38.118  28.826  29.424  1.00  0.00     0.074 A 
ATOM     42  C   UNL A   1      37.338  29.256  28.299  1.00  0.00     0.031 C 
ATOM     43  C   UNL A   1      39.410  34.872  31.487  1.00  0.00     0.029 A 
ATOM     44  C   UNL A   1      40.361  33.792  31.295  1.00  0.00     0.049 A 
ATOM     45  H   UNL A   1      39.885  31.733  31.471  1.00  0.00     0.167 HD
ATOM     46  C   UNL A   1      39.034  27.824  29.463  1.00  0.00     0.034 A 
ATOM     47  C   UNL A   1      41.683  33.887  31.004  1.00  0.00     0.034 A 
ATOM     48  C   UNL A   1      39.552  27.584  30.773  1.00  0.00     0.049 A 
ATOM     49  C   UNL A   1      42.265  32.530  31.049  1.00  0.00     0.074 A 
ATOM     50  C   UNL A   1      39.004  27.237  31.990  1.00  0.00     0.029 A 
ATOM     51  N   UNL A   1      40.841  27.979  31.030  1.00  0.00    -0.354 N 
ATOM     52  N   UNL A   1      42.456  31.852  32.143  1.00  0.00    -0.248 NA
ATOM     53  C   UNL A   1      42.319  31.761  29.815  1.00  0.00     0.031 C 
ATOM     54  C   UNL A   1      39.839  27.847  32.964  1.00  0.00     0.029 A 
ATOM     55  C   UNL A   1      40.852  28.525  32.284  1.00  0.00     0.049 A 
ATOM     56  H   UNL A   1      41.612  27.885  30.425  1.00  0.00     0.167 HD
ATOM     57  C   UNL A   1      42.211  30.536  31.778  1.00  0.00     0.074 A 
ATOM     58  C   UNL A   1      42.273  30.526  30.320  1.00  0.00     0.031 C 
ATOM     59  C   UNL A   1      41.674  29.650  32.667  1.00  0.00     0.034 A 
BRANCH  46  60
ATOM     60  C   UNL A   1      39.692  27.286  28.221  1.00  0.00     0.023 A 
ATOM     61  C   UNL A   1      39.498  25.932  27.889  1.00  0.00     0.012 A 
ATOM     62  C   UNL A   1      40.685  27.992  27.498  1.00  0.00     0.148 A 
ATOM     63  C   UNL A   1      40.258  25.313  26.890  1.00  0.00     0.002 A 
ATOM     64  C   UNL A   1      41.363  27.402  26.441  1.00  0.00     0.091 A 
ATOM     65  F   UNL A   1      41.085  29.201  27.911  1.00  0.00    -0.205 F 
ATOM     66  C   UNL A   1      41.174  26.052  26.148  1.00  0.00     0.022 A 
BRANCH  64  67
ATOM     67  S   UNL A   1      42.474  28.372  25.418  1.00  0.00     0.127 S 
ATOM     68  O   UNL A   1      43.586  28.612  26.329  1.00  0.00    -0.237 OA
ATOM     69  O   UNL A   1      42.758  27.457  24.314  1.00  0.00    -0.237 OA
ATOM     70  O   UNL A   1      41.687  29.540  25.027  1.00  0.00    -0.744 OA
ENDBRANCH  64  67
ENDBRANCH  46  60
BRANCH  47  71
ATOM     71  C   UNL A   1      42.447  35.042  30.464  1.00  0.00     0.023 A 
ATOM     72  C   UNL A   1      43.542  35.551  31.189  1.00  0.00     0.012 A 
ATOM     73  C   UNL A   1      42.247  35.526  29.150  1.00  0.00     0.148 A 
ATOM     74  C   UNL A   1      44.403  36.505  30.631  1.00  0.00     0.002 A 
ATOM     75  C   UNL A   1      43.083  36.500  28.611  1.00  0.00     0.091 A 
ATOM     76  F   UNL A   1      41.297  34.966  28.388  1.00  0.00    -0.205 F 
ATOM     77  C   UNL A   1      44.170  36.986  29.345  1.00  0.00     0.022 A 
BRANCH  75  78
ATOM     78  S   UNL A   1      42.809  37.173  26.966  1.00  0.00     0.127 S 
ATOM     79  O   UNL A   1      43.957  38.066  26.800  1.00  0.00    -0.237 OA
ATOM     80  O   UNL A   1      42.841  35.975  26.135  1.00  0.00    -0.237 OA
ATOM     81  O   UNL A   1      41.527  37.866  27.040  1.00  0.00    -0.744 OA
ENDBRANCH  75  78
ENDBRANCH  47  71
BRANCH  59  82
ATOM     82  C   UNL A   1      41.616  30.040  34.124  1.00  0.00     0.023 A 
ATOM     83  C   UNL A   1      42.720  29.852  34.982  1.00  0.00     0.012 A 
ATOM     84  C   UNL A   1      40.525  30.799  34.580  1.00  0.00     0.148 A 
ATOM     85  C   UNL A   1      42.727  30.385  36.270  1.00  0.00     0.002 A 
ATOM     86  C   UNL A   1      40.560  31.377  35.843  1.00  0.00     0.091 A 
ATOM     87  F   UNL A   1      39.482  30.979  33.753  1.00  0.00    -0.205 F 
ATOM     88  C   UNL A   1      41.654  31.162  36.696  1.00  0.00     0.022 A 
BRANCH  86  89
ATOM     89  S   UNL A   1      39.283  32.518  36.382  1.00  0.00     0.127 S 
ATOM     90  O   UNL A   1      39.323  33.540  35.340  1.00  0.00    -0.237 OA
ATOM     91  O   UNL A   1      38.080  31.681  36.371  1.00  0.00    -0.237 OA
ATOM     92  O   UNL A   1      39.683  32.955  37.714  1.00  0.00    -0.744 OA
ENDBRANCH  86  89
ENDBRANCH  59  82
ENDBRANCH  33  34
ENDBRANCH  26  28
ENDBRANCH  25  26
ENDBRANCH   1  25
TORSDOF 16
ENDMDL
MODEL 3
REMARK VINA RESULT:     -12.0      4.039      6.129
REMARK SMILES C[C@H]1CCCCN1C(=O)N1Cc2nc[nH]c2C[C@H]1C(=O)OCCOC(=O)c1ccc(-c2c3nc(c(-c4cccc(S(=O)(=O)[O-])c4F)c4ccc([nH]4)c(-c4cccc(S(=O)(=O)[O-])c4F)c4nc(c(-c5cccc(S(=O)(=O)[O-])c5F)c5ccc2[nH]5)C=C4)C=C3)cc1
REMARK SMILES IDX 23 1 22 2 21 3 19 4 20 5 18 6 10 7 11 8 12 9 17 10 13 11
REMARK SMILES IDX 16 12 14 13 15 14 8 16 9 17 7 18 1 19 2 20 3 21 4 22 6 23
REMARK SMILES IDX 5 24 24 25 25 26 26 27 27 28 28 29 89 30 29 31 88 32 30 33
REMARK SMILES IDX 31 34 32 35 82 36 33 37 87 38 81 39 83 40 34 41 86 42 80 43
REMARK SMILES IDX 79 44 35 46 67 47 47 48 66 49 48 50 51 51 65 52 84 53 49 54
REMARK SMILES IDX 50 55 64 57 85 58 52 59 36 60 37 61 45 62 38 63 40 64 46 65
REMARK SMILES IDX 39 66 41 67 42 68 43 69 44 70 68 71 69 72 77 73 70 74 72 75
REMARK SMILES IDX 78 76 71 77 73 78 74 79 75 80 76 81 53 82 54 83 62 84 55 85
REMARK SMILES IDX 57 86 63 87 56 88 58 89 59 90 60 91 61 92
REMARK H PARENT 15 15 83 45 51 56
REMARK Flexibility Score: inf
ROOT
ATOM      1  C   UNL A   1      35.072  31.420  27.735  1.00  0.00     0.275 C 
ENDROOT
BRANCH   1   2
ATOM      2  C   UNL A   1      34.275  32.577  28.334  1.00  0.00     0.274 C 
BRANCH   2   3
ATOM      3  O   UNL A   1      34.220  32.596  29.778  1.00  0.00    -0.461 OA
BRANCH   3   4
ATOM      4  C   UNL A   1      35.165  33.344  30.409  1.00  0.00     0.329 C 
ATOM      5  O   UNL A   1      35.892  34.151  29.830  1.00  0.00    -0.250 OA
BRANCH   4   6
ATOM      6  C   UNL A   1      35.427  32.939  31.890  1.00  0.00     0.203 C 
ATOM      7  N   UNL A   1      36.487  33.634  32.696  1.00  0.00    -0.304 N 
ATOM      8  C   UNL A   1      36.303  35.078  32.976  1.00  0.00     0.180 C 
ATOM      9  C   UNL A   1      34.848  35.423  33.056  1.00  0.00     0.081 A 
ATOM     10  C   UNL A   1      34.033  33.075  32.584  1.00  0.00     0.093 C 
ATOM     11  N   UNL A   1      34.340  36.691  33.172  1.00  0.00    -0.240 NA
ATOM     12  C   UNL A   1      33.827  34.517  32.870  1.00  0.00     0.042 A 
ATOM     13  C   UNL A   1      33.036  36.551  33.051  1.00  0.00     0.197 A 
ATOM     14  N   UNL A   1      32.675  35.242  32.864  1.00  0.00    -0.348 N 
ATOM     15  H   UNL A   1      31.761  34.895  32.748  1.00  0.00     0.167 HD
BRANCH   7  16
ATOM     16  C   UNL A   1      37.150  32.919  33.676  1.00  0.00     0.321 C 
ATOM     17  O   UNL A   1      36.582  32.697  34.748  1.00  0.00    -0.248 OA
BRANCH  16  18
ATOM     18  N   UNL A   1      38.456  32.499  33.428  1.00  0.00    -0.322 N 
ATOM     19  C   UNL A   1      37.944  30.324  32.180  1.00  0.00     0.031 C 
ATOM     20  C   UNL A   1      38.954  31.298  32.720  1.00  0.00     0.083 C 
ATOM     21  C   UNL A   1      39.870  31.681  31.544  1.00  0.00     0.025 C 
ATOM     22  C   UNL A   1      41.036  32.527  32.015  1.00  0.00     0.004 C 
ATOM     23  C   UNL A   1      39.548  33.381  33.878  1.00  0.00     0.121 C 
ATOM     24  C   UNL A   1      40.512  33.755  32.745  1.00  0.00     0.022 C 
ENDBRANCH  16  18
ENDBRANCH   7  16
ENDBRANCH   4   6
ENDBRANCH   3   4
ENDBRANCH   2   3
ENDBRANCH   1   2
BRANCH   1  25
ATOM     25  O   UNL A   1      35.694  30.614  28.742  1.00  0.00    -0.458 OA
BRANCH  25  26
ATOM     26  C   UNL A   1      37.033  30.653  28.611  1.00  0.00     0.338 C 
ATOM     27  O   UNL A   1      37.758  31.609  28.839  1.00  0.00    -0.246 OA
BRANCH  26  28
ATOM     28  C   UNL A   1      37.586  29.418  28.047  1.00  0.00     0.060 A 
ATOM     29  C   UNL A   1      37.734  28.371  28.961  1.00  0.00     0.016 A 
ATOM     30  C   UNL A   1      38.559  29.683  27.083  1.00  0.00     0.016 A 
ATOM     31  C   UNL A   1      39.006  27.852  29.156  1.00  0.00     0.010 A 
ATOM     32  C   UNL A   1      39.807  29.115  27.243  1.00  0.00     0.010 A 
ATOM     33  C   UNL A   1      40.065  28.320  28.369  1.00  0.00    -0.014 A 
BRANCH  33  34
ATOM     34  C   UNL A   1      41.437  27.861  28.639  1.00  0.00     0.031 A 
ATOM     35  C   UNL A   1      41.930  28.160  30.017  1.00  0.00     0.074 A 
ATOM     36  C   UNL A   1      42.050  27.010  27.782  1.00  0.00     0.049 A 
ATOM     37  N   UNL A   1      43.134  28.426  30.422  1.00  0.00    -0.248 NA
ATOM     38  C   UNL A   1      40.907  28.276  31.078  1.00  0.00     0.031 C 
ATOM     39  C   UNL A   1      41.531  26.558  26.482  1.00  0.00     0.029 A 
ATOM     40  N   UNL A   1      43.110  26.163  27.997  1.00  0.00    -0.354 N 
ATOM     41  C   UNL A   1      43.032  28.521  31.811  1.00  0.00     0.074 A 
ATOM     42  C   UNL A   1      41.636  28.624  32.130  1.00  0.00     0.031 C 
ATOM     43  C   UNL A   1      42.034  25.338  26.211  1.00  0.00     0.029 A 
ATOM     44  C   UNL A   1      42.959  24.976  27.269  1.00  0.00     0.049 A 
ATOM     45  H   UNL A   1      43.875  26.365  28.585  1.00  0.00     0.167 HD
ATOM     46  C   UNL A   1      44.055  28.225  32.652  1.00  0.00     0.034 A 
ATOM     47  C   UNL A   1      43.416  23.739  27.590  1.00  0.00     0.034 A 
ATOM     48  C   UNL A   1      45.340  28.311  32.032  1.00  0.00     0.049 A 
ATOM     49  C   UNL A   1      44.447  23.886  28.637  1.00  0.00     0.074 A 
ATOM     50  C   UNL A   1      46.049  29.306  31.392  1.00  0.00     0.029 A 
ATOM     51  N   UNL A   1      45.997  27.137  31.763  1.00  0.00    -0.354 N 
ATOM     52  N   UNL A   1      45.635  24.376  28.432  1.00  0.00    -0.248 NA
ATOM     53  C   UNL A   1      44.033  23.804  30.030  1.00  0.00     0.031 C 
ATOM     54  C   UNL A   1      46.841  28.636  30.421  1.00  0.00     0.029 A 
ATOM     55  C   UNL A   1      46.574  27.271  30.530  1.00  0.00     0.049 A 
ATOM     56  H   UNL A   1      46.045  26.347  32.349  1.00  0.00     0.167 HD
ATOM     57  C   UNL A   1      45.928  25.065  29.601  1.00  0.00     0.074 A 
ATOM     58  C   UNL A   1      44.980  24.562  30.588  1.00  0.00     0.031 C 
ATOM     59  C   UNL A   1      46.697  26.193  29.575  1.00  0.00     0.034 A 
BRANCH  46  60
ATOM     60  C   UNL A   1      43.838  27.532  33.971  1.00  0.00     0.023 A 
ATOM     61  C   UNL A   1      42.868  26.515  34.044  1.00  0.00     0.012 A 
ATOM     62  C   UNL A   1      44.377  27.999  35.194  1.00  0.00     0.148 A 
ATOM     63  C   UNL A   1      42.453  25.994  35.276  1.00  0.00     0.002 A 
ATOM     64  C   UNL A   1      44.039  27.409  36.403  1.00  0.00     0.091 A 
ATOM     65  F   UNL A   1      45.122  29.112  35.219  1.00  0.00    -0.205 F 
ATOM     66  C   UNL A   1      43.056  26.422  36.455  1.00  0.00     0.022 A 
BRANCH  64  67
ATOM     67  S   UNL A   1      44.880  27.888  37.916  1.00  0.00     0.127 S 
ATOM     68  O   UNL A   1      44.464  29.277  38.061  1.00  0.00    -0.237 OA
ATOM     69  O   UNL A   1      44.310  26.961  38.893  1.00  0.00    -0.237 OA
ATOM     70  O   UNL A   1      46.296  27.655  37.638  1.00  0.00    -0.744 OA
ENDBRANCH  64  67
ENDBRANCH  46  60
BRANCH  47  71
ATOM     71  C   UNL A   1      42.868  22.408  27.220  1.00  0.00     0.023 A 
ATOM     72  C   UNL A   1      41.507  22.128  27.451  1.00  0.00     0.012 A 
ATOM     73  C   UNL A   1      43.610  21.478  26.456  1.00  0.00     0.148 A 
ATOM     74  C   UNL A   1      40.908  20.968  26.944  1.00  0.00     0.002 A 
ATOM     75  C   UNL A   1      43.021  20.308  25.983  1.00  0.00     0.091 A 
ATOM     76  F   UNL A   1      44.869  21.779  26.106  1.00  0.00    -0.205 F 
ATOM     77  C   UNL A   1      41.666  20.053  26.217  1.00  0.00     0.022 A 
BRANCH  75  78
ATOM     78  S   UNL A   1      43.962  19.083  25.063  1.00  0.00     0.127 S 
ATOM     79  O   UNL A   1      44.111  19.723  23.755  1.00  0.00    -0.237 OA
ATOM     80  O   UNL A   1      45.192  18.991  25.842  1.00  0.00    -0.237 OA
ATOM     81  O   UNL A   1      43.127  17.887  25.044  1.00  0.00    -0.744 OA
ENDBRANCH  75  78
ENDBRANCH  47  71
BRANCH  59  82
ATOM     82  C   UNL A   1      47.452  26.519  28.310  1.00  0.00     0.023 A 
ATOM     83  C   UNL A   1      48.719  25.959  28.044  1.00  0.00     0.012 A 
ATOM     84  C   UNL A   1      46.791  27.218  27.286  1.00  0.00     0.148 A 
ATOM     85  C   UNL A   1      49.325  26.113  26.797  1.00  0.00     0.002 A 
ATOM     86  C   UNL A   1      47.372  27.320  26.028  1.00  0.00     0.091 A 
ATOM     87  F   UNL A   1      45.582  27.741  27.547  1.00  0.00    -0.205 F 
ATOM     88  C   UNL A   1      48.644  26.779  25.782  1.00  0.00     0.022 A 
BRANCH  86  89
ATOM     89  S   UNL A   1      46.475  28.024  24.641  1.00  0.00     0.127 S 
ATOM     90  O   UNL A   1      47.224  27.510  23.497  1.00  0.00    -0.237 OA
ATOM     91  O   UNL A   1      45.136  27.451  24.803  1.00  0.00    -0.237 OA
ATOM     92  O   UNL A   1      46.523  29.468  24.833  1.00  0.00    -0.744 OA
ENDBRANCH  86  89
ENDBRANCH  59  82
ENDBRANCH  33  34
ENDBRANCH  26  28
ENDBRANCH  25  26
ENDBRANCH   1  25
TORSDOF 16
ENDMDL
