MODEL 1
REMARK VINA RESULT:     -13.0      0.000      0.000
REMARK SMILES Cc1ccc(S(=O)(=O)n2cc(C(=O)C(=O)NCC(=O)N[C@H](Cc3c[nH]c4ccccc34)C(=O)OCCOC(=O)c3ccc(-c4c5nc(c(-c6cccc(S(=O)(=O)[O-])c6F)c6ccc([nH]6)c(-c6cccc(S(=O)(=O)[O-])c6F)c6nc(c(-c7cccc(S(=O)(=O)[O-])c7F)c7ccc4[nH]7)C=C6)C=C5)cc3)c3ccccc32)cc1
REMARK SMILES IDX 32 1 33 2 21 3 20 4 18 5 19 6 17 8 16 9 14 10 15 11 12 13
REMARK SMILES IDX 13 14 11 15 9 16 10 17 108 18 103 19 107 20 104 21 106 22
REMARK SMILES IDX 105 23 6 24 7 25 8 26 5 27 1 28 2 29 3 30 110 31 4 32 109 33
REMARK SMILES IDX 22 34 23 35 24 36 31 37 25 38 26 39 30 40 27 42 29 43 28 44
REMARK SMILES IDX 34 45 35 46 36 47 37 48 38 49 39 50 40 51 41 52 102 53 42 54
REMARK SMILES IDX 101 55 43 56 44 57 45 58 95 59 46 60 100 61 94 62 96 63
REMARK SMILES IDX 47 64 99 65 93 66 92 67 48 69 80 70 60 71 79 72 61 73 64 74
REMARK SMILES IDX 78 75 97 76 62 77 63 78 77 80 98 81 65 82 49 83 50 84 58 85
REMARK SMILES IDX 51 86 53 87 59 88 52 89 54 90 55 91 56 92 57 93 81 94 82 95
REMARK SMILES IDX 90 96 83 97 85 98 91 99 84 100 86 101 87 102 88 103 89 104
REMARK SMILES IDX 66 105 67 106 75 107 68 108 70 109 76 110 69 111 71 112
REMARK SMILES IDX 72 113 73 114 74 115
REMARK H PARENT 20 7 16 12 25 41 96 68 64 79
REMARK Flexibility Score: inf
ROOT
ATOM      1  C   UNL A   1      33.588  29.329  26.109  1.00  0.00     0.329 C 
ATOM      2  O   UNL A   1      34.535  28.769  26.651  1.00  0.00    -0.250 OA
ENDROOT
BRANCH   1   3
ATOM      3  C   UNL A   1      32.598  28.567  25.182  1.00  0.00     0.196 C 
BRANCH   3   4
ATOM      4  N   UNL A   1      32.022  29.233  23.985  1.00  0.00    -0.341 N 
ATOM      5  C   UNL A   1      31.442  28.789  22.824  1.00  0.00     0.240 C 
ATOM      6  O   UNL A   1      30.917  29.666  22.125  1.00  0.00    -0.273 OA
ATOM      7  H   UNL A   1      32.065  30.214  24.036  1.00  0.00     0.164 HD
BRANCH   5   8
ATOM      8  C   UNL A   1      31.383  27.311  22.338  1.00  0.00     0.216 C 
BRANCH   8   9
ATOM      9  N   UNL A   1      32.381  26.745  21.412  1.00  0.00    -0.340 N 
ATOM     10  C   UNL A   1      33.105  25.559  21.577  1.00  0.00     0.292 C 
ATOM     11  O   UNL A   1      33.200  24.718  20.689  1.00  0.00    -0.265 OA
ATOM     12  H   UNL A   1      32.557  27.256  20.589  1.00  0.00     0.164 HD
BRANCH  10  13
ATOM     13  C   UNL A   1      33.733  25.308  22.954  1.00  0.00     0.252 C 
ATOM     14  O   UNL A   1      34.343  26.263  23.449  1.00  0.00    -0.283 OA
BRANCH  13  15
ATOM     15  C   UNL A   1      33.546  24.132  23.825  1.00  0.00     0.054 A 
ATOM     16  N   UNL A   1      33.525  21.889  23.875  1.00  0.00    -0.240 N 
ATOM     17  C   UNL A   1      32.726  23.000  23.636  1.00  0.00     0.117 A 
ATOM     18  C   UNL A   1      34.821  22.374  24.126  1.00  0.00     0.065 A 
ATOM     19  C   UNL A   1      34.640  23.667  24.597  1.00  0.00     0.012 A 
ATOM     20  C   UNL A   1      36.055  21.714  24.227  1.00  0.00     0.028 A 
ATOM     21  C   UNL A   1      35.648  24.258  25.377  1.00  0.00     0.011 A 
ATOM     22  C   UNL A   1      37.018  22.286  25.053  1.00  0.00     0.002 A 
ATOM     23  C   UNL A   1      36.796  23.514  25.669  1.00  0.00     0.001 A 
BRANCH  16  24
ATOM     24  S   UNL A   1      33.233  20.484  24.823  1.00  0.00     0.268 S 
ATOM     25  O   UNL A   1      31.779  20.490  24.944  1.00  0.00    -0.201 OA
ATOM     26  O   UNL A   1      34.059  20.768  25.997  1.00  0.00    -0.201 OA
BRANCH  24  27
ATOM     27  C   UNL A   1      33.599  18.776  24.647  1.00  0.00     0.088 A 
ATOM     28  C   UNL A   1      33.603  14.508  25.381  1.00  0.00     0.044 C 
ATOM     29  C   UNL A   1      33.624  15.970  25.038  1.00  0.00    -0.051 A 
ATOM     30  C   UNL A   1      32.468  16.681  25.304  1.00  0.00     0.005 A 
ATOM     31  C   UNL A   1      34.752  16.665  24.537  1.00  0.00     0.005 A 
ATOM     32  C   UNL A   1      32.461  18.043  25.093  1.00  0.00     0.022 A 
ATOM     33  C   UNL A   1      34.755  18.080  24.344  1.00  0.00     0.022 A 
ENDBRANCH  24  27
ENDBRANCH  16  24
ENDBRANCH  13  15
ENDBRANCH  10  13
ENDBRANCH   8   9
ENDBRANCH   5   8
ENDBRANCH   3   4
BRANCH   3  34
ATOM     34  C   UNL A   1      31.442  28.109  26.139  1.00  0.00     0.074 C 
BRANCH  34  35
ATOM     35  C   UNL A   1      30.828  26.753  25.800  1.00  0.00    -0.020 A 
ATOM     36  C   UNL A   1      29.609  26.515  25.194  1.00  0.00     0.087 A 
ATOM     37  C   UNL A   1      31.321  25.468  26.237  1.00  0.00     0.003 A 
ATOM     38  N   UNL A   1      29.320  25.176  25.308  1.00  0.00    -0.361 N 
ATOM     39  C   UNL A   1      30.314  24.529  26.006  1.00  0.00     0.046 A 
ATOM     40  C   UNL A   1      32.473  25.050  26.937  1.00  0.00     0.010 A 
ATOM     41  H   UNL A   1      28.516  24.741  24.942  1.00  0.00     0.166 HD
ATOM     42  C   UNL A   1      30.375  23.217  26.503  1.00  0.00     0.026 A 
ATOM     43  C   UNL A   1      32.554  23.742  27.432  1.00  0.00     0.001 A 
ATOM     44  C   UNL A   1      31.510  22.846  27.234  1.00  0.00     0.002 A 
ENDBRANCH  34  35
ENDBRANCH   3  34
ENDBRANCH   1   3
BRANCH   1  45
ATOM     45  O   UNL A   1      33.174  30.586  26.406  1.00  0.00    -0.461 OA
BRANCH  45  46
ATOM     46  C   UNL A   1      33.560  31.272  27.616  1.00  0.00     0.274 C 
BRANCH  46  47
ATOM     47  C   UNL A   1      33.950  32.769  27.722  1.00  0.00     0.275 C 
BRANCH  47  48
ATOM     48  O   UNL A   1      33.553  33.704  28.768  1.00  0.00    -0.458 OA
BRANCH  48  49
ATOM     49  C   UNL A   1      34.068  33.956  29.995  1.00  0.00     0.338 C 
ATOM     50  O   UNL A   1      33.566  34.752  30.778  1.00  0.00    -0.246 OA
BRANCH  49  51
ATOM     51  C   UNL A   1      35.264  33.189  30.309  1.00  0.00     0.060 A 
ATOM     52  C   UNL A   1      35.160  32.067  31.139  1.00  0.00     0.016 A 
ATOM     53  C   UNL A   1      36.427  33.488  29.610  1.00  0.00     0.016 A 
ATOM     54  C   UNL A   1      36.212  31.158  31.178  1.00  0.00     0.010 A 
ATOM     55  C   UNL A   1      37.425  32.544  29.593  1.00  0.00     0.010 A 
ATOM     56  C   UNL A   1      37.328  31.386  30.390  1.00  0.00    -0.014 A 
BRANCH  56  57
ATOM     57  C   UNL A   1      38.555  30.622  30.521  1.00  0.00     0.031 A 
ATOM     58  C   UNL A   1      38.865  29.368  29.797  1.00  0.00     0.074 A 
ATOM     59  C   UNL A   1      39.485  31.314  31.213  1.00  0.00     0.049 A 
ATOM     60  N   UNL A   1      39.792  28.549  30.172  1.00  0.00    -0.248 NA
ATOM     61  C   UNL A   1      38.163  28.906  28.600  1.00  0.00     0.031 C 
ATOM     62  C   UNL A   1      40.918  31.223  31.071  1.00  0.00     0.029 A 
ATOM     63  N   UNL A   1      39.287  32.311  32.184  1.00  0.00    -0.354 N 
ATOM     64  C   UNL A   1      40.017  27.661  29.136  1.00  0.00     0.074 A 
ATOM     65  C   UNL A   1      38.884  27.826  28.255  1.00  0.00     0.031 C 
ATOM     66  C   UNL A   1      41.486  31.967  32.034  1.00  0.00     0.029 A 
ATOM     67  C   UNL A   1      40.440  32.421  32.948  1.00  0.00     0.049 A 
ATOM     68  H   UNL A   1      38.465  32.843  32.302  1.00  0.00     0.167 HD
ATOM     69  C   UNL A   1      41.238  27.053  29.037  1.00  0.00     0.034 A 
ATOM     70  C   UNL A   1      40.478  32.294  34.307  1.00  0.00     0.034 A 
ATOM     71  C   UNL A   1      42.114  27.523  30.124  1.00  0.00     0.049 A 
ATOM     72  C   UNL A   1      41.131  30.971  34.676  1.00  0.00     0.074 A 
ATOM     73  C   UNL A   1      43.058  28.538  30.149  1.00  0.00     0.029 A 
ATOM     74  N   UNL A   1      41.868  27.176  31.446  1.00  0.00    -0.354 N 
ATOM     75  N   UNL A   1      41.586  30.107  33.812  1.00  0.00    -0.248 NA
ATOM     76  C   UNL A   1      41.307  30.506  36.048  1.00  0.00     0.031 C 
ATOM     77  C   UNL A   1      43.315  28.862  31.503  1.00  0.00     0.029 A 
ATOM     78  C   UNL A   1      42.554  28.027  32.304  1.00  0.00     0.049 A 
ATOM     79  H   UNL A   1      41.290  26.434  31.735  1.00  0.00     0.167 HD
ATOM     80  C   UNL A   1      42.022  28.980  34.446  1.00  0.00     0.074 A 
ATOM     81  C   UNL A   1      41.874  29.302  35.856  1.00  0.00     0.031 C 
ATOM     82  C   UNL A   1      42.448  27.881  33.752  1.00  0.00     0.034 A 
BRANCH  69  83
ATOM     83  C   UNL A   1      41.823  26.361  27.802  1.00  0.00     0.023 A 
ATOM     84  C   UNL A   1      42.146  27.197  26.701  1.00  0.00     0.012 A 
ATOM     85  C   UNL A   1      42.049  24.979  27.600  1.00  0.00     0.148 A 
ATOM     86  C   UNL A   1      42.548  26.711  25.453  1.00  0.00     0.002 A 
ATOM     87  C   UNL A   1      42.433  24.484  26.340  1.00  0.00     0.091 A 
ATOM     88  F   UNL A   1      41.941  24.135  28.632  1.00  0.00    -0.205 F 
ATOM     89  C   UNL A   1      42.668  25.348  25.264  1.00  0.00     0.022 A 
BRANCH  87  90
ATOM     90  S   UNL A   1      42.609  22.726  25.972  1.00  0.00     0.127 S 
ATOM     91  O   UNL A   1      43.615  22.306  26.951  1.00  0.00    -0.237 OA
ATOM     92  O   UNL A   1      41.265  22.212  26.230  1.00  0.00    -0.237 OA
ATOM     93  O   UNL A   1      43.051  22.642  24.585  1.00  0.00    -0.744 OA
ENDBRANCH  87  90
ENDBRANCH  69  83
BRANCH  70  94
ATOM     94  C   UNL A   1      39.366  32.932  35.072  1.00  0.00     0.023 A 
ATOM     95  C   UNL A   1      38.358  32.115  35.647  1.00  0.00     0.012 A 
ATOM     96  C   UNL A   1      39.463  34.243  35.518  1.00  0.00     0.148 A 
ATOM     97  C   UNL A   1      37.537  32.575  36.690  1.00  0.00     0.002 A 
ATOM     98  C   UNL A   1      38.894  34.549  36.747  1.00  0.00     0.091 A 
ATOM     99  F   UNL A   1      40.305  35.111  34.942  1.00  0.00    -0.205 F 
ATOM    100  C   UNL A   1      37.806  33.813  37.256  1.00  0.00     0.022 A 
BRANCH  98 101
ATOM    101  S   UNL A   1      40.236  34.575  38.000  1.00  0.00     0.127 S 
ATOM    102  O   UNL A   1      41.126  33.516  37.536  1.00  0.00    -0.237 OA
ATOM    103  O   UNL A   1      40.725  35.933  37.776  1.00  0.00    -0.237 OA
ATOM    104  O   UNL A   1      39.594  34.359  39.284  1.00  0.00    -0.744 OA
ENDBRANCH  98 101
ENDBRANCH  70  94
BRANCH  82 105
ATOM    105  C   UNL A   1      42.889  26.584  34.381  1.00  0.00     0.023 A 
ATOM    106  C   UNL A   1      41.980  25.663  34.930  1.00  0.00     0.012 A 
ATOM    107  C   UNL A   1      44.255  26.203  34.350  1.00  0.00     0.148 A 
ATOM    108  C   UNL A   1      42.411  24.468  35.512  1.00  0.00     0.002 A 
ATOM    109  C   UNL A   1      44.661  24.960  34.817  1.00  0.00     0.091 A 
ATOM    110  F   UNL A   1      45.182  27.058  33.897  1.00  0.00    -0.205 F 
ATOM    111  C   UNL A   1      43.749  24.106  35.439  1.00  0.00     0.022 A 
BRANCH 109 112
ATOM    112  S   UNL A   1      46.324  24.363  34.498  1.00  0.00     0.127 S 
ATOM    113  O   UNL A   1      46.220  22.952  34.864  1.00  0.00    -0.237 OA
ATOM    114  O   UNL A   1      46.477  24.610  33.063  1.00  0.00    -0.237 OA
ATOM    115  O   UNL A   1      47.187  25.185  35.336  1.00  0.00    -0.744 OA
ENDBRANCH 109 112
ENDBRANCH  82 105
ENDBRANCH  56  57
ENDBRANCH  49  51
ENDBRANCH  48  49
ENDBRANCH  47  48
ENDBRANCH  46  47
ENDBRANCH  45  46
ENDBRANCH   1  45
TORSDOF 23
ENDMDL
MODEL 2
REMARK VINA RESULT:     -12.7      4.129     10.616
REMARK SMILES Cc1ccc(S(=O)(=O)n2cc(C(=O)C(=O)NCC(=O)N[C@H](Cc3c[nH]c4ccccc34)C(=O)OCCOC(=O)c3ccc(-c4c5nc(c(-c6cccc(S(=O)(=O)[O-])c6F)c6ccc([nH]6)c(-c6cccc(S(=O)(=O)[O-])c6F)c6nc(c(-c7cccc(S(=O)(=O)[O-])c7F)c7ccc4[nH]7)C=C6)C=C5)cc3)c3ccccc32)cc1
REMARK SMILES IDX 32 1 33 2 21 3 20 4 18 5 19 6 17 8 16 9 14 10 15 11 12 13
REMARK SMILES IDX 13 14 11 15 9 16 10 17 108 18 103 19 107 20 104 21 106 22
REMARK SMILES IDX 105 23 6 24 7 25 8 26 5 27 1 28 2 29 3 30 110 31 4 32 109 33
REMARK SMILES IDX 22 34 23 35 24 36 31 37 25 38 26 39 30 40 27 42 29 43 28 44
REMARK SMILES IDX 34 45 35 46 36 47 37 48 38 49 39 50 40 51 41 52 102 53 42 54
REMARK SMILES IDX 101 55 43 56 44 57 45 58 95 59 46 60 100 61 94 62 96 63
REMARK SMILES IDX 47 64 99 65 93 66 92 67 48 69 80 70 60 71 79 72 61 73 64 74
REMARK SMILES IDX 78 75 97 76 62 77 63 78 77 80 98 81 65 82 49 83 50 84 58 85
REMARK SMILES IDX 51 86 53 87 59 88 52 89 54 90 55 91 56 92 57 93 81 94 82 95
REMARK SMILES IDX 90 96 83 97 85 98 91 99 84 100 86 101 87 102 88 103 89 104
REMARK SMILES IDX 66 105 67 106 75 107 68 108 70 109 76 110 69 111 71 112
REMARK SMILES IDX 72 113 73 114 74 115
REMARK H PARENT 20 7 16 12 25 41 96 68 64 79
REMARK Flexibility Score: inf
ROOT
ATOM      1  C   UNL A   1      37.450  22.567  25.245  1.00  0.00     0.329 C 
ATOM      2  O   UNL A   1      37.675  23.731  24.936  1.00  0.00    -0.250 OA
ENDROOT
BRANCH   1   3
ATOM      3  C   UNL A   1      36.010  22.049  25.523  1.00  0.00     0.196 C 
BRANCH   3   4
ATOM      4  N   UNL A   1      35.458  22.059  26.903  1.00  0.00    -0.341 N 
ATOM      5  C   UNL A   1      34.286  22.495  27.466  1.00  0.00     0.240 C 
ATOM      6  O   UNL A   1      34.113  22.169  28.648  1.00  0.00    -0.273 OA
ATOM      7  H   UNL A   1      36.071  21.662  27.562  1.00  0.00     0.164 HD
BRANCH   5   8
ATOM      8  C   UNL A   1      33.184  23.333  26.752  1.00  0.00     0.216 C 
BRANCH   8   9
ATOM      9  N   UNL A   1      31.746  23.100  26.976  1.00  0.00    -0.340 N 
ATOM     10  C   UNL A   1      30.738  23.070  26.007  1.00  0.00     0.292 C 
ATOM     11  O   UNL A   1      29.906  22.170  25.951  1.00  0.00    -0.265 OA
ATOM     12  H   UNL A   1      31.465  22.950  27.908  1.00  0.00     0.164 HD
BRANCH  10  13
ATOM     13  C   UNL A   1      30.745  24.185  24.954  1.00  0.00     0.252 C 
ATOM     14  O   UNL A   1      30.356  23.862  23.826  1.00  0.00    -0.283 OA
BRANCH  13  15
ATOM     15  C   UNL A   1      30.987  25.624  25.172  1.00  0.00     0.054 A 
ATOM     16  N   UNL A   1      32.299  27.109  26.224  1.00  0.00    -0.240 N 
ATOM     17  C   UNL A   1      31.161  26.328  26.382  1.00  0.00     0.117 A 
ATOM     18  C   UNL A   1      32.825  26.800  24.957  1.00  0.00     0.065 A 
ATOM     19  C   UNL A   1      31.743  26.347  24.215  1.00  0.00     0.012 A 
ATOM     20  C   UNL A   1      34.050  27.124  24.357  1.00  0.00     0.028 A 
ATOM     21  C   UNL A   1      31.801  26.409  22.813  1.00  0.00     0.011 A 
ATOM     22  C   UNL A   1      34.072  27.238  22.971  1.00  0.00     0.002 A 
ATOM     23  C   UNL A   1      32.944  26.943  22.210  1.00  0.00     0.001 A 
BRANCH  16  24
ATOM     24  S   UNL A   1      32.577  28.768  26.583  1.00  0.00     0.268 S 
ATOM     25  O   UNL A   1      31.502  29.064  27.526  1.00  0.00    -0.201 OA
ATOM     26  O   UNL A   1      32.542  29.349  25.241  1.00  0.00    -0.201 OA
BRANCH  24  27
ATOM     27  C   UNL A   1      33.925  29.683  27.235  1.00  0.00     0.088 A 
ATOM     28  C   UNL A   1      36.469  33.039  28.248  1.00  0.00     0.044 C 
ATOM     29  C   UNL A   1      35.624  31.830  27.969  1.00  0.00    -0.051 A 
ATOM     30  C   UNL A   1      34.256  32.029  27.936  1.00  0.00     0.005 A 
ATOM     31  C   UNL A   1      36.132  30.541  27.673  1.00  0.00     0.005 A 
ATOM     32  C   UNL A   1      33.437  30.973  27.595  1.00  0.00     0.022 A 
ATOM     33  C   UNL A   1      35.287  29.454  27.293  1.00  0.00     0.022 A 
ENDBRANCH  24  27
ENDBRANCH  16  24
ENDBRANCH  13  15
ENDBRANCH  10  13
ENDBRANCH   8   9
ENDBRANCH   5   8
ENDBRANCH   3   4
BRANCH   3  34
ATOM     34  C   UNL A   1      36.009  20.582  24.965  1.00  0.00     0.074 C 
BRANCH  34  35
ATOM     35  C   UNL A   1      34.625  20.009  24.670  1.00  0.00    -0.020 A 
ATOM     36  C   UNL A   1      33.426  20.695  24.633  1.00  0.00     0.087 A 
ATOM     37  C   UNL A   1      34.292  18.607  24.577  1.00  0.00     0.003 A 
ATOM     38  N   UNL A   1      32.401  19.780  24.593  1.00  0.00    -0.361 N 
ATOM     39  C   UNL A   1      32.901  18.498  24.633  1.00  0.00     0.046 A 
ATOM     40  C   UNL A   1      35.053  17.418  24.596  1.00  0.00     0.010 A 
ATOM     41  H   UNL A   1      31.445  20.009  24.543  1.00  0.00     0.166 HD
ATOM     42  C   UNL A   1      32.244  17.265  24.779  1.00  0.00     0.026 A 
ATOM     43  C   UNL A   1      34.414  16.180  24.731  1.00  0.00     0.001 A 
ATOM     44  C   UNL A   1      33.029  16.108  24.841  1.00  0.00     0.002 A 
ENDBRANCH  34  35
ENDBRANCH   3  34
ENDBRANCH   1   3
BRANCH   1  45
ATOM     45  O   UNL A   1      38.367  21.569  25.177  1.00  0.00    -0.461 OA
BRANCH  45  46
ATOM     46  C   UNL A   1      39.475  21.460  26.095  1.00  0.00     0.274 C 
BRANCH  46  47
ATOM     47  C   UNL A   1      40.393  20.221  26.263  1.00  0.00     0.275 C 
BRANCH  47  48
ATOM     48  O   UNL A   1      41.825  20.224  26.534  1.00  0.00    -0.458 OA
BRANCH  48  49
ATOM     49  C   UNL A   1      42.847  20.915  25.974  1.00  0.00     0.338 C 
ATOM     50  O   UNL A   1      43.600  20.430  25.138  1.00  0.00    -0.246 OA
BRANCH  49  51
ATOM     51  C   UNL A   1      42.966  22.288  26.440  1.00  0.00     0.060 A 
ATOM     52  C   UNL A   1      43.039  23.325  25.504  1.00  0.00     0.016 A 
ATOM     53  C   UNL A   1      42.801  22.526  27.799  1.00  0.00     0.016 A 
ATOM     54  C   UNL A   1      42.826  24.633  25.929  1.00  0.00     0.010 A 
ATOM     55  C   UNL A   1      42.511  23.810  28.193  1.00  0.00     0.010 A 
ATOM     56  C   UNL A   1      42.540  24.868  27.263  1.00  0.00    -0.014 A 
BRANCH  56  57
ATOM     57  C   UNL A   1      42.517  26.199  27.841  1.00  0.00     0.031 A 
ATOM     58  C   UNL A   1      41.304  27.026  28.039  1.00  0.00     0.074 A 
ATOM     59  C   UNL A   1      43.709  26.509  28.393  1.00  0.00     0.049 A 
ATOM     60  N   UNL A   1      41.347  28.303  28.236  1.00  0.00    -0.248 NA
ATOM     61  C   UNL A   1      39.936  26.509  28.022  1.00  0.00     0.031 C 
ATOM     62  C   UNL A   1      43.944  27.385  29.516  1.00  0.00     0.029 A 
ATOM     63  N   UNL A   1      44.982  26.021  28.050  1.00  0.00    -0.354 N 
ATOM     64  C   UNL A   1      40.098  28.706  28.674  1.00  0.00     0.074 A 
ATOM     65  C   UNL A   1      39.226  27.593  28.377  1.00  0.00     0.031 C 
ATOM     66  C   UNL A   1      45.271  27.536  29.663  1.00  0.00     0.029 A 
ATOM     67  C   UNL A   1      45.939  26.908  28.525  1.00  0.00     0.049 A 
ATOM     68  H   UNL A   1      45.164  25.189  27.555  1.00  0.00     0.167 HD
ATOM     69  C   UNL A   1      39.996  29.840  29.432  1.00  0.00     0.034 A 
ATOM     70  C   UNL A   1      46.889  27.503  27.747  1.00  0.00     0.034 A 
ATOM     71  C   UNL A   1      41.334  30.416  29.644  1.00  0.00     0.049 A 
ATOM     72  C   UNL A   1      46.547  28.975  27.565  1.00  0.00     0.074 A 
ATOM     73  C   UNL A   1      42.227  30.267  30.694  1.00  0.00     0.029 A 
ATOM     74  N   UNL A   1      42.045  30.986  28.596  1.00  0.00    -0.354 N 
ATOM     75  N   UNL A   1      45.505  29.560  28.087  1.00  0.00    -0.248 NA
ATOM     76  C   UNL A   1      47.341  29.900  26.764  1.00  0.00     0.031 C 
ATOM     77  C   UNL A   1      43.506  30.670  30.241  1.00  0.00     0.029 A 
ATOM     78  C   UNL A   1      43.390  31.095  28.928  1.00  0.00     0.049 A 
ATOM     79  H   UNL A   1      41.653  31.273  27.740  1.00  0.00     0.167 HD
ATOM     80  C   UNL A   1      45.420  30.853  27.662  1.00  0.00     0.074 A 
ATOM     81  C   UNL A   1      46.627  31.035  26.873  1.00  0.00     0.031 C 
ATOM     82  C   UNL A   1      44.356  31.650  27.985  1.00  0.00     0.034 A 
BRANCH  69  83
ATOM     83  C   UNL A   1      38.815  30.248  30.320  1.00  0.00     0.023 A 
ATOM     84  C   UNL A   1      37.852  29.241  30.595  1.00  0.00     0.012 A 
ATOM     85  C   UNL A   1      38.539  31.519  30.875  1.00  0.00     0.148 A 
ATOM     86  C   UNL A   1      36.649  29.486  31.263  1.00  0.00     0.002 A 
ATOM     87  C   UNL A   1      37.320  31.775  31.529  1.00  0.00     0.091 A 
ATOM     88  F   UNL A   1      39.468  32.480  30.820  1.00  0.00    -0.205 F 
ATOM     89  C   UNL A   1      36.369  30.762  31.710  1.00  0.00     0.022 A 
BRANCH  87  90
ATOM     90  S   UNL A   1      36.840  33.403  32.143  1.00  0.00     0.127 S 
ATOM     91  O   UNL A   1      35.491  33.552  31.593  1.00  0.00    -0.237 OA
ATOM     92  O   UNL A   1      36.883  33.220  33.593  1.00  0.00    -0.237 OA
ATOM     93  O   UNL A   1      37.814  34.345  31.607  1.00  0.00    -0.744 OA
ENDBRANCH  87  90
ENDBRANCH  69  83
BRANCH  70  94
ATOM     94  C   UNL A   1      47.538  26.651  26.708  1.00  0.00     0.023 A 
ATOM     95  C   UNL A   1      47.041  26.672  25.379  1.00  0.00     0.012 A 
ATOM     96  C   UNL A   1      48.797  26.103  26.916  1.00  0.00     0.148 A 
ATOM     97  C   UNL A   1      47.816  26.236  24.291  1.00  0.00     0.002 A 
ATOM     98  C   UNL A   1      49.647  26.009  25.820  1.00  0.00     0.091 A 
ATOM     99  F   UNL A   1      49.286  25.936  28.150  1.00  0.00    -0.205 F 
ATOM    100  C   UNL A   1      49.145  25.900  24.509  1.00  0.00     0.022 A 
BRANCH  98 101
ATOM    101  S   UNL A   1      50.821  27.419  25.895  1.00  0.00     0.127 S 
ATOM    102  O   UNL A   1      51.198  27.447  27.305  1.00  0.00    -0.237 OA
ATOM    103  O   UNL A   1      51.848  26.903  24.993  1.00  0.00    -0.237 OA
ATOM    104  O   UNL A   1      50.095  28.575  25.400  1.00  0.00    -0.744 OA
ENDBRANCH  98 101
ENDBRANCH  70  94
BRANCH  82 105
ATOM    105  C   UNL A   1      44.165  33.067  27.507  1.00  0.00     0.023 A 
ATOM    106  C   UNL A   1      43.911  33.383  26.161  1.00  0.00     0.012 A 
ATOM    107  C   UNL A   1      44.141  34.137  28.437  1.00  0.00     0.148 A 
ATOM    108  C   UNL A   1      43.742  34.704  25.739  1.00  0.00     0.002 A 
ATOM    109  C   UNL A   1      43.847  35.432  28.029  1.00  0.00     0.091 A 
ATOM    110  F   UNL A   1      44.435  33.916  29.726  1.00  0.00    -0.205 F 
ATOM    111  C   UNL A   1      43.690  35.728  26.675  1.00  0.00     0.022 A 
BRANCH 109 112
ATOM    112  S   UNL A   1      43.516  36.718  29.239  1.00  0.00     0.127 S 
ATOM    113  O   UNL A   1      44.817  37.372  29.356  1.00  0.00    -0.237 OA
ATOM    114  O   UNL A   1      42.489  37.520  28.572  1.00  0.00    -0.237 OA
ATOM    115  O   UNL A   1      43.041  36.010  30.421  1.00  0.00    -0.744 OA
ENDBRANCH 109 112
ENDBRANCH  82 105
ENDBRANCH  56  57
ENDBRANCH  49  51
ENDBRANCH  48  49
ENDBRANCH  47  48
ENDBRANCH  46  47
ENDBRANCH  45  46
ENDBRANCH   1  45
TORSDOF 23
ENDMDL
MODEL 3
REMARK VINA RESULT:     -12.6      3.968     10.277
REMARK SMILES Cc1ccc(S(=O)(=O)n2cc(C(=O)C(=O)NCC(=O)N[C@H](Cc3c[nH]c4ccccc34)C(=O)OCCOC(=O)c3ccc(-c4c5nc(c(-c6cccc(S(=O)(=O)[O-])c6F)c6ccc([nH]6)c(-c6cccc(S(=O)(=O)[O-])c6F)c6nc(c(-c7cccc(S(=O)(=O)[O-])c7F)c7ccc4[nH]7)C=C6)C=C5)cc3)c3ccccc32)cc1
REMARK SMILES IDX 32 1 33 2 21 3 20 4 18 5 19 6 17 8 16 9 14 10 15 11 12 13
REMARK SMILES IDX 13 14 11 15 9 16 10 17 108 18 103 19 107 20 104 21 106 22
REMARK SMILES IDX 105 23 6 24 7 25 8 26 5 27 1 28 2 29 3 30 110 31 4 32 109 33
REMARK SMILES IDX 22 34 23 35 24 36 31 37 25 38 26 39 30 40 27 42 29 43 28 44
REMARK SMILES IDX 34 45 35 46 36 47 37 48 38 49 39 50 40 51 41 52 102 53 42 54
REMARK SMILES IDX 101 55 43 56 44 57 45 58 95 59 46 60 100 61 94 62 96 63
REMARK SMILES IDX 47 64 99 65 93 66 92 67 48 69 80 70 60 71 79 72 61 73 64 74
REMARK SMILES IDX 78 75 97 76 62 77 63 78 77 80 98 81 65 82 49 83 50 84 58 85
REMARK SMILES IDX 51 86 53 87 59 88 52 89 54 90 55 91 56 92 57 93 81 94 82 95
REMARK SMILES IDX 90 96 83 97 85 98 91 99 84 100 86 101 87 102 88 103 89 104
REMARK SMILES IDX 66 105 67 106 75 107 68 108 70 109 76 110 69 111 71 112
REMARK SMILES IDX 72 113 73 114 74 115
REMARK H PARENT 20 7 16 12 25 41 96 68 64 79
REMARK Flexibility Score: inf
ROOT
ATOM      1  C   UNL A   1      34.892  22.624  23.626  1.00  0.00     0.329 C 
ATOM      2  O   UNL A   1      34.224  23.034  22.684  1.00  0.00    -0.250 OA
ENDROOT
BRANCH   1   3
ATOM      3  C   UNL A   1      34.251  21.886  24.836  1.00  0.00     0.196 C 
BRANCH   3   4
ATOM      4  N   UNL A   1      34.343  22.458  26.204  1.00  0.00    -0.341 N 
ATOM      5  C   UNL A   1      33.510  22.486  27.293  1.00  0.00     0.240 C 
ATOM      6  O   UNL A   1      34.016  22.920  28.336  1.00  0.00    -0.273 OA
ATOM      7  H   UNL A   1      35.196  22.922  26.367  1.00  0.00     0.164 HD
BRANCH   5   8
ATOM      8  C   UNL A   1      32.025  22.017  27.321  1.00  0.00     0.216 C 
BRANCH   8   9
ATOM      9  N   UNL A   1      31.213  21.895  26.096  1.00  0.00    -0.340 N 
ATOM     10  C   UNL A   1      31.006  22.878  25.123  1.00  0.00     0.292 C 
ATOM     11  O   UNL A   1      31.132  22.653  23.924  1.00  0.00    -0.265 OA
ATOM     12  H   UNL A   1      30.769  21.028  25.948  1.00  0.00     0.164 HD
BRANCH  10  13
ATOM     13  C   UNL A   1      30.673  24.292  25.616  1.00  0.00     0.252 C 
ATOM     14  O   UNL A   1      30.327  24.381  26.799  1.00  0.00    -0.283 OA
BRANCH  13  15
ATOM     15  C   UNL A   1      30.887  25.565  24.902  1.00  0.00     0.054 A 
ATOM     16  N   UNL A   1      30.533  27.779  24.986  1.00  0.00    -0.240 N 
ATOM     17  C   UNL A   1      29.959  26.580  24.586  1.00  0.00     0.117 A 
ATOM     18  C   UNL A   1      31.755  27.453  25.601  1.00  0.00     0.065 A 
ATOM     19  C   UNL A   1      32.127  26.236  25.048  1.00  0.00     0.012 A 
ATOM     20  C   UNL A   1      32.646  28.226  26.360  1.00  0.00     0.028 A 
ATOM     21  C   UNL A   1      33.481  25.861  25.068  1.00  0.00     0.011 A 
ATOM     22  C   UNL A   1      33.991  27.872  26.318  1.00  0.00     0.002 A 
ATOM     23  C   UNL A   1      34.413  26.738  25.631  1.00  0.00     0.001 A 
BRANCH  16  24
ATOM     24  S   UNL A   1      30.677  29.282  24.160  1.00  0.00     0.268 S 
ATOM     25  O   UNL A   1      31.568  28.942  23.055  1.00  0.00    -0.201 OA
ATOM     26  O   UNL A   1      31.160  30.143  25.240  1.00  0.00    -0.201 OA
BRANCH  24  27
ATOM     27  C   UNL A   1      29.545  30.397  23.416  1.00  0.00     0.088 A 
ATOM     28  C   UNL A   1      27.657  32.914  20.440  1.00  0.00     0.044 C 
ATOM     29  C   UNL A   1      28.229  32.035  21.515  1.00  0.00    -0.051 A 
ATOM     30  C   UNL A   1      28.845  30.871  21.095  1.00  0.00     0.005 A 
ATOM     31  C   UNL A   1      28.240  32.353  22.896  1.00  0.00     0.005 A 
ATOM     32  C   UNL A   1      29.467  30.072  22.031  1.00  0.00     0.022 A 
ATOM     33  C   UNL A   1      28.908  31.540  23.862  1.00  0.00     0.022 A 
ENDBRANCH  24  27
ENDBRANCH  16  24
ENDBRANCH  13  15
ENDBRANCH  10  13
ENDBRANCH   8   9
ENDBRANCH   5   8
ENDBRANCH   3   4
BRANCH   3  34
ATOM     34  C   UNL A   1      34.906  20.460  24.815  1.00  0.00     0.074 C 
BRANCH  34  35
ATOM     35  C   UNL A   1      33.956  19.323  24.451  1.00  0.00    -0.020 A 
ATOM     36  C   UNL A   1      32.623  19.426  24.098  1.00  0.00     0.087 A 
ATOM     37  C   UNL A   1      34.224  17.913  24.609  1.00  0.00     0.003 A 
ATOM     38  N   UNL A   1      32.071  18.167  24.105  1.00  0.00    -0.361 N 
ATOM     39  C   UNL A   1      33.010  17.235  24.486  1.00  0.00     0.046 A 
ATOM     40  C   UNL A   1      35.364  17.171  24.987  1.00  0.00     0.010 A 
ATOM     41  H   UNL A   1      31.137  17.961  23.870  1.00  0.00     0.166 HD
ATOM     42  C   UNL A   1      32.870  15.871  24.792  1.00  0.00     0.026 A 
ATOM     43  C   UNL A   1      35.244  15.809  25.287  1.00  0.00     0.001 A 
ATOM     44  C   UNL A   1      34.009  15.174  25.209  1.00  0.00     0.002 A 
ENDBRANCH  34  35
ENDBRANCH   3  34
ENDBRANCH   1   3
BRANCH   1  45
ATOM     45  O   UNL A   1      36.249  22.572  23.634  1.00  0.00    -0.461 OA
BRANCH  45  46
ATOM     46  C   UNL A   1      37.067  23.605  24.221  1.00  0.00     0.274 C 
BRANCH  46  47
ATOM     47  C   UNL A   1      37.445  23.716  25.721  1.00  0.00     0.275 C 
BRANCH  47  48
ATOM     48  O   UNL A   1      38.647  23.195  26.361  1.00  0.00    -0.458 OA
BRANCH  48  49
ATOM     49  C   UNL A   1      39.836  23.774  26.652  1.00  0.00     0.338 C 
ATOM     50  O   UNL A   1      40.913  23.242  26.411  1.00  0.00    -0.246 OA
BRANCH  49  51
ATOM     51  C   UNL A   1      39.726  25.089  27.265  1.00  0.00     0.060 A 
ATOM     52  C   UNL A   1      39.254  25.196  28.578  1.00  0.00     0.016 A 
ATOM     53  C   UNL A   1      40.283  26.166  26.588  1.00  0.00     0.016 A 
ATOM     54  C   UNL A   1      39.450  26.387  29.270  1.00  0.00     0.010 A 
ATOM     55  C   UNL A   1      40.545  27.308  27.307  1.00  0.00     0.010 A 
ATOM     56  C   UNL A   1      40.115  27.427  28.643  1.00  0.00    -0.014 A 
BRANCH  56  57
ATOM     57  C   UNL A   1      40.178  28.768  29.195  1.00  0.00     0.031 A 
ATOM     58  C   UNL A   1      39.040  29.711  29.286  1.00  0.00     0.074 A 
ATOM     59  C   UNL A   1      41.351  28.976  29.830  1.00  0.00     0.049 A 
ATOM     60  N   UNL A   1      39.192  30.982  29.464  1.00  0.00    -0.248 NA
ATOM     61  C   UNL A   1      37.633  29.327  29.175  1.00  0.00     0.031 C 
ATOM     62  C   UNL A   1      41.587  29.852  30.952  1.00  0.00     0.029 A 
ATOM     63  N   UNL A   1      42.592  28.361  29.592  1.00  0.00    -0.354 N 
ATOM     64  C   UNL A   1      37.959  31.513  29.800  1.00  0.00     0.074 A 
ATOM     65  C   UNL A   1      37.007  30.482  29.457  1.00  0.00     0.031 C 
ATOM     66  C   UNL A   1      42.907  29.880  31.196  1.00  0.00     0.029 A 
ATOM     67  C   UNL A   1      43.593  29.163  30.122  1.00  0.00     0.049 A 
ATOM     68  H   UNL A   1      42.729  27.503  29.126  1.00  0.00     0.167 HD
ATOM     69  C   UNL A   1      37.912  32.670  30.529  1.00  0.00     0.034 A 
ATOM     70  C   UNL A   1      44.651  29.646  29.408  1.00  0.00     0.034 A 
ATOM     71  C   UNL A   1      39.281  33.121  30.831  1.00  0.00     0.049 A 
ATOM     72  C   UNL A   1      44.467  31.139  29.176  1.00  0.00     0.074 A 
ATOM     73  C   UNL A   1      40.075  32.912  31.948  1.00  0.00     0.029 A 
ATOM     74  N   UNL A   1      40.119  33.595  29.830  1.00  0.00    -0.354 N 
ATOM     75  N   UNL A   1      43.452  31.833  29.608  1.00  0.00    -0.248 NA
ATOM     76  C   UNL A   1      45.404  31.965  28.421  1.00  0.00     0.031 C 
ATOM     77  C   UNL A   1      41.417  33.180  31.586  1.00  0.00     0.029 A 
ATOM     78  C   UNL A   1      41.440  33.583  30.261  1.00  0.00     0.049 A 
ATOM     79  H   UNL A   1      39.820  33.897  28.942  1.00  0.00     0.167 HD
ATOM     80  C   UNL A   1      43.524  33.118  29.156  1.00  0.00     0.074 A 
ATOM     81  C   UNL A   1      44.798  33.164  28.457  1.00  0.00     0.031 C 
ATOM     82  C   UNL A   1      42.521  34.020  29.384  1.00  0.00     0.034 A 
BRANCH  69  83
ATOM     83  C   UNL A   1      36.715  33.210  31.318  1.00  0.00     0.023 A 
ATOM     84  C   UNL A   1      36.612  32.798  32.673  1.00  0.00     0.012 A 
ATOM     85  C   UNL A   1      35.669  34.044  30.856  1.00  0.00     0.148 A 
ATOM     86  C   UNL A   1      35.509  33.081  33.484  1.00  0.00     0.002 A 
ATOM     87  C   UNL A   1      34.547  34.313  31.662  1.00  0.00     0.091 A 
ATOM     88  F   UNL A   1      35.767  34.622  29.655  1.00  0.00    -0.205 F 
ATOM     89  C   UNL A   1      34.461  33.819  32.971  1.00  0.00     0.022 A 
BRANCH  87  90
ATOM     90  S   UNL A   1      33.115  35.253  31.096  1.00  0.00     0.127 S 
ATOM     91  O   UNL A   1      33.658  36.610  30.999  1.00  0.00    -0.237 OA
ATOM     92  O   UNL A   1      32.816  34.630  29.808  1.00  0.00    -0.237 OA
ATOM     93  O   UNL A   1      32.089  35.090  32.118  1.00  0.00    -0.744 OA
ENDBRANCH  87  90
ENDBRANCH  69  83
BRANCH  70  94
ATOM     94  C   UNL A   1      45.289  28.710  28.436  1.00  0.00     0.023 A 
ATOM     95  C   UNL A   1      44.643  28.441  27.202  1.00  0.00     0.012 A 
ATOM     96  C   UNL A   1      46.628  28.362  28.551  1.00  0.00     0.148 A 
ATOM     97  C   UNL A   1      45.339  27.919  26.099  1.00  0.00     0.002 A 
ATOM     98  C   UNL A   1      47.350  28.182  27.377  1.00  0.00     0.091 A 
ATOM     99  F   UNL A   1      47.276  28.471  29.717  1.00  0.00    -0.205 F 
ATOM    100  C   UNL A   1      46.719  27.787  26.181  1.00  0.00     0.022 A 
BRANCH  98 101
ATOM    101  S   UNL A   1      48.314  29.714  27.068  1.00  0.00     0.127 S 
ATOM    102  O   UNL A   1      49.524  29.207  26.431  1.00  0.00    -0.237 OA
ATOM    103  O   UNL A   1      47.380  30.387  26.168  1.00  0.00    -0.237 OA
ATOM    104  O   UNL A   1      48.485  30.350  28.361  1.00  0.00    -0.744 OA
ENDBRANCH  98 101
ENDBRANCH  70  94
BRANCH  82 105
ATOM    105  C   UNL A   1      42.504  35.437  28.869  1.00  0.00     0.023 A 
ATOM    106  C   UNL A   1      41.695  35.840  27.792  1.00  0.00     0.012 A 
ATOM    107  C   UNL A   1      43.248  36.446  29.532  1.00  0.00     0.148 A 
ATOM    108  C   UNL A   1      41.699  37.158  27.328  1.00  0.00     0.002 A 
ATOM    109  C   UNL A   1      43.150  37.777  29.144  1.00  0.00     0.091 A 
ATOM    110  F   UNL A   1      44.086  36.123  30.526  1.00  0.00    -0.205 F 
ATOM    111  C   UNL A   1      42.410  38.132  28.015  1.00  0.00     0.022 A 
BRANCH 109 112
ATOM    112  S   UNL A   1      43.843  39.080  30.168  1.00  0.00     0.127 S 
ATOM    113  O   UNL A   1      42.897  40.172  29.956  1.00  0.00    -0.237 OA
ATOM    114  O   UNL A   1      43.799  38.486  31.506  1.00  0.00    -0.237 OA
ATOM    115  O   UNL A   1      45.192  39.285  29.655  1.00  0.00    -0.744 OA
ENDBRANCH 109 112
ENDBRANCH  82 105
ENDBRANCH  56  57
ENDBRANCH  49  51
ENDBRANCH  48  49
ENDBRANCH  47  48
ENDBRANCH  46  47
ENDBRANCH  45  46
ENDBRANCH   1  45
TORSDOF 23
ENDMDL
