MODEL 1
REMARK VINA RESULT:     -11.7      0.000      0.000
REMARK SMILES O=C(/C=C/c1ccccc1Oc1cccc(Cl)c1)OCCOC(=O)c1ccc(-c2c3nc(c(-c4cccc(S(=O)(=O)[O-])c4F)c4ccc([nH]4)c(-c4cccc(S(=O)(=O)[O-])c4F)c4nc(c(-c5cccc(S(=O)(=O)[O-])c5F)c5ccc2[nH]5)C=C4)C=C3)cc1
REMARK SMILES IDX 20 1 19 2 2 3 1 4 3 5 4 6 5 7 6 8 10 9 7 10 9 11 8 12 11 13
REMARK SMILES IDX 12 14 13 15 18 16 14 17 16 18 15 19 17 20 21 21 22 22 23 23
REMARK SMILES IDX 24 24 25 25 26 26 87 27 27 28 86 29 28 30 29 31 30 32 80 33
REMARK SMILES IDX 31 34 85 35 79 36 81 37 32 38 84 39 78 40 77 41 33 43 65 44
REMARK SMILES IDX 45 45 64 46 46 47 49 48 63 49 82 50 47 51 48 52 62 54 83 55
REMARK SMILES IDX 50 56 34 57 35 58 43 59 36 60 38 61 44 62 37 63 39 64 40 65
REMARK SMILES IDX 41 66 42 67 66 68 67 69 75 70 68 71 70 72 76 73 69 74 71 75
REMARK SMILES IDX 72 76 73 77 74 78 51 79 52 80 60 81 53 82 55 83 61 84 54 85
REMARK SMILES IDX 56 86 57 87 58 88 59 89
REMARK H PARENT 81 42 49 53
REMARK Flexibility Score: inf
ROOT
ATOM      1  C   UNL A   1      35.521  20.806  25.198  1.00  0.00     0.275 C 
ENDROOT
BRANCH   1   2
ATOM      2  O   UNL A   1      35.453  21.480  26.474  1.00  0.00    -0.459 OA
BRANCH   2   3
ATOM      3  C   UNL A   1      34.454  22.292  26.890  1.00  0.00     0.330 C 
ATOM      4  O   UNL A   1      34.013  22.221  28.031  1.00  0.00    -0.247 OA
BRANCH   3   5
ATOM      5  C   UNL A   1      33.827  23.195  25.917  1.00  0.00     0.094 C 
ATOM      6  C   UNL A   1      34.037  24.513  25.797  1.00  0.00     0.019 C 
BRANCH   6   7
ATOM      7  C   UNL A   1      33.483  25.246  24.649  1.00  0.00     0.017 A 
ATOM      8  C   UNL A   1      34.013  24.837  23.404  1.00  0.00     0.012 A 
ATOM      9  C   UNL A   1      32.509  26.262  24.666  1.00  0.00     0.134 A 
ATOM     10  C   UNL A   1      33.597  25.413  22.204  1.00  0.00     0.001 A 
ATOM     11  C   UNL A   1      32.099  26.830  23.444  1.00  0.00     0.048 A 
ATOM     12  C   UNL A   1      32.634  26.410  22.225  1.00  0.00     0.004 A 
BRANCH   9  13
ATOM     13  O   UNL A   1      31.931  26.896  25.749  1.00  0.00    -0.457 OA
BRANCH  13  14
ATOM     14  C   UNL A   1      32.437  28.084  26.200  1.00  0.00     0.128 A 
ATOM     15  C   UNL A   1      31.684  29.254  26.095  1.00  0.00     0.047 A 
ATOM     16  C   UNL A   1      33.747  28.124  26.671  1.00  0.00     0.067 A 
ATOM     17  C   UNL A   1      32.214  30.463  26.543  1.00  0.00     0.005 A 
ATOM     18  C   UNL A   1      34.262  29.329  27.140  1.00  0.00     0.044 A 
ATOM     19  C   UNL A   1      33.500  30.498  27.082  1.00  0.00     0.021 A 
ATOM     20  Cl  UNL A   1      35.835  29.363  27.837  1.00  0.00    -0.084 Cl
ENDBRANCH  13  14
ENDBRANCH   9  13
ENDBRANCH   6   7
ENDBRANCH   3   5
ENDBRANCH   2   3
ENDBRANCH   1   2
BRANCH   1  21
ATOM     21  C   UNL A   1      36.942  20.671  24.644  1.00  0.00     0.275 C 
BRANCH  21  22
ATOM     22  O   UNL A   1      37.779  21.770  25.055  1.00  0.00    -0.458 OA
BRANCH  22  23
ATOM     23  C   UNL A   1      38.879  21.430  25.780  1.00  0.00     0.338 C 
ATOM     24  O   UNL A   1      39.484  20.378  25.713  1.00  0.00    -0.246 OA
BRANCH  23  25
ATOM     25  C   UNL A   1      39.353  22.586  26.588  1.00  0.00     0.060 A 
ATOM     26  C   UNL A   1      38.659  23.796  26.449  1.00  0.00     0.016 A 
ATOM     27  C   UNL A   1      40.444  22.508  27.460  1.00  0.00     0.016 A 
ATOM     28  C   UNL A   1      39.097  24.940  27.120  1.00  0.00     0.010 A 
ATOM     29  C   UNL A   1      40.888  23.659  28.129  1.00  0.00     0.010 A 
ATOM     30  C   UNL A   1      40.247  24.892  27.921  1.00  0.00    -0.014 A 
BRANCH  30  31
ATOM     31  C   UNL A   1      40.898  26.171  28.309  1.00  0.00     0.031 A 
ATOM     32  C   UNL A   1      42.286  26.440  27.792  1.00  0.00     0.074 A 
ATOM     33  C   UNL A   1      40.286  27.101  29.065  1.00  0.00     0.049 A 
ATOM     34  N   UNL A   1      43.002  27.532  27.864  1.00  0.00    -0.248 NA
ATOM     35  C   UNL A   1      42.959  25.321  27.109  1.00  0.00     0.031 C 
ATOM     36  C   UNL A   1      38.974  26.959  29.686  1.00  0.00     0.029 A 
ATOM     37  N   UNL A   1      40.697  28.359  29.438  1.00  0.00    -0.354 N 
ATOM     38  C   UNL A   1      44.209  27.230  27.246  1.00  0.00     0.074 A 
ATOM     39  C   UNL A   1      44.137  25.850  26.821  1.00  0.00     0.031 C 
ATOM     40  C   UNL A   1      38.671  28.094  30.339  1.00  0.00     0.029 A 
ATOM     41  C   UNL A   1      39.779  29.040  30.203  1.00  0.00     0.049 A 
ATOM     42  H   UNL A   1      41.569  28.738  29.181  1.00  0.00     0.167 HD
ATOM     43  C   UNL A   1      45.280  28.030  27.035  1.00  0.00     0.034 A 
ATOM     44  C   UNL A   1      39.826  30.282  30.727  1.00  0.00     0.034 A 
ATOM     45  C   UNL A   1      45.369  29.399  27.454  1.00  0.00     0.049 A 
ATOM     46  C   UNL A   1      41.030  31.157  30.469  1.00  0.00     0.074 A 
ATOM     47  C   UNL A   1      46.402  30.296  27.246  1.00  0.00     0.029 A 
ATOM     48  N   UNL A   1      44.399  30.067  28.182  1.00  0.00    -0.354 N 
ATOM     49  N   UNL A   1      42.085  30.916  29.730  1.00  0.00    -0.248 NA
ATOM     50  C   UNL A   1      41.031  32.489  31.096  1.00  0.00     0.031 C 
ATOM     51  C   UNL A   1      46.064  31.503  27.866  1.00  0.00     0.029 A 
ATOM     52  C   UNL A   1      44.812  31.362  28.443  1.00  0.00     0.049 A 
ATOM     53  H   UNL A   1      43.542  29.678  28.471  1.00  0.00     0.167 HD
ATOM     54  C   UNL A   1      42.853  32.078  29.769  1.00  0.00     0.074 A 
ATOM     55  C   UNL A   1      42.131  33.029  30.589  1.00  0.00     0.031 C 
ATOM     56  C   UNL A   1      44.055  32.328  29.195  1.00  0.00     0.034 A 
BRANCH  43  57
ATOM     57  C   UNL A   1      46.437  27.436  26.281  1.00  0.00     0.023 A 
ATOM     58  C   UNL A   1      46.462  27.525  24.874  1.00  0.00     0.012 A 
ATOM     59  C   UNL A   1      47.503  26.817  26.958  1.00  0.00     0.148 A 
ATOM     60  C   UNL A   1      47.521  26.983  24.150  1.00  0.00     0.002 A 
ATOM     61  C   UNL A   1      48.573  26.310  26.231  1.00  0.00     0.091 A 
ATOM     62  F   UNL A   1      47.440  26.714  28.294  1.00  0.00    -0.205 F 
ATOM     63  C   UNL A   1      48.580  26.384  24.828  1.00  0.00     0.022 A 
BRANCH  61  64
ATOM     64  S   UNL A   1      50.008  25.577  27.022  1.00  0.00     0.127 S 
ATOM     65  O   UNL A   1      50.343  26.589  28.023  1.00  0.00    -0.237 OA
ATOM     66  O   UNL A   1      49.460  24.335  27.570  1.00  0.00    -0.237 OA
ATOM     67  O   UNL A   1      50.992  25.389  25.965  1.00  0.00    -0.744 OA
ENDBRANCH  61  64
ENDBRANCH  43  57
BRANCH  44  68
ATOM     68  C   UNL A   1      38.672  30.819  31.506  1.00  0.00     0.023 A 
ATOM     69  C   UNL A   1      38.651  30.661  32.906  1.00  0.00     0.012 A 
ATOM     70  C   UNL A   1      37.589  31.457  30.872  1.00  0.00     0.148 A 
ATOM     71  C   UNL A   1      37.557  31.096  33.656  1.00  0.00     0.002 A 
ATOM     72  C   UNL A   1      36.526  31.934  31.631  1.00  0.00     0.091 A 
ATOM     73  F   UNL A   1      37.615  31.576  29.537  1.00  0.00    -0.205 F 
ATOM     74  C   UNL A   1      36.499  31.739  33.020  1.00  0.00     0.022 A 
BRANCH  72  75
ATOM     75  S   UNL A   1      35.177  32.873  30.905  1.00  0.00     0.127 S 
ATOM     76  O   UNL A   1      34.779  32.014  29.795  1.00  0.00    -0.237 OA
ATOM     77  O   UNL A   1      34.221  32.937  32.010  1.00  0.00    -0.237 OA
ATOM     78  O   UNL A   1      35.754  34.161  30.539  1.00  0.00    -0.744 OA
ENDBRANCH  72  75
ENDBRANCH  44  68
BRANCH  56  79
ATOM     79  C   UNL A   1      44.663  33.695  29.383  1.00  0.00     0.023 A 
ATOM     80  C   UNL A   1      45.436  33.966  30.530  1.00  0.00     0.012 A 
ATOM     81  C   UNL A   1      44.544  34.681  28.383  1.00  0.00     0.148 A 
ATOM     82  C   UNL A   1      46.054  35.207  30.691  1.00  0.00     0.002 A 
ATOM     83  C   UNL A   1      45.201  35.898  28.530  1.00  0.00     0.091 A 
ATOM     84  F   UNL A   1      43.788  34.416  27.308  1.00  0.00    -0.205 F 
ATOM     85  C   UNL A   1      45.948  36.166  29.687  1.00  0.00     0.022 A 
BRANCH  83  86
ATOM     86  S   UNL A   1      45.194  37.144  27.234  1.00  0.00     0.127 S 
ATOM     87  O   UNL A   1      45.953  36.480  26.176  1.00  0.00    -0.237 OA
ATOM     88  O   UNL A   1      43.766  37.302  26.954  1.00  0.00    -0.237 OA
ATOM     89  O   UNL A   1      45.821  38.321  27.821  1.00  0.00    -0.744 OA
ENDBRANCH  83  86
ENDBRANCH  56  79
ENDBRANCH  30  31
ENDBRANCH  23  25
ENDBRANCH  22  23
ENDBRANCH  21  22
ENDBRANCH   1  21
TORSDOF 17
ENDMDL
MODEL 2
REMARK VINA RESULT:     -11.4      1.737      2.401
REMARK SMILES O=C(/C=C/c1ccccc1Oc1cccc(Cl)c1)OCCOC(=O)c1ccc(-c2c3nc(c(-c4cccc(S(=O)(=O)[O-])c4F)c4ccc([nH]4)c(-c4cccc(S(=O)(=O)[O-])c4F)c4nc(c(-c5cccc(S(=O)(=O)[O-])c5F)c5ccc2[nH]5)C=C4)C=C3)cc1
REMARK SMILES IDX 20 1 19 2 2 3 1 4 3 5 4 6 5 7 6 8 10 9 7 10 9 11 8 12 11 13
REMARK SMILES IDX 12 14 13 15 18 16 14 17 16 18 15 19 17 20 21 21 22 22 23 23
REMARK SMILES IDX 24 24 25 25 26 26 87 27 27 28 86 29 28 30 29 31 30 32 80 33
REMARK SMILES IDX 31 34 85 35 79 36 81 37 32 38 84 39 78 40 77 41 33 43 65 44
REMARK SMILES IDX 45 45 64 46 46 47 49 48 63 49 82 50 47 51 48 52 62 54 83 55
REMARK SMILES IDX 50 56 34 57 35 58 43 59 36 60 38 61 44 62 37 63 39 64 40 65
REMARK SMILES IDX 41 66 42 67 66 68 67 69 75 70 68 71 70 72 76 73 69 74 71 75
REMARK SMILES IDX 72 76 73 77 74 78 51 79 52 80 60 81 53 82 55 83 61 84 54 85
REMARK SMILES IDX 56 86 57 87 58 88 59 89
REMARK H PARENT 81 42 49 53
REMARK Flexibility Score: inf
ROOT
ATOM      1  C   UNL A   1      36.591  22.723  23.683  1.00  0.00     0.275 C 
ENDROOT
BRANCH   1   2
ATOM      2  O   UNL A   1      35.193  22.905  23.994  1.00  0.00    -0.459 OA
BRANCH   2   3
ATOM      3  C   UNL A   1      34.354  23.782  23.395  1.00  0.00     0.330 C 
ATOM      4  O   UNL A   1      33.904  23.565  22.276  1.00  0.00    -0.247 OA
BRANCH   3   5
ATOM      5  C   UNL A   1      34.072  25.058  24.064  1.00  0.00     0.094 C 
ATOM      6  C   UNL A   1      33.808  26.231  23.470  1.00  0.00     0.019 C 
BRANCH   6   7
ATOM      7  C   UNL A   1      33.353  27.376  24.273  1.00  0.00     0.017 A 
ATOM      8  C   UNL A   1      33.851  27.375  25.596  1.00  0.00     0.012 A 
ATOM      9  C   UNL A   1      32.517  28.434  23.867  1.00  0.00     0.134 A 
ATOM     10  C   UNL A   1      33.534  28.390  26.499  1.00  0.00     0.001 A 
ATOM     11  C   UNL A   1      32.211  29.450  24.792  1.00  0.00     0.048 A 
ATOM     12  C   UNL A   1      32.715  29.432  26.094  1.00  0.00     0.004 A 
BRANCH   9  13
ATOM     13  O   UNL A   1      31.832  28.594  22.679  1.00  0.00    -0.457 OA
BRANCH  13  14
ATOM     14  C   UNL A   1      30.470  28.717  22.682  1.00  0.00     0.128 A 
ATOM     15  C   UNL A   1      29.864  29.832  22.104  1.00  0.00     0.047 A 
ATOM     16  C   UNL A   1      29.709  27.765  23.354  1.00  0.00     0.067 A 
ATOM     17  C   UNL A   1      28.475  29.957  22.126  1.00  0.00     0.005 A 
ATOM     18  C   UNL A   1      28.321  27.881  23.352  1.00  0.00     0.044 A 
ATOM     19  C   UNL A   1      27.701  28.970  22.737  1.00  0.00     0.021 A 
ATOM     20  Cl  UNL A   1      27.367  26.644  24.074  1.00  0.00    -0.084 Cl
ENDBRANCH  13  14
ENDBRANCH   9  13
ENDBRANCH   6   7
ENDBRANCH   3   5
ENDBRANCH   2   3
ENDBRANCH   1   2
BRANCH   1  21
ATOM     21  C   UNL A   1      37.206  21.469  24.311  1.00  0.00     0.275 C 
BRANCH  21  22
ATOM     22  O   UNL A   1      37.581  21.692  25.685  1.00  0.00    -0.458 OA
BRANCH  22  23
ATOM     23  C   UNL A   1      38.913  21.613  25.949  1.00  0.00     0.338 C 
ATOM     24  O   UNL A   1      39.680  20.772  25.523  1.00  0.00    -0.246 OA
BRANCH  23  25
ATOM     25  C   UNL A   1      39.362  22.794  26.735  1.00  0.00     0.060 A 
ATOM     26  C   UNL A   1      38.668  23.997  26.543  1.00  0.00     0.016 A 
ATOM     27  C   UNL A   1      40.433  22.746  27.635  1.00  0.00     0.016 A 
ATOM     28  C   UNL A   1      39.086  25.161  27.191  1.00  0.00     0.010 A 
ATOM     29  C   UNL A   1      40.856  23.918  28.280  1.00  0.00     0.010 A 
ATOM     30  C   UNL A   1      40.216  25.141  28.021  1.00  0.00    -0.014 A 
BRANCH  30  31
ATOM     31  C   UNL A   1      40.852  26.435  28.387  1.00  0.00     0.031 A 
ATOM     32  C   UNL A   1      42.223  26.725  27.836  1.00  0.00     0.074 A 
ATOM     33  C   UNL A   1      40.242  27.358  29.152  1.00  0.00     0.049 A 
ATOM     34  N   UNL A   1      42.921  27.830  27.886  1.00  0.00    -0.248 NA
ATOM     35  C   UNL A   1      42.900  25.614  27.144  1.00  0.00     0.031 C 
ATOM     36  C   UNL A   1      38.947  27.196  29.804  1.00  0.00     0.029 A 
ATOM     37  N   UNL A   1      40.638  28.625  29.508  1.00  0.00    -0.354 N 
ATOM     38  C   UNL A   1      44.119  27.546  27.242  1.00  0.00     0.074 A 
ATOM     39  C   UNL A   1      44.062  26.162  26.826  1.00  0.00     0.031 C 
ATOM     40  C   UNL A   1      38.639  28.329  30.457  1.00  0.00     0.029 A 
ATOM     41  C   UNL A   1      39.726  29.294  30.291  1.00  0.00     0.049 A 
ATOM     42  H   UNL A   1      41.498  29.018  29.230  1.00  0.00     0.167 HD
ATOM     43  C   UNL A   1      45.170  28.363  27.001  1.00  0.00     0.034 A 
ATOM     44  C   UNL A   1      39.763  30.539  30.807  1.00  0.00     0.034 A 
ATOM     45  C   UNL A   1      45.245  29.737  27.411  1.00  0.00     0.049 A 
ATOM     46  C   UNL A   1      40.945  31.434  30.517  1.00  0.00     0.074 A 
ATOM     47  C   UNL A   1      46.256  30.650  27.175  1.00  0.00     0.029 A 
ATOM     48  N   UNL A   1      44.279  30.391  28.158  1.00  0.00    -0.354 N 
ATOM     49  N   UNL A   1      41.987  31.208  29.755  1.00  0.00    -0.248 NA
ATOM     50  C   UNL A   1      40.936  32.770  31.136  1.00  0.00     0.031 C 
ATOM     51  C   UNL A   1      45.911  31.855  27.796  1.00  0.00     0.029 A 
ATOM     52  C   UNL A   1      44.675  31.695  28.402  1.00  0.00     0.049 A 
ATOM     53  H   UNL A   1      43.437  29.988  28.469  1.00  0.00     0.167 HD
ATOM     54  C   UNL A   1      42.734  32.384  29.770  1.00  0.00     0.074 A 
ATOM     55  C   UNL A   1      42.015  33.326  30.601  1.00  0.00     0.031 C 
ATOM     56  C   UNL A   1      43.919  32.651  29.166  1.00  0.00     0.034 A 
BRANCH  43  57
ATOM     57  C   UNL A   1      46.319  27.786  26.224  1.00  0.00     0.023 A 
ATOM     58  C   UNL A   1      46.353  27.944  24.823  1.00  0.00     0.012 A 
ATOM     59  C   UNL A   1      47.370  27.114  26.875  1.00  0.00     0.148 A 
ATOM     60  C   UNL A   1      47.406  27.417  24.078  1.00  0.00     0.002 A 
ATOM     61  C   UNL A   1      48.435  26.624  26.128  1.00  0.00     0.091 A 
ATOM     62  F   UNL A   1      47.299  26.947  28.203  1.00  0.00    -0.205 F 
ATOM     63  C   UNL A   1      48.450  26.767  24.731  1.00  0.00     0.022 A 
BRANCH  61  64
ATOM     64  S   UNL A   1      49.852  25.826  26.888  1.00  0.00     0.127 S 
ATOM     65  O   UNL A   1      50.253  26.821  27.883  1.00  0.00    -0.237 OA
ATOM     66  O   UNL A   1      49.261  24.609  27.446  1.00  0.00    -0.237 OA
ATOM     67  O   UNL A   1      50.804  25.597  25.811  1.00  0.00    -0.744 OA
ENDBRANCH  61  64
ENDBRANCH  43  57
BRANCH  44  68
ATOM     68  C   UNL A   1      38.618  31.060  31.609  1.00  0.00     0.023 A 
ATOM     69  C   UNL A   1      38.645  30.934  33.013  1.00  0.00     0.012 A 
ATOM     70  C   UNL A   1      37.498  31.652  30.995  1.00  0.00     0.148 A 
ATOM     71  C   UNL A   1      37.562  31.354  33.787  1.00  0.00     0.002 A 
ATOM     72  C   UNL A   1      36.445  32.115  31.777  1.00  0.00     0.091 A 
ATOM     73  F   UNL A   1      37.479  31.741  29.658  1.00  0.00    -0.205 F 
ATOM     74  C   UNL A   1      36.466  31.952  33.170  1.00  0.00     0.022 A 
BRANCH  72  75
ATOM     75  S   UNL A   1      35.047  32.997  31.073  1.00  0.00     0.127 S 
ATOM     76  O   UNL A   1      34.153  33.107  32.222  1.00  0.00    -0.237 OA
ATOM     77  O   UNL A   1      35.662  34.254  30.648  1.00  0.00    -0.237 OA
ATOM     78  O   UNL A   1      34.573  32.163  29.976  1.00  0.00    -0.744 OA
ENDBRANCH  72  75
ENDBRANCH  44  68
BRANCH  56  79
ATOM     79  C   UNL A   1      44.506  34.030  29.333  1.00  0.00     0.023 A 
ATOM     80  C   UNL A   1      45.441  34.274  30.359  1.00  0.00     0.012 A 
ATOM     81  C   UNL A   1      44.200  35.059  28.420  1.00  0.00     0.148 A 
ATOM     82  C   UNL A   1      46.039  35.528  30.490  1.00  0.00     0.002 A 
ATOM     83  C   UNL A   1      44.835  36.292  28.529  1.00  0.00     0.091 A 
ATOM     84  F   UNL A   1      43.293  34.819  27.462  1.00  0.00    -0.205 F 
ATOM     85  C   UNL A   1      45.746  36.532  29.570  1.00  0.00     0.022 A 
BRANCH  83  86
ATOM     86  S   UNL A   1      44.586  37.600  27.322  1.00  0.00     0.127 S 
ATOM     87  O   UNL A   1      45.701  37.377  26.404  1.00  0.00    -0.237 OA
ATOM     88  O   UNL A   1      43.269  37.277  26.771  1.00  0.00    -0.237 OA
ATOM     89  O   UNL A   1      44.627  38.844  28.079  1.00  0.00    -0.744 OA
ENDBRANCH  83  86
ENDBRANCH  56  79
ENDBRANCH  30  31
ENDBRANCH  23  25
ENDBRANCH  22  23
ENDBRANCH  21  22
ENDBRANCH   1  21
TORSDOF 17
ENDMDL
MODEL 3
REMARK VINA RESULT:     -11.4      1.585      2.767
REMARK SMILES O=C(/C=C/c1ccccc1Oc1cccc(Cl)c1)OCCOC(=O)c1ccc(-c2c3nc(c(-c4cccc(S(=O)(=O)[O-])c4F)c4ccc([nH]4)c(-c4cccc(S(=O)(=O)[O-])c4F)c4nc(c(-c5cccc(S(=O)(=O)[O-])c5F)c5ccc2[nH]5)C=C4)C=C3)cc1
REMARK SMILES IDX 20 1 19 2 2 3 1 4 3 5 4 6 5 7 6 8 10 9 7 10 9 11 8 12 11 13
REMARK SMILES IDX 12 14 13 15 18 16 14 17 16 18 15 19 17 20 21 21 22 22 23 23
REMARK SMILES IDX 24 24 25 25 26 26 87 27 27 28 86 29 28 30 29 31 30 32 80 33
REMARK SMILES IDX 31 34 85 35 79 36 81 37 32 38 84 39 78 40 77 41 33 43 65 44
REMARK SMILES IDX 45 45 64 46 46 47 49 48 63 49 82 50 47 51 48 52 62 54 83 55
REMARK SMILES IDX 50 56 34 57 35 58 43 59 36 60 38 61 44 62 37 63 39 64 40 65
REMARK SMILES IDX 41 66 42 67 66 68 67 69 75 70 68 71 70 72 76 73 69 74 71 75
REMARK SMILES IDX 72 76 73 77 74 78 51 79 52 80 60 81 53 82 55 83 61 84 54 85
REMARK SMILES IDX 56 86 57 87 58 88 59 89
REMARK H PARENT 81 42 49 53
REMARK Flexibility Score: inf
ROOT
ATOM      1  C   UNL A   1      36.126  21.208  25.396  1.00  0.00     0.275 C 
ENDROOT
BRANCH   1   2
ATOM      2  O   UNL A   1      35.497  21.815  24.247  1.00  0.00    -0.459 OA
BRANCH   2   3
ATOM      3  C   UNL A   1      35.608  23.111  23.874  1.00  0.00     0.330 C 
ATOM      4  O   UNL A   1      36.375  23.450  22.980  1.00  0.00    -0.247 OA
BRANCH   3   5
ATOM      5  C   UNL A   1      34.871  24.129  24.632  1.00  0.00     0.094 C 
ATOM      6  C   UNL A   1      33.848  24.873  24.189  1.00  0.00     0.019 C 
BRANCH   6   7
ATOM      7  C   UNL A   1      33.086  25.712  25.126  1.00  0.00     0.017 A 
ATOM      8  C   UNL A   1      33.805  26.835  25.595  1.00  0.00     0.012 A 
ATOM      9  C   UNL A   1      31.766  25.521  25.574  1.00  0.00     0.134 A 
ATOM     10  C   UNL A   1      33.238  27.750  26.483  1.00  0.00     0.001 A 
ATOM     11  C   UNL A   1      31.210  26.455  26.469  1.00  0.00     0.048 A 
ATOM     12  C   UNL A   1      31.935  27.561  26.918  1.00  0.00     0.004 A 
BRANCH   9  13
ATOM     13  O   UNL A   1      30.915  24.456  25.346  1.00  0.00    -0.457 OA
BRANCH  13  14
ATOM     14  C   UNL A   1      31.372  23.335  24.712  1.00  0.00     0.128 A 
ATOM     15  C   UNL A   1      31.336  23.249  23.320  1.00  0.00     0.047 A 
ATOM     16  C   UNL A   1      31.780  22.246  25.478  1.00  0.00     0.067 A 
ATOM     17  C   UNL A   1      31.790  22.095  22.683  1.00  0.00     0.005 A 
ATOM     18  C   UNL A   1      32.255  21.105  24.837  1.00  0.00     0.044 A 
ATOM     19  C   UNL A   1      32.266  21.026  23.443  1.00  0.00     0.021 A 
ATOM     20  Cl  UNL A   1      32.876  19.803  25.775  1.00  0.00    -0.084 Cl
ENDBRANCH  13  14
ENDBRANCH   9  13
ENDBRANCH   6   7
ENDBRANCH   3   5
ENDBRANCH   2   3
ENDBRANCH   1   2
BRANCH   1  21
ATOM     21  C   UNL A   1      37.370  20.382  25.057  1.00  0.00     0.275 C 
BRANCH  21  22
ATOM     22  O   UNL A   1      38.558  21.197  25.029  1.00  0.00    -0.458 OA
BRANCH  22  23
ATOM     23  C   UNL A   1      39.492  20.904  25.974  1.00  0.00     0.338 C 
ATOM     24  O   UNL A   1      40.048  19.833  26.124  1.00  0.00    -0.246 OA
BRANCH  23  25
ATOM     25  C   UNL A   1      39.868  22.124  26.737  1.00  0.00     0.060 A 
ATOM     26  C   UNL A   1      39.201  23.315  26.417  1.00  0.00     0.016 A 
ATOM     27  C   UNL A   1      40.845  22.124  27.740  1.00  0.00     0.016 A 
ATOM     28  C   UNL A   1      39.558  24.512  27.042  1.00  0.00     0.010 A 
ATOM     29  C   UNL A   1      41.208  23.329  28.361  1.00  0.00     0.010 A 
ATOM     30  C   UNL A   1      40.602  24.536  27.978  1.00  0.00    -0.014 A 
BRANCH  30  31
ATOM     31  C   UNL A   1      41.204  25.847  28.338  1.00  0.00     0.031 A 
ATOM     32  C   UNL A   1      42.606  26.129  27.866  1.00  0.00     0.074 A 
ATOM     33  C   UNL A   1      40.539  26.792  29.027  1.00  0.00     0.049 A 
ATOM     34  N   UNL A   1      43.292  27.241  27.921  1.00  0.00    -0.248 NA
ATOM     35  C   UNL A   1      43.334  25.000  27.261  1.00  0.00     0.031 C 
ATOM     36  C   UNL A   1      39.206  26.642  29.598  1.00  0.00     0.029 A 
ATOM     37  N   UNL A   1      40.903  28.074  29.362  1.00  0.00    -0.354 N 
ATOM     38  C   UNL A   1      44.531  26.945  27.367  1.00  0.00     0.074 A 
ATOM     39  C   UNL A   1      44.511  25.547  26.999  1.00  0.00     0.031 C 
ATOM     40  C   UNL A   1      38.849  27.796  30.189  1.00  0.00     0.029 A 
ATOM     41  C   UNL A   1      39.938  28.763  30.059  1.00  0.00     0.049 A 
ATOM     42  H   UNL A   1      41.777  28.464  29.125  1.00  0.00     0.167 HD
ATOM     43  C   UNL A   1      45.590  27.762  27.166  1.00  0.00     0.034 A 
ATOM     44  C   UNL A   1      39.933  30.026  30.531  1.00  0.00     0.034 A 
ATOM     45  C   UNL A   1      45.630  29.150  27.529  1.00  0.00     0.049 A 
ATOM     46  C   UNL A   1      41.125  30.921  30.285  1.00  0.00     0.074 A 
ATOM     47  C   UNL A   1      46.649  30.063  27.325  1.00  0.00     0.029 A 
ATOM     48  N   UNL A   1      44.614  29.822  28.187  1.00  0.00    -0.354 N 
ATOM     49  N   UNL A   1      42.217  30.676  29.601  1.00  0.00    -0.248 NA
ATOM     50  C   UNL A   1      41.068  32.278  30.853  1.00  0.00     0.031 C 
ATOM     51  C   UNL A   1      46.256  31.287  27.879  1.00  0.00     0.029 A 
ATOM     52  C   UNL A   1      44.984  31.137  28.409  1.00  0.00     0.049 A 
ATOM     53  H   UNL A   1      43.755  29.424  28.457  1.00  0.00     0.167 HD
ATOM     54  C   UNL A   1      42.954  31.858  29.622  1.00  0.00     0.074 A 
ATOM     55  C   UNL A   1      42.176  32.824  30.369  1.00  0.00     0.031 C 
ATOM     56  C   UNL A   1      44.173  32.114  29.087  1.00  0.00     0.034 A 
BRANCH  43  57
ATOM     57  C   UNL A   1      46.792  27.168  26.486  1.00  0.00     0.023 A 
ATOM     58  C   UNL A   1      46.906  27.256  25.084  1.00  0.00     0.012 A 
ATOM     59  C   UNL A   1      47.813  26.548  27.230  1.00  0.00     0.148 A 
ATOM     60  C   UNL A   1      48.008  26.712  24.428  1.00  0.00     0.002 A 
ATOM     61  C   UNL A   1      48.927  26.040  26.572  1.00  0.00     0.091 A 
ATOM     62  F   UNL A   1      47.666  26.445  28.558  1.00  0.00    -0.205 F 
ATOM     63  C   UNL A   1      49.022  26.113  25.172  1.00  0.00     0.022 A 
BRANCH  61  64
ATOM     64  S   UNL A   1      50.309  25.306  27.452  1.00  0.00     0.127 S 
ATOM     65  O   UNL A   1      51.250  25.051  26.362  1.00  0.00    -0.237 OA
ATOM     66  O   UNL A   1      50.705  26.382  28.361  1.00  0.00    -0.237 OA
ATOM     67  O   UNL A   1      49.776  24.123  28.112  1.00  0.00    -0.744 OA
ENDBRANCH  61  64
ENDBRANCH  43  57
BRANCH  44  68
ATOM     68  C   UNL A   1      38.735  30.566  31.237  1.00  0.00     0.023 A 
ATOM     69  C   UNL A   1      38.645  30.440  32.638  1.00  0.00     0.012 A 
ATOM     70  C   UNL A   1      37.678  31.175  30.534  1.00  0.00     0.148 A 
ATOM     71  C   UNL A   1      37.510  30.878  33.322  1.00  0.00     0.002 A 
ATOM     72  C   UNL A   1      36.572  31.655  31.228  1.00  0.00     0.091 A 
ATOM     73  F   UNL A   1      37.770  31.263  29.200  1.00  0.00    -0.205 F 
ATOM     74  C   UNL A   1      36.477  31.492  32.618  1.00  0.00     0.022 A 
BRANCH  72  75
ATOM     75  S   UNL A   1      35.250  32.559  30.413  1.00  0.00     0.127 S 
ATOM     76  O   UNL A   1      34.296  32.740  31.503  1.00  0.00    -0.237 OA
ATOM     77  O   UNL A   1      35.935  33.778  29.983  1.00  0.00    -0.237 OA
ATOM     78  O   UNL A   1      34.811  31.702  29.319  1.00  0.00    -0.744 OA
ENDBRANCH  72  75
ENDBRANCH  44  68
BRANCH  56  79
ATOM     79  C   UNL A   1      44.740  33.503  29.241  1.00  0.00     0.023 A 
ATOM     80  C   UNL A   1      45.568  33.804  30.341  1.00  0.00     0.012 A 
ATOM     81  C   UNL A   1      44.525  34.483  28.251  1.00  0.00     0.148 A 
ATOM     82  C   UNL A   1      46.148  35.067  30.467  1.00  0.00     0.002 A 
ATOM     83  C   UNL A   1      45.145  35.724  28.361  1.00  0.00     0.091 A 
ATOM     84  F   UNL A   1      43.718  34.189  27.222  1.00  0.00    -0.205 F 
ATOM     85  C   UNL A   1      45.948  36.021  29.473  1.00  0.00     0.022 A 
BRANCH  83  86
ATOM     86  S   UNL A   1      45.016  36.968  27.069  1.00  0.00     0.127 S 
ATOM     87  O   UNL A   1      45.991  36.488  26.093  1.00  0.00    -0.237 OA
ATOM     88  O   UNL A   1      43.619  36.844  26.648  1.00  0.00    -0.237 OA
ATOM     89  O   UNL A   1      45.334  38.235  27.714  1.00  0.00    -0.744 OA
ENDBRANCH  83  86
ENDBRANCH  56  79
ENDBRANCH  30  31
ENDBRANCH  23  25
ENDBRANCH  22  23
ENDBRANCH  21  22
ENDBRANCH   1  21
TORSDOF 17
ENDMDL
