MODEL 1
REMARK VINA RESULT:     -11.2      0.000      0.000
REMARK SMILES O=C(CNC(=O)c1ccco1)N[C@H]1C=C[C@@H](C(=O)OCCOC(=O)c2ccc(-c3c4nc(c(-c5cccc(S(=O)(=O)[O-])c5F)c5ccc([nH]5)c(-c5cccc(S(=O)(=O)[O-])c5F)c5nc(c(-c6cccc(S(=O)(=O)[O-])c6F)c6ccc3[nH]6)C=C5)C=C4)cc2)C1
REMARK SMILES IDX 20 1 19 2 17 3 18 4 16 5 13 6 14 7 88 8 15 9 12 10 1 11 2 12
REMARK SMILES IDX 3 14 4 15 5 16 6 18 7 19 8 20 11 21 9 22 10 23 21 24 22 25
REMARK SMILES IDX 23 26 24 27 25 28 26 29 87 30 27 31 86 32 28 33 29 34 30 35
REMARK SMILES IDX 80 36 31 37 85 38 79 39 81 40 32 41 84 42 78 43 77 44 33 46
REMARK SMILES IDX 65 47 45 48 64 49 46 50 49 51 63 52 82 53 47 54 48 55 62 57
REMARK SMILES IDX 83 58 50 59 34 60 35 61 43 62 36 63 38 64 44 65 37 66 39 67
REMARK SMILES IDX 40 68 41 69 42 70 66 71 67 72 75 73 68 74 70 75 76 76 69 77
REMARK SMILES IDX 71 78 72 79 73 80 74 81 51 82 52 83 60 84 53 85 55 86 61 87
REMARK SMILES IDX 54 88 56 89 57 90 58 91 59 92
REMARK H PARENT 12 13 4 17 81 45 49 56
REMARK Flexibility Score: inf
ROOT
ATOM      1  C   UNL A   1      31.084  31.513  26.088  1.00  0.00     0.274 C 
ENDROOT
BRANCH   1   2
ATOM      2  O   UNL A   1      32.166  30.589  25.870  1.00  0.00    -0.462 OA
BRANCH   2   3
ATOM      3  C   UNL A   1      31.849  29.408  25.285  1.00  0.00     0.312 C 
ATOM      4  O   UNL A   1      31.311  29.299  24.187  1.00  0.00    -0.252 OA
BRANCH   3   5
ATOM      5  C   UNL A   1      32.213  28.196  26.131  1.00  0.00     0.124 C 
ATOM      6  C   UNL A   1      31.957  25.822  26.531  1.00  0.00     0.106 C 
ATOM      7  C   UNL A   1      33.215  26.110  25.772  1.00  0.00    -0.006 C 
ATOM      8  C   UNL A   1      31.151  27.106  26.316  1.00  0.00     0.048 C 
ATOM      9  C   UNL A   1      33.361  27.422  25.548  1.00  0.00    -0.014 C 
BRANCH   6  10
ATOM     10  N   UNL A   1      31.320  24.658  25.976  1.00  0.00    -0.348 N 
ATOM     11  O   UNL A   1      31.909  23.258  27.697  1.00  0.00    -0.273 OA
ATOM     12  C   UNL A   1      31.331  23.446  26.630  1.00  0.00     0.239 C 
ATOM     13  H   UNL A   1      30.865  24.728  25.105  1.00  0.00     0.164 HD
BRANCH  12  14
ATOM     14  C   UNL A   1      30.753  22.277  25.831  1.00  0.00     0.216 C 
BRANCH  14  15
ATOM     15  N   UNL A   1      31.689  21.174  25.673  1.00  0.00    -0.340 N 
ATOM     16  C   UNL A   1      32.631  20.929  24.705  1.00  0.00     0.287 C 
ATOM     17  H   UNL A   1      31.638  20.487  26.378  1.00  0.00     0.164 HD
ATOM     18  O   UNL A   1      33.163  19.819  24.722  1.00  0.00    -0.266 OA
BRANCH  16  19
ATOM     19  C   UNL A   1      32.941  21.939  23.717  1.00  0.00     0.191 A 
ATOM     20  C   UNL A   1      32.589  22.129  22.391  1.00  0.00     0.056 A 
ATOM     21  O   UNL A   1      33.718  22.995  24.120  1.00  0.00    -0.459 OA
ATOM     22  C   UNL A   1      33.219  23.322  21.961  1.00  0.00     0.043 A 
ATOM     23  C   UNL A   1      33.890  23.813  23.053  1.00  0.00     0.196 A 
ENDBRANCH  16  19
ENDBRANCH  14  15
ENDBRANCH  12  14
ENDBRANCH   6  10
ENDBRANCH   3   5
ENDBRANCH   2   3
ENDBRANCH   1   2
BRANCH   1  24
ATOM     24  C   UNL A   1      31.582  32.744  26.851  1.00  0.00     0.275 C 
BRANCH  24  25
ATOM     25  O   UNL A   1      33.017  32.860  26.789  1.00  0.00    -0.458 OA
BRANCH  25  26
ATOM     26  C   UNL A   1      33.578  33.571  27.796  1.00  0.00     0.338 C 
ATOM     27  O   UNL A   1      33.142  34.585  28.315  1.00  0.00    -0.246 OA
BRANCH  26  28
ATOM     28  C   UNL A   1      34.771  32.874  28.298  1.00  0.00     0.060 A 
ATOM     29  C   UNL A   1      34.615  31.578  28.796  1.00  0.00     0.016 A 
ATOM     30  C   UNL A   1      36.008  33.517  28.369  1.00  0.00     0.016 A 
ATOM     31  C   UNL A   1      35.694  30.918  29.380  1.00  0.00     0.010 A 
ATOM     32  C   UNL A   1      37.092  32.852  28.953  1.00  0.00     0.010 A 
ATOM     33  C   UNL A   1      36.938  31.555  29.475  1.00  0.00    -0.014 A 
BRANCH  33  34
ATOM     34  C   UNL A   1      38.064  30.873  30.157  1.00  0.00     0.031 A 
ATOM     35  C   UNL A   1      38.410  31.227  31.576  1.00  0.00     0.074 A 
ATOM     36  C   UNL A   1      38.779  29.943  29.496  1.00  0.00     0.049 A 
ATOM     37  N   UNL A   1      39.386  30.780  32.322  1.00  0.00    -0.248 NA
ATOM     38  C   UNL A   1      37.547  32.214  32.245  1.00  0.00     0.031 C 
ATOM     39  C   UNL A   1      38.537  29.517  28.117  1.00  0.00     0.029 A 
ATOM     40  N   UNL A   1      39.866  29.204  29.889  1.00  0.00    -0.354 N 
ATOM     41  C   UNL A   1      39.284  31.459  33.531  1.00  0.00     0.074 A 
ATOM     42  C   UNL A   1      38.146  32.346  33.422  1.00  0.00     0.031 C 
ATOM     43  C   UNL A   1      39.461  28.606  27.772  1.00  0.00     0.029 A 
ATOM     44  C   UNL A   1      40.377  28.406  28.892  1.00  0.00     0.049 A 
ATOM     45  H   UNL A   1      40.244  29.242  30.796  1.00  0.00     0.167 HD
ATOM     46  C   UNL A   1      40.061  31.342  34.633  1.00  0.00     0.034 A 
ATOM     47  C   UNL A   1      41.471  27.619  28.877  1.00  0.00     0.034 A 
ATOM     48  C   UNL A   1      41.160  30.424  34.755  1.00  0.00     0.049 A 
ATOM     49  C   UNL A   1      42.310  27.509  30.121  1.00  0.00     0.074 A 
ATOM     50  C   UNL A   1      41.968  30.191  35.856  1.00  0.00     0.029 A 
ATOM     51  N   UNL A   1      41.612  29.588  33.746  1.00  0.00    -0.354 N 
ATOM     52  N   UNL A   1      42.127  28.066  31.294  1.00  0.00    -0.248 NA
ATOM     53  C   UNL A   1      43.494  26.639  30.050  1.00  0.00     0.031 C 
ATOM     54  C   UNL A   1      42.915  29.224  35.507  1.00  0.00     0.029 A 
ATOM     55  C   UNL A   1      42.690  28.846  34.193  1.00  0.00     0.049 A 
ATOM     56  H   UNL A   1      41.222  29.532  32.843  1.00  0.00     0.167 HD
ATOM     57  C   UNL A   1      43.148  27.591  32.107  1.00  0.00     0.074 A 
ATOM     58  C   UNL A   1      43.936  26.681  31.301  1.00  0.00     0.031 C 
ATOM     59  C   UNL A   1      43.424  27.895  33.399  1.00  0.00     0.034 A 
BRANCH  46  60
ATOM     60  C   UNL A   1      39.734  32.204  35.821  1.00  0.00     0.023 A 
ATOM     61  C   UNL A   1      40.334  33.474  35.944  1.00  0.00     0.012 A 
ATOM     62  C   UNL A   1      38.768  31.799  36.763  1.00  0.00     0.148 A 
ATOM     63  C   UNL A   1      39.988  34.321  36.997  1.00  0.00     0.002 A 
ATOM     64  C   UNL A   1      38.403  32.663  37.789  1.00  0.00     0.091 A 
ATOM     65  F   UNL A   1      38.227  30.579  36.639  1.00  0.00    -0.205 F 
ATOM     66  C   UNL A   1      39.016  33.921  37.911  1.00  0.00     0.022 A 
BRANCH  64  67
ATOM     67  S   UNL A   1      37.113  32.269  38.977  1.00  0.00     0.127 S 
ATOM     68  O   UNL A   1      37.251  30.818  39.091  1.00  0.00    -0.237 OA
ATOM     69  O   UNL A   1      37.544  33.017  40.159  1.00  0.00    -0.237 OA
ATOM     70  O   UNL A   1      35.866  32.733  38.385  1.00  0.00    -0.744 OA
ENDBRANCH  64  67
ENDBRANCH  46  60
BRANCH  47  71
ATOM     71  C   UNL A   1      41.818  26.845  27.653  1.00  0.00     0.023 A 
ATOM     72  C   UNL A   1      42.354  27.518  26.537  1.00  0.00     0.012 A 
ATOM     73  C   UNL A   1      41.634  25.450  27.588  1.00  0.00     0.148 A 
ATOM     74  C   UNL A   1      42.672  26.820  25.371  1.00  0.00     0.002 A 
ATOM     75  C   UNL A   1      42.004  24.754  26.442  1.00  0.00     0.091 A 
ATOM     76  F   UNL A   1      41.097  24.827  28.647  1.00  0.00    -0.205 F 
ATOM     77  C   UNL A   1      42.508  25.438  25.327  1.00  0.00     0.022 A 
BRANCH  75  78
ATOM     78  S   UNL A   1      41.944  22.960  26.369  1.00  0.00     0.127 S 
ATOM     79  O   UNL A   1      40.508  22.703  26.447  1.00  0.00    -0.237 OA
ATOM     80  O   UNL A   1      42.549  22.680  25.066  1.00  0.00    -0.237 OA
ATOM     81  O   UNL A   1      42.740  22.507  27.501  1.00  0.00    -0.744 OA
ENDBRANCH  75  78
ENDBRANCH  47  71
BRANCH  59  82
ATOM     82  C   UNL A   1      44.608  27.221  34.039  1.00  0.00     0.023 A 
ATOM     83  C   UNL A   1      45.886  27.801  33.917  1.00  0.00     0.012 A 
ATOM     84  C   UNL A   1      44.444  26.064  34.823  1.00  0.00     0.148 A 
ATOM     85  C   UNL A   1      46.989  27.223  34.546  1.00  0.00     0.002 A 
ATOM     86  C   UNL A   1      45.539  25.517  35.482  1.00  0.00     0.091 A 
ATOM     87  F   UNL A   1      43.223  25.515  34.909  1.00  0.00    -0.205 F 
ATOM     88  C   UNL A   1      46.813  26.090  35.337  1.00  0.00     0.022 A 
BRANCH  86  89
ATOM     89  S   UNL A   1      45.384  24.115  36.594  1.00  0.00     0.127 S 
ATOM     90  O   UNL A   1      44.437  24.623  37.585  1.00  0.00    -0.237 OA
ATOM     91  O   UNL A   1      44.848  23.074  35.716  1.00  0.00    -0.237 OA
ATOM     92  O   UNL A   1      46.729  23.849  37.087  1.00  0.00    -0.744 OA
ENDBRANCH  86  89
ENDBRANCH  59  82
ENDBRANCH  33  34
ENDBRANCH  26  28
ENDBRANCH  25  26
ENDBRANCH  24  25
ENDBRANCH   1  24
TORSDOF 18
ENDMDL
MODEL 2
REMARK VINA RESULT:     -11.2      5.269     10.718
REMARK SMILES O=C(CNC(=O)c1ccco1)N[C@H]1C=C[C@@H](C(=O)OCCOC(=O)c2ccc(-c3c4nc(c(-c5cccc(S(=O)(=O)[O-])c5F)c5ccc([nH]5)c(-c5cccc(S(=O)(=O)[O-])c5F)c5nc(c(-c6cccc(S(=O)(=O)[O-])c6F)c6ccc3[nH]6)C=C5)C=C4)cc2)C1
REMARK SMILES IDX 20 1 19 2 17 3 18 4 16 5 13 6 14 7 88 8 15 9 12 10 1 11 2 12
REMARK SMILES IDX 3 14 4 15 5 16 6 18 7 19 8 20 11 21 9 22 10 23 21 24 22 25
REMARK SMILES IDX 23 26 24 27 25 28 26 29 87 30 27 31 86 32 28 33 29 34 30 35
REMARK SMILES IDX 80 36 31 37 85 38 79 39 81 40 32 41 84 42 78 43 77 44 33 46
REMARK SMILES IDX 65 47 45 48 64 49 46 50 49 51 63 52 82 53 47 54 48 55 62 57
REMARK SMILES IDX 83 58 50 59 34 60 35 61 43 62 36 63 38 64 44 65 37 66 39 67
REMARK SMILES IDX 40 68 41 69 42 70 66 71 67 72 75 73 68 74 70 75 76 76 69 77
REMARK SMILES IDX 71 78 72 79 73 80 74 81 51 82 52 83 60 84 53 85 55 86 61 87
REMARK SMILES IDX 54 88 56 89 57 90 58 91 59 92
REMARK H PARENT 12 13 4 17 81 45 49 56
REMARK Flexibility Score: inf
ROOT
ATOM      1  C   UNL A   1      37.470  20.593  25.230  1.00  0.00     0.274 C 
ENDROOT
BRANCH   1   2
ATOM      2  O   UNL A   1      37.750  21.706  24.361  1.00  0.00    -0.462 OA
BRANCH   2   3
ATOM      3  C   UNL A   1      36.679  22.382  23.874  1.00  0.00     0.312 C 
ATOM      4  O   UNL A   1      36.656  22.959  22.792  1.00  0.00    -0.252 OA
BRANCH   3   5
ATOM      5  C   UNL A   1      35.482  22.375  24.814  1.00  0.00     0.124 C 
ATOM      6  C   UNL A   1      33.681  23.618  25.851  1.00  0.00     0.106 C 
ATOM      7  C   UNL A   1      33.195  22.855  24.658  1.00  0.00    -0.006 C 
ATOM      8  C   UNL A   1      35.194  23.648  25.617  1.00  0.00     0.048 C 
ATOM      9  C   UNL A   1      34.187  22.166  24.081  1.00  0.00    -0.014 C 
BRANCH   6  10
ATOM     10  N   UNL A   1      33.085  24.927  25.856  1.00  0.00    -0.348 N 
ATOM     11  O   UNL A   1      31.278  24.329  27.138  1.00  0.00    -0.273 OA
ATOM     12  C   UNL A   1      31.914  25.187  26.532  1.00  0.00     0.239 C 
ATOM     13  H   UNL A   1      33.525  25.657  25.362  1.00  0.00     0.164 HD
BRANCH  12  14
ATOM     14  C   UNL A   1      31.333  26.582  26.303  1.00  0.00     0.216 C 
BRANCH  14  15
ATOM     15  N   UNL A   1      30.337  26.619  25.242  1.00  0.00    -0.340 N 
ATOM     16  C   UNL A   1      30.418  27.082  23.952  1.00  0.00     0.287 C 
ATOM     17  H   UNL A   1      29.458  26.252  25.491  1.00  0.00     0.164 HD
ATOM     18  O   UNL A   1      29.361  27.156  23.325  1.00  0.00    -0.266 OA
BRANCH  16  19
ATOM     19  C   UNL A   1      31.695  27.475  23.397  1.00  0.00     0.191 A 
ATOM     20  C   UNL A   1      32.668  26.820  22.661  1.00  0.00     0.056 A 
ATOM     21  O   UNL A   1      32.076  28.782  23.562  1.00  0.00    -0.459 OA
ATOM     22  C   UNL A   1      33.702  27.756  22.413  1.00  0.00     0.043 A 
ATOM     23  C   UNL A   1      33.289  28.937  22.978  1.00  0.00     0.196 A 
ENDBRANCH  16  19
ENDBRANCH  14  15
ENDBRANCH  12  14
ENDBRANCH   6  10
ENDBRANCH   3   5
ENDBRANCH   2   3
ENDBRANCH   1   2
BRANCH   1  24
ATOM     24  C   UNL A   1      38.740  19.768  25.460  1.00  0.00     0.275 C 
BRANCH  24  25
ATOM     25  O   UNL A   1      39.896  20.610  25.626  1.00  0.00    -0.458 OA
BRANCH  25  26
ATOM     26  C   UNL A   1      40.406  20.643  26.880  1.00  0.00     0.338 C 
ATOM     27  O   UNL A   1      40.676  19.691  27.592  1.00  0.00    -0.246 OA
BRANCH  26  28
ATOM     28  C   UNL A   1      40.726  22.028  27.256  1.00  0.00     0.060 A 
ATOM     29  C   UNL A   1      40.167  23.061  26.498  1.00  0.00     0.016 A 
ATOM     30  C   UNL A   1      41.637  22.309  28.275  1.00  0.00     0.016 A 
ATOM     31  C   UNL A   1      40.524  24.383  26.748  1.00  0.00     0.010 A 
ATOM     32  C   UNL A   1      41.993  23.639  28.527  1.00  0.00     0.010 A 
ATOM     33  C   UNL A   1      41.451  24.682  27.755  1.00  0.00    -0.014 A 
BRANCH  33  34
ATOM     34  C   UNL A   1      41.876  26.086  27.971  1.00  0.00     0.031 A 
ATOM     35  C   UNL A   1      43.251  26.528  27.555  1.00  0.00     0.074 A 
ATOM     36  C   UNL A   1      41.030  26.958  28.549  1.00  0.00     0.049 A 
ATOM     37  N   UNL A   1      43.823  27.694  27.706  1.00  0.00    -0.248 NA
ATOM     38  C   UNL A   1      44.096  25.528  26.882  1.00  0.00     0.031 C 
ATOM     39  C   UNL A   1      39.672  26.645  28.995  1.00  0.00     0.029 A 
ATOM     40  N   UNL A   1      41.194  28.280  28.879  1.00  0.00    -0.354 N 
ATOM     41  C   UNL A   1      45.106  27.559  27.188  1.00  0.00     0.074 A 
ATOM     42  C   UNL A   1      45.229  26.198  26.712  1.00  0.00     0.031 C 
ATOM     43  C   UNL A   1      39.133  27.739  29.558  1.00  0.00     0.029 A 
ATOM     44  C   UNL A   1      40.115  28.819  29.540  1.00  0.00     0.049 A 
ATOM     45  H   UNL A   1      42.005  28.793  28.663  1.00  0.00     0.167 HD
ATOM     46  C   UNL A   1      46.086  28.490  27.106  1.00  0.00     0.034 A 
ATOM     47  C   UNL A   1      39.946  30.039  30.088  1.00  0.00     0.034 A 
ATOM     48  C   UNL A   1      45.943  29.855  27.534  1.00  0.00     0.049 A 
ATOM     49  C   UNL A   1      41.053  31.052  29.975  1.00  0.00     0.074 A 
ATOM     50  C   UNL A   1      46.860  30.888  27.434  1.00  0.00     0.029 A 
ATOM     51  N   UNL A   1      44.816  30.381  28.145  1.00  0.00    -0.354 N 
ATOM     52  N   UNL A   1      42.214  30.944  29.374  1.00  0.00    -0.248 NA
ATOM     53  C   UNL A   1      40.819  32.366  30.592  1.00  0.00     0.031 C 
ATOM     54  C   UNL A   1      46.291  32.034  27.998  1.00  0.00     0.029 A 
ATOM     55  C   UNL A   1      45.016  31.719  28.437  1.00  0.00     0.049 A 
ATOM     56  H   UNL A   1      43.994  29.877  28.343  1.00  0.00     0.167 HD
ATOM     57  C   UNL A   1      42.832  32.180  29.511  1.00  0.00     0.074 A 
ATOM     58  C   UNL A   1      41.909  33.032  30.232  1.00  0.00     0.031 C 
ATOM     59  C   UNL A   1      44.062  32.572  29.096  1.00  0.00     0.034 A 
BRANCH  46  60
ATOM     60  C   UNL A   1      47.398  28.081  26.496  1.00  0.00     0.023 A 
ATOM     61  C   UNL A   1      48.477  27.740  27.336  1.00  0.00     0.012 A 
ATOM     62  C   UNL A   1      47.535  27.947  25.101  1.00  0.00     0.148 A 
ATOM     63  C   UNL A   1      49.679  27.285  26.795  1.00  0.00     0.002 A 
ATOM     64  C   UNL A   1      48.724  27.460  24.570  1.00  0.00     0.091 A 
ATOM     65  F   UNL A   1      46.504  28.298  24.321  1.00  0.00    -0.205 F 
ATOM     66  C   UNL A   1      49.799  27.135  25.415  1.00  0.00     0.022 A 
BRANCH  64  67
ATOM     67  S   UNL A   1      48.954  27.165  22.813  1.00  0.00     0.127 S 
ATOM     68  O   UNL A   1      50.411  27.091  22.714  1.00  0.00    -0.237 OA
ATOM     69  O   UNL A   1      48.264  25.889  22.622  1.00  0.00    -0.237 OA
ATOM     70  O   UNL A   1      48.340  28.296  22.132  1.00  0.00    -0.744 OA
ENDBRANCH  64  67
ENDBRANCH  46  60
BRANCH  47  71
ATOM     71  C   UNL A   1      38.664  30.383  30.764  1.00  0.00     0.023 A 
ATOM     72  C   UNL A   1      38.466  30.005  32.106  1.00  0.00     0.012 A 
ATOM     73  C   UNL A   1      37.648  31.092  30.094  1.00  0.00     0.148 A 
ATOM     74  C   UNL A   1      37.268  30.300  32.759  1.00  0.00     0.002 A 
ATOM     75  C   UNL A   1      36.479  31.430  30.768  1.00  0.00     0.091 A 
ATOM     76  F   UNL A   1      37.839  31.421  28.808  1.00  0.00    -0.205 F 
ATOM     77  C   UNL A   1      36.280  31.022  32.094  1.00  0.00     0.022 A 
BRANCH  75  78
ATOM     78  S   UNL A   1      35.224  32.472  30.013  1.00  0.00     0.127 S 
ATOM     79  O   UNL A   1      36.006  33.636  29.605  1.00  0.00    -0.237 OA
ATOM     80  O   UNL A   1      34.746  31.635  28.911  1.00  0.00    -0.237 OA
ATOM     81  O   UNL A   1      34.236  32.694  31.059  1.00  0.00    -0.744 OA
ENDBRANCH  75  78
ENDBRANCH  47  71
BRANCH  59  82
ATOM     82  C   UNL A   1      44.478  33.990  29.382  1.00  0.00     0.023 A 
ATOM     83  C   UNL A   1      45.012  34.315  30.644  1.00  0.00     0.012 A 
ATOM     84  C   UNL A   1      44.415  34.978  28.381  1.00  0.00     0.148 A 
ATOM     85  C   UNL A   1      45.453  35.611  30.914  1.00  0.00     0.002 A 
ATOM     86  C   UNL A   1      44.896  36.255  28.642  1.00  0.00     0.091 A 
ATOM     87  F   UNL A   1      43.884  34.653  27.192  1.00  0.00    -0.205 F 
ATOM     88  C   UNL A   1      45.406  36.576  29.910  1.00  0.00     0.022 A 
BRANCH  86  89
ATOM     89  S   UNL A   1      44.958  37.530  27.378  1.00  0.00     0.127 S 
ATOM     90  O   UNL A   1      43.570  37.567  26.922  1.00  0.00    -0.237 OA
ATOM     91  O   UNL A   1      45.381  38.708  28.139  1.00  0.00    -0.237 OA
ATOM     92  O   UNL A   1      45.931  37.069  26.397  1.00  0.00    -0.744 OA
ENDBRANCH  86  89
ENDBRANCH  59  82
ENDBRANCH  33  34
ENDBRANCH  26  28
ENDBRANCH  25  26
ENDBRANCH  24  25
ENDBRANCH   1  24
TORSDOF 18
ENDMDL
MODEL 3
REMARK VINA RESULT:     -10.9      1.921      7.935
REMARK SMILES O=C(CNC(=O)c1ccco1)N[C@H]1C=C[C@@H](C(=O)OCCOC(=O)c2ccc(-c3c4nc(c(-c5cccc(S(=O)(=O)[O-])c5F)c5ccc([nH]5)c(-c5cccc(S(=O)(=O)[O-])c5F)c5nc(c(-c6cccc(S(=O)(=O)[O-])c6F)c6ccc3[nH]6)C=C5)C=C4)cc2)C1
REMARK SMILES IDX 20 1 19 2 17 3 18 4 16 5 13 6 14 7 88 8 15 9 12 10 1 11 2 12
REMARK SMILES IDX 3 14 4 15 5 16 6 18 7 19 8 20 11 21 9 22 10 23 21 24 22 25
REMARK SMILES IDX 23 26 24 27 25 28 26 29 87 30 27 31 86 32 28 33 29 34 30 35
REMARK SMILES IDX 80 36 31 37 85 38 79 39 81 40 32 41 84 42 78 43 77 44 33 46
REMARK SMILES IDX 65 47 45 48 64 49 46 50 49 51 63 52 82 53 47 54 48 55 62 57
REMARK SMILES IDX 83 58 50 59 34 60 35 61 43 62 36 63 38 64 44 65 37 66 39 67
REMARK SMILES IDX 40 68 41 69 42 70 66 71 67 72 75 73 68 74 70 75 76 76 69 77
REMARK SMILES IDX 71 78 72 79 73 80 74 81 51 82 52 83 60 84 53 85 55 86 61 87
REMARK SMILES IDX 54 88 56 89 57 90 58 91 59 92
REMARK H PARENT 12 13 4 17 81 45 49 56
REMARK Flexibility Score: inf
ROOT
ATOM      1  C   UNL A   1      31.282  29.244  24.573  1.00  0.00     0.274 C 
ENDROOT
BRANCH   1   2
ATOM      2  O   UNL A   1      31.316  27.819  24.369  1.00  0.00    -0.462 OA
BRANCH   2   3
ATOM      3  C   UNL A   1      32.224  27.354  23.475  1.00  0.00     0.312 C 
ATOM      4  O   UNL A   1      33.272  27.925  23.188  1.00  0.00    -0.252 OA
BRANCH   3   5
ATOM      5  C   UNL A   1      31.817  26.038  22.828  1.00  0.00     0.124 C 
ATOM      6  C   UNL A   1      31.937  23.620  22.849  1.00  0.00     0.106 C 
ATOM      7  C   UNL A   1      30.671  24.103  23.485  1.00  0.00    -0.006 C 
ATOM      8  C   UNL A   1      32.814  24.874  22.884  1.00  0.00     0.048 C 
ATOM      9  C   UNL A   1      30.600  25.440  23.475  1.00  0.00    -0.014 C 
BRANCH   6  10
ATOM     10  N   UNL A   1      32.476  22.534  23.624  1.00  0.00    -0.348 N 
ATOM     11  O   UNL A   1      31.785  20.886  22.183  1.00  0.00    -0.273 OA
ATOM     12  C   UNL A   1      32.371  21.226  23.208  1.00  0.00     0.239 C 
ATOM     13  H   UNL A   1      32.931  22.731  24.475  1.00  0.00     0.164 HD
BRANCH  12  14
ATOM     14  C   UNL A   1      32.850  20.186  24.222  1.00  0.00     0.216 C 
BRANCH  14  15
ATOM     15  N   UNL A   1      32.999  20.725  25.566  1.00  0.00    -0.340 N 
ATOM     16  C   UNL A   1      34.096  21.246  26.206  1.00  0.00     0.287 C 
ATOM     17  H   UNL A   1      32.176  20.712  26.107  1.00  0.00     0.164 HD
ATOM     18  O   UNL A   1      33.979  21.462  27.412  1.00  0.00    -0.266 OA
BRANCH  16  19
ATOM     19  C   UNL A   1      35.318  21.495  25.473  1.00  0.00     0.191 A 
ATOM     20  C   UNL A   1      36.455  20.748  25.216  1.00  0.00     0.056 A 
ATOM     21  O   UNL A   1      35.431  22.702  24.831  1.00  0.00    -0.459 OA
ATOM     22  C   UNL A   1      37.312  21.554  24.428  1.00  0.00     0.043 A 
ATOM     23  C   UNL A   1      36.639  22.732  24.217  1.00  0.00     0.196 A 
ENDBRANCH  16  19
ENDBRANCH  14  15
ENDBRANCH  12  14
ENDBRANCH   6  10
ENDBRANCH   3   5
ENDBRANCH   2   3
ENDBRANCH   1   2
BRANCH   1  24
ATOM     24  C   UNL A   1      31.857  29.596  25.948  1.00  0.00     0.275 C 
BRANCH  24  25
ATOM     25  O   UNL A   1      32.963  30.512  25.842  1.00  0.00    -0.458 OA
BRANCH  25  26
ATOM     26  C   UNL A   1      33.164  31.296  26.928  1.00  0.00     0.338 C 
ATOM     27  O   UNL A   1      32.371  32.071  27.435  1.00  0.00    -0.246 OA
BRANCH  26  28
ATOM     28  C   UNL A   1      34.474  30.999  27.526  1.00  0.00     0.060 A 
ATOM     29  C   UNL A   1      34.705  29.702  27.992  1.00  0.00     0.016 A 
ATOM     30  C   UNL A   1      35.428  32.001  27.714  1.00  0.00     0.016 A 
ATOM     31  C   UNL A   1      35.888  29.400  28.661  1.00  0.00     0.010 A 
ATOM     32  C   UNL A   1      36.617  31.695  28.385  1.00  0.00     0.010 A 
ATOM     33  C   UNL A   1      36.848  30.398  28.876  1.00  0.00    -0.014 A 
BRANCH  33  34
ATOM     34  C   UNL A   1      38.075  30.085  29.646  1.00  0.00     0.031 A 
ATOM     35  C   UNL A   1      39.105  29.151  29.075  1.00  0.00     0.074 A 
ATOM     36  C   UNL A   1      38.257  30.633  30.863  1.00  0.00     0.049 A 
ATOM     37  N   UNL A   1      40.213  28.716  29.615  1.00  0.00    -0.248 NA
ATOM     38  C   UNL A   1      38.856  28.637  27.718  1.00  0.00     0.031 C 
ATOM     39  C   UNL A   1      37.327  31.552  31.521  1.00  0.00     0.029 A 
ATOM     40  N   UNL A   1      39.275  30.480  31.770  1.00  0.00    -0.354 N 
ATOM     41  C   UNL A   1      40.774  27.846  28.688  1.00  0.00     0.074 A 
ATOM     42  C   UNL A   1      39.886  27.817  27.545  1.00  0.00     0.031 C 
ATOM     43  C   UNL A   1      37.808  31.867  32.734  1.00  0.00     0.029 A 
ATOM     44  C   UNL A   1      39.062  31.150  32.952  1.00  0.00     0.049 A 
ATOM     45  H   UNL A   1      40.080  29.943  31.592  1.00  0.00     0.167 HD
ATOM     46  C   UNL A   1      41.930  27.146  28.777  1.00  0.00     0.034 A 
ATOM     47  C   UNL A   1      39.785  31.166  34.090  1.00  0.00     0.034 A 
ATOM     48  C   UNL A   1      42.833  27.216  29.893  1.00  0.00     0.049 A 
ATOM     49  C   UNL A   1      41.066  30.381  34.154  1.00  0.00     0.074 A 
ATOM     50  C   UNL A   1      44.059  26.590  30.046  1.00  0.00     0.029 A 
ATOM     51  N   UNL A   1      42.614  27.951  31.047  1.00  0.00    -0.354 N 
ATOM     52  N   UNL A   1      41.642  29.661  33.221  1.00  0.00    -0.248 NA
ATOM     53  C   UNL A   1      41.816  30.431  35.419  1.00  0.00     0.031 C 
ATOM     54  C   UNL A   1      44.573  26.936  31.299  1.00  0.00     0.029 A 
ATOM     55  C   UNL A   1      43.675  27.787  31.921  1.00  0.00     0.049 A 
ATOM     56  H   UNL A   1      41.820  28.506  31.220  1.00  0.00     0.167 HD
ATOM     57  C   UNL A   1      42.831  29.200  33.773  1.00  0.00     0.074 A 
ATOM     58  C   UNL A   1      42.908  29.742  35.114  1.00  0.00     0.031 C 
ATOM     59  C   UNL A   1      43.767  28.386  33.227  1.00  0.00     0.034 A 
BRANCH  46  60
ATOM     60  C   UNL A   1      42.311  26.264  27.620  1.00  0.00     0.023 A 
ATOM     61  C   UNL A   1      43.145  26.773  26.605  1.00  0.00     0.012 A 
ATOM     62  C   UNL A   1      41.922  24.911  27.586  1.00  0.00     0.148 A 
ATOM     63  C   UNL A   1      43.573  25.951  25.563  1.00  0.00     0.002 A 
ATOM     64  C   UNL A   1      42.381  24.089  26.563  1.00  0.00     0.091 A 
ATOM     65  F   UNL A   1      41.111  24.455  28.550  1.00  0.00    -0.205 F 
ATOM     66  C   UNL A   1      43.201  24.609  25.548  1.00  0.00     0.022 A 
BRANCH  64  67
ATOM     67  S   UNL A   1      42.014  22.331  26.492  1.00  0.00     0.127 S 
ATOM     68  O   UNL A   1      40.562  22.340  26.326  1.00  0.00    -0.237 OA
ATOM     69  O   UNL A   1      42.762  21.909  25.306  1.00  0.00    -0.237 OA
ATOM     70  O   UNL A   1      42.496  21.769  27.746  1.00  0.00    -0.744 OA
ENDBRANCH  64  67
ENDBRANCH  46  60
BRANCH  47  71
ATOM     71  C   UNL A   1      39.332  31.982  35.251  1.00  0.00     0.023 A 
ATOM     72  C   UNL A   1      38.455  31.414  36.196  1.00  0.00     0.012 A 
ATOM     73  C   UNL A   1      39.771  33.308  35.434  1.00  0.00     0.148 A 
ATOM     74  C   UNL A   1      38.001  32.161  37.284  1.00  0.00     0.002 A 
ATOM     75  C   UNL A   1      39.358  34.028  36.550  1.00  0.00     0.091 A 
ATOM     76  F   UNL A   1      40.584  33.844  34.512  1.00  0.00    -0.205 F 
ATOM     77  C   UNL A   1      38.461  33.463  37.467  1.00  0.00     0.022 A 
BRANCH  75  78
ATOM     78  S   UNL A   1      40.017  35.659  36.915  1.00  0.00     0.127 S 
ATOM     79  O   UNL A   1      41.450  35.393  36.995  1.00  0.00    -0.237 OA
ATOM     80  O   UNL A   1      39.599  36.433  35.745  1.00  0.00    -0.237 OA
ATOM     81  O   UNL A   1      39.367  36.062  38.155  1.00  0.00    -0.744 OA
ENDBRANCH  75  78
ENDBRANCH  47  71
BRANCH  59  82
ATOM     82  C   UNL A   1      44.973  28.048  34.062  1.00  0.00     0.023 A 
ATOM     83  C   UNL A   1      46.092  28.903  34.043  1.00  0.00     0.012 A 
ATOM     84  C   UNL A   1      44.968  26.934  34.922  1.00  0.00     0.148 A 
ATOM     85  C   UNL A   1      47.200  28.639  34.849  1.00  0.00     0.002 A 
ATOM     86  C   UNL A   1      46.056  26.700  35.754  1.00  0.00     0.091 A 
ATOM     87  F   UNL A   1      43.901  26.119  34.910  1.00  0.00    -0.205 F 
ATOM     88  C   UNL A   1      47.176  27.546  35.712  1.00  0.00     0.022 A 
BRANCH  86  89
ATOM     89  S   UNL A   1      46.069  25.370  36.961  1.00  0.00     0.127 S 
ATOM     90  O   UNL A   1      44.936  25.727  37.812  1.00  0.00    -0.237 OA
ATOM     91  O   UNL A   1      45.856  24.185  36.128  1.00  0.00    -0.237 OA
ATOM     92  O   UNL A   1      47.378  25.426  37.599  1.00  0.00    -0.744 OA
ENDBRANCH  86  89
ENDBRANCH  59  82
ENDBRANCH  33  34
ENDBRANCH  26  28
ENDBRANCH  25  26
ENDBRANCH  24  25
ENDBRANCH   1  24
TORSDOF 18
ENDMDL
