MODEL 1
REMARK VINA RESULT:     -11.3      0.000      0.000
REMARK SMILES O=C(OCCOC(=O)[C@H](C[NH+]1CCCC1)c1ccc(Br)cc1)c1ccc(-c2c3nc(c(-c4cccc(S(=O)(=O)[O-])c4F)c4ccc([nH]4)c(-c4cccc(S(=O)(=O)[O-])c4F)c4nc(c(-c5cccc(S(=O)(=O)[O-])c5F)c5ccc2[nH]5)C=C4)C=C3)cc1
REMARK SMILES IDX 4 1 3 2 2 3 1 4 23 5 24 6 85 7 25 8 84 9 26 10 27 11 28 12
REMARK SMILES IDX 78 13 29 14 83 15 77 16 79 17 30 18 82 19 76 20 75 21 31 23
REMARK SMILES IDX 63 24 43 25 62 26 44 27 47 28 61 29 80 30 45 31 46 32 60 34
REMARK SMILES IDX 81 35 48 36 32 37 33 38 41 39 34 40 36 41 42 42 35 43 37 44
REMARK SMILES IDX 38 45 39 46 40 47 64 48 65 49 73 50 66 51 68 52 74 53 67 54
REMARK SMILES IDX 69 55 70 56 71 57 72 58 49 59 50 60 58 61 51 62 53 63 59 64
REMARK SMILES IDX 52 65 54 66 55 67 56 68 57 69 5 70 6 71 7 72 8 73 9 74 16 75
REMARK SMILES IDX 17 76 22 77 18 78 21 79 19 80 20 81 10 82 11 83 12 84 15 85
REMARK SMILES IDX 13 87 14 88
REMARK H PARENT 79 22 47 33 11 86
REMARK Flexibility Score: inf
ROOT
ATOM      1  C   UNL A   1      32.598  29.727  26.177  1.00  0.00     0.275 C 
ENDROOT
BRANCH   1   2
ATOM      2  O   UNL A   1      32.377  30.978  26.846  1.00  0.00    -0.458 OA
BRANCH   2   3
ATOM      3  C   UNL A   1      33.253  31.819  27.439  1.00  0.00     0.338 C 
ATOM      4  O   UNL A   1      32.901  32.991  27.577  1.00  0.00    -0.246 OA
BRANCH   3   5
ATOM      5  C   UNL A   1      34.648  31.459  27.882  1.00  0.00     0.060 A 
ATOM      6  C   UNL A   1      35.767  32.297  27.968  1.00  0.00     0.016 A 
ATOM      7  C   UNL A   1      34.817  30.136  28.316  1.00  0.00     0.016 A 
ATOM      8  C   UNL A   1      36.965  31.876  28.569  1.00  0.00     0.010 A 
ATOM      9  C   UNL A   1      36.012  29.713  28.905  1.00  0.00     0.010 A 
ATOM     10  C   UNL A   1      37.087  30.589  29.084  1.00  0.00    -0.014 A 
BRANCH  10  11
ATOM     11  C   UNL A   1      38.341  30.146  29.753  1.00  0.00     0.031 A 
ATOM     12  C   UNL A   1      38.621  30.633  31.146  1.00  0.00     0.074 A 
ATOM     13  C   UNL A   1      39.237  29.353  29.123  1.00  0.00     0.049 A 
ATOM     14  N   UNL A   1      39.635  30.367  31.922  1.00  0.00    -0.248 NA
ATOM     15  C   UNL A   1      37.648  31.575  31.730  1.00  0.00     0.031 C 
ATOM     16  C   UNL A   1      39.138  28.891  27.737  1.00  0.00     0.029 A 
ATOM     17  N   UNL A   1      40.421  28.803  29.554  1.00  0.00    -0.354 N 
ATOM     18  C   UNL A   1      39.434  31.125  33.067  1.00  0.00     0.074 A 
ATOM     19  C   UNL A   1      38.257  31.932  32.847  1.00  0.00     0.031 C 
ATOM     20  C   UNL A   1      40.203  28.125  27.436  1.00  0.00     0.029 A 
ATOM     21  C   UNL A   1      41.063  28.031  28.607  1.00  0.00     0.049 A 
ATOM     22  H   UNL A   1      40.780  28.948  30.460  1.00  0.00     0.167 HD
ATOM     23  C   UNL A   1      40.117  31.103  34.232  1.00  0.00     0.034 A 
ATOM     24  C   UNL A   1      42.204  27.314  28.688  1.00  0.00     0.034 A 
ATOM     25  C   UNL A   1      41.250  30.261  34.470  1.00  0.00     0.049 A 
ATOM     26  C   UNL A   1      42.928  27.275  30.013  1.00  0.00     0.074 A 
ATOM     27  C   UNL A   1      41.984  30.111  35.631  1.00  0.00     0.029 A 
ATOM     28  N   UNL A   1      41.814  29.422  33.521  1.00  0.00    -0.354 N 
ATOM     29  N   UNL A   1      42.615  27.865  31.142  1.00  0.00    -0.248 NA
ATOM     30  C   UNL A   1      44.131  26.432  30.091  1.00  0.00     0.031 C 
ATOM     31  C   UNL A   1      43.004  29.189  35.378  1.00  0.00     0.029 A 
ATOM     32  C   UNL A   1      42.886  28.745  34.070  1.00  0.00     0.049 A 
ATOM     33  H   UNL A   1      41.497  29.323  32.595  1.00  0.00     0.167 HD
ATOM     34  C   UNL A   1      43.555  27.433  32.071  1.00  0.00     0.074 A 
ATOM     35  C   UNL A   1      44.431  26.509  31.380  1.00  0.00     0.031 C 
ATOM     36  C   UNL A   1      43.697  27.780  33.374  1.00  0.00     0.034 A 
BRANCH  23  37
ATOM     37  C   UNL A   1      39.592  31.974  35.339  1.00  0.00     0.023 A 
ATOM     38  C   UNL A   1      38.587  31.473  36.196  1.00  0.00     0.012 A 
ATOM     39  C   UNL A   1      40.060  33.288  35.511  1.00  0.00     0.148 A 
ATOM     40  C   UNL A   1      38.012  32.288  37.167  1.00  0.00     0.002 A 
ATOM     41  C   UNL A   1      39.518  34.078  36.517  1.00  0.00     0.091 A 
ATOM     42  F   UNL A   1      41.001  33.746  34.675  1.00  0.00    -0.205 F 
ATOM     43  C   UNL A   1      38.482  33.588  37.331  1.00  0.00     0.022 A 
BRANCH  41  44
ATOM     44  S   UNL A   1      40.093  35.743  36.860  1.00  0.00     0.127 S 
ATOM     45  O   UNL A   1      41.543  35.553  36.895  1.00  0.00    -0.237 OA
ATOM     46  O   UNL A   1      39.601  36.476  35.694  1.00  0.00    -0.237 OA
ATOM     47  O   UNL A   1      39.490  36.127  38.127  1.00  0.00    -0.744 OA
ENDBRANCH  41  44
ENDBRANCH  23  37
BRANCH  24  48
ATOM     48  C   UNL A   1      42.708  26.495  27.540  1.00  0.00     0.023 A 
ATOM     49  C   UNL A   1      43.452  27.124  26.519  1.00  0.00     0.012 A 
ATOM     50  C   UNL A   1      42.386  25.132  27.399  1.00  0.00     0.148 A 
ATOM     51  C   UNL A   1      43.810  26.432  25.359  1.00  0.00     0.002 A 
ATOM     52  C   UNL A   1      42.771  24.439  26.253  1.00  0.00     0.091 A 
ATOM     53  F   UNL A   1      41.666  24.542  28.365  1.00  0.00    -0.205 F 
ATOM     54  C   UNL A   1      43.472  25.089  25.226  1.00  0.00     0.022 A 
BRANCH  52  55
ATOM     55  S   UNL A   1      42.384  22.696  26.033  1.00  0.00     0.127 S 
ATOM     56  O   UNL A   1      42.922  22.435  24.702  1.00  0.00    -0.237 OA
ATOM     57  O   UNL A   1      43.126  22.061  27.124  1.00  0.00    -0.237 OA
ATOM     58  O   UNL A   1      40.934  22.616  26.169  1.00  0.00    -0.744 OA
ENDBRANCH  52  55
ENDBRANCH  24  48
BRANCH  36  59
ATOM     59  C   UNL A   1      44.804  27.128  34.157  1.00  0.00     0.023 A 
ATOM     60  C   UNL A   1      46.087  27.707  34.177  1.00  0.00     0.012 A 
ATOM     61  C   UNL A   1      44.538  25.999  34.955  1.00  0.00     0.148 A 
ATOM     62  C   UNL A   1      47.099  27.152  34.959  1.00  0.00     0.002 A 
ATOM     63  C   UNL A   1      45.533  25.488  35.776  1.00  0.00     0.091 A 
ATOM     64  F   UNL A   1      43.313  25.453  34.905  1.00  0.00    -0.205 F 
ATOM     65  C   UNL A   1      46.819  26.054  35.769  1.00  0.00     0.022 A 
BRANCH  63  66
ATOM     66  S   UNL A   1      45.226  24.154  36.938  1.00  0.00     0.127 S 
ATOM     67  O   UNL A   1      46.562  23.918  37.483  1.00  0.00    -0.237 OA
ATOM     68  O   UNL A   1      44.285  24.769  37.875  1.00  0.00    -0.237 OA
ATOM     69  O   UNL A   1      44.668  23.060  36.154  1.00  0.00    -0.744 OA
ENDBRANCH  63  66
ENDBRANCH  36  59
ENDBRANCH  10  11
ENDBRANCH   3   5
ENDBRANCH   2   3
ENDBRANCH   1   2
BRANCH   1  70
ATOM     70  C   UNL A   1      31.821  28.569  26.806  1.00  0.00     0.274 C 
BRANCH  70  71
ATOM     71  O   UNL A   1      32.118  27.312  26.180  1.00  0.00    -0.461 OA
BRANCH  71  72
ATOM     72  C   UNL A   1      31.074  26.520  25.776  1.00  0.00     0.319 C 
ATOM     73  O   UNL A   1      30.262  26.002  26.540  1.00  0.00    -0.251 OA
BRANCH  72  74
ATOM     74  C   UNL A   1      31.095  26.369  24.255  1.00  0.00     0.184 C 
BRANCH  74  75
ATOM     75  C   UNL A   1      30.393  27.545  23.565  1.00  0.00    -0.028 A 
ATOM     76  C   UNL A   1      31.081  28.545  22.860  1.00  0.00     0.006 A 
ATOM     77  C   UNL A   1      28.987  27.599  23.547  1.00  0.00     0.006 A 
ATOM     78  C   UNL A   1      30.405  29.551  22.164  1.00  0.00     0.016 A 
ATOM     79  C   UNL A   1      28.306  28.621  22.883  1.00  0.00     0.016 A 
ATOM     80  C   UNL A   1      29.019  29.597  22.198  1.00  0.00     0.017 A 
ATOM     81  Br  UNL A   1      28.086  30.993  21.342  1.00  0.00    -0.051 Br
ENDBRANCH  74  75
BRANCH  74  82
ATOM     82  C   UNL A   1      32.542  26.003  23.787  1.00  0.00     0.282 C 
BRANCH  82  83
ATOM     83  N   UNL A   1      33.130  24.958  24.599  1.00  0.00    -0.334 N 
ATOM     84  C   UNL A   1      32.653  23.599  24.643  1.00  0.00     0.262 C 
ATOM     85  C   UNL A   1      34.491  25.009  25.067  1.00  0.00     0.262 C 
ATOM     86  H   UNL A   1      32.515  25.504  25.203  1.00  0.00     0.348 HD
ATOM     87  C   UNL A   1      33.214  23.205  26.006  1.00  0.00     0.067 C 
ATOM     88  C   UNL A   1      34.598  23.839  26.033  1.00  0.00     0.067 C 
ENDBRANCH  82  83
ENDBRANCH  74  82
ENDBRANCH  72  74
ENDBRANCH  71  72
ENDBRANCH  70  71
ENDBRANCH   1  70
TORSDOF 17
ENDMDL
MODEL 2
REMARK VINA RESULT:     -11.3      5.235     10.441
REMARK SMILES O=C(OCCOC(=O)[C@H](C[NH+]1CCCC1)c1ccc(Br)cc1)c1ccc(-c2c3nc(c(-c4cccc(S(=O)(=O)[O-])c4F)c4ccc([nH]4)c(-c4cccc(S(=O)(=O)[O-])c4F)c4nc(c(-c5cccc(S(=O)(=O)[O-])c5F)c5ccc2[nH]5)C=C4)C=C3)cc1
REMARK SMILES IDX 4 1 3 2 2 3 1 4 23 5 24 6 85 7 25 8 84 9 26 10 27 11 28 12
REMARK SMILES IDX 78 13 29 14 83 15 77 16 79 17 30 18 82 19 76 20 75 21 31 23
REMARK SMILES IDX 63 24 43 25 62 26 44 27 47 28 61 29 80 30 45 31 46 32 60 34
REMARK SMILES IDX 81 35 48 36 32 37 33 38 41 39 34 40 36 41 42 42 35 43 37 44
REMARK SMILES IDX 38 45 39 46 40 47 64 48 65 49 73 50 66 51 68 52 74 53 67 54
REMARK SMILES IDX 69 55 70 56 71 57 72 58 49 59 50 60 58 61 51 62 53 63 59 64
REMARK SMILES IDX 52 65 54 66 55 67 56 68 57 69 5 70 6 71 7 72 8 73 9 74 16 75
REMARK SMILES IDX 17 76 22 77 18 78 21 79 19 80 20 81 10 82 11 83 12 84 15 85
REMARK SMILES IDX 13 87 14 88
REMARK H PARENT 79 22 47 33 11 86
REMARK Flexibility Score: inf
ROOT
ATOM      1  C   UNL A   1      36.630  21.581  25.366  1.00  0.00     0.275 C 
ENDROOT
BRANCH   1   2
ATOM      2  O   UNL A   1      37.959  21.104  25.109  1.00  0.00    -0.458 OA
BRANCH   2   3
ATOM      3  C   UNL A   1      39.064  21.135  25.887  1.00  0.00     0.338 C 
ATOM      4  O   UNL A   1      39.638  20.064  26.089  1.00  0.00    -0.246 OA
BRANCH   3   5
ATOM      5  C   UNL A   1      39.612  22.356  26.581  1.00  0.00     0.060 A 
ATOM      6  C   UNL A   1      40.557  22.408  27.613  1.00  0.00     0.016 A 
ATOM      7  C   UNL A   1      39.155  23.584  26.081  1.00  0.00     0.016 A 
ATOM      8  C   UNL A   1      41.115  23.622  28.047  1.00  0.00     0.010 A 
ATOM      9  C   UNL A   1      39.702  24.794  26.520  1.00  0.00     0.010 A 
ATOM     10  C   UNL A   1      40.724  24.828  27.474  1.00  0.00    -0.014 A 
BRANCH  10  11
ATOM     11  C   UNL A   1      41.335  26.116  27.904  1.00  0.00     0.031 A 
ATOM     12  C   UNL A   1      42.767  26.386  27.542  1.00  0.00     0.074 A 
ATOM     13  C   UNL A   1      40.643  27.017  28.638  1.00  0.00     0.049 A 
ATOM     14  N   UNL A   1      43.496  27.438  27.797  1.00  0.00    -0.248 NA
ATOM     15  C   UNL A   1      43.487  25.315  26.829  1.00  0.00     0.031 C 
ATOM     16  C   UNL A   1      39.280  26.837  29.143  1.00  0.00     0.029 A 
ATOM     17  N   UNL A   1      40.990  28.263  29.105  1.00  0.00    -0.354 N 
ATOM     18  C   UNL A   1      44.758  27.143  27.300  1.00  0.00     0.074 A 
ATOM     19  C   UNL A   1      44.723  25.783  26.818  1.00  0.00     0.031 C 
ATOM     20  C   UNL A   1      38.905  27.927  29.838  1.00  0.00     0.029 A 
ATOM     21  C   UNL A   1      39.995  28.893  29.825  1.00  0.00     0.049 A 
ATOM     22  H   UNL A   1      41.872  28.669  28.941  1.00  0.00     0.167 HD
ATOM     23  C   UNL A   1      45.834  27.950  27.182  1.00  0.00     0.034 A 
ATOM     24  C   UNL A   1      39.963  30.120  30.387  1.00  0.00     0.034 A 
ATOM     25  C   UNL A   1      45.851  29.316  27.609  1.00  0.00     0.049 A 
ATOM     26  C   UNL A   1      41.165  31.016  30.207  1.00  0.00     0.074 A 
ATOM     27  C   UNL A   1      46.866  30.246  27.485  1.00  0.00     0.029 A 
ATOM     28  N   UNL A   1      44.795  29.950  28.245  1.00  0.00    -0.354 N 
ATOM     29  N   UNL A   1      42.288  30.775  29.574  1.00  0.00    -0.248 NA
ATOM     30  C   UNL A   1      41.078  32.371  30.773  1.00  0.00     0.031 C 
ATOM     31  C   UNL A   1      46.426  31.441  28.062  1.00  0.00     0.029 A 
ATOM     32  C   UNL A   1      45.128  31.262  28.517  1.00  0.00     0.049 A 
ATOM     33  H   UNL A   1      43.934  29.527  28.469  1.00  0.00     0.167 HD
ATOM     34  C   UNL A   1      43.020  31.956  29.630  1.00  0.00     0.074 A 
ATOM     35  C   UNL A   1      42.200  32.921  30.333  1.00  0.00     0.031 C 
ATOM     36  C   UNL A   1      44.264  32.219  29.160  1.00  0.00     0.034 A 
BRANCH  23  37
ATOM     37  C   UNL A   1      47.042  27.369  26.501  1.00  0.00     0.023 A 
ATOM     38  C   UNL A   1      47.166  27.479  25.099  1.00  0.00     0.012 A 
ATOM     39  C   UNL A   1      48.029  26.688  27.234  1.00  0.00     0.148 A 
ATOM     40  C   UNL A   1      48.222  26.868  24.429  1.00  0.00     0.002 A 
ATOM     41  C   UNL A   1      49.108  26.125  26.564  1.00  0.00     0.091 A 
ATOM     42  F   UNL A   1      47.880  26.581  28.561  1.00  0.00    -0.205 F 
ATOM     43  C   UNL A   1      49.195  26.195  25.162  1.00  0.00     0.022 A 
BRANCH  41  44
ATOM     44  S   UNL A   1      50.452  25.294  27.414  1.00  0.00     0.127 S 
ATOM     45  O   UNL A   1      49.772  24.123  27.967  1.00  0.00    -0.237 OA
ATOM     46  O   UNL A   1      51.369  25.003  26.313  1.00  0.00    -0.237 OA
ATOM     47  O   UNL A   1      50.954  26.239  28.400  1.00  0.00    -0.744 OA
ENDBRANCH  41  44
ENDBRANCH  23  37
BRANCH  24  48
ATOM     48  C   UNL A   1      38.748  30.637  31.093  1.00  0.00     0.023 A 
ATOM     49  C   UNL A   1      38.571  30.346  32.463  1.00  0.00     0.012 A 
ATOM     50  C   UNL A   1      37.728  31.328  30.411  1.00  0.00     0.148 A 
ATOM     51  C   UNL A   1      37.384  30.678  33.121  1.00  0.00     0.002 A 
ATOM     52  C   UNL A   1      36.558  31.682  31.081  1.00  0.00     0.091 A 
ATOM     53  F   UNL A   1      37.895  31.589  29.106  1.00  0.00    -0.205 F 
ATOM     54  C   UNL A   1      36.377  31.347  32.431  1.00  0.00     0.022 A 
BRANCH  52  55
ATOM     55  S   UNL A   1      35.231  32.569  30.250  1.00  0.00     0.127 S 
ATOM     56  O   UNL A   1      34.261  32.735  31.328  1.00  0.00    -0.237 OA
ATOM     57  O   UNL A   1      35.887  33.808  29.827  1.00  0.00    -0.237 OA
ATOM     58  O   UNL A   1      34.832  31.698  29.151  1.00  0.00    -0.744 OA
ENDBRANCH  52  55
ENDBRANCH  24  48
BRANCH  36  59
ATOM     59  C   UNL A   1      44.804  33.611  29.341  1.00  0.00     0.023 A 
ATOM     60  C   UNL A   1      45.510  33.945  30.513  1.00  0.00     0.012 A 
ATOM     61  C   UNL A   1      44.696  34.554  28.301  1.00  0.00     0.148 A 
ATOM     62  C   UNL A   1      46.077  35.210  30.658  1.00  0.00     0.002 A 
ATOM     63  C   UNL A   1      45.314  35.790  28.427  1.00  0.00     0.091 A 
ATOM     64  F   UNL A   1      44.002  34.220  27.202  1.00  0.00    -0.205 F 
ATOM     65  C   UNL A   1      45.993  36.125  29.611  1.00  0.00     0.022 A 
BRANCH  63  66
ATOM     66  S   UNL A   1      45.359  36.981  27.085  1.00  0.00     0.127 S 
ATOM     67  O   UNL A   1      46.024  36.218  26.030  1.00  0.00    -0.237 OA
ATOM     68  O   UNL A   1      43.937  37.238  26.850  1.00  0.00    -0.237 OA
ATOM     69  O   UNL A   1      46.103  38.128  27.591  1.00  0.00    -0.744 OA
ENDBRANCH  63  66
ENDBRANCH  36  59
ENDBRANCH  10  11
ENDBRANCH   3   5
ENDBRANCH   2   3
ENDBRANCH   1   2
BRANCH   1  70
ATOM     70  C   UNL A   1      36.059  22.408  24.212  1.00  0.00     0.274 C 
BRANCH  70  71
ATOM     71  O   UNL A   1      34.718  22.849  24.469  1.00  0.00    -0.461 OA
BRANCH  71  72
ATOM     72  C   UNL A   1      33.794  22.755  23.461  1.00  0.00     0.319 C 
ATOM     73  O   UNL A   1      34.011  23.067  22.292  1.00  0.00    -0.251 OA
BRANCH  72  74
ATOM     74  C   UNL A   1      32.470  22.230  24.017  1.00  0.00     0.184 C 
BRANCH  74  75
ATOM     75  C   UNL A   1      32.514  20.713  24.231  1.00  0.00    -0.028 A 
ATOM     76  C   UNL A   1      32.362  19.784  23.189  1.00  0.00     0.006 A 
ATOM     77  C   UNL A   1      32.809  20.201  25.509  1.00  0.00     0.006 A 
ATOM     78  C   UNL A   1      32.501  18.410  23.403  1.00  0.00     0.016 A 
ATOM     79  C   UNL A   1      32.914  18.828  25.737  1.00  0.00     0.016 A 
ATOM     80  C   UNL A   1      32.754  17.937  24.683  1.00  0.00     0.017 A 
ATOM     81  Br  UNL A   1      32.858  16.085  25.016  1.00  0.00    -0.051 Br
ENDBRANCH  74  75
BRANCH  74  82
ATOM     82  C   UNL A   1      32.017  23.127  25.217  1.00  0.00     0.282 C 
BRANCH  82  83
ATOM     83  N   UNL A   1      31.174  24.224  24.790  1.00  0.00    -0.334 N 
ATOM     84  C   UNL A   1      30.640  24.368  23.460  1.00  0.00     0.262 C 
ATOM     85  C   UNL A   1      30.396  25.010  25.712  1.00  0.00     0.262 C 
ATOM     86  H   UNL A   1      32.140  24.550  24.756  1.00  0.00     0.348 HD
ATOM     87  C   UNL A   1      30.405  25.876  23.472  1.00  0.00     0.067 C 
ATOM     88  C   UNL A   1      29.854  26.151  24.865  1.00  0.00     0.067 C 
ENDBRANCH  82  83
ENDBRANCH  74  82
ENDBRANCH  72  74
ENDBRANCH  71  72
ENDBRANCH  70  71
ENDBRANCH   1  70
TORSDOF 17
ENDMDL
MODEL 3
REMARK VINA RESULT:     -11.1      5.276     10.190
REMARK SMILES O=C(OCCOC(=O)[C@H](C[NH+]1CCCC1)c1ccc(Br)cc1)c1ccc(-c2c3nc(c(-c4cccc(S(=O)(=O)[O-])c4F)c4ccc([nH]4)c(-c4cccc(S(=O)(=O)[O-])c4F)c4nc(c(-c5cccc(S(=O)(=O)[O-])c5F)c5ccc2[nH]5)C=C4)C=C3)cc1
REMARK SMILES IDX 4 1 3 2 2 3 1 4 23 5 24 6 85 7 25 8 84 9 26 10 27 11 28 12
REMARK SMILES IDX 78 13 29 14 83 15 77 16 79 17 30 18 82 19 76 20 75 21 31 23
REMARK SMILES IDX 63 24 43 25 62 26 44 27 47 28 61 29 80 30 45 31 46 32 60 34
REMARK SMILES IDX 81 35 48 36 32 37 33 38 41 39 34 40 36 41 42 42 35 43 37 44
REMARK SMILES IDX 38 45 39 46 40 47 64 48 65 49 73 50 66 51 68 52 74 53 67 54
REMARK SMILES IDX 69 55 70 56 71 57 72 58 49 59 50 60 58 61 51 62 53 63 59 64
REMARK SMILES IDX 52 65 54 66 55 67 56 68 57 69 5 70 6 71 7 72 8 73 9 74 16 75
REMARK SMILES IDX 17 76 22 77 18 78 21 79 19 80 20 81 10 82 11 83 12 84 15 85
REMARK SMILES IDX 13 87 14 88
REMARK H PARENT 79 22 47 33 11 86
REMARK Flexibility Score: inf
ROOT
ATOM      1  C   UNL A   1      37.351  21.426  24.364  1.00  0.00     0.275 C 
ENDROOT
BRANCH   1   2
ATOM      2  O   UNL A   1      37.899  21.327  25.687  1.00  0.00    -0.458 OA
BRANCH   2   3
ATOM      3  C   UNL A   1      39.166  21.501  26.124  1.00  0.00     0.338 C 
ATOM      4  O   UNL A   1      39.937  20.549  26.000  1.00  0.00    -0.246 OA
BRANCH   3   5
ATOM      5  C   UNL A   1      39.693  22.734  26.811  1.00  0.00     0.060 A 
ATOM      6  C   UNL A   1      40.661  22.810  27.820  1.00  0.00     0.016 A 
ATOM      7  C   UNL A   1      39.189  23.951  26.328  1.00  0.00     0.016 A 
ATOM      8  C   UNL A   1      41.193  24.038  28.247  1.00  0.00     0.010 A 
ATOM      9  C   UNL A   1      39.710  25.174  26.760  1.00  0.00     0.010 A 
ATOM     10  C   UNL A   1      40.753  25.235  27.690  1.00  0.00    -0.014 A 
BRANCH  10  11
ATOM     11  C   UNL A   1      41.335  26.539  28.112  1.00  0.00     0.031 A 
ATOM     12  C   UNL A   1      42.760  26.839  27.744  1.00  0.00     0.074 A 
ATOM     13  C   UNL A   1      40.625  27.427  28.844  1.00  0.00     0.049 A 
ATOM     14  N   UNL A   1      43.465  27.909  27.992  1.00  0.00    -0.248 NA
ATOM     15  C   UNL A   1      43.502  25.782  27.035  1.00  0.00     0.031 C 
ATOM     16  C   UNL A   1      39.268  27.218  29.353  1.00  0.00     0.029 A 
ATOM     17  N   UNL A   1      40.944  28.682  29.303  1.00  0.00    -0.354 N 
ATOM     18  C   UNL A   1      44.732  27.640  27.493  1.00  0.00     0.074 A 
ATOM     19  C   UNL A   1      44.726  26.278  27.018  1.00  0.00     0.031 C 
ATOM     20  C   UNL A   1      38.870  28.303  30.043  1.00  0.00     0.029 A 
ATOM     21  C   UNL A   1      39.937  29.294  30.023  1.00  0.00     0.049 A 
ATOM     22  H   UNL A   1      41.816  29.109  29.135  1.00  0.00     0.167 HD
ATOM     23  C   UNL A   1      45.789  28.472  27.368  1.00  0.00     0.034 A 
ATOM     24  C   UNL A   1      39.879  30.522  30.579  1.00  0.00     0.034 A 
ATOM     25  C   UNL A   1      45.776  29.840  27.788  1.00  0.00     0.049 A 
ATOM     26  C   UNL A   1      41.059  31.445  30.392  1.00  0.00     0.074 A 
ATOM     27  C   UNL A   1      46.769  30.792  27.657  1.00  0.00     0.029 A 
ATOM     28  N   UNL A   1      44.707  30.452  28.424  1.00  0.00    -0.354 N 
ATOM     29  N   UNL A   1      42.186  31.226  29.756  1.00  0.00    -0.248 NA
ATOM     30  C   UNL A   1      40.943  32.801  30.951  1.00  0.00     0.031 C 
ATOM     31  C   UNL A   1      46.303  31.979  28.229  1.00  0.00     0.029 A 
ATOM     32  C   UNL A   1      45.011  31.773  28.689  1.00  0.00     0.049 A 
ATOM     33  H   UNL A   1      43.857  30.011  28.653  1.00  0.00     0.167 HD
ATOM     34  C   UNL A   1      42.890  32.424  29.804  1.00  0.00     0.074 A 
ATOM     35  C   UNL A   1      42.051  33.374  30.505  1.00  0.00     0.031 C 
ATOM     36  C   UNL A   1      44.128  32.713  29.330  1.00  0.00     0.034 A 
BRANCH  23  37
ATOM     37  C   UNL A   1      47.008  27.914  26.687  1.00  0.00     0.023 A 
ATOM     38  C   UNL A   1      48.050  27.371  27.470  1.00  0.00     0.012 A 
ATOM     39  C   UNL A   1      47.141  27.958  25.289  1.00  0.00     0.148 A 
ATOM     40  C   UNL A   1      49.232  26.937  26.876  1.00  0.00     0.002 A 
ATOM     41  C   UNL A   1      48.302  27.474  24.699  1.00  0.00     0.091 A 
ATOM     42  F   UNL A   1      46.146  28.494  24.569  1.00  0.00    -0.205 F 
ATOM     43  C   UNL A   1      49.355  26.984  25.490  1.00  0.00     0.022 A 
BRANCH  41  44
ATOM     44  S   UNL A   1      48.539  27.426  22.921  1.00  0.00     0.127 S 
ATOM     45  O   UNL A   1      49.850  28.059  22.780  1.00  0.00    -0.237 OA
ATOM     46  O   UNL A   1      48.525  25.988  22.655  1.00  0.00    -0.237 OA
ATOM     47  O   UNL A   1      47.429  28.169  22.343  1.00  0.00    -0.744 OA
ENDBRANCH  41  44
ENDBRANCH  23  37
BRANCH  24  48
ATOM     48  C   UNL A   1      38.655  31.015  31.286  1.00  0.00     0.023 A 
ATOM     49  C   UNL A   1      38.496  30.742  32.662  1.00  0.00     0.012 A 
ATOM     50  C   UNL A   1      37.609  31.664  30.601  1.00  0.00     0.148 A 
ATOM     51  C   UNL A   1      37.304  31.050  33.324  1.00  0.00     0.002 A 
ATOM     52  C   UNL A   1      36.434  31.994  31.274  1.00  0.00     0.091 A 
ATOM     53  F   UNL A   1      37.758  31.907  29.291  1.00  0.00    -0.205 F 
ATOM     54  C   UNL A   1      36.273  31.677  32.631  1.00  0.00     0.022 A 
BRANCH  52  55
ATOM     55  S   UNL A   1      35.075  32.827  30.439  1.00  0.00     0.127 S 
ATOM     56  O   UNL A   1      34.709  31.850  29.417  1.00  0.00    -0.237 OA
ATOM     57  O   UNL A   1      34.088  32.985  31.508  1.00  0.00    -0.237 OA
ATOM     58  O   UNL A   1      35.644  34.080  29.959  1.00  0.00    -0.744 OA
ENDBRANCH  52  55
ENDBRANCH  24  48
BRANCH  36  59
ATOM     59  C   UNL A   1      44.635  34.118  29.503  1.00  0.00     0.023 A 
ATOM     60  C   UNL A   1      45.297  34.486  30.690  1.00  0.00     0.012 A 
ATOM     61  C   UNL A   1      44.545  35.040  28.442  1.00  0.00     0.148 A 
ATOM     62  C   UNL A   1      45.836  35.764  30.830  1.00  0.00     0.002 A 
ATOM     63  C   UNL A   1      45.135  36.289  28.566  1.00  0.00     0.091 A 
ATOM     64  F   UNL A   1      43.892  34.674  27.328  1.00  0.00    -0.205 F 
ATOM     65  C   UNL A   1      45.769  36.658  29.764  1.00  0.00     0.022 A 
BRANCH  63  66
ATOM     66  S   UNL A   1      45.202  37.457  27.204  1.00  0.00     0.127 S 
ATOM     67  O   UNL A   1      45.984  36.719  26.215  1.00  0.00    -0.237 OA
ATOM     68  O   UNL A   1      43.787  37.621  26.866  1.00  0.00    -0.237 OA
ATOM     69  O   UNL A   1      45.837  38.657  27.735  1.00  0.00    -0.744 OA
ENDBRANCH  63  66
ENDBRANCH  36  59
ENDBRANCH  10  11
ENDBRANCH   3   5
ENDBRANCH   2   3
ENDBRANCH   1   2
BRANCH   1  70
ATOM     70  C   UNL A   1      36.488  22.673  24.166  1.00  0.00     0.274 C 
BRANCH  70  71
ATOM     71  O   UNL A   1      35.139  22.350  23.800  1.00  0.00    -0.461 OA
BRANCH  71  72
ATOM     72  C   UNL A   1      34.232  23.371  23.676  1.00  0.00     0.319 C 
ATOM     73  O   UNL A   1      34.252  24.209  22.777  1.00  0.00    -0.251 OA
BRANCH  72  74
ATOM     74  C   UNL A   1      33.225  23.314  24.825  1.00  0.00     0.184 C 
BRANCH  74  75
ATOM     75  C   UNL A   1      32.862  24.718  25.322  1.00  0.00    -0.028 A 
ATOM     76  C   UNL A   1      31.541  25.136  25.547  1.00  0.00     0.006 A 
ATOM     77  C   UNL A   1      33.887  25.619  25.663  1.00  0.00     0.006 A 
ATOM     78  C   UNL A   1      31.249  26.391  26.090  1.00  0.00     0.016 A 
ATOM     79  C   UNL A   1      33.602  26.888  26.172  1.00  0.00     0.016 A 
ATOM     80  C   UNL A   1      32.283  27.270  26.379  1.00  0.00     0.017 A 
ATOM     81  Br  UNL A   1      31.914  29.001  27.028  1.00  0.00    -0.051 Br
ENDBRANCH  74  75
BRANCH  74  82
ATOM     82  C   UNL A   1      32.057  22.345  24.446  1.00  0.00     0.282 C 
BRANCH  82  83
ATOM     83  N   UNL A   1      32.493  20.967  24.370  1.00  0.00    -0.334 N 
ATOM     84  C   UNL A   1      32.866  20.169  25.510  1.00  0.00     0.262 C 
ATOM     85  C   UNL A   1      32.161  20.106  23.265  1.00  0.00     0.262 C 
ATOM     86  H   UNL A   1      33.297  21.554  24.147  1.00  0.00     0.348 HD
ATOM     87  C   UNL A   1      33.744  19.146  24.794  1.00  0.00     0.067 C 
ATOM     88  C   UNL A   1      32.991  18.853  23.504  1.00  0.00     0.067 C 
ENDBRANCH  82  83
ENDBRANCH  74  82
ENDBRANCH  72  74
ENDBRANCH  71  72
ENDBRANCH  70  71
ENDBRANCH   1  70
TORSDOF 17
ENDMDL
