MODEL 1
REMARK VINA RESULT:     -11.8      0.000      0.000
REMARK SMILES Cc1ccc(Nc2c(F)cccc2Cl)c(CC(=O)OCCOC(=O)c2ccc(-c3c4nc(c(-c5cccc(S(=O)(=O)[O-])c5F)c5ccc([nH]5)c(-c5cccc(S(=O)(=O)[O-])c5F)c5nc(c(-c6cccc(S(=O)(=O)[O-])c6F)c6ccc3[nH]6)C=C5)C=C4)cc2)c1
REMARK SMILES IDX 20 1 19 2 17 3 18 4 16 5 15 6 1 7 2 8 3 9 88 10 4 11 5 12
REMARK SMILES IDX 6 13 7 15 8 16 13 17 9 18 10 19 12 20 14 21 11 22 21 23
REMARK SMILES IDX 22 24 23 25 24 26 25 27 26 28 87 29 27 30 86 31 28 32 29 33
REMARK SMILES IDX 30 34 80 35 31 36 85 37 79 38 81 39 32 40 84 41 78 42 77 43
REMARK SMILES IDX 33 45 65 46 45 47 64 48 46 49 49 50 63 51 82 52 47 53 48 54
REMARK SMILES IDX 62 56 83 57 50 58 34 59 35 60 43 61 36 62 38 63 44 64 37 65
REMARK SMILES IDX 39 66 40 67 41 68 42 69 66 70 67 71 75 72 68 73 70 74 76 75
REMARK SMILES IDX 69 76 71 77 72 78 73 79 74 80 51 81 52 82 60 83 53 84 55 85
REMARK SMILES IDX 61 86 54 87 56 88 57 89 58 90 59 91
REMARK H PARENT 6 14 81 44 49 55
REMARK Flexibility Score: inf
ROOT
ATOM      1  C   UNL A   1      37.046  22.782  23.914  1.00  0.00     0.274 C 
ENDROOT
BRANCH   1   2
ATOM      2  O   UNL A   1      35.925  21.928  24.069  1.00  0.00    -0.462 OA
BRANCH   2   3
ATOM      3  C   UNL A   1      36.024  20.924  24.966  1.00  0.00     0.310 C 
ATOM      4  O   UNL A   1      37.077  20.339  25.210  1.00  0.00    -0.252 OA
BRANCH   3   5
ATOM      5  C   UNL A   1      34.671  20.750  25.603  1.00  0.00     0.160 C 
BRANCH   5   6
ATOM      6  C   UNL A   1      33.664  19.959  24.817  1.00  0.00    -0.013 A 
ATOM      7  C   UNL A   1      34.152  16.566  23.256  1.00  0.00     0.044 C 
ATOM      8  C   UNL A   1      33.512  17.873  23.595  1.00  0.00    -0.051 A 
ATOM      9  C   UNL A   1      32.540  18.462  22.791  1.00  0.00     0.005 A 
ATOM     10  C   UNL A   1      34.033  18.615  24.639  1.00  0.00     0.009 A 
ATOM     11  C   UNL A   1      32.030  19.730  23.103  1.00  0.00     0.026 A 
ATOM     12  C   UNL A   1      32.520  20.479  24.175  1.00  0.00     0.042 A 
BRANCH  12  13
ATOM     13  N   UNL A   1      31.997  21.759  24.470  1.00  0.00    -0.352 N 
ATOM     14  H   UNL A   1      31.025  21.782  24.620  1.00  0.00     0.167 HD
BRANCH  13  15
ATOM     15  C   UNL A   1      32.646  23.024  24.585  1.00  0.00     0.094 A 
ATOM     16  C   UNL A   1      32.869  23.635  25.828  1.00  0.00     0.148 A 
ATOM     17  C   UNL A   1      33.252  23.645  23.472  1.00  0.00     0.067 A 
ATOM     18  F   UNL A   1      32.371  23.100  26.953  1.00  0.00    -0.205 F 
ATOM     19  C   UNL A   1      33.591  24.829  25.953  1.00  0.00     0.041 A 
ATOM     20  C   UNL A   1      34.038  24.800  23.602  1.00  0.00     0.023 A 
ATOM     21  Cl  UNL A   1      32.951  23.151  21.849  1.00  0.00    -0.082 Cl
ATOM     22  C   UNL A   1      34.190  25.407  24.841  1.00  0.00     0.005 A 
ENDBRANCH  13  15
ENDBRANCH  12  13
ENDBRANCH   5   6
ENDBRANCH   3   5
ENDBRANCH   2   3
ENDBRANCH   1   2
BRANCH   1  23
ATOM     23  C   UNL A   1      37.401  23.659  25.139  1.00  0.00     0.275 C 
BRANCH  23  24
ATOM     24  O   UNL A   1      38.285  23.211  26.244  1.00  0.00    -0.458 OA
BRANCH  24  25
ATOM     25  C   UNL A   1      39.525  23.447  26.762  1.00  0.00     0.338 C 
ATOM     26  O   UNL A   1      40.390  22.582  26.735  1.00  0.00    -0.246 OA
BRANCH  25  27
ATOM     27  C   UNL A   1      39.857  24.808  27.173  1.00  0.00     0.060 A 
ATOM     28  C   UNL A   1      40.417  25.805  26.355  1.00  0.00     0.016 A 
ATOM     29  C   UNL A   1      39.408  25.130  28.417  1.00  0.00     0.016 A 
ATOM     30  C   UNL A   1      40.454  27.122  26.837  1.00  0.00     0.010 A 
ATOM     31  C   UNL A   1      38.994  26.406  28.608  1.00  0.00     0.010 A 
ATOM     32  C   UNL A   1      39.742  27.393  27.998  1.00  0.00    -0.014 A 
BRANCH  32  33
ATOM     33  C   UNL A   1      39.890  28.497  28.932  1.00  0.00     0.031 A 
ATOM     34  C   UNL A   1      38.853  29.507  29.073  1.00  0.00     0.074 A 
ATOM     35  C   UNL A   1      40.920  28.313  29.804  1.00  0.00     0.049 A 
ATOM     36  N   UNL A   1      39.108  30.741  29.310  1.00  0.00    -0.248 NA
ATOM     37  C   UNL A   1      37.426  29.203  28.968  1.00  0.00     0.031 C 
ATOM     38  C   UNL A   1      41.231  28.872  31.103  1.00  0.00     0.029 A 
ATOM     39  N   UNL A   1      41.979  27.402  29.611  1.00  0.00    -0.354 N 
ATOM     40  C   UNL A   1      37.924  31.291  29.748  1.00  0.00     0.074 A 
ATOM     41  C   UNL A   1      36.884  30.371  29.342  1.00  0.00     0.031 C 
ATOM     42  C   UNL A   1      42.510  28.548  31.411  1.00  0.00     0.029 A 
ATOM     43  C   UNL A   1      43.101  27.881  30.251  1.00  0.00     0.049 A 
ATOM     44  H   UNL A   1      41.925  26.561  29.103  1.00  0.00     0.167 HD
ATOM     45  C   UNL A   1      37.965  32.289  30.673  1.00  0.00     0.034 A 
ATOM     46  C   UNL A   1      44.107  28.296  29.425  1.00  0.00     0.034 A 
ATOM     47  C   UNL A   1      39.344  32.443  31.172  1.00  0.00     0.049 A 
ATOM     48  C   UNL A   1      44.246  29.791  29.500  1.00  0.00     0.074 A 
ATOM     49  C   UNL A   1      39.970  31.937  32.300  1.00  0.00     0.029 A 
ATOM     50  N   UNL A   1      40.360  32.860  30.320  1.00  0.00    -0.354 N 
ATOM     51  N   UNL A   1      43.360  30.571  30.049  1.00  0.00    -0.248 NA
ATOM     52  C   UNL A   1      45.383  30.521  28.963  1.00  0.00     0.031 C 
ATOM     53  C   UNL A   1      41.374  32.000  32.095  1.00  0.00     0.029 A 
ATOM     54  C   UNL A   1      41.609  32.547  30.845  1.00  0.00     0.049 A 
ATOM     55  H   UNL A   1      40.215  33.317  29.459  1.00  0.00     0.167 HD
ATOM     56  C   UNL A   1      43.694  31.871  29.832  1.00  0.00     0.074 A 
ATOM     57  C   UNL A   1      45.018  31.787  29.232  1.00  0.00     0.031 C 
ATOM     58  C   UNL A   1      42.822  32.887  30.104  1.00  0.00     0.034 A 
BRANCH  45  59
ATOM     59  C   UNL A   1      36.758  32.832  31.412  1.00  0.00     0.023 A 
ATOM     60  C   UNL A   1      36.588  32.431  32.757  1.00  0.00     0.012 A 
ATOM     61  C   UNL A   1      35.796  33.734  30.900  1.00  0.00     0.148 A 
ATOM     62  C   UNL A   1      35.502  32.834  33.536  1.00  0.00     0.002 A 
ATOM     63  C   UNL A   1      34.687  34.112  31.668  1.00  0.00     0.091 A 
ATOM     64  F   UNL A   1      35.980  34.270  29.685  1.00  0.00    -0.205 F 
ATOM     65  C   UNL A   1      34.539  33.661  32.985  1.00  0.00     0.022 A 
BRANCH  63  66
ATOM     66  S   UNL A   1      33.350  35.140  31.032  1.00  0.00     0.127 S 
ATOM     67  O   UNL A   1      33.972  36.466  30.993  1.00  0.00    -0.237 OA
ATOM     68  O   UNL A   1      33.098  34.553  29.719  1.00  0.00    -0.237 OA
ATOM     69  O   UNL A   1      32.263  35.026  31.997  1.00  0.00    -0.744 OA
ENDBRANCH  63  66
ENDBRANCH  45  59
BRANCH  46  70
ATOM     70  C   UNL A   1      44.213  27.490  28.139  1.00  0.00     0.023 A 
ATOM     71  C   UNL A   1      43.951  28.153  26.908  1.00  0.00     0.012 A 
ATOM     72  C   UNL A   1      44.832  26.225  28.075  1.00  0.00     0.148 A 
ATOM     73  C   UNL A   1      44.376  27.625  25.681  1.00  0.00     0.002 A 
ATOM     74  C   UNL A   1      45.215  25.684  26.841  1.00  0.00     0.091 A 
ATOM     75  F   UNL A   1      45.099  25.570  29.214  1.00  0.00    -0.205 F 
ATOM     76  C   UNL A   1      45.023  26.395  25.649  1.00  0.00     0.022 A 
BRANCH  74  77
ATOM     77  S   UNL A   1      45.931  24.033  26.765  1.00  0.00     0.127 S 
ATOM     78  O   UNL A   1      47.314  24.248  27.193  1.00  0.00    -0.237 OA
ATOM     79  O   UNL A   1      45.128  23.263  27.706  1.00  0.00    -0.237 OA
ATOM     80  O   UNL A   1      45.792  23.696  25.352  1.00  0.00    -0.744 OA
ENDBRANCH  74  77
ENDBRANCH  46  70
BRANCH  58  81
ATOM     81  C   UNL A   1      43.037  34.318  29.685  1.00  0.00     0.023 A 
ATOM     82  C   UNL A   1      42.422  34.867  28.547  1.00  0.00     0.012 A 
ATOM     83  C   UNL A   1      43.765  35.204  30.516  1.00  0.00     0.148 A 
ATOM     84  C   UNL A   1      42.601  36.204  28.191  1.00  0.00     0.002 A 
ATOM     85  C   UNL A   1      43.814  36.561  30.237  1.00  0.00     0.091 A 
ATOM     86  F   UNL A   1      44.438  34.735  31.578  1.00  0.00    -0.205 F 
ATOM     87  C   UNL A   1      43.276  37.059  29.049  1.00  0.00     0.022 A 
BRANCH  85  88
ATOM     88  S   UNL A   1      44.415  37.729  31.460  1.00  0.00     0.127 S 
ATOM     89  O   UNL A   1      43.541  37.452  32.597  1.00  0.00    -0.237 OA
ATOM     90  O   UNL A   1      45.805  37.305  31.638  1.00  0.00    -0.237 OA
ATOM     91  O   UNL A   1      44.267  39.040  30.841  1.00  0.00    -0.744 OA
ENDBRANCH  85  88
ENDBRANCH  58  81
ENDBRANCH  32  33
ENDBRANCH  25  27
ENDBRANCH  24  25
ENDBRANCH  23  24
ENDBRANCH   1  23
TORSDOF 17
ENDMDL
MODEL 2
REMARK VINA RESULT:     -11.8      3.762      9.649
REMARK SMILES Cc1ccc(Nc2c(F)cccc2Cl)c(CC(=O)OCCOC(=O)c2ccc(-c3c4nc(c(-c5cccc(S(=O)(=O)[O-])c5F)c5ccc([nH]5)c(-c5cccc(S(=O)(=O)[O-])c5F)c5nc(c(-c6cccc(S(=O)(=O)[O-])c6F)c6ccc3[nH]6)C=C5)C=C4)cc2)c1
REMARK SMILES IDX 20 1 19 2 17 3 18 4 16 5 15 6 1 7 2 8 3 9 88 10 4 11 5 12
REMARK SMILES IDX 6 13 7 15 8 16 13 17 9 18 10 19 12 20 14 21 11 22 21 23
REMARK SMILES IDX 22 24 23 25 24 26 25 27 26 28 87 29 27 30 86 31 28 32 29 33
REMARK SMILES IDX 30 34 80 35 31 36 85 37 79 38 81 39 32 40 84 41 78 42 77 43
REMARK SMILES IDX 33 45 65 46 45 47 64 48 46 49 49 50 63 51 82 52 47 53 48 54
REMARK SMILES IDX 62 56 83 57 50 58 34 59 35 60 43 61 36 62 38 63 44 64 37 65
REMARK SMILES IDX 39 66 40 67 41 68 42 69 66 70 67 71 75 72 68 73 70 74 76 75
REMARK SMILES IDX 69 76 71 77 72 78 73 79 74 80 51 81 52 82 60 83 53 84 55 85
REMARK SMILES IDX 61 86 54 87 56 88 57 89 58 90 59 91
REMARK H PARENT 6 14 81 44 49 55
REMARK Flexibility Score: inf
ROOT
ATOM      1  C   UNL A   1      33.282  29.502  25.772  1.00  0.00     0.274 C 
ENDROOT
BRANCH   1   2
ATOM      2  O   UNL A   1      32.704  28.229  25.533  1.00  0.00    -0.462 OA
BRANCH   2   3
ATOM      3  C   UNL A   1      33.479  27.292  24.947  1.00  0.00     0.310 C 
ATOM      4  O   UNL A   1      34.182  27.517  23.965  1.00  0.00    -0.252 OA
BRANCH   3   5
ATOM      5  C   UNL A   1      33.350  26.028  25.754  1.00  0.00     0.160 C 
BRANCH   5   6
ATOM      6  C   UNL A   1      33.859  24.771  25.107  1.00  0.00    -0.013 A 
ATOM      7  C   UNL A   1      37.409  23.513  25.063  1.00  0.00     0.044 C 
ATOM      8  C   UNL A   1      35.953  23.610  24.740  1.00  0.00    -0.051 A 
ATOM      9  C   UNL A   1      35.407  23.077  23.576  1.00  0.00     0.005 A 
ATOM     10  C   UNL A   1      35.153  24.419  25.527  1.00  0.00     0.009 A 
ATOM     11  C   UNL A   1      34.052  23.267  23.274  1.00  0.00     0.026 A 
ATOM     12  C   UNL A   1      33.220  24.052  24.076  1.00  0.00     0.042 A 
BRANCH  12  13
ATOM     13  N   UNL A   1      31.856  24.238  23.750  1.00  0.00    -0.352 N 
ATOM     14  H   UNL A   1      31.311  23.419  23.780  1.00  0.00     0.167 HD
BRANCH  13  15
ATOM     15  C   UNL A   1      31.140  25.415  23.385  1.00  0.00     0.094 A 
ATOM     16  C   UNL A   1      30.132  25.956  24.198  1.00  0.00     0.148 A 
ATOM     17  C   UNL A   1      31.525  26.197  22.275  1.00  0.00     0.067 A 
ATOM     18  F   UNL A   1      29.723  25.310  25.301  1.00  0.00    -0.205 F 
ATOM     19  C   UNL A   1      29.495  27.165  23.892  1.00  0.00     0.041 A 
ATOM     20  C   UNL A   1      30.941  27.445  22.006  1.00  0.00     0.023 A 
ATOM     21  Cl  UNL A   1      32.613  25.629  21.065  1.00  0.00    -0.082 Cl
ATOM     22  C   UNL A   1      29.908  27.920  22.801  1.00  0.00     0.005 A 
ENDBRANCH  13  15
ENDBRANCH  12  13
ENDBRANCH   5   6
ENDBRANCH   3   5
ENDBRANCH   2   3
ENDBRANCH   1   2
BRANCH   1  23
ATOM     23  C   UNL A   1      33.579  29.841  27.252  1.00  0.00     0.275 C 
BRANCH  23  24
ATOM     24  O   UNL A   1      34.641  30.785  27.683  1.00  0.00    -0.458 OA
BRANCH  24  25
ATOM     25  C   UNL A   1      35.355  31.131  28.792  1.00  0.00     0.338 C 
ATOM     26  O   UNL A   1      34.939  31.984  29.565  1.00  0.00    -0.246 OA
BRANCH  25  27
ATOM     27  C   UNL A   1      36.526  30.331  29.140  1.00  0.00     0.060 A 
ATOM     28  C   UNL A   1      36.628  29.444  30.226  1.00  0.00     0.016 A 
ATOM     29  C   UNL A   1      37.510  30.362  28.201  1.00  0.00     0.016 A 
ATOM     30  C   UNL A   1      37.731  28.580  30.282  1.00  0.00     0.010 A 
ATOM     31  C   UNL A   1      38.219  29.222  28.016  1.00  0.00     0.010 A 
ATOM     32  C   UNL A   1      38.537  28.506  29.153  1.00  0.00    -0.014 A 
BRANCH  32  33
ATOM     33  C   UNL A   1      39.908  28.039  29.030  1.00  0.00     0.031 A 
ATOM     34  C   UNL A   1      40.205  26.679  28.610  1.00  0.00     0.074 A 
ATOM     35  C   UNL A   1      40.815  29.055  29.074  1.00  0.00     0.049 A 
ATOM     36  N   UNL A   1      41.201  26.009  29.063  1.00  0.00    -0.248 NA
ATOM     37  C   UNL A   1      39.401  25.957  27.624  1.00  0.00     0.031 C 
ATOM     38  C   UNL A   1      42.186  29.180  28.624  1.00  0.00     0.029 A 
ATOM     39  N   UNL A   1      40.548  30.344  29.578  1.00  0.00    -0.354 N 
ATOM     40  C   UNL A   1      41.378  24.963  28.185  1.00  0.00     0.074 A 
ATOM     41  C   UNL A   1      40.146  24.858  27.435  1.00  0.00     0.031 C 
ATOM     42  C   UNL A   1      42.706  30.313  29.154  1.00  0.00     0.029 A 
ATOM     43  C   UNL A   1      41.717  30.880  30.072  1.00  0.00     0.049 A 
ATOM     44  H   UNL A   1      39.670  30.789  29.577  1.00  0.00     0.167 HD
ATOM     45  C   UNL A   1      42.640  24.503  27.960  1.00  0.00     0.034 A 
ATOM     46  C   UNL A   1      41.765  31.015  31.430  1.00  0.00     0.034 A 
ATOM     47  C   UNL A   1      43.616  25.402  28.601  1.00  0.00     0.049 A 
ATOM     48  C   UNL A   1      42.755  30.042  32.006  1.00  0.00     0.074 A 
ATOM     49  C   UNL A   1      44.358  26.458  28.093  1.00  0.00     0.029 A 
ATOM     50  N   UNL A   1      43.651  25.536  29.984  1.00  0.00    -0.354 N 
ATOM     51  N   UNL A   1      43.263  29.048  31.336  1.00  0.00    -0.248 NA
ATOM     52  C   UNL A   1      43.245  30.106  33.374  1.00  0.00     0.031 C 
ATOM     53  C   UNL A   1      44.791  27.260  29.181  1.00  0.00     0.029 A 
ATOM     54  C   UNL A   1      44.320  26.697  30.355  1.00  0.00     0.049 A 
ATOM     55  H   UNL A   1      43.255  24.893  30.617  1.00  0.00     0.167 HD
ATOM     56  C   UNL A   1      44.007  28.266  32.163  1.00  0.00     0.074 A 
ATOM     57  C   UNL A   1      44.042  29.024  33.405  1.00  0.00     0.031 C 
ATOM     58  C   UNL A   1      44.464  27.041  31.768  1.00  0.00     0.034 A 
BRANCH  45  59
ATOM     59  C   UNL A   1      43.019  23.524  26.866  1.00  0.00     0.023 A 
ATOM     60  C   UNL A   1      43.698  24.042  25.740  1.00  0.00     0.012 A 
ATOM     61  C   UNL A   1      42.792  22.127  26.875  1.00  0.00     0.148 A 
ATOM     62  C   UNL A   1      44.073  23.251  24.652  1.00  0.00     0.002 A 
ATOM     63  C   UNL A   1      43.135  21.338  25.769  1.00  0.00     0.091 A 
ATOM     64  F   UNL A   1      42.289  21.550  27.976  1.00  0.00    -0.205 F 
ATOM     65  C   UNL A   1      43.774  21.900  24.658  1.00  0.00     0.022 A 
BRANCH  63  66
ATOM     66  S   UNL A   1      42.746  19.582  25.650  1.00  0.00     0.127 S 
ATOM     67  O   UNL A   1      43.400  19.205  24.395  1.00  0.00    -0.237 OA
ATOM     68  O   UNL A   1      43.378  19.037  26.848  1.00  0.00    -0.237 OA
ATOM     69  O   UNL A   1      41.291  19.497  25.606  1.00  0.00    -0.744 OA
ENDBRANCH  63  66
ENDBRANCH  45  59
BRANCH  46  70
ATOM     70  C   UNL A   1      40.419  31.339  32.060  1.00  0.00     0.023 A 
ATOM     71  C   UNL A   1      39.698  30.284  32.683  1.00  0.00     0.012 A 
ATOM     72  C   UNL A   1      39.989  32.658  32.316  1.00  0.00     0.148 A 
ATOM     73  C   UNL A   1      38.663  30.535  33.594  1.00  0.00     0.002 A 
ATOM     74  C   UNL A   1      38.925  32.898  33.196  1.00  0.00     0.091 A 
ATOM     75  F   UNL A   1      40.646  33.680  31.752  1.00  0.00    -0.205 F 
ATOM     76  C   UNL A   1      38.286  31.845  33.864  1.00  0.00     0.022 A 
BRANCH  74  77
ATOM     77  S   UNL A   1      38.334  34.580  33.454  1.00  0.00     0.127 S 
ATOM     78  O   UNL A   1      37.203  34.401  34.366  1.00  0.00    -0.237 OA
ATOM     79  O   UNL A   1      39.476  35.263  34.047  1.00  0.00    -0.237 OA
ATOM     80  O   UNL A   1      37.951  34.987  32.106  1.00  0.00    -0.744 OA
ENDBRANCH  74  77
ENDBRANCH  46  70
BRANCH  58  81
ATOM     81  C   UNL A   1      45.095  26.037  32.696  1.00  0.00     0.023 A 
ATOM     82  C   UNL A   1      46.452  25.682  32.608  1.00  0.00     0.012 A 
ATOM     83  C   UNL A   1      44.363  25.517  33.791  1.00  0.00     0.148 A 
ATOM     84  C   UNL A   1      47.032  24.777  33.498  1.00  0.00     0.002 A 
ATOM     85  C   UNL A   1      44.983  24.739  34.756  1.00  0.00     0.091 A 
ATOM     86  F   UNL A   1      43.046  25.756  33.897  1.00  0.00    -0.205 F 
ATOM     87  C   UNL A   1      46.305  24.325  34.588  1.00  0.00     0.022 A 
BRANCH  85  88
ATOM     88  S   UNL A   1      44.167  24.384  36.315  1.00  0.00     0.127 S 
ATOM     89  O   UNL A   1      42.959  23.693  35.872  1.00  0.00    -0.237 OA
ATOM     90  O   UNL A   1      45.147  23.533  36.992  1.00  0.00    -0.237 OA
ATOM     91  O   UNL A   1      43.969  25.682  36.947  1.00  0.00    -0.744 OA
ENDBRANCH  85  88
ENDBRANCH  58  81
ENDBRANCH  32  33
ENDBRANCH  25  27
ENDBRANCH  24  25
ENDBRANCH  23  24
ENDBRANCH   1  23
TORSDOF 17
ENDMDL
MODEL 3
REMARK VINA RESULT:     -11.7      4.313     10.068
REMARK SMILES Cc1ccc(Nc2c(F)cccc2Cl)c(CC(=O)OCCOC(=O)c2ccc(-c3c4nc(c(-c5cccc(S(=O)(=O)[O-])c5F)c5ccc([nH]5)c(-c5cccc(S(=O)(=O)[O-])c5F)c5nc(c(-c6cccc(S(=O)(=O)[O-])c6F)c6ccc3[nH]6)C=C5)C=C4)cc2)c1
REMARK SMILES IDX 20 1 19 2 17 3 18 4 16 5 15 6 1 7 2 8 3 9 88 10 4 11 5 12
REMARK SMILES IDX 6 13 7 15 8 16 13 17 9 18 10 19 12 20 14 21 11 22 21 23
REMARK SMILES IDX 22 24 23 25 24 26 25 27 26 28 87 29 27 30 86 31 28 32 29 33
REMARK SMILES IDX 30 34 80 35 31 36 85 37 79 38 81 39 32 40 84 41 78 42 77 43
REMARK SMILES IDX 33 45 65 46 45 47 64 48 46 49 49 50 63 51 82 52 47 53 48 54
REMARK SMILES IDX 62 56 83 57 50 58 34 59 35 60 43 61 36 62 38 63 44 64 37 65
REMARK SMILES IDX 39 66 40 67 41 68 42 69 66 70 67 71 75 72 68 73 70 74 76 75
REMARK SMILES IDX 69 76 71 77 72 78 73 79 74 80 51 81 52 82 60 83 53 84 55 85
REMARK SMILES IDX 61 86 54 87 56 88 57 89 58 90 59 91
REMARK H PARENT 6 14 81 44 49 55
REMARK Flexibility Score: inf
ROOT
ATOM      1  C   UNL A   1      33.603  28.975  26.387  1.00  0.00     0.274 C 
ENDROOT
BRANCH   1   2
ATOM      2  O   UNL A   1      33.968  27.995  25.430  1.00  0.00    -0.462 OA
BRANCH   2   3
ATOM      3  C   UNL A   1      33.611  28.213  24.146  1.00  0.00     0.310 C 
ATOM      4  O   UNL A   1      33.633  29.323  23.620  1.00  0.00    -0.252 OA
BRANCH   3   5
ATOM      5  C   UNL A   1      33.276  26.878  23.536  1.00  0.00     0.160 C 
BRANCH   5   6
ATOM      6  C   UNL A   1      32.173  26.102  24.198  1.00  0.00    -0.013 A 
ATOM      7  C   UNL A   1      28.470  26.739  23.939  1.00  0.00     0.044 C 
ATOM      8  C   UNL A   1      29.760  26.150  24.408  1.00  0.00    -0.051 A 
ATOM      9  C   UNL A   1      29.898  25.543  25.653  1.00  0.00     0.005 A 
ATOM     10  C   UNL A   1      30.904  26.381  23.665  1.00  0.00     0.009 A 
ATOM     11  C   UNL A   1      31.148  25.081  26.087  1.00  0.00     0.026 A 
ATOM     12  C   UNL A   1      32.308  25.275  25.333  1.00  0.00     0.042 A 
BRANCH  12  13
ATOM     13  N   UNL A   1      33.562  24.808  25.791  1.00  0.00    -0.352 N 
ATOM     14  H   UNL A   1      34.049  25.436  26.370  1.00  0.00     0.167 HD
BRANCH  13  15
ATOM     15  C   UNL A   1      34.238  23.575  25.550  1.00  0.00     0.094 A 
ATOM     16  C   UNL A   1      35.033  23.373  24.412  1.00  0.00     0.148 A 
ATOM     17  C   UNL A   1      34.286  22.559  26.528  1.00  0.00     0.067 A 
ATOM     18  F   UNL A   1      35.090  24.299  23.443  1.00  0.00    -0.205 F 
ATOM     19  C   UNL A   1      35.777  22.201  24.220  1.00  0.00     0.041 A 
ATOM     20  C   UNL A   1      35.088  21.417  26.374  1.00  0.00     0.023 A 
ATOM     21  Cl  UNL A   1      33.252  22.539  27.905  1.00  0.00    -0.082 Cl
ATOM     22  C   UNL A   1      35.817  21.225  25.209  1.00  0.00     0.005 A 
ENDBRANCH  13  15
ENDBRANCH  12  13
ENDBRANCH   5   6
ENDBRANCH   3   5
ENDBRANCH   2   3
ENDBRANCH   1   2
BRANCH   1  23
ATOM     23  C   UNL A   1      34.770  29.766  27.024  1.00  0.00     0.275 C 
BRANCH  23  24
ATOM     24  O   UNL A   1      35.264  29.535  28.404  1.00  0.00    -0.458 OA
BRANCH  24  25
ATOM     25  C   UNL A   1      36.359  29.768  29.184  1.00  0.00     0.338 C 
ATOM     26  O   UNL A   1      36.253  30.342  30.259  1.00  0.00    -0.246 OA
BRANCH  25  27
ATOM     27  C   UNL A   1      37.625  29.150  28.801  1.00  0.00     0.060 A 
ATOM     28  C   UNL A   1      38.374  29.446  27.648  1.00  0.00     0.016 A 
ATOM     29  C   UNL A   1      38.158  28.350  29.764  1.00  0.00     0.016 A 
ATOM     30  C   UNL A   1      39.677  28.936  27.549  1.00  0.00     0.010 A 
ATOM     31  C   UNL A   1      39.509  28.336  29.872  1.00  0.00     0.010 A 
ATOM     32  C   UNL A   1      40.220  28.355  28.688  1.00  0.00    -0.014 A 
BRANCH  32  33
ATOM     33  C   UNL A   1      41.330  27.426  28.807  1.00  0.00     0.031 A 
ATOM     34  C   UNL A   1      41.164  26.012  28.506  1.00  0.00     0.074 A 
ATOM     35  C   UNL A   1      42.531  28.055  28.944  1.00  0.00     0.049 A 
ATOM     36  N   UNL A   1      41.780  25.085  29.144  1.00  0.00    -0.248 NA
ATOM     37  C   UNL A   1      40.288  25.522  27.443  1.00  0.00     0.031 C 
ATOM     38  C   UNL A   1      43.899  27.642  28.710  1.00  0.00     0.029 A 
ATOM     39  N   UNL A   1      42.688  29.401  29.334  1.00  0.00    -0.354 N 
ATOM     40  C   UNL A   1      41.677  23.959  28.358  1.00  0.00     0.074 A 
ATOM     41  C   UNL A   1      40.600  24.218  27.429  1.00  0.00     0.031 C 
ATOM     42  C   UNL A   1      44.722  28.568  29.260  1.00  0.00     0.029 A 
ATOM     43  C   UNL A   1      43.897  29.538  29.980  1.00  0.00     0.049 A 
ATOM     44  H   UNL A   1      42.040  30.123  29.172  1.00  0.00     0.167 HD
ATOM     45  C   UNL A   1      42.703  23.063  28.358  1.00  0.00     0.034 A 
ATOM     46  C   UNL A   1      43.814  29.786  31.321  1.00  0.00     0.034 A 
ATOM     47  C   UNL A   1      43.847  23.622  29.101  1.00  0.00     0.049 A 
ATOM     48  C   UNL A   1      44.298  28.592  32.093  1.00  0.00     0.074 A 
ATOM     49  C   UNL A   1      44.982  24.290  28.665  1.00  0.00     0.029 A 
ATOM     50  N   UNL A   1      43.748  23.876  30.464  1.00  0.00    -0.354 N 
ATOM     51  N   UNL A   1      44.492  27.419  31.562  1.00  0.00    -0.248 NA
ATOM     52  C   UNL A   1      44.595  28.620  33.517  1.00  0.00     0.031 C 
ATOM     53  C   UNL A   1      45.531  24.996  29.767  1.00  0.00     0.029 A 
ATOM     54  C   UNL A   1      44.739  24.759  30.878  1.00  0.00     0.049 A 
ATOM     55  H   UNL A   1      43.067  23.483  31.057  1.00  0.00     0.167 HD
ATOM     56  C   UNL A   1      44.786  26.516  32.534  1.00  0.00     0.074 A 
ATOM     57  C   UNL A   1      44.933  27.336  33.728  1.00  0.00     0.031 C 
ATOM     58  C   UNL A   1      44.814  25.174  32.277  1.00  0.00     0.034 A 
BRANCH  45  59
ATOM     59  C   UNL A   1      42.838  21.906  27.388  1.00  0.00     0.023 A 
ATOM     60  C   UNL A   1      41.937  20.828  27.536  1.00  0.00     0.012 A 
ATOM     61  C   UNL A   1      43.761  21.811  26.319  1.00  0.00     0.148 A 
ATOM     62  C   UNL A   1      41.977  19.690  26.728  1.00  0.00     0.002 A 
ATOM     63  C   UNL A   1      43.827  20.655  25.530  1.00  0.00     0.091 A 
ATOM     64  F   UNL A   1      44.542  22.861  26.031  1.00  0.00    -0.205 F 
ATOM     65  C   UNL A   1      42.937  19.595  25.735  1.00  0.00     0.022 A 
BRANCH  63  66
ATOM     66  S   UNL A   1      45.069  20.405  24.248  1.00  0.00     0.127 S 
ATOM     67  O   UNL A   1      44.839  19.011  23.863  1.00  0.00    -0.237 OA
ATOM     68  O   UNL A   1      44.678  21.383  23.235  1.00  0.00    -0.237 OA
ATOM     69  O   UNL A   1      46.358  20.637  24.888  1.00  0.00    -0.744 OA
ENDBRANCH  63  66
ENDBRANCH  45  59
BRANCH  46  70
ATOM     70  C   UNL A   1      42.609  30.628  31.713  1.00  0.00     0.023 A 
ATOM     71  C   UNL A   1      42.371  31.834  30.997  1.00  0.00     0.012 A 
ATOM     72  C   UNL A   1      41.567  30.143  32.530  1.00  0.00     0.148 A 
ATOM     73  C   UNL A   1      41.122  32.469  31.018  1.00  0.00     0.002 A 
ATOM     74  C   UNL A   1      40.335  30.808  32.578  1.00  0.00     0.091 A 
ATOM     75  F   UNL A   1      41.750  29.007  33.216  1.00  0.00    -0.205 F 
ATOM     76  C   UNL A   1      40.097  31.947  31.797  1.00  0.00     0.022 A 
BRANCH  74  77
ATOM     77  S   UNL A   1      39.040  30.225  33.686  1.00  0.00     0.127 S 
ATOM     78  O   UNL A   1      38.676  28.924  33.121  1.00  0.00    -0.237 OA
ATOM     79  O   UNL A   1      39.701  30.149  34.982  1.00  0.00    -0.237 OA
ATOM     80  O   UNL A   1      38.011  31.248  33.531  1.00  0.00    -0.744 OA
ENDBRANCH  74  77
ENDBRANCH  46  70
BRANCH  58  81
ATOM     81  C   UNL A   1      44.910  24.113  33.342  1.00  0.00     0.023 A 
ATOM     82  C   UNL A   1      43.843  23.247  33.638  1.00  0.00     0.012 A 
ATOM     83  C   UNL A   1      46.143  23.862  33.991  1.00  0.00     0.148 A 
ATOM     84  C   UNL A   1      43.958  22.245  34.602  1.00  0.00     0.002 A 
ATOM     85  C   UNL A   1      46.293  22.772  34.835  1.00  0.00     0.091 A 
ATOM     86  F   UNL A   1      47.182  24.692  33.811  1.00  0.00    -0.205 F 
ATOM     87  C   UNL A   1      45.191  21.990  35.182  1.00  0.00     0.022 A 
BRANCH  85  88
ATOM     88  S   UNL A   1      47.923  22.240  35.367  1.00  0.00     0.127 S 
ATOM     89  O   UNL A   1      48.202  23.167  36.459  1.00  0.00    -0.237 OA
ATOM     90  O   UNL A   1      47.677  20.858  35.784  1.00  0.00    -0.237 OA
ATOM     91  O   UNL A   1      48.769  22.363  34.187  1.00  0.00    -0.744 OA
ENDBRANCH  85  88
ENDBRANCH  58  81
ENDBRANCH  32  33
ENDBRANCH  25  27
ENDBRANCH  24  25
ENDBRANCH  23  24
ENDBRANCH   1  23
TORSDOF 17
ENDMDL
