MODEL 1
REMARK VINA RESULT:     -12.4      0.000      0.000
REMARK SMILES C[C@@H](C(=O)OCCOC(=O)c1ccc(-c2c3nc(c(-c4cccc(S(=O)(=O)[O-])c4F)c4ccc([nH]4)c(-c4cccc(S(=O)(=O)[O-])c4F)c4nc(c(-c5cccc(S(=O)(=O)[O-])c5F)c5ccc2[nH]5)C=C4)C=C3)cc1)c1ccc(-c2cccc(OC(=O)NC3CC3)c2)c(F)c1
REMARK SMILES IDX 6 1 5 2 3 3 4 4 2 5 1 6 74 7 75 8 93 9 76 10 91 11 77 12
REMARK SMILES IDX 92 13 78 14 79 15 90 16 80 17 82 18 81 19 83 20 84 21 85 22
REMARK SMILES IDX 86 23 87 25 88 26 89 27 7 28 8 29 9 30 10 31 11 32 12 33
REMARK SMILES IDX 73 34 13 35 72 36 14 37 15 38 16 39 66 40 17 41 71 42 65 43
REMARK SMILES IDX 67 44 18 45 70 46 64 47 63 48 19 50 51 51 31 52 50 53 32 54
REMARK SMILES IDX 35 55 49 56 68 57 33 58 34 59 48 61 69 62 36 63 20 64 21 65
REMARK SMILES IDX 29 66 22 67 24 68 30 69 23 70 25 71 26 72 27 73 28 74 52 75
REMARK SMILES IDX 53 76 61 77 54 78 56 79 62 80 55 81 57 82 58 83 59 84 60 85
REMARK SMILES IDX 37 86 38 87 46 88 39 89 41 90 47 91 40 92 42 93 43 94 44 95
REMARK SMILES IDX 45 96
REMARK H PARENT 86 24 67 49 35 60
REMARK Flexibility Score: inf
ROOT
ATOM      1  C   UNL A   1      35.017  20.518  24.979  1.00  0.00     0.274 C 
ENDROOT
BRANCH   1   2
ATOM      2  O   UNL A   1      34.993  21.865  24.463  1.00  0.00    -0.462 OA
BRANCH   2   3
ATOM      3  C   UNL A   1      34.287  22.781  25.184  1.00  0.00     0.313 C 
ATOM      4  O   UNL A   1      34.376  22.899  26.401  1.00  0.00    -0.252 OA
BRANCH   3   5
ATOM      5  C   UNL A   1      33.302  23.587  24.320  1.00  0.00     0.126 C 
ATOM      6  C   UNL A   1      33.612  23.528  22.823  1.00  0.00     0.025 C 
BRANCH   5   7
ATOM      7  C   UNL A   1      33.134  25.011  24.845  1.00  0.00    -0.031 A 
ATOM      8  C   UNL A   1      32.355  25.334  25.965  1.00  0.00     0.005 A 
ATOM      9  C   UNL A   1      33.712  26.067  24.130  1.00  0.00     0.044 A 
ATOM     10  C   UNL A   1      32.097  26.675  26.301  1.00  0.00     0.012 A 
ATOM     11  C   UNL A   1      33.453  27.395  24.472  1.00  0.00     0.131 A 
ATOM     12  C   UNL A   1      32.590  27.737  25.520  1.00  0.00     0.018 A 
ATOM     13  F   UNL A   1      34.033  28.348  23.727  1.00  0.00    -0.206 F 
BRANCH  12  14
ATOM     14  C   UNL A   1      32.111  29.129  25.706  1.00  0.00    -0.012 A 
ATOM     15  C   UNL A   1      32.489  29.900  26.826  1.00  0.00     0.009 A 
ATOM     16  C   UNL A   1      31.175  29.688  24.801  1.00  0.00     0.056 A 
ATOM     17  C   UNL A   1      31.971  31.181  27.035  1.00  0.00     0.004 A 
ATOM     18  C   UNL A   1      30.671  30.959  25.022  1.00  0.00     0.133 A 
ATOM     19  C   UNL A   1      31.070  31.718  26.123  1.00  0.00     0.047 A 
BRANCH  18  20
ATOM     20  O   UNL A   1      29.647  31.555  24.215  1.00  0.00    -0.410 OA
BRANCH  20  21
ATOM     21  C   UNL A   1      28.368  31.269  23.653  1.00  0.00     0.412 C 
ATOM     22  O   UNL A   1      27.506  32.145  23.543  1.00  0.00    -0.224 OA
ATOM     23  N   UNL A   1      28.045  29.889  23.122  1.00  0.00    -0.318 N 
ATOM     24  H   UNL A   1      27.189  29.969  22.641  1.00  0.00     0.167 HD
BRANCH  23  25
ATOM     25  C   UNL A   1      28.618  27.916  22.966  1.00  0.00     0.085 C 
ATOM     26  C   UNL A   1      29.969  27.056  23.202  1.00  0.00     0.027 C 
ATOM     27  C   UNL A   1      28.793  26.695  24.025  1.00  0.00     0.027 C 
ENDBRANCH  23  25
ENDBRANCH  20  21
ENDBRANCH  18  20
ENDBRANCH  12  14
ENDBRANCH   5   7
ENDBRANCH   3   5
ENDBRANCH   2   3
ENDBRANCH   1   2
BRANCH   1  28
ATOM     28  C   UNL A   1      36.441  19.966  24.994  1.00  0.00     0.275 C 
BRANCH  28  29
ATOM     29  O   UNL A   1      37.402  21.033  24.907  1.00  0.00    -0.458 OA
BRANCH  29  30
ATOM     30  C   UNL A   1      38.567  20.810  25.556  1.00  0.00     0.338 C 
ATOM     31  O   UNL A   1      39.174  19.755  25.644  1.00  0.00    -0.246 OA
BRANCH  30  32
ATOM     32  C   UNL A   1      39.061  22.055  26.162  1.00  0.00     0.060 A 
ATOM     33  C   UNL A   1      38.390  23.247  25.922  1.00  0.00     0.016 A 
ATOM     34  C   UNL A   1      40.290  22.060  26.824  1.00  0.00     0.016 A 
ATOM     35  C   UNL A   1      39.008  24.455  26.249  1.00  0.00     0.010 A 
ATOM     36  C   UNL A   1      40.864  23.277  27.221  1.00  0.00     0.010 A 
ATOM     37  C   UNL A   1      40.263  24.499  26.886  1.00  0.00    -0.014 A 
BRANCH  37  38
ATOM     38  C   UNL A   1      40.915  25.812  27.191  1.00  0.00     0.031 A 
ATOM     39  C   UNL A   1      40.405  26.761  28.248  1.00  0.00     0.074 A 
ATOM     40  C   UNL A   1      42.034  26.181  26.539  1.00  0.00     0.049 A 
ATOM     41  N   UNL A   1      40.910  27.913  28.632  1.00  0.00    -0.248 NA
ATOM     42  C   UNL A   1      39.169  26.394  28.950  1.00  0.00     0.031 C 
ATOM     43  C   UNL A   1      42.729  25.388  25.535  1.00  0.00     0.029 A 
ATOM     44  N   UNL A   1      42.837  27.286  26.715  1.00  0.00    -0.354 N 
ATOM     45  C   UNL A   1      39.988  28.468  29.507  1.00  0.00     0.074 A 
ATOM     46  C   UNL A   1      38.923  27.493  29.651  1.00  0.00     0.031 C 
ATOM     47  C   UNL A   1      43.947  25.913  25.351  1.00  0.00     0.029 A 
ATOM     48  C   UNL A   1      44.081  27.125  26.153  1.00  0.00     0.049 A 
ATOM     49  H   UNL A   1      42.552  28.100  27.190  1.00  0.00     0.167 HD
ATOM     50  C   UNL A   1      39.997  29.681  30.117  1.00  0.00     0.034 A 
ATOM     51  C   UNL A   1      45.204  27.846  26.329  1.00  0.00     0.034 A 
ATOM     52  C   UNL A   1      41.066  30.649  30.092  1.00  0.00     0.049 A 
ATOM     53  C   UNL A   1      45.095  29.207  26.873  1.00  0.00     0.074 A 
ATOM     54  C   UNL A   1      41.129  31.875  30.741  1.00  0.00     0.029 A 
ATOM     55  N   UNL A   1      42.248  30.525  29.390  1.00  0.00    -0.354 N 
ATOM     56  N   UNL A   1      44.355  29.671  27.832  1.00  0.00    -0.248 NA
ATOM     57  C   UNL A   1      45.967  30.189  26.232  1.00  0.00     0.031 C 
ATOM     58  C   UNL A   1      42.328  32.510  30.394  1.00  0.00     0.029 A 
ATOM     59  C   UNL A   1      43.022  31.670  29.546  1.00  0.00     0.049 A 
ATOM     60  H   UNL A   1      42.506  29.739  28.856  1.00  0.00     0.167 HD
ATOM     61  C   UNL A   1      44.778  30.983  28.004  1.00  0.00     0.074 A 
ATOM     62  C   UNL A   1      45.851  31.217  27.060  1.00  0.00     0.031 C 
ATOM     63  C   UNL A   1      44.261  31.902  28.849  1.00  0.00     0.034 A 
BRANCH  50  64
ATOM     64  C   UNL A   1      38.748  30.081  30.849  1.00  0.00     0.023 A 
ATOM     65  C   UNL A   1      38.585  29.770  32.210  1.00  0.00     0.012 A 
ATOM     66  C   UNL A   1      37.767  30.841  30.180  1.00  0.00     0.148 A 
ATOM     67  C   UNL A   1      37.441  30.184  32.890  1.00  0.00     0.002 A 
ATOM     68  C   UNL A   1      36.658  31.294  30.877  1.00  0.00     0.091 A 
ATOM     69  F   UNL A   1      37.942  31.105  28.877  1.00  0.00    -0.205 F 
ATOM     70  C   UNL A   1      36.486  30.955  32.229  1.00  0.00     0.022 A 
BRANCH  68  71
ATOM     71  S   UNL A   1      35.429  32.372  30.135  1.00  0.00     0.127 S 
ATOM     72  O   UNL A   1      34.946  31.547  29.028  1.00  0.00    -0.237 OA
ATOM     73  O   UNL A   1      34.473  32.544  31.229  1.00  0.00    -0.237 OA
ATOM     74  O   UNL A   1      36.136  33.584  29.749  1.00  0.00    -0.744 OA
ENDBRANCH  68  71
ENDBRANCH  50  64
BRANCH  51  75
ATOM     75  C   UNL A   1      46.529  27.333  25.917  1.00  0.00     0.023 A 
ATOM     76  C   UNL A   1      47.189  27.423  24.186  1.00  0.00     0.012 A 
ATOM     77  C   UNL A   1      47.640  26.908  27.271  1.00  0.00     0.148 A 
ATOM     78  C   UNL A   1      48.978  27.134  23.895  1.00  0.00     0.002 A 
ATOM     79  C   UNL A   1      49.366  26.533  26.963  1.00  0.00     0.091 A 
ATOM     80  F   UNL A   1      47.125  26.814  28.506  1.00  0.00    -0.205 F 
ATOM     81  C   UNL A   1      50.039  26.625  25.284  1.00  0.00     0.022 A 
BRANCH  79  82
ATOM     82  S   UNL A   1      50.383  26.139  28.355  1.00  0.00     0.127 S 
ATOM     83  O   UNL A   1      49.674  25.001  28.930  1.00  0.00    -0.237 OA
ATOM     84  O   UNL A   1      51.658  25.830  27.715  1.00  0.00    -0.237 OA
ATOM     85  O   UNL A   1      50.370  27.371  29.134  1.00  0.00    -0.744 OA
ENDBRANCH  79  82
ENDBRANCH  51  75
BRANCH  63  86
ATOM     86  C   UNL A   1      45.009  33.195  29.040  1.00  0.00     0.023 A 
ATOM     87  C   UNL A   1      45.941  33.360  30.083  1.00  0.00     0.012 A 
ATOM     88  C   UNL A   1      44.770  34.274  28.164  1.00  0.00     0.148 A 
ATOM     89  C   UNL A   1      46.561  34.592  30.300  1.00  0.00     0.002 A 
ATOM     90  C   UNL A   1      45.448  35.474  28.337  1.00  0.00     0.091 A 
ATOM     91  F   UNL A   1      43.866  34.115  27.185  1.00  0.00    -0.205 F 
ATOM     92  C   UNL A   1      46.322  35.645  29.421  1.00  0.00     0.022 A 
BRANCH  90  93
ATOM     93  S   UNL A   1      45.306  36.842  27.181  1.00  0.00     0.127 S 
ATOM     94  O   UNL A   1      45.948  36.294  25.987  1.00  0.00    -0.237 OA
ATOM     95  O   UNL A   1      43.856  37.003  27.076  1.00  0.00    -0.237 OA
ATOM     96  O   UNL A   1      45.998  37.966  27.798  1.00  0.00    -0.744 OA
ENDBRANCH  90  93
ENDBRANCH  63  86
ENDBRANCH  37  38
ENDBRANCH  30  32
ENDBRANCH  29  30
ENDBRANCH  28  29
ENDBRANCH   1  28
TORSDOF 19
ENDMDL
MODEL 2
REMARK VINA RESULT:     -12.0      1.457      7.689
REMARK SMILES C[C@@H](C(=O)OCCOC(=O)c1ccc(-c2c3nc(c(-c4cccc(S(=O)(=O)[O-])c4F)c4ccc([nH]4)c(-c4cccc(S(=O)(=O)[O-])c4F)c4nc(c(-c5cccc(S(=O)(=O)[O-])c5F)c5ccc2[nH]5)C=C4)C=C3)cc1)c1ccc(-c2cccc(OC(=O)NC3CC3)c2)c(F)c1
REMARK SMILES IDX 6 1 5 2 3 3 4 4 2 5 1 6 74 7 75 8 93 9 76 10 91 11 77 12
REMARK SMILES IDX 92 13 78 14 79 15 90 16 80 17 82 18 81 19 83 20 84 21 85 22
REMARK SMILES IDX 86 23 87 25 88 26 89 27 7 28 8 29 9 30 10 31 11 32 12 33
REMARK SMILES IDX 73 34 13 35 72 36 14 37 15 38 16 39 66 40 17 41 71 42 65 43
REMARK SMILES IDX 67 44 18 45 70 46 64 47 63 48 19 50 51 51 31 52 50 53 32 54
REMARK SMILES IDX 35 55 49 56 68 57 33 58 34 59 48 61 69 62 36 63 20 64 21 65
REMARK SMILES IDX 29 66 22 67 24 68 30 69 23 70 25 71 26 72 27 73 28 74 52 75
REMARK SMILES IDX 53 76 61 77 54 78 56 79 62 80 55 81 57 82 58 83 59 84 60 85
REMARK SMILES IDX 37 86 38 87 46 88 39 89 41 90 47 91 40 92 42 93 43 94 44 95
REMARK SMILES IDX 45 96
REMARK H PARENT 86 24 67 49 35 60
REMARK Flexibility Score: inf
ROOT
ATOM      1  C   UNL A   1      34.856  20.689  25.313  1.00  0.00     0.274 C 
ENDROOT
BRANCH   1   2
ATOM      2  O   UNL A   1      34.679  22.113  25.167  1.00  0.00    -0.462 OA
BRANCH   2   3
ATOM      3  C   UNL A   1      33.444  22.537  24.774  1.00  0.00     0.313 C 
ATOM      4  O   UNL A   1      32.451  22.484  25.490  1.00  0.00    -0.252 OA
BRANCH   3   5
ATOM      5  C   UNL A   1      33.414  23.000  23.308  1.00  0.00     0.126 C 
ATOM      6  C   UNL A   1      34.805  23.175  22.693  1.00  0.00     0.025 C 
BRANCH   5   7
ATOM      7  C   UNL A   1      32.518  24.223  23.127  1.00  0.00    -0.031 A 
ATOM      8  C   UNL A   1      32.786  25.249  22.210  1.00  0.00     0.005 A 
ATOM      9  C   UNL A   1      31.415  24.383  23.975  1.00  0.00     0.044 A 
ATOM     10  C   UNL A   1      32.023  26.430  22.207  1.00  0.00     0.012 A 
ATOM     11  C   UNL A   1      30.661  25.557  23.963  1.00  0.00     0.131 A 
ATOM     12  C   UNL A   1      30.981  26.636  23.131  1.00  0.00     0.018 A 
ATOM     13  F   UNL A   1      29.630  25.637  24.818  1.00  0.00    -0.206 F 
BRANCH  12  14
ATOM     14  C   UNL A   1      30.351  27.967  23.310  1.00  0.00    -0.012 A 
ATOM     15  C   UNL A   1      29.249  28.377  22.530  1.00  0.00     0.009 A 
ATOM     16  C   UNL A   1      30.909  28.904  24.214  1.00  0.00     0.056 A 
ATOM     17  C   UNL A   1      28.711  29.662  22.650  1.00  0.00     0.004 A 
ATOM     18  C   UNL A   1      30.364  30.173  24.322  1.00  0.00     0.133 A 
ATOM     19  C   UNL A   1      29.261  30.558  23.558  1.00  0.00     0.047 A 
BRANCH  18  20
ATOM     20  O   UNL A   1      30.930  31.211  25.133  1.00  0.00    -0.410 OA
BRANCH  20  21
ATOM     21  C   UNL A   1      31.503  31.426  26.422  1.00  0.00     0.412 C 
ATOM     22  O   UNL A   1      31.375  32.504  27.007  1.00  0.00    -0.224 OA
ATOM     23  N   UNL A   1      32.242  30.317  27.139  1.00  0.00    -0.318 N 
ATOM     24  H   UNL A   1      32.398  30.635  28.057  1.00  0.00     0.167 HD
BRANCH  23  25
ATOM     25  C   UNL A   1      33.062  28.430  27.027  1.00  0.00     0.085 C 
ATOM     26  C   UNL A   1      32.555  26.942  26.643  1.00  0.00     0.027 C 
ATOM     27  C   UNL A   1      33.644  27.511  25.819  1.00  0.00     0.027 C 
ENDBRANCH  23  25
ENDBRANCH  20  21
ENDBRANCH  18  20
ENDBRANCH  12  14
ENDBRANCH   5   7
ENDBRANCH   3   5
ENDBRANCH   2   3
ENDBRANCH   1   2
BRANCH   1  28
ATOM     28  C   UNL A   1      36.282  20.277  24.953  1.00  0.00     0.275 C 
BRANCH  28  29
ATOM     29  O   UNL A   1      37.171  21.406  25.026  1.00  0.00    -0.458 OA
BRANCH  29  30
ATOM     30  C   UNL A   1      38.398  21.137  25.527  1.00  0.00     0.338 C 
ATOM     31  O   UNL A   1      39.032  20.101  25.416  1.00  0.00    -0.246 OA
BRANCH  30  32
ATOM     32  C   UNL A   1      38.923  22.307  26.246  1.00  0.00     0.060 A 
ATOM     33  C   UNL A   1      38.343  23.553  26.045  1.00  0.00     0.016 A 
ATOM     34  C   UNL A   1      40.101  22.191  26.986  1.00  0.00     0.016 A 
ATOM     35  C   UNL A   1      39.009  24.696  26.491  1.00  0.00     0.010 A 
ATOM     36  C   UNL A   1      40.719  23.341  27.500  1.00  0.00     0.010 A 
ATOM     37  C   UNL A   1      40.217  24.618  27.210  1.00  0.00    -0.014 A 
BRANCH  37  38
ATOM     38  C   UNL A   1      40.924  25.864  27.644  1.00  0.00     0.031 A 
ATOM     39  C   UNL A   1      42.208  26.347  27.012  1.00  0.00     0.074 A 
ATOM     40  C   UNL A   1      40.403  26.638  28.614  1.00  0.00     0.049 A 
ATOM     41  N   UNL A   1      42.896  27.435  27.276  1.00  0.00    -0.248 NA
ATOM     42  C   UNL A   1      42.812  25.503  25.974  1.00  0.00     0.031 C 
ATOM     43  C   UNL A   1      39.145  26.395  29.306  1.00  0.00     0.029 A 
ATOM     44  N   UNL A   1      40.831  27.852  29.104  1.00  0.00    -0.354 N 
ATOM     45  C   UNL A   1      44.073  27.337  26.547  1.00  0.00     0.074 A 
ATOM     46  C   UNL A   1      43.973  26.112  25.776  1.00  0.00     0.031 C 
ATOM     47  C   UNL A   1      38.795  27.514  29.953  1.00  0.00     0.029 A 
ATOM     48  C   UNL A   1      39.845  28.515  29.796  1.00  0.00     0.049 A 
ATOM     49  H   UNL A   1      41.741  28.205  28.974  1.00  0.00     0.167 HD
ATOM     50  C   UNL A   1      45.151  28.161  26.533  1.00  0.00     0.034 A 
ATOM     51  C   UNL A   1      39.788  29.801  30.190  1.00  0.00     0.034 A 
ATOM     52  C   UNL A   1      45.270  29.436  27.198  1.00  0.00     0.049 A 
ATOM     53  C   UNL A   1      41.036  30.574  30.271  1.00  0.00     0.074 A 
ATOM     54  C   UNL A   1      46.337  30.324  27.166  1.00  0.00     0.029 A 
ATOM     55  N   UNL A   1      44.316  30.009  28.014  1.00  0.00    -0.354 N 
ATOM     56  N   UNL A   1      42.054  30.611  29.469  1.00  0.00    -0.248 NA
ATOM     57  C   UNL A   1      41.137  31.444  31.441  1.00  0.00     0.031 C 
ATOM     58  C   UNL A   1      46.045  31.411  27.999  1.00  0.00     0.029 A 
ATOM     59  C   UNL A   1      44.788  31.211  28.533  1.00  0.00     0.049 A 
ATOM     60  H   UNL A   1      43.430  29.623  28.202  1.00  0.00     0.167 HD
ATOM     61  C   UNL A   1      42.864  31.621  29.970  1.00  0.00     0.074 A 
ATOM     62  C   UNL A   1      42.196  32.175  31.128  1.00  0.00     0.031 C 
ATOM     63  C   UNL A   1      44.079  31.996  29.510  1.00  0.00     0.034 A 
BRANCH  50  64
ATOM     64  C   UNL A   1      46.365  27.676  25.793  1.00  0.00     0.023 A 
ATOM     65  C   UNL A   1      46.542  27.976  24.431  1.00  0.00     0.012 A 
ATOM     66  C   UNL A   1      47.369  26.977  26.494  1.00  0.00     0.148 A 
ATOM     67  C   UNL A   1      47.693  27.558  23.766  1.00  0.00     0.002 A 
ATOM     68  C   UNL A   1      48.534  26.611  25.838  1.00  0.00     0.091 A 
ATOM     69  F   UNL A   1      47.163  26.688  27.787  1.00  0.00    -0.205 F 
ATOM     70  C   UNL A   1      48.692  26.888  24.471  1.00  0.00     0.022 A 
BRANCH  68  71
ATOM     71  S   UNL A   1      49.912  25.834  26.687  1.00  0.00     0.127 S 
ATOM     72  O   UNL A   1      49.274  24.650  27.260  1.00  0.00    -0.237 OA
ATOM     73  O   UNL A   1      50.832  25.557  25.583  1.00  0.00    -0.237 OA
ATOM     74  O   UNL A   1      50.396  26.812  27.650  1.00  0.00    -0.744 OA
ENDBRANCH  68  71
ENDBRANCH  50  64
BRANCH  51  75
ATOM     75  C   UNL A   1      38.517  30.427  30.617  1.00  0.00     0.023 A 
ATOM     76  C   UNL A   1      38.115  30.877  32.370  1.00  0.00     0.012 A 
ATOM     77  C   UNL A   1      37.486  31.055  29.279  1.00  0.00     0.148 A 
ATOM     78  C   UNL A   1      36.706  32.006  32.703  1.00  0.00     0.002 A 
ATOM     79  C   UNL A   1      36.055  32.078  29.622  1.00  0.00     0.091 A 
ATOM     80  F   UNL A   1      37.781  30.681  28.025  1.00  0.00    -0.205 F 
ATOM     81  C   UNL A   1      35.646  32.543  31.323  1.00  0.00     0.022 A 
BRANCH  79  82
ATOM     82  S   UNL A   1      35.110  32.659  28.244  1.00  0.00     0.127 S 
ATOM     83  O   UNL A   1      34.816  31.416  27.539  1.00  0.00    -0.237 OA
ATOM     84  O   UNL A   1      33.974  33.293  28.907  1.00  0.00    -0.237 OA
ATOM     85  O   UNL A   1      36.025  33.579  27.579  1.00  0.00    -0.744 OA
ENDBRANCH  79  82
ENDBRANCH  51  75
BRANCH  63  86
ATOM     86  C   UNL A   1      44.689  33.260  30.056  1.00  0.00     0.023 A 
ATOM     87  C   UNL A   1      45.484  33.251  31.220  1.00  0.00     0.012 A 
ATOM     88  C   UNL A   1      44.456  34.486  29.400  1.00  0.00     0.148 A 
ATOM     89  C   UNL A   1      45.969  34.443  31.763  1.00  0.00     0.002 A 
ATOM     90  C   UNL A   1      45.007  35.659  29.901  1.00  0.00     0.091 A 
ATOM     91  F   UNL A   1      43.682  34.488  28.304  1.00  0.00    -0.205 F 
ATOM     92  C   UNL A   1      45.739  35.644  31.098  1.00  0.00     0.022 A 
BRANCH  90  93
ATOM     93  S   UNL A   1      44.877  37.233  29.046  1.00  0.00     0.127 S 
ATOM     94  O   UNL A   1      45.136  36.844  27.660  1.00  0.00    -0.237 OA
ATOM     95  O   UNL A   1      43.493  37.617  29.324  1.00  0.00    -0.237 OA
ATOM     96  O   UNL A   1      45.879  38.103  29.645  1.00  0.00    -0.744 OA
ENDBRANCH  90  93
ENDBRANCH  63  86
ENDBRANCH  37  38
ENDBRANCH  30  32
ENDBRANCH  29  30
ENDBRANCH  28  29
ENDBRANCH   1  28
TORSDOF 19
ENDMDL
MODEL 3
REMARK VINA RESULT:     -11.9      1.208      2.204
REMARK SMILES C[C@@H](C(=O)OCCOC(=O)c1ccc(-c2c3nc(c(-c4cccc(S(=O)(=O)[O-])c4F)c4ccc([nH]4)c(-c4cccc(S(=O)(=O)[O-])c4F)c4nc(c(-c5cccc(S(=O)(=O)[O-])c5F)c5ccc2[nH]5)C=C4)C=C3)cc1)c1ccc(-c2cccc(OC(=O)NC3CC3)c2)c(F)c1
REMARK SMILES IDX 6 1 5 2 3 3 4 4 2 5 1 6 74 7 75 8 93 9 76 10 91 11 77 12
REMARK SMILES IDX 92 13 78 14 79 15 90 16 80 17 82 18 81 19 83 20 84 21 85 22
REMARK SMILES IDX 86 23 87 25 88 26 89 27 7 28 8 29 9 30 10 31 11 32 12 33
REMARK SMILES IDX 73 34 13 35 72 36 14 37 15 38 16 39 66 40 17 41 71 42 65 43
REMARK SMILES IDX 67 44 18 45 70 46 64 47 63 48 19 50 51 51 31 52 50 53 32 54
REMARK SMILES IDX 35 55 49 56 68 57 33 58 34 59 48 61 69 62 36 63 20 64 21 65
REMARK SMILES IDX 29 66 22 67 24 68 30 69 23 70 25 71 26 72 27 73 28 74 52 75
REMARK SMILES IDX 53 76 61 77 54 78 56 79 62 80 55 81 57 82 58 83 59 84 60 85
REMARK SMILES IDX 37 86 38 87 46 88 39 89 41 90 47 91 40 92 42 93 43 94 44 95
REMARK SMILES IDX 45 96
REMARK H PARENT 86 24 67 49 35 60
REMARK Flexibility Score: inf
ROOT
ATOM      1  C   UNL A   1      34.618  21.100  24.617  1.00  0.00     0.274 C 
ENDROOT
BRANCH   1   2
ATOM      2  O   UNL A   1      33.776  22.269  24.692  1.00  0.00    -0.462 OA
BRANCH   2   3
ATOM      3  C   UNL A   1      33.827  23.126  23.633  1.00  0.00     0.313 C 
ATOM      4  O   UNL A   1      33.855  22.756  22.464  1.00  0.00    -0.252 OA
BRANCH   3   5
ATOM      5  C   UNL A   1      33.940  24.598  24.064  1.00  0.00     0.126 C 
ATOM      6  C   UNL A   1      34.417  24.778  25.507  1.00  0.00     0.025 C 
BRANCH   5   7
ATOM      7  C   UNL A   1      32.661  25.371  23.751  1.00  0.00    -0.031 A 
ATOM      8  C   UNL A   1      32.466  26.093  22.565  1.00  0.00     0.005 A 
ATOM      9  C   UNL A   1      31.659  25.442  24.727  1.00  0.00     0.044 A 
ATOM     10  C   UNL A   1      31.343  26.924  22.404  1.00  0.00     0.012 A 
ATOM     11  C   UNL A   1      30.547  26.268  24.558  1.00  0.00     0.131 A 
ATOM     12  C   UNL A   1      30.389  27.079  23.428  1.00  0.00     0.018 A 
ATOM     13  F   UNL A   1      29.640  26.291  25.546  1.00  0.00    -0.206 F 
BRANCH  12  14
ATOM     14  C   UNL A   1      29.356  28.143  23.375  1.00  0.00    -0.012 A 
ATOM     15  C   UNL A   1      27.981  27.837  23.295  1.00  0.00     0.009 A 
ATOM     16  C   UNL A   1      29.738  29.505  23.307  1.00  0.00     0.056 A 
ATOM     17  C   UNL A   1      27.019  28.843  23.166  1.00  0.00     0.004 A 
ATOM     18  C   UNL A   1      28.773  30.491  23.180  1.00  0.00     0.133 A 
ATOM     19  C   UNL A   1      27.415  30.174  23.123  1.00  0.00     0.047 A 
BRANCH  18  20
ATOM     20  O   UNL A   1      29.079  31.879  23.000  1.00  0.00    -0.410 OA
BRANCH  20  21
ATOM     21  C   UNL A   1      29.637  32.993  23.695  1.00  0.00     0.412 C 
ATOM     22  O   UNL A   1      29.504  34.144  23.271  1.00  0.00    -0.224 OA
ATOM     23  N   UNL A   1      30.365  32.804  25.008  1.00  0.00    -0.318 N 
ATOM     24  H   UNL A   1      30.511  33.705  25.378  1.00  0.00     0.167 HD
BRANCH  23  25
ATOM     25  C   UNL A   1      31.184  31.479  26.358  1.00  0.00     0.085 C 
ATOM     26  C   UNL A   1      31.841  30.001  26.313  1.00  0.00     0.027 C 
ATOM     27  C   UNL A   1      32.700  31.101  26.805  1.00  0.00     0.027 C 
ENDBRANCH  23  25
ENDBRANCH  20  21
ENDBRANCH  18  20
ENDBRANCH  12  14
ENDBRANCH   5   7
ENDBRANCH   3   5
ENDBRANCH   2   3
ENDBRANCH   1   2
BRANCH   1  28
ATOM     28  C   UNL A   1      36.089  21.495  24.505  1.00  0.00     0.275 C 
BRANCH  28  29
ATOM     29  O   UNL A   1      36.741  21.400  25.784  1.00  0.00    -0.458 OA
BRANCH  29  30
ATOM     30  C   UNL A   1      38.088  21.298  25.735  1.00  0.00     0.338 C 
ATOM     31  O   UNL A   1      38.744  20.388  25.254  1.00  0.00    -0.246 OA
BRANCH  30  32
ATOM     32  C   UNL A   1      38.713  22.481  26.342  1.00  0.00     0.060 A 
ATOM     33  C   UNL A   1      38.091  23.718  26.231  1.00  0.00     0.016 A 
ATOM     34  C   UNL A   1      40.002  22.388  26.870  1.00  0.00     0.016 A 
ATOM     35  C   UNL A   1      38.809  24.874  26.546  1.00  0.00     0.010 A 
ATOM     36  C   UNL A   1      40.683  23.550  27.259  1.00  0.00     0.010 A 
ATOM     37  C   UNL A   1      40.122  24.818  27.047  1.00  0.00    -0.014 A 
BRANCH  37  38
ATOM     38  C   UNL A   1      40.877  26.077  27.341  1.00  0.00     0.031 A 
ATOM     39  C   UNL A   1      40.520  27.008  28.476  1.00  0.00     0.074 A 
ATOM     40  C   UNL A   1      41.956  26.410  26.606  1.00  0.00     0.049 A 
ATOM     41  N   UNL A   1      41.126  28.111  28.856  1.00  0.00    -0.248 NA
ATOM     42  C   UNL A   1      39.331  26.682  29.271  1.00  0.00     0.031 C 
ATOM     43  C   UNL A   1      42.511  25.622  25.514  1.00  0.00     0.029 A 
ATOM     44  N   UNL A   1      42.836  27.458  26.751  1.00  0.00    -0.354 N 
ATOM     45  C   UNL A   1      40.320  28.680  29.831  1.00  0.00     0.074 A 
ATOM     46  C   UNL A   1      39.214  27.762  30.032  1.00  0.00     0.031 C 
ATOM     47  C   UNL A   1      43.737  26.084  25.241  1.00  0.00     0.029 A 
ATOM     48  C   UNL A   1      44.015  27.251  26.073  1.00  0.00     0.049 A 
ATOM     49  H   UNL A   1      42.644  28.266  27.280  1.00  0.00     0.167 HD
ATOM     50  C   UNL A   1      40.456  29.863  30.482  1.00  0.00     0.034 A 
ATOM     51  C   UNL A   1      45.190  27.898  26.176  1.00  0.00     0.034 A 
ATOM     52  C   UNL A   1      41.575  30.768  30.398  1.00  0.00     0.049 A 
ATOM     53  C   UNL A   1      45.212  29.239  26.778  1.00  0.00     0.074 A 
ATOM     54  C   UNL A   1      41.769  31.960  31.085  1.00  0.00     0.029 A 
ATOM     55  N   UNL A   1      42.681  30.607  29.589  1.00  0.00    -0.354 N 
ATOM     56  N   UNL A   1      44.589  29.702  27.816  1.00  0.00    -0.248 NA
ATOM     57  C   UNL A   1      46.083  30.196  26.099  1.00  0.00     0.031 C 
ATOM     58  C   UNL A   1      42.969  32.539  30.656  1.00  0.00     0.029 A 
ATOM     59  C   UNL A   1      43.534  31.698  29.718  1.00  0.00     0.049 A 
ATOM     60  H   UNL A   1      42.843  29.832  29.004  1.00  0.00     0.167 HD
ATOM     61  C   UNL A   1      45.103  30.979  27.999  1.00  0.00     0.074 A 
ATOM     62  C   UNL A   1      46.102  31.192  26.972  1.00  0.00     0.031 C 
ATOM     63  C   UNL A   1      44.719  31.889  28.922  1.00  0.00     0.034 A 
BRANCH  50  64
ATOM     64  C   UNL A   1      39.302  30.301  31.339  1.00  0.00     0.023 A 
ATOM     65  C   UNL A   1      39.218  29.907  32.685  1.00  0.00     0.012 A 
ATOM     66  C   UNL A   1      38.337  31.179  30.803  1.00  0.00     0.148 A 
ATOM     67  C   UNL A   1      38.167  30.356  33.482  1.00  0.00     0.002 A 
ATOM     68  C   UNL A   1      37.325  31.662  31.616  1.00  0.00     0.091 A 
ATOM     69  F   UNL A   1      38.433  31.522  29.510  1.00  0.00    -0.205 F 
ATOM     70  C   UNL A   1      37.229  31.242  32.952  1.00  0.00     0.022 A 
BRANCH  68  71
ATOM     71  S   UNL A   1      36.133  32.879  31.048  1.00  0.00     0.127 S 
ATOM     72  O   UNL A   1      34.874  32.152  31.204  1.00  0.00    -0.237 OA
ATOM     73  O   UNL A   1      36.330  33.969  32.005  1.00  0.00    -0.237 OA
ATOM     74  O   UNL A   1      36.504  33.200  29.678  1.00  0.00    -0.744 OA
ENDBRANCH  68  71
ENDBRANCH  50  64
BRANCH  51  75
ATOM     75  C   UNL A   1      46.441  27.328  25.627  1.00  0.00     0.023 A 
ATOM     76  C   UNL A   1      47.068  27.651  23.912  1.00  0.00     0.012 A 
ATOM     77  C   UNL A   1      47.527  26.556  26.840  1.00  0.00     0.148 A 
ATOM     78  C   UNL A   1      48.807  27.231  23.502  1.00  0.00     0.002 A 
ATOM     79  C   UNL A   1      49.192  26.061  26.401  1.00  0.00     0.091 A 
ATOM     80  F   UNL A   1      47.031  26.301  28.060  1.00  0.00    -0.205 F 
ATOM     81  C   UNL A   1      49.835  26.376  24.737  1.00  0.00     0.022 A 
BRANCH  79  82
ATOM     82  S   UNL A   1      50.190  25.322  27.661  1.00  0.00     0.127 S 
ATOM     83  O   UNL A   1      51.497  25.272  27.014  1.00  0.00    -0.237 OA
ATOM     84  O   UNL A   1      50.061  26.288  28.748  1.00  0.00    -0.237 OA
ATOM     85  O   UNL A   1      49.535  24.042  27.895  1.00  0.00    -0.744 OA
ENDBRANCH  79  82
ENDBRANCH  51  75
BRANCH  63  86
ATOM     86  C   UNL A   1      45.558  33.128  29.093  1.00  0.00     0.023 A 
ATOM     87  C   UNL A   1      46.744  33.115  29.854  1.00  0.00     0.012 A 
ATOM     88  C   UNL A   1      45.150  34.335  28.488  1.00  0.00     0.148 A 
ATOM     89  C   UNL A   1      47.463  34.291  30.076  1.00  0.00     0.002 A 
ATOM     90  C   UNL A   1      45.912  35.486  28.648  1.00  0.00     0.091 A 
ATOM     91  F   UNL A   1      44.010  34.343  27.782  1.00  0.00    -0.205 F 
ATOM     92  C   UNL A   1      47.053  35.473  29.465  1.00  0.00     0.022 A 
BRANCH  90  93
ATOM     93  S   UNL A   1      45.538  37.022  27.795  1.00  0.00     0.127 S 
ATOM     94  O   UNL A   1      46.422  37.966  28.476  1.00  0.00    -0.237 OA
ATOM     95  O   UNL A   1      45.924  36.707  26.420  1.00  0.00    -0.237 OA
ATOM     96  O   UNL A   1      44.114  37.254  27.987  1.00  0.00    -0.744 OA
ENDBRANCH  90  93
ENDBRANCH  63  86
ENDBRANCH  37  38
ENDBRANCH  30  32
ENDBRANCH  29  30
ENDBRANCH  28  29
ENDBRANCH   1  28
TORSDOF 19
ENDMDL
