MODEL 1
REMARK VINA RESULT:     -11.9      0.000      0.000
REMARK SMILES COc1cc2c(cc1OC)[C@H](C(=O)OCCOC(=O)c1ccc(-c3c4nc(c(-c5cccc(S(=O)(=O)[O-])c5F)c5ccc([nH]5)c(-c5cccc(S(=O)(=O)[O-])c5F)c5nc(c(-c6cccc(S(=O)(=O)[O-])c6F)c6ccc3[nH]6)C=C5)C=C4)cc1)[C@H](c1cccs1)N(C)C2=O
REMARK SMILES IDX 16 1 15 2 14 3 12 4 13 5 11 6 3 7 4 8 8 9 5 10 7 11 6 12
REMARK SMILES IDX 91 13 89 14 92 15 83 16 90 17 2 18 1 19 9 20 10 21 84 22
REMARK SMILES IDX 85 23 88 24 86 25 87 26 17 27 18 28 19 29 20 30 21 31 82 32
REMARK SMILES IDX 22 33 81 34 23 35 24 36 25 37 75 38 26 39 80 40 74 41 76 42
REMARK SMILES IDX 27 43 79 44 73 45 72 46 28 48 60 49 40 50 59 51 41 52 44 53
REMARK SMILES IDX 58 54 77 55 42 56 43 57 57 59 78 60 45 61 29 62 30 63 38 64
REMARK SMILES IDX 31 65 33 66 39 67 32 68 34 69 35 70 36 71 37 72 61 73 62 74
REMARK SMILES IDX 70 75 63 76 65 77 71 78 64 79 66 80 67 81 68 82 69 83 46 84
REMARK SMILES IDX 47 85 55 86 48 87 50 88 56 89 49 90 51 91 52 92 53 93 54 94
REMARK H PARENT 76 47 44 58
REMARK Flexibility Score: inf
ROOT
ATOM      1  C   UNL A   1      31.528  31.880  26.863  1.00  0.00     0.275 C 
ENDROOT
BRANCH   1   2
ATOM      2  C   UNL A   1      31.242  30.461  26.364  1.00  0.00     0.274 C 
BRANCH   2   3
ATOM      3  O   UNL A   1      32.292  29.525  26.690  1.00  0.00    -0.462 OA
BRANCH   3   4
ATOM      4  C   UNL A   1      31.922  28.210  26.703  1.00  0.00     0.316 C 
ATOM      5  O   UNL A   1      31.043  27.783  27.437  1.00  0.00    -0.251 OA
BRANCH   4   6
ATOM      6  C   UNL A   1      32.620  27.398  25.621  1.00  0.00     0.158 C 
ATOM      7  C   UNL A   1      31.887  23.126  25.120  1.00  0.00     0.161 A 
ATOM      8  C   UNL A   1      32.507  23.892  24.128  1.00  0.00     0.064 A 
ATOM      9  C   UNL A   1      31.526  23.745  26.327  1.00  0.00     0.161 A 
ATOM     10  C   UNL A   1      32.757  25.258  24.323  1.00  0.00     0.048 A 
ATOM     11  C   UNL A   1      31.765  25.122  26.504  1.00  0.00     0.056 A 
ATOM     12  C   UNL A   1      32.349  25.907  25.504  1.00  0.00    -0.015 A 
ATOM     13  C   UNL A   1      33.437  26.011  23.223  1.00  0.00     0.254 C 
ATOM     14  N   UNL A   1      33.329  27.397  23.252  1.00  0.00    -0.333 N 
ATOM     15  O   UNL A   1      34.049  25.391  22.359  1.00  0.00    -0.269 OA
ATOM     16  C   UNL A   1      32.454  28.067  24.227  1.00  0.00     0.144 C 
ATOM     17  C   UNL A   1      33.911  28.179  22.174  1.00  0.00     0.147 C 
BRANCH   7  18
ATOM     18  O   UNL A   1      31.563  21.811  24.918  1.00  0.00    -0.493 OA
ATOM     19  C   UNL A   1      32.589  20.862  25.191  1.00  0.00     0.278 C 
ENDBRANCH   7  18
BRANCH   9  20
ATOM     20  O   UNL A   1      30.954  23.181  27.439  1.00  0.00    -0.493 OA
ATOM     21  C   UNL A   1      29.560  22.922  27.436  1.00  0.00     0.278 C 
ENDBRANCH   9  20
BRANCH  16  22
ATOM     22  C   UNL A   1      31.024  28.192  23.693  1.00  0.00     0.028 A 
ATOM     23  C   UNL A   1      29.991  27.290  23.902  1.00  0.00     0.017 A 
ATOM     24  S   UNL A   1      30.461  29.526  22.765  1.00  0.00    -0.147 S 
ATOM     25  C   UNL A   1      28.772  27.673  23.276  1.00  0.00     0.012 A 
ATOM     26  C   UNL A   1      28.886  28.886  22.639  1.00  0.00     0.065 A 
ENDBRANCH  16  22
ENDBRANCH   4   6
ENDBRANCH   3   4
ENDBRANCH   2   3
ENDBRANCH   1   2
BRANCH   1  27
ATOM     27  O   UNL A   1      32.881  32.288  26.593  1.00  0.00    -0.458 OA
BRANCH  27  28
ATOM     28  C   UNL A   1      33.412  33.131  27.510  1.00  0.00     0.338 C 
ATOM     29  O   UNL A   1      32.880  34.115  27.996  1.00  0.00    -0.246 OA
BRANCH  28  30
ATOM     30  C   UNL A   1      34.680  32.585  28.024  1.00  0.00     0.060 A 
ATOM     31  C   UNL A   1      34.642  31.275  28.506  1.00  0.00     0.016 A 
ATOM     32  C   UNL A   1      35.853  33.336  28.110  1.00  0.00     0.016 A 
ATOM     33  C   UNL A   1      35.781  30.695  29.055  1.00  0.00     0.010 A 
ATOM     34  C   UNL A   1      36.994  32.758  28.689  1.00  0.00     0.010 A 
ATOM     35  C   UNL A   1      36.961  31.436  29.169  1.00  0.00    -0.014 A 
BRANCH  35  36
ATOM     36  C   UNL A   1      38.114  30.828  29.877  1.00  0.00     0.031 A 
ATOM     37  C   UNL A   1      38.379  31.184  31.313  1.00  0.00     0.074 A 
ATOM     38  C   UNL A   1      38.881  29.909  29.262  1.00  0.00     0.049 A 
ATOM     39  N   UNL A   1      39.322  30.752  32.109  1.00  0.00    -0.248 NA
ATOM     40  C   UNL A   1      37.456  32.146  31.935  1.00  0.00     0.031 C 
ATOM     41  C   UNL A   1      38.708  29.455  27.883  1.00  0.00     0.029 A 
ATOM     42  N   UNL A   1      39.959  29.193  29.720  1.00  0.00    -0.354 N 
ATOM     43  C   UNL A   1      39.134  31.418  33.314  1.00  0.00     0.074 A 
ATOM     44  C   UNL A   1      37.982  32.278  33.145  1.00  0.00     0.031 C 
ATOM     45  C   UNL A   1      39.654  28.543  27.603  1.00  0.00     0.029 A 
ATOM     46  C   UNL A   1      40.518  28.372  28.770  1.00  0.00     0.049 A 
ATOM     47  H   UNL A   1      40.300  29.262  30.641  1.00  0.00     0.167 HD
ATOM     48  C   UNL A   1      39.848  31.315  34.459  1.00  0.00     0.034 A 
ATOM     49  C   UNL A   1      41.613  27.586  28.827  1.00  0.00     0.034 A 
ATOM     50  C   UNL A   1      40.968  30.432  34.646  1.00  0.00     0.049 A 
ATOM     51  C   UNL A   1      42.395  27.499  30.111  1.00  0.00     0.074 A 
ATOM     52  C   UNL A   1      41.726  30.233  35.787  1.00  0.00     0.029 A 
ATOM     53  N   UNL A   1      41.494  29.603  33.668  1.00  0.00    -0.354 N 
ATOM     54  N   UNL A   1      42.150  28.065  31.268  1.00  0.00    -0.248 NA
ATOM     55  C   UNL A   1      43.595  26.648  30.103  1.00  0.00     0.031 C 
ATOM     56  C   UNL A   1      42.720  29.293  35.494  1.00  0.00     0.029 A 
ATOM     57  C   UNL A   1      42.575  28.899  34.173  1.00  0.00     0.049 A 
ATOM     58  H   UNL A   1      41.151  29.526  32.748  1.00  0.00     0.167 HD
ATOM     59  C   UNL A   1      43.153  27.629  32.127  1.00  0.00     0.074 A 
ATOM     60  C   UNL A   1      43.989  26.724  31.367  1.00  0.00     0.031 C 
ATOM     61  C   UNL A   1      43.376  27.967  33.421  1.00  0.00     0.034 A 
BRANCH  48  62
ATOM     62  C   UNL A   1      39.422  32.176  35.617  1.00  0.00     0.023 A 
ATOM     63  C   UNL A   1      38.566  31.646  36.603  1.00  0.00     0.012 A 
ATOM     64  C   UNL A   1      39.901  33.493  35.749  1.00  0.00     0.148 A 
ATOM     65  C   UNL A   1      38.170  32.426  37.689  1.00  0.00     0.002 A 
ATOM     66  C   UNL A   1      39.531  34.252  36.853  1.00  0.00     0.091 A 
ATOM     67  F   UNL A   1      40.690  33.988  34.784  1.00  0.00    -0.205 F 
ATOM     68  C   UNL A   1      38.660  33.723  37.820  1.00  0.00     0.022 A 
BRANCH  66  69
ATOM     69  S   UNL A   1      40.165  35.908  37.133  1.00  0.00     0.127 S 
ATOM     70  O   UNL A   1      39.724  36.601  35.923  1.00  0.00    -0.237 OA
ATOM     71  O   UNL A   1      39.465  36.309  38.354  1.00  0.00    -0.237 OA
ATOM     72  O   UNL A   1      41.606  35.760  37.286  1.00  0.00    -0.744 OA
ENDBRANCH  66  69
ENDBRANCH  48  62
BRANCH  49  73
ATOM     73  C   UNL A   1      42.020  26.800  27.628  1.00  0.00     0.023 A 
ATOM     74  C   UNL A   1      42.718  27.435  26.582  1.00  0.00     0.012 A 
ATOM     75  C   UNL A   1      41.746  25.422  27.533  1.00  0.00     0.148 A 
ATOM     76  C   UNL A   1      43.120  26.714  25.457  1.00  0.00     0.002 A 
ATOM     77  C   UNL A   1      42.200  24.698  26.437  1.00  0.00     0.091 A 
ATOM     78  F   UNL A   1      41.054  24.842  28.524  1.00  0.00    -0.205 F 
ATOM     79  C   UNL A   1      42.874  25.345  25.391  1.00  0.00     0.022 A 
BRANCH  77  80
ATOM     80  S   UNL A   1      42.049  22.910  26.344  1.00  0.00     0.127 S 
ATOM     81  O   UNL A   1      40.601  22.728  26.407  1.00  0.00    -0.237 OA
ATOM     82  O   UNL A   1      42.652  22.620  25.043  1.00  0.00    -0.237 OA
ATOM     83  O   UNL A   1      42.805  22.397  27.479  1.00  0.00    -0.744 OA
ENDBRANCH  77  80
ENDBRANCH  49  73
BRANCH  61  84
ATOM     84  C   UNL A   1      44.572  27.359  34.106  1.00  0.00     0.023 A 
ATOM     85  C   UNL A   1      45.819  28.011  34.027  1.00  0.00     0.012 A 
ATOM     86  C   UNL A   1      44.454  26.188  34.880  1.00  0.00     0.148 A 
ATOM     87  C   UNL A   1      46.935  27.493  34.684  1.00  0.00     0.002 A 
ATOM     88  C   UNL A   1      45.562  25.699  35.566  1.00  0.00     0.091 A 
ATOM     89  F   UNL A   1      43.267  25.566  34.926  1.00  0.00    -0.205 F 
ATOM     90  C   UNL A   1      46.804  26.346  35.461  1.00  0.00     0.022 A 
BRANCH  88  91
ATOM     91  S   UNL A   1      45.456  24.278  36.659  1.00  0.00     0.127 S 
ATOM     92  O   UNL A   1      44.933  23.249  35.762  1.00  0.00    -0.237 OA
ATOM     93  O   UNL A   1      46.850  24.083  37.062  1.00  0.00    -0.237 OA
ATOM     94  O   UNL A   1      44.569  24.679  37.743  1.00  0.00    -0.744 OA
ENDBRANCH  88  91
ENDBRANCH  61  84
ENDBRANCH  35  36
ENDBRANCH  28  30
ENDBRANCH  27  28
ENDBRANCH   1  27
TORSDOF 17
ENDMDL
MODEL 2
REMARK VINA RESULT:     -11.7      5.011     10.260
REMARK SMILES COc1cc2c(cc1OC)[C@H](C(=O)OCCOC(=O)c1ccc(-c3c4nc(c(-c5cccc(S(=O)(=O)[O-])c5F)c5ccc([nH]5)c(-c5cccc(S(=O)(=O)[O-])c5F)c5nc(c(-c6cccc(S(=O)(=O)[O-])c6F)c6ccc3[nH]6)C=C5)C=C4)cc1)[C@H](c1cccs1)N(C)C2=O
REMARK SMILES IDX 16 1 15 2 14 3 12 4 13 5 11 6 3 7 4 8 8 9 5 10 7 11 6 12
REMARK SMILES IDX 91 13 89 14 92 15 83 16 90 17 2 18 1 19 9 20 10 21 84 22
REMARK SMILES IDX 85 23 88 24 86 25 87 26 17 27 18 28 19 29 20 30 21 31 82 32
REMARK SMILES IDX 22 33 81 34 23 35 24 36 25 37 75 38 26 39 80 40 74 41 76 42
REMARK SMILES IDX 27 43 79 44 73 45 72 46 28 48 60 49 40 50 59 51 41 52 44 53
REMARK SMILES IDX 58 54 77 55 42 56 43 57 57 59 78 60 45 61 29 62 30 63 38 64
REMARK SMILES IDX 31 65 33 66 39 67 32 68 34 69 35 70 36 71 37 72 61 73 62 74
REMARK SMILES IDX 70 75 63 76 65 77 71 78 64 79 66 80 67 81 68 82 69 83 46 84
REMARK SMILES IDX 47 85 55 86 48 87 50 88 56 89 49 90 51 91 52 92 53 93 54 94
REMARK H PARENT 76 47 44 58
REMARK Flexibility Score: inf
ROOT
ATOM      1  C   UNL A   1      38.051  20.669  25.289  1.00  0.00     0.275 C 
ENDROOT
BRANCH   1   2
ATOM      2  C   UNL A   1      37.114  21.415  24.334  1.00  0.00     0.274 C 
BRANCH   2   3
ATOM      3  O   UNL A   1      36.901  22.792  24.713  1.00  0.00    -0.462 OA
BRANCH   3   4
ATOM      4  C   UNL A   1      35.844  23.410  24.107  1.00  0.00     0.316 C 
ATOM      5  O   UNL A   1      35.769  23.543  22.894  1.00  0.00    -0.251 OA
BRANCH   4   6
ATOM      6  C   UNL A   1      34.739  23.771  25.089  1.00  0.00     0.158 C 
ATOM      7  C   UNL A   1      31.704  26.758  24.139  1.00  0.00     0.161 A 
ATOM      8  C   UNL A   1      31.549  25.857  25.198  1.00  0.00     0.064 A 
ATOM      9  C   UNL A   1      32.888  26.723  23.387  1.00  0.00     0.161 A 
ATOM     10  C   UNL A   1      32.552  24.923  25.501  1.00  0.00     0.048 A 
ATOM     11  C   UNL A   1      33.879  25.769  23.690  1.00  0.00     0.056 A 
ATOM     12  C   UNL A   1      33.720  24.837  24.721  1.00  0.00    -0.015 A 
ATOM     13  C   UNL A   1      32.324  24.000  26.656  1.00  0.00     0.254 C 
ATOM     14  N   UNL A   1      33.109  22.854  26.707  1.00  0.00    -0.333 N 
ATOM     15  O   UNL A   1      31.472  24.284  27.494  1.00  0.00    -0.269 OA
ATOM     16  C   UNL A   1      34.001  22.499  25.591  1.00  0.00     0.144 C 
ATOM     17  C   UNL A   1      32.887  21.885  27.767  1.00  0.00     0.147 C 
BRANCH   7  18
ATOM     18  O   UNL A   1      30.705  27.622  23.778  1.00  0.00    -0.493 OA
ATOM     19  C   UNL A   1      29.468  27.029  23.395  1.00  0.00     0.278 C 
ENDBRANCH   7  18
BRANCH   9  20
ATOM     20  O   UNL A   1      33.263  27.535  22.347  1.00  0.00    -0.493 OA
ATOM     21  C   UNL A   1      34.320  28.459  22.545  1.00  0.00     0.278 C 
ENDBRANCH   9  20
BRANCH  16  22
ATOM     22  C   UNL A   1      33.262  21.673  24.534  1.00  0.00     0.028 A 
ATOM     23  C   UNL A   1      32.587  22.173  23.430  1.00  0.00     0.017 A 
ATOM     24  S   UNL A   1      33.194  19.955  24.535  1.00  0.00    -0.147 S 
ATOM     25  C   UNL A   1      31.993  21.161  22.625  1.00  0.00     0.012 A 
ATOM     26  C   UNL A   1      32.266  19.903  23.105  1.00  0.00     0.065 A 
ENDBRANCH  16  22
ENDBRANCH   4   6
ENDBRANCH   3   4
ENDBRANCH   2   3
ENDBRANCH   1   2
BRANCH   1  27
ATOM     27  O   UNL A   1      39.332  21.314  25.406  1.00  0.00    -0.458 OA
BRANCH  27  28
ATOM     28  C   UNL A   1      39.942  21.151  26.603  1.00  0.00     0.338 C 
ATOM     29  O   UNL A   1      40.260  20.095  27.126  1.00  0.00    -0.246 OA
BRANCH  28  30
ATOM     30  C   UNL A   1      40.378  22.455  27.130  1.00  0.00     0.060 A 
ATOM     31  C   UNL A   1      39.825  23.585  26.525  1.00  0.00     0.016 A 
ATOM     32  C   UNL A   1      41.348  22.587  28.125  1.00  0.00     0.016 A 
ATOM     33  C   UNL A   1      40.216  24.859  26.926  1.00  0.00     0.010 A 
ATOM     34  C   UNL A   1      41.762  23.873  28.509  1.00  0.00     0.010 A 
ATOM     35  C   UNL A   1      41.201  25.015  27.907  1.00  0.00    -0.014 A 
BRANCH  35  36
ATOM     36  C   UNL A   1      41.685  26.383  28.214  1.00  0.00     0.031 A 
ATOM     37  C   UNL A   1      43.064  26.799  27.787  1.00  0.00     0.074 A 
ATOM     38  C   UNL A   1      40.871  27.273  28.810  1.00  0.00     0.049 A 
ATOM     39  N   UNL A   1      43.665  27.950  27.947  1.00  0.00    -0.248 NA
ATOM     40  C   UNL A   1      43.869  25.790  27.081  1.00  0.00     0.031 C 
ATOM     41  C   UNL A   1      39.501  27.002  29.245  1.00  0.00     0.029 A 
ATOM     42  N   UNL A   1      41.080  28.585  29.154  1.00  0.00    -0.354 N 
ATOM     43  C   UNL A   1      44.932  27.794  27.399  1.00  0.00     0.074 A 
ATOM     44  C   UNL A   1      45.010  26.439  26.896  1.00  0.00     0.031 C 
ATOM     45  C   UNL A   1      38.994  28.113  29.806  1.00  0.00     0.029 A 
ATOM     46  C   UNL A   1      40.013  29.163  29.800  1.00  0.00     0.049 A 
ATOM     47  H   UNL A   1      41.916  29.068  28.957  1.00  0.00     0.167 HD
ATOM     48  C   UNL A   1      45.935  28.699  27.312  1.00  0.00     0.034 A 
ATOM     49  C   UNL A   1      39.878  30.390  30.343  1.00  0.00     0.034 A 
ATOM     50  C   UNL A   1      45.848  30.059  27.772  1.00  0.00     0.049 A 
ATOM     51  C   UNL A   1      41.013  31.373  30.242  1.00  0.00     0.074 A 
ATOM     52  C   UNL A   1      46.803  31.057  27.689  1.00  0.00     0.029 A 
ATOM     53  N   UNL A   1      44.747  30.612  28.406  1.00  0.00    -0.354 N 
ATOM     54  N   UNL A   1      42.171  31.239  29.641  1.00  0.00    -0.248 NA
ATOM     55  C   UNL A   1      40.817  32.685  30.878  1.00  0.00     0.031 C 
ATOM     56  C   UNL A   1      46.283  32.212  28.285  1.00  0.00     0.029 A 
ATOM     57  C   UNL A   1      45.000  31.935  28.730  1.00  0.00     0.049 A 
ATOM     58  H   UNL A   1      43.907  30.135  28.598  1.00  0.00     0.167 HD
ATOM     59  C   UNL A   1      42.833  32.451  29.812  1.00  0.00     0.074 A 
ATOM     60  C   UNL A   1      41.934  33.318  30.544  1.00  0.00     0.031 C 
ATOM     61  C   UNL A   1      44.082  32.804  29.421  1.00  0.00     0.034 A 
BRANCH  48  62
ATOM     62  C   UNL A   1      47.220  28.246  26.673  1.00  0.00     0.023 A 
ATOM     63  C   UNL A   1      48.340  27.970  27.481  1.00  0.00     0.012 A 
ATOM     64  C   UNL A   1      47.304  28.056  25.281  1.00  0.00     0.148 A 
ATOM     65  C   UNL A   1      49.536  27.538  26.908  1.00  0.00     0.002 A 
ATOM     66  C   UNL A   1      48.488  27.591  24.721  1.00  0.00     0.091 A 
ATOM     67  F   UNL A   1      46.235  28.354  24.528  1.00  0.00    -0.205 F 
ATOM     68  C   UNL A   1      49.607  27.339  25.531  1.00  0.00     0.022 A 
BRANCH  66  69
ATOM     69  S   UNL A   1      48.646  27.247  22.966  1.00  0.00     0.127 S 
ATOM     70  O   UNL A   1      48.230  25.846  22.901  1.00  0.00    -0.237 OA
ATOM     71  O   UNL A   1      47.696  28.191  22.375  1.00  0.00    -0.237 OA
ATOM     72  O   UNL A   1      50.039  27.509  22.635  1.00  0.00    -0.744 OA
ENDBRANCH  66  69
ENDBRANCH  48  62
BRANCH  49  73
ATOM     73  C   UNL A   1      38.600  30.762  31.016  1.00  0.00     0.023 A 
ATOM     74  C   UNL A   1      38.445  30.525  32.396  1.00  0.00     0.012 A 
ATOM     75  C   UNL A   1      37.554  31.377  30.302  1.00  0.00     0.148 A 
ATOM     76  C   UNL A   1      37.262  30.879  33.046  1.00  0.00     0.002 A 
ATOM     77  C   UNL A   1      36.402  31.779  30.968  1.00  0.00     0.091 A 
ATOM     78  F   UNL A   1      37.709  31.566  28.984  1.00  0.00    -0.205 F 
ATOM     79  C   UNL A   1      36.248  31.518  32.338  1.00  0.00     0.022 A 
BRANCH  77  80
ATOM     80  S   UNL A   1      35.114  32.733  30.157  1.00  0.00     0.127 S 
ATOM     81  O   UNL A   1      34.208  33.017  31.266  1.00  0.00    -0.237 OA
ATOM     82  O   UNL A   1      35.860  33.889  29.657  1.00  0.00    -0.237 OA
ATOM     83  O   UNL A   1      34.589  31.866  29.110  1.00  0.00    -0.744 OA
ENDBRANCH  77  80
ENDBRANCH  49  73
BRANCH  61  84
ATOM     84  C   UNL A   1      44.559  34.189  29.774  1.00  0.00     0.023 A 
ATOM     85  C   UNL A   1      45.287  34.386  30.964  1.00  0.00     0.012 A 
ATOM     86  C   UNL A   1      44.351  35.278  28.904  1.00  0.00     0.148 A 
ATOM     87  C   UNL A   1      45.776  35.650  31.297  1.00  0.00     0.002 A 
ATOM     88  C   UNL A   1      44.876  36.526  29.223  1.00  0.00     0.091 A 
ATOM     89  F   UNL A   1      43.636  35.078  27.787  1.00  0.00    -0.205 F 
ATOM     90  C   UNL A   1      45.581  36.715  30.422  1.00  0.00     0.022 A 
BRANCH  88  91
ATOM     91  S   UNL A   1      44.746  37.928  28.107  1.00  0.00     0.127 S 
ATOM     92  O   UNL A   1      45.452  38.969  28.852  1.00  0.00    -0.237 OA
ATOM     93  O   UNL A   1      45.448  37.451  26.914  1.00  0.00    -0.237 OA
ATOM     94  O   UNL A   1      43.319  38.148  27.915  1.00  0.00    -0.744 OA
ENDBRANCH  88  91
ENDBRANCH  61  84
ENDBRANCH  35  36
ENDBRANCH  28  30
ENDBRANCH  27  28
ENDBRANCH   1  27
TORSDOF 17
ENDMDL
MODEL 3
REMARK VINA RESULT:     -11.4      1.418      7.550
REMARK SMILES COc1cc2c(cc1OC)[C@H](C(=O)OCCOC(=O)c1ccc(-c3c4nc(c(-c5cccc(S(=O)(=O)[O-])c5F)c5ccc([nH]5)c(-c5cccc(S(=O)(=O)[O-])c5F)c5nc(c(-c6cccc(S(=O)(=O)[O-])c6F)c6ccc3[nH]6)C=C5)C=C4)cc1)[C@H](c1cccs1)N(C)C2=O
REMARK SMILES IDX 16 1 15 2 14 3 12 4 13 5 11 6 3 7 4 8 8 9 5 10 7 11 6 12
REMARK SMILES IDX 91 13 89 14 92 15 83 16 90 17 2 18 1 19 9 20 10 21 84 22
REMARK SMILES IDX 85 23 88 24 86 25 87 26 17 27 18 28 19 29 20 30 21 31 82 32
REMARK SMILES IDX 22 33 81 34 23 35 24 36 25 37 75 38 26 39 80 40 74 41 76 42
REMARK SMILES IDX 27 43 79 44 73 45 72 46 28 48 60 49 40 50 59 51 41 52 44 53
REMARK SMILES IDX 58 54 77 55 42 56 43 57 57 59 78 60 45 61 29 62 30 63 38 64
REMARK SMILES IDX 31 65 33 66 39 67 32 68 34 69 35 70 36 71 37 72 61 73 62 74
REMARK SMILES IDX 70 75 63 76 65 77 71 78 64 79 66 80 67 81 68 82 69 83 46 84
REMARK SMILES IDX 47 85 55 86 48 87 50 88 56 89 49 90 51 91 52 92 53 93 54 94
REMARK H PARENT 76 47 44 58
REMARK Flexibility Score: inf
ROOT
ATOM      1  C   UNL A   1      32.623  31.045  26.647  1.00  0.00     0.275 C 
ENDROOT
BRANCH   1   2
ATOM      2  C   UNL A   1      31.920  29.746  27.052  1.00  0.00     0.274 C 
BRANCH   2   3
ATOM      3  O   UNL A   1      32.818  28.618  27.128  1.00  0.00    -0.462 OA
BRANCH   3   4
ATOM      4  C   UNL A   1      32.285  27.419  26.749  1.00  0.00     0.316 C 
ATOM      5  O   UNL A   1      31.342  26.904  27.332  1.00  0.00    -0.251 OA
BRANCH   4   6
ATOM      6  C   UNL A   1      32.901  26.890  25.461  1.00  0.00     0.158 C 
ATOM      7  C   UNL A   1      32.863  22.640  24.471  1.00  0.00     0.161 A 
ATOM      8  C   UNL A   1      33.139  23.621  23.512  1.00  0.00     0.064 A 
ATOM      9  C   UNL A   1      32.631  23.036  25.797  1.00  0.00     0.161 A 
ATOM     10  C   UNL A   1      33.172  24.980  23.861  1.00  0.00     0.048 A 
ATOM     11  C   UNL A   1      32.649  24.404  26.131  1.00  0.00     0.056 A 
ATOM     12  C   UNL A   1      32.884  25.397  25.174  1.00  0.00    -0.015 A 
ATOM     13  C   UNL A   1      33.488  25.971  22.786  1.00  0.00     0.254 C 
ATOM     14  N   UNL A   1      33.141  27.295  23.034  1.00  0.00    -0.333 N 
ATOM     15  O   UNL A   1      34.027  25.588  21.753  1.00  0.00    -0.269 OA
ATOM     16  C   UNL A   1      32.359  27.661  24.225  1.00  0.00     0.144 C 
ATOM     17  C   UNL A   1      33.360  28.294  22.000  1.00  0.00     0.147 C 
BRANCH   7  18
ATOM     18  O   UNL A   1      32.748  21.318  24.134  1.00  0.00    -0.493 OA
ATOM     19  C   UNL A   1      33.787  20.459  24.594  1.00  0.00     0.278 C 
ENDBRANCH   7  18
BRANCH   9  20
ATOM     20  O   UNL A   1      32.388  22.247  26.893  1.00  0.00    -0.493 OA
ATOM     21  C   UNL A   1      33.276  22.315  27.996  1.00  0.00     0.278 C 
ENDBRANCH   9  20
BRANCH  16  22
ATOM     22  C   UNL A   1      30.856  27.554  23.955  1.00  0.00     0.028 A 
ATOM     23  C   UNL A   1      30.048  26.463  24.244  1.00  0.00     0.017 A 
ATOM     24  S   UNL A   1      29.911  28.820  23.274  1.00  0.00    -0.147 S 
ATOM     25  C   UNL A   1      28.688  26.654  23.874  1.00  0.00     0.012 A 
ATOM     26  C   UNL A   1      28.473  27.907  23.352  1.00  0.00     0.065 A 
ENDBRANCH  16  22
ENDBRANCH   4   6
ENDBRANCH   3   4
ENDBRANCH   2   3
ENDBRANCH   1   2
BRANCH   1  27
ATOM     27  O   UNL A   1      32.833  31.921  27.769  1.00  0.00    -0.458 OA
BRANCH  27  28
ATOM     28  C   UNL A   1      33.842  32.809  27.613  1.00  0.00     0.338 C 
ATOM     29  O   UNL A   1      33.749  33.967  27.239  1.00  0.00    -0.246 OA
BRANCH  28  30
ATOM     30  C   UNL A   1      35.091  32.257  28.165  1.00  0.00     0.060 A 
ATOM     31  C   UNL A   1      35.000  31.004  28.776  1.00  0.00     0.016 A 
ATOM     32  C   UNL A   1      36.299  32.957  28.164  1.00  0.00     0.016 A 
ATOM     33  C   UNL A   1      36.119  30.427  29.367  1.00  0.00     0.010 A 
ATOM     34  C   UNL A   1      37.421  32.385  28.785  1.00  0.00     0.010 A 
ATOM     35  C   UNL A   1      37.334  31.119  29.394  1.00  0.00    -0.014 A 
BRANCH  35  36
ATOM     36  C   UNL A   1      38.468  30.530  30.147  1.00  0.00     0.031 A 
ATOM     37  C   UNL A   1      39.344  29.501  29.490  1.00  0.00     0.074 A 
ATOM     38  C   UNL A   1      38.758  30.963  31.388  1.00  0.00     0.049 A 
ATOM     39  N   UNL A   1      40.390  28.880  29.970  1.00  0.00    -0.248 NA
ATOM     40  C   UNL A   1      39.003  29.129  28.108  1.00  0.00     0.031 C 
ATOM     41  C   UNL A   1      38.005  31.979  32.122  1.00  0.00     0.029 A 
ATOM     42  N   UNL A   1      39.764  30.601  32.248  1.00  0.00    -0.354 N 
ATOM     43  C   UNL A   1      40.808  28.013  28.969  1.00  0.00     0.074 A 
ATOM     44  C   UNL A   1      39.908  28.195  27.850  1.00  0.00     0.031 C 
ATOM     45  C   UNL A   1      38.570  32.152  33.328  1.00  0.00     0.029 A 
ATOM     46  C   UNL A   1      39.705  31.239  33.464  1.00  0.00     0.049 A 
ATOM     47  H   UNL A   1      40.463  29.946  32.017  1.00  0.00     0.167 HD
ATOM     48  C   UNL A   1      41.854  27.153  28.974  1.00  0.00     0.034 A 
ATOM     49  C   UNL A   1      40.464  31.091  34.569  1.00  0.00     0.034 A 
ATOM     50  C   UNL A   1      42.777  26.998  30.066  1.00  0.00     0.049 A 
ATOM     51  C   UNL A   1      41.614  30.119  34.552  1.00  0.00     0.074 A 
ATOM     52  C   UNL A   1      43.889  26.178  30.143  1.00  0.00     0.029 A 
ATOM     53  N   UNL A   1      42.695  27.673  31.274  1.00  0.00    -0.354 N 
ATOM     54  N   UNL A   1      42.051  29.374  33.565  1.00  0.00    -0.248 NA
ATOM     55  C   UNL A   1      42.388  29.980  35.794  1.00  0.00     0.031 C 
ATOM     56  C   UNL A   1      44.472  26.347  31.404  1.00  0.00     0.029 A 
ATOM     57  C   UNL A   1      43.729  27.281  32.108  1.00  0.00     0.049 A 
ATOM     58  H   UNL A   1      42.003  28.334  31.506  1.00  0.00     0.167 HD
ATOM     59  C   UNL A   1      43.158  28.692  34.061  1.00  0.00     0.074 A 
ATOM     60  C   UNL A   1      43.344  29.138  35.426  1.00  0.00     0.031 C 
ATOM     61  C   UNL A   1      43.933  27.762  33.451  1.00  0.00     0.034 A 
BRANCH  48  62
ATOM     62  C   UNL A   1      42.066  26.317  27.741  1.00  0.00     0.023 A 
ATOM     63  C   UNL A   1      42.663  26.893  26.603  1.00  0.00     0.012 A 
ATOM     64  C   UNL A   1      41.711  24.955  27.725  1.00  0.00     0.148 A 
ATOM     65  C   UNL A   1      42.878  26.131  25.455  1.00  0.00     0.002 A 
ATOM     66  C   UNL A   1      41.962  24.193  26.590  1.00  0.00     0.091 A 
ATOM     67  F   UNL A   1      41.117  24.435  28.809  1.00  0.00    -0.205 F 
ATOM     68  C   UNL A   1      42.538  24.781  25.452  1.00  0.00     0.022 A 
BRANCH  66  69
ATOM     69  S   UNL A   1      41.614  22.433  26.523  1.00  0.00     0.127 S 
ATOM     70  O   UNL A   1      42.259  22.052  25.268  1.00  0.00    -0.237 OA
ATOM     71  O   UNL A   1      42.283  21.936  27.727  1.00  0.00    -0.237 OA
ATOM     72  O   UNL A   1      40.163  22.315  26.550  1.00  0.00    -0.744 OA
ENDBRANCH  66  69
ENDBRANCH  48  62
BRANCH  49  73
ATOM     73  C   UNL A   1      40.169  31.905  35.783  1.00  0.00     0.023 A 
ATOM     74  C   UNL A   1      41.001  32.993  36.111  1.00  0.00     0.012 A 
ATOM     75  C   UNL A   1      39.053  31.624  36.594  1.00  0.00     0.148 A 
ATOM     76  C   UNL A   1      40.734  33.776  37.235  1.00  0.00     0.002 A 
ATOM     77  C   UNL A   1      38.760  32.443  37.678  1.00  0.00     0.091 A 
ATOM     78  F   UNL A   1      38.291  30.566  36.282  1.00  0.00    -0.205 F 
ATOM     79  C   UNL A   1      39.607  33.510  38.010  1.00  0.00     0.022 A 
BRANCH  77  80
ATOM     80  S   UNL A   1      37.253  32.253  38.638  1.00  0.00     0.127 S 
ATOM     81  O   UNL A   1      37.616  32.897  39.897  1.00  0.00    -0.237 OA
ATOM     82  O   UNL A   1      36.281  32.988  37.826  1.00  0.00    -0.237 OA
ATOM     83  O   UNL A   1      37.011  30.818  38.702  1.00  0.00    -0.744 OA
ENDBRANCH  77  80
ENDBRANCH  49  73
BRANCH  61  84
ATOM     84  C   UNL A   1      45.059  27.158  34.249  1.00  0.00     0.023 A 
ATOM     85  C   UNL A   1      46.331  27.763  34.215  1.00  0.00     0.012 A 
ATOM     86  C   UNL A   1      44.847  26.042  35.082  1.00  0.00     0.148 A 
ATOM     87  C   UNL A   1      47.382  27.249  34.975  1.00  0.00     0.002 A 
ATOM     88  C   UNL A   1      45.889  25.560  35.868  1.00  0.00     0.091 A 
ATOM     89  F   UNL A   1      43.636  25.464  35.085  1.00  0.00    -0.205 F 
ATOM     90  C   UNL A   1      47.158  26.157  35.809  1.00  0.00     0.022 A 
BRANCH  88  91
ATOM     91  S   UNL A   1      45.659  24.213  37.035  1.00  0.00     0.127 S 
ATOM     92  O   UNL A   1      45.420  23.081  36.141  1.00  0.00    -0.237 OA
ATOM     93  O   UNL A   1      46.944  24.176  37.734  1.00  0.00    -0.237 OA
ATOM     94  O   UNL A   1      44.533  24.604  37.872  1.00  0.00    -0.744 OA
ENDBRANCH  88  91
ENDBRANCH  61  84
ENDBRANCH  35  36
ENDBRANCH  28  30
ENDBRANCH  27  28
ENDBRANCH   1  27
TORSDOF 17
ENDMDL
