MODEL 1
REMARK VINA RESULT:     -12.7      0.000      0.000
REMARK SMILES Cc1nc2ccc(Cl)cc2cc1C(=O)N1CCC(C(=O)OCCOC(=O)c2ccc(-c3c4nc(c(-c5cccc(S(=O)(=O)[O-])c5F)c5ccc([nH]5)c(-c5cccc(S(=O)(=O)[O-])c5F)c5nc(c(-c6cccc(S(=O)(=O)[O-])c6F)c6ccc3[nH]6)C=C5)C=C4)cc2)CC1
REMARK SMILES IDX 23 1 22 2 21 3 19 4 20 5 18 6 13 7 14 8 15 9 16 10 91 11
REMARK SMILES IDX 17 12 90 13 12 14 1 15 2 16 3 17 4 18 11 19 5 20 10 21 6 22
REMARK SMILES IDX 9 23 7 24 8 25 24 26 25 27 26 28 27 29 28 30 89 31 29 32
REMARK SMILES IDX 88 33 30 34 31 35 32 36 82 37 33 38 87 39 81 40 83 41 34 42
REMARK SMILES IDX 86 43 80 44 79 45 35 47 67 48 47 49 66 50 48 51 51 52 65 53
REMARK SMILES IDX 84 54 49 55 50 56 64 58 85 59 52 60 36 61 37 62 45 63 38 64
REMARK SMILES IDX 40 65 46 66 39 67 41 68 42 69 43 70 44 71 68 72 69 73 77 74
REMARK SMILES IDX 70 75 72 76 78 77 71 78 73 79 74 80 75 81 76 82 53 83 54 84
REMARK SMILES IDX 62 85 55 86 57 87 63 88 56 89 58 90 59 91 60 92 61 93
REMARK H PARENT 83 46 51 57
REMARK Flexibility Score: inf
ROOT
ATOM      1  C   UNL A   1      32.153  33.269  26.902  1.00  0.00     0.275 C 
ENDROOT
BRANCH   1   2
ATOM      2  C   UNL A   1      31.316  31.990  26.837  1.00  0.00     0.274 C 
BRANCH   2   3
ATOM      3  O   UNL A   1      31.923  31.031  25.950  1.00  0.00    -0.462 OA
BRANCH   3   4
ATOM      4  C   UNL A   1      32.511  29.956  26.529  1.00  0.00     0.309 C 
ATOM      5  O   UNL A   1      33.036  29.953  27.636  1.00  0.00    -0.252 OA
BRANCH   4   6
ATOM      6  C   UNL A   1      32.441  28.709  25.669  1.00  0.00     0.103 C 
ATOM      7  C   UNL A   1      33.505  25.722  22.810  1.00  0.00     0.255 C 
ATOM      8  O   UNL A   1      33.614  26.035  21.628  1.00  0.00    -0.269 OA
ATOM      9  N   UNL A   1      33.120  26.624  23.804  1.00  0.00    -0.339 N 
ATOM     10  C   UNL A   1      32.159  27.654  23.419  1.00  0.00     0.120 C 
ATOM     11  C   UNL A   1      33.385  26.439  25.235  1.00  0.00     0.120 C 
ATOM     12  C   UNL A   1      32.351  28.963  24.164  1.00  0.00     0.037 C 
ATOM     13  C   UNL A   1      33.610  27.769  25.954  1.00  0.00     0.037 C 
BRANCH   7  14
ATOM     14  C   UNL A   1      33.641  24.289  23.162  1.00  0.00     0.061 A 
ATOM     15  C   UNL A   1      31.129  23.940  23.240  1.00  0.00     0.067 C 
ATOM     16  C   UNL A   1      32.543  23.471  23.419  1.00  0.00     0.051 A 
ATOM     17  N   UNL A   1      32.681  22.204  23.907  1.00  0.00    -0.252 NA
ATOM     18  C   UNL A   1      33.914  21.730  24.165  1.00  0.00     0.071 A 
ATOM     19  C   UNL A   1      34.918  23.785  23.426  1.00  0.00     0.026 A 
ATOM     20  C   UNL A   1      34.069  20.463  24.712  1.00  0.00     0.030 A 
ATOM     21  C   UNL A   1      35.076  22.488  23.918  1.00  0.00     0.002 A 
ATOM     22  C   UNL A   1      35.332  19.933  24.998  1.00  0.00     0.023 A 
ATOM     23  C   UNL A   1      36.350  21.961  24.190  1.00  0.00     0.030 A 
ATOM     24  C   UNL A   1      36.470  20.683  24.726  1.00  0.00     0.041 A 
ATOM     25  Cl  UNL A   1      38.026  20.034  25.056  1.00  0.00    -0.084 Cl
ENDBRANCH   7  14
ENDBRANCH   4   6
ENDBRANCH   3   4
ENDBRANCH   2   3
ENDBRANCH   1   2
BRANCH   1  26
ATOM     26  O   UNL A   1      32.958  33.312  28.095  1.00  0.00    -0.458 OA
BRANCH  26  27
ATOM     27  C   UNL A   1      34.113  34.013  27.988  1.00  0.00     0.338 C 
ATOM     28  O   UNL A   1      34.243  35.173  27.639  1.00  0.00    -0.246 OA
BRANCH  27  29
ATOM     29  C   UNL A   1      35.236  33.200  28.476  1.00  0.00     0.060 A 
ATOM     30  C   UNL A   1      34.944  32.010  29.144  1.00  0.00     0.016 A 
ATOM     31  C   UNL A   1      36.552  33.650  28.370  1.00  0.00     0.016 A 
ATOM     32  C   UNL A   1      35.966  31.263  29.722  1.00  0.00     0.010 A 
ATOM     33  C   UNL A   1      37.580  32.895  28.944  1.00  0.00     0.010 A 
ATOM     34  C   UNL A   1      37.292  31.706  29.637  1.00  0.00    -0.014 A 
BRANCH  34  35
ATOM     35  C   UNL A   1      38.372  30.939  30.305  1.00  0.00     0.031 A 
ATOM     36  C   UNL A   1      38.757  31.263  31.721  1.00  0.00     0.074 A 
ATOM     37  C   UNL A   1      39.009  29.960  29.635  1.00  0.00     0.049 A 
ATOM     38  N   UNL A   1      39.719  30.760  32.448  1.00  0.00    -0.248 NA
ATOM     39  C   UNL A   1      37.956  32.290  32.407  1.00  0.00     0.031 C 
ATOM     40  C   UNL A   1      38.717  29.552  28.260  1.00  0.00     0.029 A 
ATOM     41  N   UNL A   1      40.049  29.149  30.013  1.00  0.00    -0.354 N 
ATOM     42  C   UNL A   1      39.670  31.435  33.662  1.00  0.00     0.074 A 
ATOM     43  C   UNL A   1      38.580  32.383  33.574  1.00  0.00     0.031 C 
ATOM     44  C   UNL A   1      39.570  28.578  27.904  1.00  0.00     0.029 A 
ATOM     45  C   UNL A   1      40.490  28.321  29.008  1.00  0.00     0.049 A 
ATOM     46  H   UNL A   1      40.440  29.157  30.916  1.00  0.00     0.167 HD
ATOM     47  C   UNL A   1      40.454  31.270  34.754  1.00  0.00     0.034 A 
ATOM     48  C   UNL A   1      41.534  27.469  28.973  1.00  0.00     0.034 A 
ATOM     49  C   UNL A   1      41.510  30.299  34.852  1.00  0.00     0.049 A 
ATOM     50  C   UNL A   1      42.392  27.310  30.199  1.00  0.00     0.074 A 
ATOM     51  C   UNL A   1      42.330  30.025  35.934  1.00  0.00     0.029 A 
ATOM     52  N   UNL A   1      41.896  29.442  33.833  1.00  0.00    -0.354 N 
ATOM     53  N   UNL A   1      42.269  27.885  31.371  1.00  0.00    -0.248 NA
ATOM     54  C   UNL A   1      43.516  26.369  30.107  1.00  0.00     0.031 C 
ATOM     55  C   UNL A   1      43.218  29.010  35.563  1.00  0.00     0.029 A 
ATOM     56  C   UNL A   1      42.944  28.644  34.255  1.00  0.00     0.049 A 
ATOM     57  H   UNL A   1      41.484  29.408  32.938  1.00  0.00     0.167 HD
ATOM     58  C   UNL A   1      43.282  27.357  32.163  1.00  0.00     0.074 A 
ATOM     59  C   UNL A   1      43.995  26.397  31.344  1.00  0.00     0.031 C 
ATOM     60  C   UNL A   1      43.607  27.653  33.446  1.00  0.00     0.034 A 
BRANCH  47  61
ATOM     61  C   UNL A   1      40.175  32.140  35.950  1.00  0.00     0.023 A 
ATOM     62  C   UNL A   1      40.977  33.274  36.186  1.00  0.00     0.012 A 
ATOM     63  C   UNL A   1      39.088  31.869  36.805  1.00  0.00     0.148 A 
ATOM     64  C   UNL A   1      40.718  34.112  37.270  1.00  0.00     0.002 A 
ATOM     65  C   UNL A   1      38.814  32.729  37.862  1.00  0.00     0.091 A 
ATOM     66  F   UNL A   1      38.353  30.770  36.579  1.00  0.00    -0.205 F 
ATOM     67  C   UNL A   1      39.632  33.846  38.101  1.00  0.00     0.022 A 
BRANCH  65  68
ATOM     68  S   UNL A   1      37.399  32.504  38.945  1.00  0.00     0.127 S 
ATOM     69  O   UNL A   1      36.288  32.796  38.042  1.00  0.00    -0.237 OA
ATOM     70  O   UNL A   1      37.520  31.098  39.330  1.00  0.00    -0.237 OA
ATOM     71  O   UNL A   1      37.583  33.447  40.041  1.00  0.00    -0.744 OA
ENDBRANCH  65  68
ENDBRANCH  47  61
BRANCH  48  72
ATOM     72  C   UNL A   1      41.800  26.677  27.740  1.00  0.00     0.023 A 
ATOM     73  C   UNL A   1      42.402  27.304  26.632  1.00  0.00     0.012 A 
ATOM     74  C   UNL A   1      41.499  25.303  27.671  1.00  0.00     0.148 A 
ATOM     75  C   UNL A   1      42.679  26.582  25.471  1.00  0.00     0.002 A 
ATOM     76  C   UNL A   1      41.829  24.576  26.532  1.00  0.00     0.091 A 
ATOM     77  F   UNL A   1      40.904  24.728  28.726  1.00  0.00    -0.205 F 
ATOM     78  C   UNL A   1      42.406  25.218  25.425  1.00  0.00     0.022 A 
BRANCH  76  79
ATOM     79  S   UNL A   1      41.634  22.792  26.449  1.00  0.00     0.127 S 
ATOM     80  O   UNL A   1      40.188  22.655  26.303  1.00  0.00    -0.237 OA
ATOM     81  O   UNL A   1      42.409  22.456  25.253  1.00  0.00    -0.237 OA
ATOM     82  O   UNL A   1      42.203  22.283  27.689  1.00  0.00    -0.744 OA
ENDBRANCH  76  79
ENDBRANCH  48  72
BRANCH  60  83
ATOM     83  C   UNL A   1      44.770  26.920  34.057  1.00  0.00     0.023 A 
ATOM     84  C   UNL A   1      46.057  27.490  33.998  1.00  0.00     0.012 A 
ATOM     85  C   UNL A   1      44.579  25.711  34.754  1.00  0.00     0.148 A 
ATOM     86  C   UNL A   1      47.142  26.854  34.602  1.00  0.00     0.002 A 
ATOM     87  C   UNL A   1      45.656  25.106  35.390  1.00  0.00     0.091 A 
ATOM     88  F   UNL A   1      43.350  25.174  34.781  1.00  0.00    -0.205 F 
ATOM     89  C   UNL A   1      46.940  25.670  35.308  1.00  0.00     0.022 A 
BRANCH  87  90
ATOM     90  S   UNL A   1      45.466  23.626  36.393  1.00  0.00     0.127 S 
ATOM     91  O   UNL A   1      44.888  24.171  37.620  1.00  0.00    -0.237 OA
ATOM     92  O   UNL A   1      44.547  22.819  35.592  1.00  0.00    -0.237 OA
ATOM     93  O   UNL A   1      46.803  23.063  36.522  1.00  0.00    -0.744 OA
ENDBRANCH  87  90
ENDBRANCH  60  83
ENDBRANCH  34  35
ENDBRANCH  27  29
ENDBRANCH  26  27
ENDBRANCH   1  26
TORSDOF 15
ENDMDL
MODEL 2
REMARK VINA RESULT:     -12.6      5.248     10.942
REMARK SMILES Cc1nc2ccc(Cl)cc2cc1C(=O)N1CCC(C(=O)OCCOC(=O)c2ccc(-c3c4nc(c(-c5cccc(S(=O)(=O)[O-])c5F)c5ccc([nH]5)c(-c5cccc(S(=O)(=O)[O-])c5F)c5nc(c(-c6cccc(S(=O)(=O)[O-])c6F)c6ccc3[nH]6)C=C5)C=C4)cc2)CC1
REMARK SMILES IDX 23 1 22 2 21 3 19 4 20 5 18 6 13 7 14 8 15 9 16 10 91 11
REMARK SMILES IDX 17 12 90 13 12 14 1 15 2 16 3 17 4 18 11 19 5 20 10 21 6 22
REMARK SMILES IDX 9 23 7 24 8 25 24 26 25 27 26 28 27 29 28 30 89 31 29 32
REMARK SMILES IDX 88 33 30 34 31 35 32 36 82 37 33 38 87 39 81 40 83 41 34 42
REMARK SMILES IDX 86 43 80 44 79 45 35 47 67 48 47 49 66 50 48 51 51 52 65 53
REMARK SMILES IDX 84 54 49 55 50 56 64 58 85 59 52 60 36 61 37 62 45 63 38 64
REMARK SMILES IDX 40 65 46 66 39 67 41 68 42 69 43 70 44 71 68 72 69 73 77 74
REMARK SMILES IDX 70 75 72 76 78 77 71 78 73 79 74 80 75 81 76 82 53 83 54 84
REMARK SMILES IDX 62 85 55 86 57 87 63 88 56 89 58 90 59 91 60 92 61 93
REMARK H PARENT 83 46 51 57
REMARK Flexibility Score: inf
ROOT
ATOM      1  C   UNL A   1      39.045  19.587  25.622  1.00  0.00     0.275 C 
ENDROOT
BRANCH   1   2
ATOM      2  C   UNL A   1      38.033  20.286  24.713  1.00  0.00     0.274 C 
BRANCH   2   3
ATOM      3  O   UNL A   1      36.802  20.531  25.418  1.00  0.00    -0.462 OA
BRANCH   3   4
ATOM      4  C   UNL A   1      35.708  19.860  24.981  1.00  0.00     0.309 C 
ATOM      5  O   UNL A   1      35.676  18.665  24.717  1.00  0.00    -0.252 OA
BRANCH   4   6
ATOM      6  C   UNL A   1      34.480  20.743  24.868  1.00  0.00     0.103 C 
ATOM      7  C   UNL A   1      31.192  23.233  25.971  1.00  0.00     0.255 C 
ATOM      8  O   UNL A   1      30.288  22.764  26.656  1.00  0.00    -0.269 OA
ATOM      9  N   UNL A   1      32.282  22.480  25.530  1.00  0.00    -0.339 N 
ATOM     10  C   UNL A   1      32.026  21.079  25.212  1.00  0.00     0.120 C 
ATOM     11  C   UNL A   1      33.564  23.053  25.103  1.00  0.00     0.120 C 
ATOM     12  C   UNL A   1      33.210  20.171  25.497  1.00  0.00     0.037 C 
ATOM     13  C   UNL A   1      34.741  22.137  25.434  1.00  0.00     0.037 C 
BRANCH   7  14
ATOM     14  C   UNL A   1      31.034  24.619  25.470  1.00  0.00     0.061 A 
ATOM     15  C   UNL A   1      30.441  23.839  23.129  1.00  0.00     0.067 C 
ATOM     16  C   UNL A   1      30.742  24.908  24.140  1.00  0.00     0.051 A 
ATOM     17  N   UNL A   1      30.767  26.182  23.652  1.00  0.00    -0.252 NA
ATOM     18  C   UNL A   1      31.098  27.194  24.474  1.00  0.00     0.071 A 
ATOM     19  C   UNL A   1      31.370  25.678  26.319  1.00  0.00     0.026 A 
ATOM     20  C   UNL A   1      31.181  28.490  23.981  1.00  0.00     0.030 A 
ATOM     21  C   UNL A   1      31.392  26.988  25.837  1.00  0.00     0.002 A 
ATOM     22  C   UNL A   1      31.524  29.570  24.801  1.00  0.00     0.023 A 
ATOM     23  C   UNL A   1      31.726  28.068  26.673  1.00  0.00     0.030 A 
ATOM     24  C   UNL A   1      31.786  29.354  26.149  1.00  0.00     0.041 A 
ATOM     25  Cl  UNL A   1      32.192  30.677  27.168  1.00  0.00    -0.084 Cl
ENDBRANCH   7  14
ENDBRANCH   4   6
ENDBRANCH   3   4
ENDBRANCH   2   3
ENDBRANCH   1   2
BRANCH   1  26
ATOM     26  O   UNL A   1      40.226  20.388  25.812  1.00  0.00    -0.458 OA
BRANCH  26  27
ATOM     27  C   UNL A   1      40.666  20.474  27.090  1.00  0.00     0.338 C 
ATOM     28  O   UNL A   1      40.898  19.554  27.855  1.00  0.00    -0.246 OA
BRANCH  27  29
ATOM     29  C   UNL A   1      40.952  21.876  27.426  1.00  0.00     0.060 A 
ATOM     30  C   UNL A   1      40.427  22.870  26.598  1.00  0.00     0.016 A 
ATOM     31  C   UNL A   1      41.808  22.206  28.476  1.00  0.00     0.016 A 
ATOM     32  C   UNL A   1      40.761  24.204  26.808  1.00  0.00     0.010 A 
ATOM     33  C   UNL A   1      42.138  23.548  28.692  1.00  0.00     0.010 A 
ATOM     34  C   UNL A   1      41.630  24.554  27.850  1.00  0.00    -0.014 A 
BRANCH  34  35
ATOM     35  C   UNL A   1      42.032  25.970  28.033  1.00  0.00     0.031 A 
ATOM     36  C   UNL A   1      43.397  26.425  27.602  1.00  0.00     0.074 A 
ATOM     37  C   UNL A   1      41.172  26.840  28.595  1.00  0.00     0.049 A 
ATOM     38  N   UNL A   1      43.958  27.596  27.746  1.00  0.00    -0.248 NA
ATOM     39  C   UNL A   1      44.243  25.430  26.923  1.00  0.00     0.031 C 
ATOM     40  C   UNL A   1      39.818  26.515  29.046  1.00  0.00     0.029 A 
ATOM     41  N   UNL A   1      41.319  28.169  28.903  1.00  0.00    -0.354 N 
ATOM     42  C   UNL A   1      45.236  27.472  27.215  1.00  0.00     0.074 A 
ATOM     43  C   UNL A   1      45.367  26.109  26.743  1.00  0.00     0.031 C 
ATOM     44  C   UNL A   1      39.264  27.611  29.590  1.00  0.00     0.029 A 
ATOM     45  C   UNL A   1      40.235  28.702  29.560  1.00  0.00     0.049 A 
ATOM     46  H   UNL A   1      42.123  28.691  28.676  1.00  0.00     0.167 HD
ATOM     47  C   UNL A   1      46.207  28.411  27.118  1.00  0.00     0.034 A 
ATOM     48  C   UNL A   1      40.054  29.925  30.098  1.00  0.00     0.034 A 
ATOM     49  C   UNL A   1      46.060  29.775  27.551  1.00  0.00     0.049 A 
ATOM     50  C   UNL A   1      41.152  30.947  29.982  1.00  0.00     0.074 A 
ATOM     51  C   UNL A   1      46.970  30.812  27.454  1.00  0.00     0.029 A 
ATOM     52  N   UNL A   1      44.929  30.292  28.165  1.00  0.00    -0.354 N 
ATOM     53  N   UNL A   1      42.316  30.841  29.388  1.00  0.00    -0.248 NA
ATOM     54  C   UNL A   1      40.903  32.263  30.586  1.00  0.00     0.031 C 
ATOM     55  C   UNL A   1      46.394  31.955  28.019  1.00  0.00     0.029 A 
ATOM     56  C   UNL A   1      45.120  31.631  28.459  1.00  0.00     0.049 A 
ATOM     57  H   UNL A   1      44.111  29.782  28.364  1.00  0.00     0.167 HD
ATOM     58  C   UNL A   1      42.927  32.082  29.524  1.00  0.00     0.074 A 
ATOM     59  C   UNL A   1      41.994  32.932  30.236  1.00  0.00     0.031 C 
ATOM     60  C   UNL A   1      44.159  32.479  29.116  1.00  0.00     0.034 A 
BRANCH  47  61
ATOM     61  C   UNL A   1      47.511  28.004  26.486  1.00  0.00     0.023 A 
ATOM     62  C   UNL A   1      48.601  27.654  27.307  1.00  0.00     0.012 A 
ATOM     63  C   UNL A   1      47.640  27.913  25.086  1.00  0.00     0.148 A 
ATOM     64  C   UNL A   1      49.809  27.244  26.744  1.00  0.00     0.002 A 
ATOM     65  C   UNL A   1      48.836  27.468  24.533  1.00  0.00     0.091 A 
ATOM     66  F   UNL A   1      46.599  28.276  24.322  1.00  0.00    -0.205 F 
ATOM     67  C   UNL A   1      49.923  27.140  25.360  1.00  0.00     0.022 A 
BRANCH  65  68
ATOM     68  S   UNL A   1      49.053  27.241  22.765  1.00  0.00     0.127 S 
ATOM     69  O   UNL A   1      50.507  27.130  22.659  1.00  0.00    -0.237 OA
ATOM     70  O   UNL A   1      48.327  25.994  22.518  1.00  0.00    -0.237 OA
ATOM     71  O   UNL A   1      48.463  28.416  22.137  1.00  0.00    -0.744 OA
ENDBRANCH  65  68
ENDBRANCH  47  61
BRANCH  48  72
ATOM     72  C   UNL A   1      38.764  30.254  30.767  1.00  0.00     0.023 A 
ATOM     73  C   UNL A   1      38.560  29.866  32.105  1.00  0.00     0.012 A 
ATOM     74  C   UNL A   1      37.757  30.980  30.101  1.00  0.00     0.148 A 
ATOM     75  C   UNL A   1      37.369  30.177  32.761  1.00  0.00     0.002 A 
ATOM     76  C   UNL A   1      36.596  31.336  30.778  1.00  0.00     0.091 A 
ATOM     77  F   UNL A   1      37.958  31.319  28.820  1.00  0.00    -0.205 F 
ATOM     78  C   UNL A   1      36.394  30.922  32.104  1.00  0.00     0.022 A 
BRANCH  76  79
ATOM     79  S   UNL A   1      35.355  32.409  30.046  1.00  0.00     0.127 S 
ATOM     80  O   UNL A   1      34.899  31.610  28.912  1.00  0.00    -0.237 OA
ATOM     81  O   UNL A   1      34.385  32.542  31.135  1.00  0.00    -0.237 OA
ATOM     82  O   UNL A   1      36.056  33.642  29.718  1.00  0.00    -0.744 OA
ENDBRANCH  76  79
ENDBRANCH  48  72
BRANCH  60  83
ATOM     83  C   UNL A   1      44.566  33.898  29.407  1.00  0.00     0.023 A 
ATOM     84  C   UNL A   1      45.129  34.216  30.658  1.00  0.00     0.012 A 
ATOM     85  C   UNL A   1      44.463  34.897  28.419  1.00  0.00     0.148 A 
ATOM     86  C   UNL A   1      45.561  35.514  30.931  1.00  0.00     0.002 A 
ATOM     87  C   UNL A   1      44.935  36.178  28.684  1.00  0.00     0.091 A 
ATOM     88  F   UNL A   1      43.904  34.580  27.242  1.00  0.00    -0.205 F 
ATOM     89  C   UNL A   1      45.476  36.490  29.942  1.00  0.00     0.022 A 
BRANCH  87  90
ATOM     90  S   UNL A   1      44.943  37.471  27.435  1.00  0.00     0.127 S 
ATOM     91  O   UNL A   1      45.538  38.588  28.167  1.00  0.00    -0.237 OA
ATOM     92  O   UNL A   1      45.798  36.898  26.395  1.00  0.00    -0.237 OA
ATOM     93  O   UNL A   1      43.552  37.645  27.039  1.00  0.00    -0.744 OA
ENDBRANCH  87  90
ENDBRANCH  60  83
ENDBRANCH  34  35
ENDBRANCH  27  29
ENDBRANCH  26  27
ENDBRANCH   1  26
TORSDOF 15
ENDMDL
MODEL 3
REMARK VINA RESULT:     -12.5      0.902      7.487
REMARK SMILES Cc1nc2ccc(Cl)cc2cc1C(=O)N1CCC(C(=O)OCCOC(=O)c2ccc(-c3c4nc(c(-c5cccc(S(=O)(=O)[O-])c5F)c5ccc([nH]5)c(-c5cccc(S(=O)(=O)[O-])c5F)c5nc(c(-c6cccc(S(=O)(=O)[O-])c6F)c6ccc3[nH]6)C=C5)C=C4)cc2)CC1
REMARK SMILES IDX 23 1 22 2 21 3 19 4 20 5 18 6 13 7 14 8 15 9 16 10 91 11
REMARK SMILES IDX 17 12 90 13 12 14 1 15 2 16 3 17 4 18 11 19 5 20 10 21 6 22
REMARK SMILES IDX 9 23 7 24 8 25 24 26 25 27 26 28 27 29 28 30 89 31 29 32
REMARK SMILES IDX 88 33 30 34 31 35 32 36 82 37 33 38 87 39 81 40 83 41 34 42
REMARK SMILES IDX 86 43 80 44 79 45 35 47 67 48 47 49 66 50 48 51 51 52 65 53
REMARK SMILES IDX 84 54 49 55 50 56 64 58 85 59 52 60 36 61 37 62 45 63 38 64
REMARK SMILES IDX 40 65 46 66 39 67 41 68 42 69 43 70 44 71 68 72 69 73 77 74
REMARK SMILES IDX 70 75 72 76 78 77 71 78 73 79 74 80 75 81 76 82 53 83 54 84
REMARK SMILES IDX 62 85 55 86 57 87 63 88 56 89 58 90 59 91 60 92 61 93
REMARK H PARENT 83 46 51 57
REMARK Flexibility Score: inf
ROOT
ATOM      1  C   UNL A   1      32.133  33.160  26.878  1.00  0.00     0.275 C 
ENDROOT
BRANCH   1   2
ATOM      2  C   UNL A   1      31.236  31.933  26.706  1.00  0.00     0.274 C 
BRANCH   2   3
ATOM      3  O   UNL A   1      31.854  30.972  25.830  1.00  0.00    -0.462 OA
BRANCH   3   4
ATOM      4  C   UNL A   1      32.507  29.942  26.421  1.00  0.00     0.309 C 
ATOM      5  O   UNL A   1      33.062  29.996  27.512  1.00  0.00    -0.252 OA
BRANCH   4   6
ATOM      6  C   UNL A   1      32.470  28.668  25.600  1.00  0.00     0.103 C 
ATOM      7  C   UNL A   1      33.587  25.653  22.790  1.00  0.00     0.255 C 
ATOM      8  O   UNL A   1      33.641  25.936  21.596  1.00  0.00    -0.269 OA
ATOM      9  N   UNL A   1      33.190  26.564  23.771  1.00  0.00    -0.339 N 
ATOM     10  C   UNL A   1      32.167  27.534  23.391  1.00  0.00     0.120 C 
ATOM     11  C   UNL A   1      33.513  26.435  25.197  1.00  0.00     0.120 C 
ATOM     12  C   UNL A   1      32.318  28.873  24.092  1.00  0.00     0.037 C 
ATOM     13  C   UNL A   1      33.694  27.795  25.870  1.00  0.00     0.037 C 
BRANCH   7  14
ATOM     14  C   UNL A   1      33.806  24.240  23.177  1.00  0.00     0.061 A 
ATOM     15  C   UNL A   1      31.318  23.752  23.285  1.00  0.00     0.067 C 
ATOM     16  C   UNL A   1      32.758  23.368  23.464  1.00  0.00     0.051 A 
ATOM     17  N   UNL A   1      32.971  22.124  23.983  1.00  0.00    -0.252 NA
ATOM     18  C   UNL A   1      34.230  21.727  24.242  1.00  0.00     0.071 A 
ATOM     19  C   UNL A   1      35.111  23.815  23.442  1.00  0.00     0.026 A 
ATOM     20  C   UNL A   1      34.461  20.485  24.820  1.00  0.00     0.030 A 
ATOM     21  C   UNL A   1      35.347  22.542  23.966  1.00  0.00     0.002 A 
ATOM     22  C   UNL A   1      35.754  20.035  25.108  1.00  0.00     0.023 A 
ATOM     23  C   UNL A   1      36.650  22.095  24.239  1.00  0.00     0.030 A 
ATOM     24  C   UNL A   1      36.845  20.840  24.806  1.00  0.00     0.041 A 
ATOM     25  Cl  UNL A   1      38.438  20.288  25.140  1.00  0.00    -0.084 Cl
ENDBRANCH   7  14
ENDBRANCH   4   6
ENDBRANCH   3   4
ENDBRANCH   2   3
ENDBRANCH   1   2
BRANCH   1  26
ATOM     26  O   UNL A   1      32.283  33.513  28.266  1.00  0.00    -0.458 OA
BRANCH  26  27
ATOM     27  C   UNL A   1      33.259  34.414  28.531  1.00  0.00     0.338 C 
ATOM     28  O   UNL A   1      33.171  35.629  28.497  1.00  0.00    -0.246 OA
BRANCH  27  29
ATOM     29  C   UNL A   1      34.467  33.718  28.995  1.00  0.00     0.060 A 
ATOM     30  C   UNL A   1      34.307  32.584  29.792  1.00  0.00     0.016 A 
ATOM     31  C   UNL A   1      35.739  34.231  28.737  1.00  0.00     0.016 A 
ATOM     32  C   UNL A   1      35.418  31.957  30.348  1.00  0.00     0.010 A 
ATOM     33  C   UNL A   1      36.855  33.596  29.290  1.00  0.00     0.010 A 
ATOM     34  C   UNL A   1      36.701  32.464  30.112  1.00  0.00    -0.014 A 
BRANCH  34  35
ATOM     35  C   UNL A   1      37.877  31.830  30.755  1.00  0.00     0.031 A 
ATOM     36  C   UNL A   1      38.654  30.773  30.023  1.00  0.00     0.074 A 
ATOM     37  C   UNL A   1      38.237  32.198  31.999  1.00  0.00     0.049 A 
ATOM     38  N   UNL A   1      39.660  30.051  30.442  1.00  0.00    -0.248 NA
ATOM     39  C   UNL A   1      38.244  30.488  28.638  1.00  0.00     0.031 C 
ATOM     40  C   UNL A   1      37.564  33.217  32.804  1.00  0.00     0.029 A 
ATOM     41  N   UNL A   1      39.245  31.740  32.810  1.00  0.00    -0.354 N 
ATOM     42  C   UNL A   1      39.978  29.197  29.393  1.00  0.00     0.074 A 
ATOM     43  C   UNL A   1      39.058  29.493  28.314  1.00  0.00     0.031 C 
ATOM     44  C   UNL A   1      38.166  33.295  34.002  1.00  0.00     0.029 A 
ATOM     45  C   UNL A   1      39.240  32.308  34.062  1.00  0.00     0.049 A 
ATOM     46  H   UNL A   1      39.907  31.070  32.523  1.00  0.00     0.167 HD
ATOM     47  C   UNL A   1      40.955  28.262  29.329  1.00  0.00     0.034 A 
ATOM     48  C   UNL A   1      40.000  32.044  35.144  1.00  0.00     0.034 A 
ATOM     49  C   UNL A   1      41.893  27.999  30.387  1.00  0.00     0.049 A 
ATOM     50  C   UNL A   1      41.075  30.995  35.047  1.00  0.00     0.074 A 
ATOM     51  C   UNL A   1      42.948  27.103  30.400  1.00  0.00     0.029 A 
ATOM     52  N   UNL A   1      41.890  28.629  31.622  1.00  0.00    -0.354 N 
ATOM     53  N   UNL A   1      41.425  30.268  34.014  1.00  0.00    -0.248 NA
ATOM     54  C   UNL A   1      41.873  30.748  36.255  1.00  0.00     0.031 C 
ATOM     55  C   UNL A   1      43.576  27.184  31.647  1.00  0.00     0.029 A 
ATOM     56  C   UNL A   1      42.919  28.138  32.407  1.00  0.00     0.049 A 
ATOM     57  H   UNL A   1      41.250  29.324  31.900  1.00  0.00     0.167 HD
ATOM     58  C   UNL A   1      42.501  29.497  34.439  1.00  0.00     0.074 A 
ATOM     59  C   UNL A   1      42.759  29.863  35.817  1.00  0.00     0.031 C 
ATOM     60  C   UNL A   1      43.199  28.555  33.758  1.00  0.00     0.034 A 
BRANCH  47  61
ATOM     61  C   UNL A   1      41.084  27.473  28.053  1.00  0.00     0.023 A 
ATOM     62  C   UNL A   1      41.649  28.081  26.915  1.00  0.00     0.012 A 
ATOM     63  C   UNL A   1      40.700  26.119  27.998  1.00  0.00     0.148 A 
ATOM     64  C   UNL A   1      41.808  27.361  25.732  1.00  0.00     0.002 A 
ATOM     65  C   UNL A   1      40.895  25.397  26.825  1.00  0.00     0.091 A 
ATOM     66  F   UNL A   1      40.140  25.566  29.084  1.00  0.00    -0.205 F 
ATOM     67  C   UNL A   1      41.441  26.018  25.690  1.00  0.00     0.022 A 
BRANCH  65  68
ATOM     68  S   UNL A   1      40.514  23.646  26.698  1.00  0.00     0.127 S 
ATOM     69  O   UNL A   1      41.463  23.212  25.675  1.00  0.00    -0.237 OA
ATOM     70  O   UNL A   1      40.807  23.163  28.048  1.00  0.00    -0.237 OA
ATOM     71  O   UNL A   1      39.108  23.571  26.324  1.00  0.00    -0.744 OA
ENDBRANCH  65  68
ENDBRANCH  47  61
BRANCH  48  72
ATOM     72  C   UNL A   1      39.788  32.815  36.401  1.00  0.00     0.023 A 
ATOM     73  C   UNL A   1      40.482  34.025  36.595  1.00  0.00     0.012 A 
ATOM     74  C   UNL A   1      38.879  32.379  37.385  1.00  0.00     0.148 A 
ATOM     75  C   UNL A   1      40.288  34.777  37.754  1.00  0.00     0.002 A 
ATOM     76  C   UNL A   1      38.649  33.160  38.512  1.00  0.00     0.091 A 
ATOM     77  F   UNL A   1      38.247  31.212  37.195  1.00  0.00    -0.205 F 
ATOM     78  C   UNL A   1      39.364  34.353  38.706  1.00  0.00     0.022 A 
BRANCH  76  79
ATOM     79  S   UNL A   1      37.377  32.752  39.713  1.00  0.00     0.127 S 
ATOM     80  O   UNL A   1      37.457  33.885  40.631  1.00  0.00    -0.237 OA
ATOM     81  O   UNL A   1      36.173  32.715  38.882  1.00  0.00    -0.237 OA
ATOM     82  O   UNL A   1      37.764  31.459  40.260  1.00  0.00    -0.744 OA
ENDBRANCH  76  79
ENDBRANCH  48  72
BRANCH  60  83
ATOM     83  C   UNL A   1      44.326  27.865  34.479  1.00  0.00     0.023 A 
ATOM     84  C   UNL A   1      45.607  28.450  34.484  1.00  0.00     0.012 A 
ATOM     85  C   UNL A   1      44.100  26.685  35.213  1.00  0.00     0.148 A 
ATOM     86  C   UNL A   1      46.654  27.856  35.188  1.00  0.00     0.002 A 
ATOM     87  C   UNL A   1      45.138  26.122  35.948  1.00  0.00     0.091 A 
ATOM     88  F   UNL A   1      42.879  26.132  35.179  1.00  0.00    -0.205 F 
ATOM     89  C   UNL A   1      46.417  26.701  35.929  1.00  0.00     0.022 A 
BRANCH  87  90
ATOM     90  S   UNL A   1      44.895  24.685  37.000  1.00  0.00     0.127 S 
ATOM     91  O   UNL A   1      46.214  24.537  37.611  1.00  0.00    -0.237 OA
ATOM     92  O   UNL A   1      43.846  25.138  37.914  1.00  0.00    -0.237 OA
ATOM     93  O   UNL A   1      44.488  23.608  36.108  1.00  0.00    -0.744 OA
ENDBRANCH  87  90
ENDBRANCH  60  83
ENDBRANCH  34  35
ENDBRANCH  27  29
ENDBRANCH  26  27
ENDBRANCH   1  26
TORSDOF 15
ENDMDL
