MODEL 1
REMARK VINA RESULT:     -12.4      0.000      0.000
REMARK SMILES COC(=O)c1ccc(Cl)c(-c2ccc(C(=O)OCCOC(=O)c3ccc(-c4c5nc(c(-c6cccc(S(=O)(=O)[O-])c6F)c6ccc([nH]6)c(-c6cccc(S(=O)(=O)[O-])c6F)c6nc(c(-c7cccc(S(=O)(=O)[O-])c7F)c7ccc4[nH]7)C=C6)C=C5)cc3)c(F)c2)c1
REMARK SMILES IDX 18 1 17 2 15 3 16 4 14 5 11 6 12 7 88 8 13 9 86 10 87 11
REMARK SMILES IDX 10 12 5 13 6 14 89 15 7 16 8 17 9 18 3 19 4 20 2 21 1 22
REMARK SMILES IDX 19 23 20 24 21 25 22 26 23 27 24 28 85 29 25 30 84 31 26 32
REMARK SMILES IDX 27 33 28 34 78 35 29 36 83 37 77 38 79 39 30 40 82 41 76 42
REMARK SMILES IDX 75 43 31 45 63 46 43 47 62 48 44 49 47 50 61 51 80 52 45 53
REMARK SMILES IDX 46 54 60 56 81 57 48 58 32 59 33 60 41 61 34 62 36 63 42 64
REMARK SMILES IDX 35 65 37 66 38 67 39 68 40 69 64 70 65 71 73 72 66 73 68 74
REMARK SMILES IDX 74 75 67 76 69 77 70 78 71 79 72 80 49 81 50 82 58 83 51 84
REMARK SMILES IDX 53 85 59 86 52 87 54 88 55 89 56 90 57 91
REMARK H PARENT 79 44 47 55
REMARK Flexibility Score: inf
ROOT
ATOM      1  C   UNL A   1      31.318  29.666  24.625  1.00  0.00     0.275 C 
ENDROOT
BRANCH   1   2
ATOM      2  O   UNL A   1      32.111  28.495  24.901  1.00  0.00    -0.458 OA
BRANCH   2   3
ATOM      3  C   UNL A   1      32.969  28.110  23.927  1.00  0.00     0.341 C 
ATOM      4  O   UNL A   1      33.485  28.832  23.087  1.00  0.00    -0.246 OA
BRANCH   3   5
ATOM      5  C   UNL A   1      33.336  26.689  24.068  1.00  0.00     0.095 A 
ATOM      6  C   UNL A   1      34.099  24.004  24.443  1.00  0.00    -0.014 A 
ATOM      7  C   UNL A   1      34.076  24.892  25.524  1.00  0.00     0.010 A 
ATOM      8  C   UNL A   1      33.737  24.479  23.171  1.00  0.00     0.049 A 
ATOM      9  C   UNL A   1      33.736  26.229  25.330  1.00  0.00     0.019 A 
ATOM     10  C   UNL A   1      33.348  25.809  22.993  1.00  0.00     0.138 A 
ATOM     11  F   UNL A   1      33.067  26.228  21.750  1.00  0.00    -0.206 F 
BRANCH   6  12
ATOM     12  C   UNL A   1      34.635  22.654  24.634  1.00  0.00     0.001 A 
ATOM     13  C   UNL A   1      34.156  20.259  24.697  1.00  0.00     0.060 A 
ATOM     14  C   UNL A   1      35.514  19.980  24.860  1.00  0.00     0.017 A 
ATOM     15  C   UNL A   1      33.726  21.583  24.576  1.00  0.00     0.026 A 
ATOM     16  C   UNL A   1      36.434  21.032  24.909  1.00  0.00     0.022 A 
ATOM     17  C   UNL A   1      36.000  22.360  24.801  1.00  0.00     0.048 A 
ATOM     18  Cl  UNL A   1      37.194  23.606  24.879  1.00  0.00    -0.084 Cl
BRANCH  13  19
ATOM     19  C   UNL A   1      33.118  19.204  24.631  1.00  0.00     0.337 C 
ATOM     20  O   UNL A   1      32.152  19.164  25.365  1.00  0.00    -0.246 OA
BRANCH  19  21
ATOM     21  O   UNL A   1      33.481  18.262  23.723  1.00  0.00    -0.465 OA
ATOM     22  C   UNL A   1      32.525  18.100  22.676  1.00  0.00     0.282 C 
ENDBRANCH  19  21
ENDBRANCH  13  19
ENDBRANCH   6  12
ENDBRANCH   3   5
ENDBRANCH   2   3
ENDBRANCH   1   2
BRANCH   1  23
ATOM     23  C   UNL A   1      31.423  30.676  25.767  1.00  0.00     0.275 C 
BRANCH  23  24
ATOM     24  O   UNL A   1      32.641  30.475  26.506  1.00  0.00    -0.458 OA
BRANCH  24  25
ATOM     25  C   UNL A   1      33.149  31.581  27.095  1.00  0.00     0.338 C 
ATOM     26  O   UNL A   1      32.588  32.649  27.279  1.00  0.00    -0.246 OA
BRANCH  25  27
ATOM     27  C   UNL A   1      34.500  31.301  27.597  1.00  0.00     0.060 A 
ATOM     28  C   UNL A   1      34.824  29.980  27.882  1.00  0.00     0.016 A 
ATOM     29  C   UNL A   1      35.378  32.325  27.936  1.00  0.00     0.016 A 
ATOM     30  C   UNL A   1      35.968  29.678  28.615  1.00  0.00     0.010 A 
ATOM     31  C   UNL A   1      36.591  32.007  28.565  1.00  0.00     0.010 A 
ATOM     32  C   UNL A   1      36.886  30.684  28.948  1.00  0.00    -0.014 A 
BRANCH  32  33
ATOM     33  C   UNL A   1      38.142  30.352  29.686  1.00  0.00     0.031 A 
ATOM     34  C   UNL A   1      39.182  29.450  29.065  1.00  0.00     0.074 A 
ATOM     35  C   UNL A   1      38.353  30.848  30.923  1.00  0.00     0.049 A 
ATOM     36  N   UNL A   1      40.236  28.904  29.616  1.00  0.00    -0.248 NA
ATOM     37  C   UNL A   1      39.011  29.107  27.642  1.00  0.00     0.031 C 
ATOM     38  C   UNL A   1      37.452  31.753  31.640  1.00  0.00     0.029 A 
ATOM     39  N   UNL A   1      39.391  30.658  31.807  1.00  0.00    -0.354 N 
ATOM     40  C   UNL A   1      40.811  28.101  28.635  1.00  0.00     0.074 A 
ATOM     41  C   UNL A   1      39.993  28.236  27.450  1.00  0.00     0.031 C 
ATOM     42  C   UNL A   1      37.985  32.064  32.829  1.00  0.00     0.029 A 
ATOM     43  C   UNL A   1      39.215  31.305  33.010  1.00  0.00     0.049 A 
ATOM     44  H   UNL A   1      40.183  30.111  31.599  1.00  0.00     0.167 HD
ATOM     45  C   UNL A   1      41.924  27.333  28.714  1.00  0.00     0.034 A 
ATOM     46  C   UNL A   1      39.930  31.263  34.152  1.00  0.00     0.034 A 
ATOM     47  C   UNL A   1      42.773  27.256  29.874  1.00  0.00     0.049 A 
ATOM     48  C   UNL A   1      41.150  30.389  34.217  1.00  0.00     0.074 A 
ATOM     49  C   UNL A   1      43.934  26.520  30.039  1.00  0.00     0.029 A 
ATOM     50  N   UNL A   1      42.568  27.948  31.058  1.00  0.00    -0.354 N 
ATOM     51  N   UNL A   1      41.681  29.648  33.275  1.00  0.00    -0.248 NA
ATOM     52  C   UNL A   1      41.873  30.348  35.496  1.00  0.00     0.031 C 
ATOM     53  C   UNL A   1      44.421  26.753  31.329  1.00  0.00     0.029 A 
ATOM     54  C   UNL A   1      43.581  27.659  31.956  1.00  0.00     0.049 A 
ATOM     55  H   UNL A   1      41.813  28.555  31.233  1.00  0.00     0.167 HD
ATOM     56  C   UNL A   1      42.818  29.077  33.838  1.00  0.00     0.074 A 
ATOM     57  C   UNL A   1      42.908  29.575  35.195  1.00  0.00     0.031 C 
ATOM     58  C   UNL A   1      43.694  28.206  33.283  1.00  0.00     0.034 A 
BRANCH  45  59
ATOM     59  C   UNL A   1      42.326  26.525  27.504  1.00  0.00     0.023 A 
ATOM     60  C   UNL A   1      43.185  27.089  26.540  1.00  0.00     0.012 A 
ATOM     61  C   UNL A   1      41.946  25.173  27.382  1.00  0.00     0.148 A 
ATOM     62  C   UNL A   1      43.644  26.327  25.466  1.00  0.00     0.002 A 
ATOM     63  C   UNL A   1      42.445  24.407  26.334  1.00  0.00     0.091 A 
ATOM     64  F   UNL A   1      41.117  24.658  28.301  1.00  0.00    -0.205 F 
ATOM     65  C   UNL A   1      43.286  24.985  25.371  1.00  0.00     0.022 A 
BRANCH  63  66
ATOM     66  S   UNL A   1      42.116  22.647  26.170  1.00  0.00     0.127 S 
ATOM     67  O   UNL A   1      42.785  22.339  24.906  1.00  0.00    -0.237 OA
ATOM     68  O   UNL A   1      42.773  22.101  27.356  1.00  0.00    -0.237 OA
ATOM     69  O   UNL A   1      40.667  22.506  26.154  1.00  0.00    -0.744 OA
ENDBRANCH  63  66
ENDBRANCH  45  59
BRANCH  46  70
ATOM     70  C   UNL A   1      39.512  32.093  35.320  1.00  0.00     0.023 A 
ATOM     71  C   UNL A   1      39.804  33.470  35.327  1.00  0.00     0.012 A 
ATOM     72  C   UNL A   1      38.780  31.542  36.391  1.00  0.00     0.148 A 
ATOM     73  C   UNL A   1      39.388  34.280  36.384  1.00  0.00     0.002 A 
ATOM     74  C   UNL A   1      38.313  32.366  37.407  1.00  0.00     0.091 A 
ATOM     75  F   UNL A   1      38.531  30.225  36.379  1.00  0.00    -0.205 F 
ATOM     76  C   UNL A   1      38.630  33.732  37.415  1.00  0.00     0.022 A 
BRANCH  74  77
ATOM     77  S   UNL A   1      37.202  31.776  38.690  1.00  0.00     0.127 S 
ATOM     78  O   UNL A   1      36.939  30.408  38.253  1.00  0.00    -0.237 OA
ATOM     79  O   UNL A   1      38.034  31.892  39.888  1.00  0.00    -0.237 OA
ATOM     80  O   UNL A   1      36.058  32.679  38.666  1.00  0.00    -0.744 OA
ENDBRANCH  74  77
ENDBRANCH  46  70
BRANCH  58  81
ATOM     81  C   UNL A   1      44.865  27.758  34.117  1.00  0.00     0.023 A 
ATOM     82  C   UNL A   1      46.044  28.529  34.143  1.00  0.00     0.012 A 
ATOM     83  C   UNL A   1      44.755  26.630  34.956  1.00  0.00     0.148 A 
ATOM     84  C   UNL A   1      47.105  28.170  34.973  1.00  0.00     0.002 A 
ATOM     85  C   UNL A   1      45.797  26.308  35.816  1.00  0.00     0.091 A 
ATOM     86  F   UNL A   1      43.632  25.901  34.901  1.00  0.00    -0.205 F 
ATOM     87  C   UNL A   1      46.976  27.069  35.818  1.00  0.00     0.022 A 
BRANCH  85  88
ATOM     88  S   UNL A   1      45.680  24.974  37.014  1.00  0.00     0.127 S 
ATOM     89  O   UNL A   1      44.343  25.186  37.565  1.00  0.00    -0.237 OA
ATOM     90  O   UNL A   1      45.810  23.787  36.168  1.00  0.00    -0.237 OA
ATOM     91  O   UNL A   1      46.778  25.175  37.949  1.00  0.00    -0.744 OA
ENDBRANCH  85  88
ENDBRANCH  58  81
ENDBRANCH  32  33
ENDBRANCH  25  27
ENDBRANCH  24  25
ENDBRANCH  23  24
ENDBRANCH   1  23
TORSDOF 17
ENDMDL
MODEL 2
REMARK VINA RESULT:     -12.3      5.215     10.303
REMARK SMILES COC(=O)c1ccc(Cl)c(-c2ccc(C(=O)OCCOC(=O)c3ccc(-c4c5nc(c(-c6cccc(S(=O)(=O)[O-])c6F)c6ccc([nH]6)c(-c6cccc(S(=O)(=O)[O-])c6F)c6nc(c(-c7cccc(S(=O)(=O)[O-])c7F)c7ccc4[nH]7)C=C6)C=C5)cc3)c(F)c2)c1
REMARK SMILES IDX 18 1 17 2 15 3 16 4 14 5 11 6 12 7 88 8 13 9 86 10 87 11
REMARK SMILES IDX 10 12 5 13 6 14 89 15 7 16 8 17 9 18 3 19 4 20 2 21 1 22
REMARK SMILES IDX 19 23 20 24 21 25 22 26 23 27 24 28 85 29 25 30 84 31 26 32
REMARK SMILES IDX 27 33 28 34 78 35 29 36 83 37 77 38 79 39 30 40 82 41 76 42
REMARK SMILES IDX 75 43 31 45 63 46 43 47 62 48 44 49 47 50 61 51 80 52 45 53
REMARK SMILES IDX 46 54 60 56 81 57 48 58 32 59 33 60 41 61 34 62 36 63 42 64
REMARK SMILES IDX 35 65 37 66 38 67 39 68 40 69 64 70 65 71 73 72 66 73 68 74
REMARK SMILES IDX 74 75 67 76 69 77 70 78 71 79 72 80 49 81 50 82 58 83 51 84
REMARK SMILES IDX 53 85 59 86 52 87 54 88 55 89 56 90 57 91
REMARK H PARENT 79 44 47 55
REMARK Flexibility Score: inf
ROOT
ATOM      1  C   UNL A   1      35.074  20.274  25.100  1.00  0.00     0.275 C 
ENDROOT
BRANCH   1   2
ATOM      2  O   UNL A   1      34.166  21.376  24.903  1.00  0.00    -0.458 OA
BRANCH   2   3
ATOM      3  C   UNL A   1      33.714  21.985  26.024  1.00  0.00     0.341 C 
ATOM      4  O   UNL A   1      33.847  21.587  27.171  1.00  0.00    -0.246 OA
BRANCH   3   5
ATOM      5  C   UNL A   1      33.128  23.303  25.717  1.00  0.00     0.095 A 
ATOM      6  C   UNL A   1      32.122  25.857  25.089  1.00  0.00    -0.014 A 
ATOM      7  C   UNL A   1      33.277  25.377  24.462  1.00  0.00     0.010 A 
ATOM      8  C   UNL A   1      31.479  25.043  26.036  1.00  0.00     0.049 A 
ATOM      9  C   UNL A   1      33.795  24.129  24.803  1.00  0.00     0.019 A 
ATOM     10  C   UNL A   1      31.976  23.772  26.336  1.00  0.00     0.138 A 
ATOM     11  F   UNL A   1      31.359  23.057  27.288  1.00  0.00    -0.206 F 
BRANCH   6  12
ATOM     12  C   UNL A   1      31.701  27.240  24.853  1.00  0.00     0.001 A 
ATOM     13  C   UNL A   1      30.095  28.727  23.764  1.00  0.00     0.060 A 
ATOM     14  C   UNL A   1      30.679  29.831  24.385  1.00  0.00     0.017 A 
ATOM     15  C   UNL A   1      30.598  27.445  24.005  1.00  0.00     0.026 A 
ATOM     16  C   UNL A   1      31.770  29.646  25.242  1.00  0.00     0.022 A 
ATOM     17  C   UNL A   1      32.281  28.362  25.472  1.00  0.00     0.048 A 
ATOM     18  Cl  UNL A   1      33.635  28.213  26.535  1.00  0.00    -0.084 Cl
BRANCH  13  19
ATOM     19  C   UNL A   1      28.937  28.835  22.848  1.00  0.00     0.337 C 
ATOM     20  O   UNL A   1      27.867  28.297  23.049  1.00  0.00    -0.246 OA
BRANCH  19  21
ATOM     21  O   UNL A   1      29.300  29.517  21.731  1.00  0.00    -0.465 OA
ATOM     22  C   UNL A   1      28.311  30.452  21.303  1.00  0.00     0.282 C 
ENDBRANCH  19  21
ENDBRANCH  13  19
ENDBRANCH   6  12
ENDBRANCH   3   5
ENDBRANCH   2   3
ENDBRANCH   1   2
BRANCH   1  23
ATOM     23  C   UNL A   1      36.494  20.658  24.688  1.00  0.00     0.275 C 
BRANCH  23  24
ATOM     24  O   UNL A   1      37.134  21.414  25.732  1.00  0.00    -0.458 OA
BRANCH  24  25
ATOM     25  C   UNL A   1      38.459  21.187  25.881  1.00  0.00     0.338 C 
ATOM     26  O   UNL A   1      39.095  20.219  25.498  1.00  0.00    -0.246 OA
BRANCH  25  27
ATOM     27  C   UNL A   1      39.094  22.350  26.515  1.00  0.00     0.060 A 
ATOM     28  C   UNL A   1      38.605  23.611  26.193  1.00  0.00     0.016 A 
ATOM     29  C   UNL A   1      40.248  22.223  27.281  1.00  0.00     0.016 A 
ATOM     30  C   UNL A   1      39.326  24.752  26.528  1.00  0.00     0.010 A 
ATOM     31  C   UNL A   1      40.907  23.379  27.724  1.00  0.00     0.010 A 
ATOM     32  C   UNL A   1      40.478  24.659  27.322  1.00  0.00    -0.014 A 
BRANCH  32  33
ATOM     33  C   UNL A   1      41.222  25.889  27.729  1.00  0.00     0.031 A 
ATOM     34  C   UNL A   1      40.547  26.955  28.559  1.00  0.00     0.074 A 
ATOM     35  C   UNL A   1      42.504  26.064  27.347  1.00  0.00     0.049 A 
ATOM     36  N   UNL A   1      40.963  28.162  28.850  1.00  0.00    -0.248 NA
ATOM     37  C   UNL A   1      39.228  26.628  29.129  1.00  0.00     0.031 C 
ATOM     38  C   UNL A   1      43.295  25.110  26.567  1.00  0.00     0.029 A 
ATOM     39  N   UNL A   1      43.374  27.111  27.555  1.00  0.00    -0.354 N 
ATOM     40  C   UNL A   1      39.934  28.760  29.571  1.00  0.00     0.074 A 
ATOM     41  C   UNL A   1      38.874  27.781  29.681  1.00  0.00     0.031 C 
ATOM     42  C   UNL A   1      44.532  25.593  26.392  1.00  0.00     0.029 A 
ATOM     43  C   UNL A   1      44.600  26.935  26.954  1.00  0.00     0.049 A 
ATOM     44  H   UNL A   1      43.140  27.909  28.083  1.00  0.00     0.167 HD
ATOM     45  C   UNL A   1      39.884  30.006  30.101  1.00  0.00     0.034 A 
ATOM     46  C   UNL A   1      45.650  27.771  26.823  1.00  0.00     0.034 A 
ATOM     47  C   UNL A   1      40.969  30.951  30.048  1.00  0.00     0.049 A 
ATOM     48  C   UNL A   1      45.560  29.152  27.405  1.00  0.00     0.074 A 
ATOM     49  C   UNL A   1      41.017  32.231  30.575  1.00  0.00     0.029 A 
ATOM     50  N   UNL A   1      42.198  30.719  29.450  1.00  0.00    -0.354 N 
ATOM     51  N   UNL A   1      44.584  29.693  28.092  1.00  0.00    -0.248 NA
ATOM     52  C   UNL A   1      46.716  30.037  27.202  1.00  0.00     0.031 C 
ATOM     53  C   UNL A   1      42.268  32.778  30.281  1.00  0.00     0.029 A 
ATOM     54  C   UNL A   1      43.012  31.829  29.599  1.00  0.00     0.049 A 
ATOM     55  H   UNL A   1      42.454  29.888  28.990  1.00  0.00     0.167 HD
ATOM     56  C   UNL A   1      45.019  30.970  28.429  1.00  0.00     0.074 A 
ATOM     57  C   UNL A   1      46.355  31.113  27.889  1.00  0.00     0.031 C 
ATOM     58  C   UNL A   1      44.361  31.939  29.110  1.00  0.00     0.034 A 
BRANCH  45  59
ATOM     59  C   UNL A   1      38.627  30.429  30.821  1.00  0.00     0.023 A 
ATOM     60  C   UNL A   1      38.527  30.253  32.215  1.00  0.00     0.012 A 
ATOM     61  C   UNL A   1      37.597  31.105  30.136  1.00  0.00     0.148 A 
ATOM     62  C   UNL A   1      37.415  30.725  32.913  1.00  0.00     0.002 A 
ATOM     63  C   UNL A   1      36.514  31.614  30.844  1.00  0.00     0.091 A 
ATOM     64  F   UNL A   1      37.703  31.252  28.807  1.00  0.00    -0.205 F 
ATOM     65  C   UNL A   1      36.417  31.416  32.230  1.00  0.00     0.022 A 
BRANCH  63  66
ATOM     66  S   UNL A   1      35.219  32.596  30.074  1.00  0.00     0.127 S 
ATOM     67  O   UNL A   1      34.293  32.789  31.190  1.00  0.00    -0.237 OA
ATOM     68  O   UNL A   1      35.947  33.799  29.671  1.00  0.00    -0.237 OA
ATOM     69  O   UNL A   1      34.704  31.795  28.973  1.00  0.00    -0.744 OA
ENDBRANCH  63  66
ENDBRANCH  45  59
BRANCH  46  70
ATOM     70  C   UNL A   1      46.884  27.307  26.122  1.00  0.00     0.023 A 
ATOM     71  C   UNL A   1      47.074  27.642  24.768  1.00  0.00     0.012 A 
ATOM     72  C   UNL A   1      47.891  26.591  26.799  1.00  0.00     0.148 A 
ATOM     73  C   UNL A   1      48.236  27.260  24.097  1.00  0.00     0.002 A 
ATOM     74  C   UNL A   1      49.074  26.272  26.143  1.00  0.00     0.091 A 
ATOM     75  F   UNL A   1      47.683  26.262  28.082  1.00  0.00    -0.205 F 
ATOM     76  C   UNL A   1      49.242  26.590  24.788  1.00  0.00     0.022 A 
BRANCH  74  77
ATOM     77  S   UNL A   1      50.481  25.549  26.996  1.00  0.00     0.127 S 
ATOM     78  O   UNL A   1      50.810  26.589  27.967  1.00  0.00    -0.237 OA
ATOM     79  O   UNL A   1      49.898  24.335  27.567  1.00  0.00    -0.237 OA
ATOM     80  O   UNL A   1      51.483  25.305  25.966  1.00  0.00    -0.744 OA
ENDBRANCH  74  77
ENDBRANCH  46  70
BRANCH  58  81
ATOM     81  C   UNL A   1      45.083  33.237  29.359  1.00  0.00     0.023 A 
ATOM     82  C   UNL A   1      45.877  33.388  30.513  1.00  0.00     0.012 A 
ATOM     83  C   UNL A   1      45.056  34.266  28.395  1.00  0.00     0.148 A 
ATOM     84  C   UNL A   1      46.614  34.554  30.716  1.00  0.00     0.002 A 
ATOM     85  C   UNL A   1      45.833  35.402  28.581  1.00  0.00     0.091 A 
ATOM     86  F   UNL A   1      44.279  34.109  27.314  1.00  0.00    -0.205 F 
ATOM     87  C   UNL A   1      46.603  35.554  29.744  1.00  0.00     0.022 A 
BRANCH  85  88
ATOM     88  S   UNL A   1      45.964  36.693  27.338  1.00  0.00     0.127 S 
ATOM     89  O   UNL A   1      44.604  37.228  27.319  1.00  0.00    -0.237 OA
ATOM     90  O   UNL A   1      46.964  37.587  27.924  1.00  0.00    -0.237 OA
ATOM     91  O   UNL A   1      46.390  36.031  26.112  1.00  0.00    -0.744 OA
ENDBRANCH  85  88
ENDBRANCH  58  81
ENDBRANCH  32  33
ENDBRANCH  25  27
ENDBRANCH  24  25
ENDBRANCH  23  24
ENDBRANCH   1  23
TORSDOF 17
ENDMDL
MODEL 3
REMARK VINA RESULT:     -12.3      1.632      2.013
REMARK SMILES COC(=O)c1ccc(Cl)c(-c2ccc(C(=O)OCCOC(=O)c3ccc(-c4c5nc(c(-c6cccc(S(=O)(=O)[O-])c6F)c6ccc([nH]6)c(-c6cccc(S(=O)(=O)[O-])c6F)c6nc(c(-c7cccc(S(=O)(=O)[O-])c7F)c7ccc4[nH]7)C=C6)C=C5)cc3)c(F)c2)c1
REMARK SMILES IDX 18 1 17 2 15 3 16 4 14 5 11 6 12 7 88 8 13 9 86 10 87 11
REMARK SMILES IDX 10 12 5 13 6 14 89 15 7 16 8 17 9 18 3 19 4 20 2 21 1 22
REMARK SMILES IDX 19 23 20 24 21 25 22 26 23 27 24 28 85 29 25 30 84 31 26 32
REMARK SMILES IDX 27 33 28 34 78 35 29 36 83 37 77 38 79 39 30 40 82 41 76 42
REMARK SMILES IDX 75 43 31 45 63 46 43 47 62 48 44 49 47 50 61 51 80 52 45 53
REMARK SMILES IDX 46 54 60 56 81 57 48 58 32 59 33 60 41 61 34 62 36 63 42 64
REMARK SMILES IDX 35 65 37 66 38 67 39 68 40 69 64 70 65 71 73 72 66 73 68 74
REMARK SMILES IDX 74 75 67 76 69 77 70 78 71 79 72 80 49 81 50 82 58 83 51 84
REMARK SMILES IDX 53 85 59 86 52 87 54 88 55 89 56 90 57 91
REMARK H PARENT 79 44 47 55
REMARK Flexibility Score: inf
ROOT
ATOM      1  C   UNL A   1      30.986  29.404  24.492  1.00  0.00     0.275 C 
ENDROOT
BRANCH   1   2
ATOM      2  O   UNL A   1      31.036  28.405  23.454  1.00  0.00    -0.458 OA
BRANCH   2   3
ATOM      3  C   UNL A   1      30.292  27.293  23.660  1.00  0.00     0.341 C 
ATOM      4  O   UNL A   1      29.083  27.192  23.520  1.00  0.00    -0.246 OA
BRANCH   3   5
ATOM      5  C   UNL A   1      31.144  26.128  23.960  1.00  0.00     0.095 A 
ATOM      6  C   UNL A   1      32.747  23.858  24.418  1.00  0.00    -0.014 A 
ATOM      7  C   UNL A   1      32.470  24.278  23.112  1.00  0.00     0.010 A 
ATOM      8  C   UNL A   1      32.208  24.587  25.491  1.00  0.00     0.049 A 
ATOM      9  C   UNL A   1      31.646  25.378  22.887  1.00  0.00     0.019 A 
ATOM     10  C   UNL A   1      31.423  25.719  25.259  1.00  0.00     0.138 A 
ATOM     11  F   UNL A   1      30.884  26.347  26.314  1.00  0.00    -0.206 F 
BRANCH   6  12
ATOM     12  C   UNL A   1      33.461  22.596  24.629  1.00  0.00     0.001 A 
ATOM     13  C   UNL A   1      33.384  20.158  24.476  1.00  0.00     0.060 A 
ATOM     14  C   UNL A   1      34.723  20.081  24.865  1.00  0.00     0.017 A 
ATOM     15  C   UNL A   1      32.766  21.405  24.352  1.00  0.00     0.026 A 
ATOM     16  C   UNL A   1      35.433  21.255  25.135  1.00  0.00     0.022 A 
ATOM     17  C   UNL A   1      34.807  22.504  25.022  1.00  0.00     0.048 A 
ATOM     18  Cl  UNL A   1      35.747  23.910  25.380  1.00  0.00    -0.084 Cl
BRANCH  13  19
ATOM     19  C   UNL A   1      32.564  18.964  24.169  1.00  0.00     0.337 C 
ATOM     20  O   UNL A   1      32.174  18.685  23.053  1.00  0.00    -0.246 OA
BRANCH  19  21
ATOM     21  O   UNL A   1      32.236  18.326  25.322  1.00  0.00    -0.465 OA
ATOM     22  C   UNL A   1      32.467  16.919  25.265  1.00  0.00     0.282 C 
ENDBRANCH  19  21
ENDBRANCH  13  19
ENDBRANCH   6  12
ENDBRANCH   3   5
ENDBRANCH   2   3
ENDBRANCH   1   2
BRANCH   1  23
ATOM     23  C   UNL A   1      32.385  29.703  25.027  1.00  0.00     0.275 C 
BRANCH  23  24
ATOM     24  O   UNL A   1      32.351  29.877  26.455  1.00  0.00    -0.458 OA
BRANCH  24  25
ATOM     25  C   UNL A   1      32.840  31.054  26.907  1.00  0.00     0.338 C 
ATOM     26  O   UNL A   1      32.256  32.123  26.977  1.00  0.00    -0.246 OA
BRANCH  25  27
ATOM     27  C   UNL A   1      34.204  30.864  27.416  1.00  0.00     0.060 A 
ATOM     28  C   UNL A   1      34.602  29.571  27.735  1.00  0.00     0.016 A 
ATOM     29  C   UNL A   1      35.022  31.944  27.730  1.00  0.00     0.016 A 
ATOM     30  C   UNL A   1      35.760  29.353  28.475  1.00  0.00     0.010 A 
ATOM     31  C   UNL A   1      36.250  31.712  28.367  1.00  0.00     0.010 A 
ATOM     32  C   UNL A   1      36.619  30.417  28.783  1.00  0.00    -0.014 A 
BRANCH  32  33
ATOM     33  C   UNL A   1      37.890  30.176  29.530  1.00  0.00     0.031 A 
ATOM     34  C   UNL A   1      38.978  29.314  28.935  1.00  0.00     0.074 A 
ATOM     35  C   UNL A   1      38.073  30.719  30.752  1.00  0.00     0.049 A 
ATOM     36  N   UNL A   1      40.060  28.843  29.502  1.00  0.00    -0.248 NA
ATOM     37  C   UNL A   1      38.827  28.921  27.524  1.00  0.00     0.031 C 
ATOM     38  C   UNL A   1      37.122  31.595  31.442  1.00  0.00     0.029 A 
ATOM     39  N   UNL A   1      39.118  30.612  31.641  1.00  0.00    -0.354 N 
ATOM     40  C   UNL A   1      40.678  28.044  28.545  1.00  0.00     0.074 A 
ATOM     41  C   UNL A   1      39.855  28.099  27.356  1.00  0.00     0.031 C 
ATOM     42  C   UNL A   1      37.637  31.970  32.622  1.00  0.00     0.029 A 
ATOM     43  C   UNL A   1      38.906  31.285  32.824  1.00  0.00     0.049 A 
ATOM     44  H   UNL A   1      39.939  30.103  31.449  1.00  0.00     0.167 HD
ATOM     45  C   UNL A   1      41.831  27.340  28.646  1.00  0.00     0.034 A 
ATOM     46  C   UNL A   1      39.621  31.315  33.966  1.00  0.00     0.034 A 
ATOM     47  C   UNL A   1      42.682  27.344  29.807  1.00  0.00     0.049 A 
ATOM     48  C   UNL A   1      40.887  30.510  34.056  1.00  0.00     0.074 A 
ATOM     49  C   UNL A   1      43.881  26.677  29.993  1.00  0.00     0.029 A 
ATOM     50  N   UNL A   1      42.438  28.058  30.970  1.00  0.00    -0.354 N 
ATOM     51  N   UNL A   1      41.459  29.772  33.137  1.00  0.00    -0.248 NA
ATOM     52  C   UNL A   1      41.610  30.547  35.335  1.00  0.00     0.031 C 
ATOM     53  C   UNL A   1      44.353  26.974  31.275  1.00  0.00     0.029 A 
ATOM     54  C   UNL A   1      43.465  27.851  31.875  1.00  0.00     0.049 A 
ATOM     55  H   UNL A   1      41.652  28.628  31.128  1.00  0.00     0.167 HD
ATOM     56  C   UNL A   1      42.623  29.281  33.715  1.00  0.00     0.074 A 
ATOM     57  C   UNL A   1      42.685  29.823  35.057  1.00  0.00     0.031 C 
ATOM     58  C   UNL A   1      43.547  28.443  33.186  1.00  0.00     0.034 A 
BRANCH  45  59
ATOM     59  C   UNL A   1      42.278  26.520  27.460  1.00  0.00     0.023 A 
ATOM     60  C   UNL A   1      43.141  27.087  26.502  1.00  0.00     0.012 A 
ATOM     61  C   UNL A   1      41.934  25.156  27.357  1.00  0.00     0.148 A 
ATOM     62  C   UNL A   1      43.641  26.317  25.452  1.00  0.00     0.002 A 
ATOM     63  C   UNL A   1      42.473  24.384  26.334  1.00  0.00     0.091 A 
ATOM     64  F   UNL A   1      41.100  24.637  28.270  1.00  0.00    -0.205 F 
ATOM     65  C   UNL A   1      43.319  24.965  25.376  1.00  0.00     0.022 A 
BRANCH  63  66
ATOM     66  S   UNL A   1      42.192  22.613  26.198  1.00  0.00     0.127 S 
ATOM     67  O   UNL A   1      42.801  22.122  27.434  1.00  0.00    -0.237 OA
ATOM     68  O   UNL A   1      40.732  22.537  26.166  1.00  0.00    -0.237 OA
ATOM     69  O   UNL A   1      42.853  22.191  24.971  1.00  0.00    -0.744 OA
ENDBRANCH  63  66
ENDBRANCH  45  59
BRANCH  46  70
ATOM     70  C   UNL A   1      39.157  32.155  35.110  1.00  0.00     0.023 A 
ATOM     71  C   UNL A   1      38.256  31.611  36.044  1.00  0.00     0.012 A 
ATOM     72  C   UNL A   1      39.646  33.462  35.309  1.00  0.00     0.148 A 
ATOM     73  C   UNL A   1      37.838  32.356  37.146  1.00  0.00     0.002 A 
ATOM     74  C   UNL A   1      39.277  34.173  36.444  1.00  0.00     0.091 A 
ATOM     75  F   UNL A   1      40.487  33.972  34.398  1.00  0.00    -0.205 F 
ATOM     76  C   UNL A   1      38.360  33.630  37.355  1.00  0.00     0.022 A 
BRANCH  74  77
ATOM     77  S   UNL A   1      40.018  35.754  36.872  1.00  0.00     0.127 S 
ATOM     78  O   UNL A   1      39.617  36.588  35.742  1.00  0.00    -0.237 OA
ATOM     79  O   UNL A   1      39.352  36.067  38.137  1.00  0.00    -0.237 OA
ATOM     80  O   UNL A   1      41.447  35.498  36.994  1.00  0.00    -0.744 OA
ENDBRANCH  74  77
ENDBRANCH  46  70
BRANCH  58  81
ATOM     81  C   UNL A   1      44.739  28.084  34.032  1.00  0.00     0.023 A 
ATOM     82  C   UNL A   1      45.876  28.915  34.031  1.00  0.00     0.012 A 
ATOM     83  C   UNL A   1      44.688  26.979  34.907  1.00  0.00     0.148 A 
ATOM     84  C   UNL A   1      46.955  28.639  34.870  1.00  0.00     0.002 A 
ATOM     85  C   UNL A   1      45.745  26.741  35.776  1.00  0.00     0.091 A 
ATOM     86  F   UNL A   1      43.604  26.191  34.879  1.00  0.00    -0.205 F 
ATOM     87  C   UNL A   1      46.883  27.562  35.751  1.00  0.00     0.022 A 
BRANCH  85  88
ATOM     88  S   UNL A   1      45.698  25.442  37.017  1.00  0.00     0.127 S 
ATOM     89  O   UNL A   1      45.657  24.240  36.188  1.00  0.00    -0.237 OA
ATOM     90  O   UNL A   1      46.960  25.650  37.730  1.00  0.00    -0.237 OA
ATOM     91  O   UNL A   1      44.505  25.691  37.815  1.00  0.00    -0.744 OA
ENDBRANCH  85  88
ENDBRANCH  58  81
ENDBRANCH  32  33
ENDBRANCH  25  27
ENDBRANCH  24  25
ENDBRANCH  23  24
ENDBRANCH   1  23
TORSDOF 17
ENDMDL
