MODEL 1
REMARK VINA RESULT:     -13.6      0.000      0.000
REMARK SMILES CC1(C)O[C@H]2C[C@H]3[C@@H]4CCC5=CC(=O)C=C[C@]5(C)[C@@]4(F)[C@H](O)C[C@@]3(C)[C@@]2(C(=O)OCCOC(=O)c2ccc(-c3c4nc(c(-c5cccc(S(=O)(=O)[O-])c5F)c5ccc([nH]5)c(-c5cccc(S(=O)(=O)[O-])c5F)c5nc(c(-c6cccc(S(=O)(=O)[O-])c6F)c6ccc3[nH]6)C=C5)C=C4)cc2)O1
REMARK SMILES IDX 31 1 30 2 29 3 27 4 28 5 26 6 1 7 2 8 3 9 4 10 98 11 5 12
REMARK SMILES IDX 6 13 24 14 7 15 23 16 25 17 8 18 21 19 9 20 19 21 10 22
REMARK SMILES IDX 17 23 20 24 11 25 16 26 18 27 12 28 15 29 13 30 14 31 22 32
REMARK SMILES IDX 32 34 33 35 34 36 35 37 36 38 97 39 37 40 96 41 38 42 39 43
REMARK SMILES IDX 40 44 90 45 41 46 95 47 89 48 91 49 42 50 94 51 88 52 87 53
REMARK SMILES IDX 43 55 75 56 55 57 74 58 56 59 59 60 73 61 92 62 57 63 58 64
REMARK SMILES IDX 72 66 93 67 60 68 44 69 45 70 53 71 46 72 48 73 54 74 47 75
REMARK SMILES IDX 49 76 50 77 51 78 52 79 76 80 77 81 85 82 78 83 80 84 86 85
REMARK SMILES IDX 79 86 81 87 82 88 83 89 84 90 61 91 62 92 70 93 63 94 65 95
REMARK SMILES IDX 71 96 64 97 66 98 67 99 68 100 69 101
REMARK H PARENT 22 33 91 54 59 65
REMARK Flexibility Score: inf
ROOT
ATOM      1  C   UNL A   1      31.785  31.040  26.476  1.00  0.00     0.275 C 
ENDROOT
BRANCH   1   2
ATOM      2  C   UNL A   1      31.848  30.034  25.335  1.00  0.00     0.274 C 
BRANCH   2   3
ATOM      3  O   UNL A   1      31.209  28.805  25.726  1.00  0.00    -0.460 OA
BRANCH   3   4
ATOM      4  C   UNL A   1      32.010  27.726  25.988  1.00  0.00     0.342 C 
ATOM      5  O   UNL A   1      32.818  27.652  26.898  1.00  0.00    -0.249 OA
BRANCH   4   6
ATOM      6  C   UNL A   1      31.830  26.679  24.887  1.00  0.00     0.200 C 
ATOM      7  C   UNL A   1      33.269  25.660  21.872  1.00  0.00     0.075 C 
ATOM      8  C   UNL A   1      33.076  26.817  22.880  1.00  0.00     0.165 C 
ATOM      9  C   UNL A   1      34.236  27.766  22.617  1.00  0.00     0.075 C 
ATOM     10  O   UNL A   1      31.819  27.448  22.636  1.00  0.00    -0.344 OA
ATOM     11  O   UNL A   1      33.126  26.377  24.262  1.00  0.00    -0.329 OA
ATOM     12  C   UNL A   1      30.923  27.020  23.672  1.00  0.00     0.166 C 
ATOM     13  C   UNL A   1      30.199  25.652  23.262  1.00  0.00     0.040 C 
ATOM     14  C   UNL A   1      31.108  25.395  25.486  1.00  0.00     0.016 C 
ATOM     15  C   UNL A   1      30.947  24.641  24.150  1.00  0.00     0.008 C 
ATOM     16  C   UNL A   1      31.828  24.589  26.566  1.00  0.00     0.046 C 
ATOM     17  C   UNL A   1      29.740  25.798  26.124  1.00  0.00     0.015 C 
ATOM     18  C   UNL A   1      31.507  23.227  23.895  1.00  0.00     0.035 C 
ATOM     19  C   UNL A   1      32.795  23.539  26.060  1.00  0.00     0.154 C 
ATOM     20  C   UNL A   1      30.745  22.320  22.949  1.00  0.00     0.012 C 
ATOM     21  C   UNL A   1      32.092  22.496  25.123  1.00  0.00     0.152 C 
ATOM     22  C   UNL A   1      31.778  21.370  22.325  1.00  0.00     0.032 C 
ATOM     23  C   UNL A   1      33.062  21.324  24.650  1.00  0.00     0.044 C 
ATOM     24  F   UNL A   1      31.028  21.954  25.796  1.00  0.00    -0.239 F 
ATOM     25  C   UNL A   1      32.575  20.606  23.361  1.00  0.00    -0.053 C 
ATOM     26  C   UNL A   1      33.272  20.283  25.750  1.00  0.00    -0.009 C 
ATOM     27  C   UNL A   1      34.480  21.895  24.336  1.00  0.00     0.024 C 
ATOM     28  C   UNL A   1      32.900  19.322  23.110  1.00  0.00     0.052 C 
ATOM     29  C   UNL A   1      33.562  18.996  25.509  1.00  0.00     0.048 C 
ATOM     30  C   UNL A   1      33.603  18.501  24.119  1.00  0.00     0.178 C 
ATOM     31  O   UNL A   1      34.131  17.435  23.828  1.00  0.00    -0.290 OA
BRANCH  19  32
ATOM     32  O   UNL A   1      33.384  22.923  27.210  1.00  0.00    -0.390 OA
ATOM     33  H   UNL A   1      32.801  23.045  27.976  1.00  0.00     0.211 HD
ENDBRANCH  19  32
ENDBRANCH   4   6
ENDBRANCH   3   4
ENDBRANCH   2   3
ENDBRANCH   1   2
BRANCH   1  34
ATOM     34  O   UNL A   1      32.925  30.821  27.328  1.00  0.00    -0.458 OA
BRANCH  34  35
ATOM     35  C   UNL A   1      33.662  31.902  27.617  1.00  0.00     0.338 C 
ATOM     36  O   UNL A   1      33.314  33.082  27.561  1.00  0.00    -0.246 OA
BRANCH  35  37
ATOM     37  C   UNL A   1      34.985  31.476  28.096  1.00  0.00     0.060 A 
ATOM     38  C   UNL A   1      35.162  30.167  28.562  1.00  0.00     0.016 A 
ATOM     39  C   UNL A   1      36.014  32.408  28.228  1.00  0.00     0.016 A 
ATOM     40  C   UNL A   1      36.326  29.805  29.224  1.00  0.00     0.010 A 
ATOM     41  C   UNL A   1      37.221  32.009  28.802  1.00  0.00     0.010 A 
ATOM     42  C   UNL A   1      37.381  30.714  29.326  1.00  0.00    -0.014 A 
BRANCH  42  43
ATOM     43  C   UNL A   1      38.644  30.325  29.999  1.00  0.00     0.031 A 
ATOM     44  C   UNL A   1      39.566  29.343  29.336  1.00  0.00     0.074 A 
ATOM     45  C   UNL A   1      38.943  30.831  31.211  1.00  0.00     0.049 A 
ATOM     46  N   UNL A   1      40.571  28.683  29.846  1.00  0.00    -0.248 NA
ATOM     47  C   UNL A   1      39.318  29.057  27.912  1.00  0.00     0.031 C 
ATOM     48  C   UNL A   1      38.154  31.834  31.933  1.00  0.00     0.029 A 
ATOM     49  N   UNL A   1      39.982  30.553  32.063  1.00  0.00    -0.354 N 
ATOM     50  C   UNL A   1      41.034  27.855  28.831  1.00  0.00     0.074 A 
ATOM     51  C   UNL A   1      40.209  28.106  27.668  1.00  0.00     0.031 C 
ATOM     52  C   UNL A   1      38.732  32.083  33.117  1.00  0.00     0.029 A 
ATOM     53  C   UNL A   1      39.881  31.200  33.274  1.00  0.00     0.049 A 
ATOM     54  H   UNL A   1      40.725  29.951  31.831  1.00  0.00     0.167 HD
ATOM     55  C   UNL A   1      42.059  26.972  28.868  1.00  0.00     0.034 A 
ATOM     56  C   UNL A   1      40.600  31.057  34.403  1.00  0.00     0.034 A 
ATOM     57  C   UNL A   1      42.904  26.774  30.015  1.00  0.00     0.049 A 
ATOM     58  C   UNL A   1      41.716  30.050  34.425  1.00  0.00     0.074 A 
ATOM     59  C   UNL A   1      43.960  25.894  30.167  1.00  0.00     0.029 A 
ATOM     60  N   UNL A   1      42.800  27.485  31.202  1.00  0.00    -0.354 N 
ATOM     61  N   UNL A   1      42.143  29.273  33.460  1.00  0.00    -0.248 NA
ATOM     62  C   UNL A   1      42.452  29.906  35.687  1.00  0.00     0.031 C 
ATOM     63  C   UNL A   1      44.499  26.076  31.446  1.00  0.00     0.029 A 
ATOM     64  C   UNL A   1      43.782  27.075  32.086  1.00  0.00     0.049 A 
ATOM     65  H   UNL A   1      42.128  28.180  31.387  1.00  0.00     0.167 HD
ATOM     66  C   UNL A   1      43.215  28.565  33.988  1.00  0.00     0.074 A 
ATOM     67  C   UNL A   1      43.388  29.027  35.351  1.00  0.00     0.031 C 
ATOM     68  C   UNL A   1      43.973  27.601  33.412  1.00  0.00     0.034 A 
BRANCH  55  69
ATOM     69  C   UNL A   1      42.343  26.173  27.625  1.00  0.00     0.023 A 
ATOM     70  C   UNL A   1      43.054  26.769  26.565  1.00  0.00     0.012 A 
ATOM     71  C   UNL A   1      41.960  24.820  27.529  1.00  0.00     0.148 A 
ATOM     72  C   UNL A   1      43.362  26.037  25.418  1.00  0.00     0.002 A 
ATOM     73  C   UNL A   1      42.302  24.088  26.398  1.00  0.00     0.091 A 
ATOM     74  F   UNL A   1      41.262  24.279  28.538  1.00  0.00    -0.205 F 
ATOM     75  C   UNL A   1      42.997  24.696  25.339  1.00  0.00     0.022 A 
BRANCH  73  76
ATOM     76  S   UNL A   1      41.933  22.337  26.229  1.00  0.00     0.127 S 
ATOM     77  O   UNL A   1      42.652  22.002  25.001  1.00  0.00    -0.237 OA
ATOM     78  O   UNL A   1      42.515  21.778  27.449  1.00  0.00    -0.237 OA
ATOM     79  O   UNL A   1      40.482  22.239  26.150  1.00  0.00    -0.744 OA
ENDBRANCH  73  76
ENDBRANCH  55  69
BRANCH  56  80
ATOM     80  C   UNL A   1      40.286  31.887  35.601  1.00  0.00     0.023 A 
ATOM     81  C   UNL A   1      41.117  32.978  35.920  1.00  0.00     0.012 A 
ATOM     82  C   UNL A   1      39.160  31.627  36.405  1.00  0.00     0.148 A 
ATOM     83  C   UNL A   1      40.848  33.776  37.033  1.00  0.00     0.002 A 
ATOM     84  C   UNL A   1      38.863  32.463  37.476  1.00  0.00     0.091 A 
ATOM     85  F   UNL A   1      38.391  30.569  36.109  1.00  0.00    -0.205 F 
ATOM     86  C   UNL A   1      39.714  33.528  37.803  1.00  0.00     0.022 A 
BRANCH  84  87
ATOM     87  S   UNL A   1      37.339  32.284  38.412  1.00  0.00     0.127 S 
ATOM     88  O   UNL A   1      37.705  32.863  39.701  1.00  0.00    -0.237 OA
ATOM     89  O   UNL A   1      36.393  33.078  37.627  1.00  0.00    -0.237 OA
ATOM     90  O   UNL A   1      37.059  30.854  38.403  1.00  0.00    -0.744 OA
ENDBRANCH  84  87
ENDBRANCH  56  80
BRANCH  68  91
ATOM     91  C   UNL A   1      45.079  27.009  34.240  1.00  0.00     0.023 A 
ATOM     92  C   UNL A   1      46.361  27.593  34.206  1.00  0.00     0.012 A 
ATOM     93  C   UNL A   1      44.834  25.918  35.097  1.00  0.00     0.148 A 
ATOM     94  C   UNL A   1      47.390  27.082  34.995  1.00  0.00     0.002 A 
ATOM     95  C   UNL A   1      45.854  25.441  35.909  1.00  0.00     0.091 A 
ATOM     96  F   UNL A   1      43.613  25.364  35.094  1.00  0.00    -0.205 F 
ATOM     97  C   UNL A   1      47.134  26.016  35.854  1.00  0.00     0.022 A 
BRANCH  95  98
ATOM     98  S   UNL A   1      45.587  24.127  37.104  1.00  0.00     0.127 S 
ATOM     99  O   UNL A   1      44.511  24.684  37.924  1.00  0.00    -0.237 OA
ATOM    100  O   UNL A   1      45.188  23.006  36.254  1.00  0.00    -0.237 OA
ATOM    101  O   UNL A   1      46.863  23.942  37.782  1.00  0.00    -0.744 OA
ENDBRANCH  95  98
ENDBRANCH  68  91
ENDBRANCH  42  43
ENDBRANCH  35  37
ENDBRANCH  34  35
ENDBRANCH   1  34
TORSDOF 15
ENDMDL
MODEL 2
REMARK VINA RESULT:     -13.6      5.001     10.174
REMARK SMILES CC1(C)O[C@H]2C[C@H]3[C@@H]4CCC5=CC(=O)C=C[C@]5(C)[C@@]4(F)[C@H](O)C[C@@]3(C)[C@@]2(C(=O)OCCOC(=O)c2ccc(-c3c4nc(c(-c5cccc(S(=O)(=O)[O-])c5F)c5ccc([nH]5)c(-c5cccc(S(=O)(=O)[O-])c5F)c5nc(c(-c6cccc(S(=O)(=O)[O-])c6F)c6ccc3[nH]6)C=C5)C=C4)cc2)O1
REMARK SMILES IDX 31 1 30 2 29 3 27 4 28 5 26 6 1 7 2 8 3 9 4 10 98 11 5 12
REMARK SMILES IDX 6 13 24 14 7 15 23 16 25 17 8 18 21 19 9 20 19 21 10 22
REMARK SMILES IDX 17 23 20 24 11 25 16 26 18 27 12 28 15 29 13 30 14 31 22 32
REMARK SMILES IDX 32 34 33 35 34 36 35 37 36 38 97 39 37 40 96 41 38 42 39 43
REMARK SMILES IDX 40 44 90 45 41 46 95 47 89 48 91 49 42 50 94 51 88 52 87 53
REMARK SMILES IDX 43 55 75 56 55 57 74 58 56 59 59 60 73 61 92 62 57 63 58 64
REMARK SMILES IDX 72 66 93 67 60 68 44 69 45 70 53 71 46 72 48 73 54 74 47 75
REMARK SMILES IDX 49 76 50 77 51 78 52 79 76 80 77 81 85 82 78 83 80 84 86 85
REMARK SMILES IDX 79 86 81 87 82 88 83 89 84 90 61 91 62 92 70 93 63 94 65 95
REMARK SMILES IDX 71 96 64 97 66 98 67 99 68 100 69 101
REMARK H PARENT 22 33 91 54 59 65
REMARK Flexibility Score: inf
ROOT
ATOM      1  C   UNL A   1      37.407  20.646  24.999  1.00  0.00     0.275 C 
ENDROOT
BRANCH   1   2
ATOM      2  C   UNL A   1      36.015  21.103  25.409  1.00  0.00     0.274 C 
BRANCH   2   3
ATOM      3  O   UNL A   1      35.278  21.535  24.250  1.00  0.00    -0.460 OA
BRANCH   3   4
ATOM      4  C   UNL A   1      35.099  22.881  24.075  1.00  0.00     0.342 C 
ATOM      5  O   UNL A   1      35.992  23.698  23.924  1.00  0.00    -0.249 OA
BRANCH   4   6
ATOM      6  C   UNL A   1      33.614  23.221  24.224  1.00  0.00     0.200 C 
ATOM      7  C   UNL A   1      31.245  23.927  26.691  1.00  0.00     0.075 C 
ATOM      8  C   UNL A   1      32.598  23.255  26.361  1.00  0.00     0.165 C 
ATOM      9  C   UNL A   1      33.326  23.160  27.693  1.00  0.00     0.075 C 
ATOM     10  O   UNL A   1      32.358  21.963  25.804  1.00  0.00    -0.344 OA
ATOM     11  O   UNL A   1      33.403  24.029  25.434  1.00  0.00    -0.329 OA
ATOM     12  C   UNL A   1      32.594  22.060  24.392  1.00  0.00     0.166 C 
ATOM     13  C   UNL A   1      31.267  22.524  23.627  1.00  0.00     0.040 C 
ATOM     14  C   UNL A   1      33.093  23.927  22.898  1.00  0.00     0.016 C 
ATOM     15  C   UNL A   1      31.606  23.990  23.302  1.00  0.00     0.008 C 
ATOM     16  C   UNL A   1      33.685  25.282  22.512  1.00  0.00     0.046 C 
ATOM     17  C   UNL A   1      33.349  23.005  21.664  1.00  0.00     0.015 C 
ATOM     18  C   UNL A   1      30.794  25.299  23.370  1.00  0.00     0.035 C 
ATOM     19  C   UNL A   1      33.027  26.487  23.151  1.00  0.00     0.154 C 
ATOM     20  C   UNL A   1      29.313  25.235  23.052  1.00  0.00     0.012 C 
ATOM     21  C   UNL A   1      31.494  26.562  22.823  1.00  0.00     0.152 C 
ATOM     22  C   UNL A   1      28.645  26.370  23.844  1.00  0.00     0.032 C 
ATOM     23  C   UNL A   1      30.793  27.870  23.403  1.00  0.00     0.044 C 
ATOM     24  F   UNL A   1      31.338  26.535  21.462  1.00  0.00    -0.239 F 
ATOM     25  C   UNL A   1      29.253  27.726  23.554  1.00  0.00    -0.053 C 
ATOM     26  C   UNL A   1      31.095  29.101  22.549  1.00  0.00    -0.009 C 
ATOM     27  C   UNL A   1      31.353  28.195  24.823  1.00  0.00     0.024 C 
ATOM     28  C   UNL A   1      28.440  28.799  23.492  1.00  0.00     0.052 C 
ATOM     29  C   UNL A   1      30.277  30.159  22.456  1.00  0.00     0.048 C 
ATOM     30  C   UNL A   1      28.963  30.133  23.129  1.00  0.00     0.178 C 
ATOM     31  O   UNL A   1      28.313  31.153  23.315  1.00  0.00    -0.290 OA
BRANCH  19  32
ATOM     32  O   UNL A   1      33.735  27.643  22.692  1.00  0.00    -0.390 OA
ATOM     33  H   UNL A   1      33.171  28.150  22.088  1.00  0.00     0.211 HD
ENDBRANCH  19  32
ENDBRANCH   4   6
ENDBRANCH   3   4
ENDBRANCH   2   3
ENDBRANCH   1   2
BRANCH   1  34
ATOM     34  O   UNL A   1      38.331  21.712  25.290  1.00  0.00    -0.458 OA
BRANCH  34  35
ATOM     35  C   UNL A   1      39.332  21.412  26.130  1.00  0.00     0.338 C 
ATOM     36  O   UNL A   1      39.815  20.301  26.354  1.00  0.00    -0.246 OA
BRANCH  35  37
ATOM     37  C   UNL A   1      39.849  22.649  26.733  1.00  0.00     0.060 A 
ATOM     38  C   UNL A   1      39.455  23.888  26.211  1.00  0.00     0.016 A 
ATOM     39  C   UNL A   1      40.840  22.589  27.712  1.00  0.00     0.016 A 
ATOM     40  C   UNL A   1      40.095  25.055  26.605  1.00  0.00     0.010 A 
ATOM     41  C   UNL A   1      41.406  23.775  28.179  1.00  0.00     0.010 A 
ATOM     42  C   UNL A   1      41.057  25.015  27.615  1.00  0.00    -0.014 A 
BRANCH  42  43
ATOM     43  C   UNL A   1      41.719  26.261  28.071  1.00  0.00     0.031 A 
ATOM     44  C   UNL A   1      40.926  27.291  28.822  1.00  0.00     0.074 A 
ATOM     45  C   UNL A   1      43.017  26.476  27.784  1.00  0.00     0.049 A 
ATOM     46  N   UNL A   1      41.229  28.534  29.084  1.00  0.00    -0.248 NA
ATOM     47  C   UNL A   1      39.612  26.870  29.339  1.00  0.00     0.031 C 
ATOM     48  C   UNL A   1      43.908  25.528  27.108  1.00  0.00     0.029 A 
ATOM     49  N   UNL A   1      43.811  27.573  28.004  1.00  0.00    -0.354 N 
ATOM     50  C   UNL A   1      40.121  29.065  29.734  1.00  0.00     0.074 A 
ATOM     51  C   UNL A   1      39.143  28.004  29.842  1.00  0.00     0.031 C 
ATOM     52  C   UNL A   1      45.119  26.084  26.964  1.00  0.00     0.029 A 
ATOM     53  C   UNL A   1      45.070  27.453  27.460  1.00  0.00     0.049 A 
ATOM     54  H   UNL A   1      43.510  28.367  28.502  1.00  0.00     0.167 HD
ATOM     55  C   UNL A   1      39.944  30.321  30.203  1.00  0.00     0.034 A 
ATOM     56  C   UNL A   1      46.054  28.361  27.326  1.00  0.00     0.034 A 
ATOM     57  C   UNL A   1      40.948  31.350  30.137  1.00  0.00     0.049 A 
ATOM     58  C   UNL A   1      45.821  29.757  27.832  1.00  0.00     0.074 A 
ATOM     59  C   UNL A   1      40.868  32.662  30.566  1.00  0.00     0.029 A 
ATOM     60  N   UNL A   1      42.225  31.173  29.625  1.00  0.00    -0.354 N 
ATOM     61  N   UNL A   1      44.770  30.247  28.445  1.00  0.00    -0.248 NA
ATOM     62  C   UNL A   1      46.909  30.723  27.637  1.00  0.00     0.031 C 
ATOM     63  C   UNL A   1      42.100  33.278  30.318  1.00  0.00     0.029 A 
ATOM     64  C   UNL A   1      42.948  32.346  29.741  1.00  0.00     0.049 A 
ATOM     65  H   UNL A   1      42.566  30.334  29.238  1.00  0.00     0.167 HD
ATOM     66  C   UNL A   1      45.079  31.571  28.731  1.00  0.00     0.074 A 
ATOM     67  C   UNL A   1      46.427  31.797  28.248  1.00  0.00     0.031 C 
ATOM     68  C   UNL A   1      44.311  32.523  29.314  1.00  0.00     0.034 A 
BRANCH  55  69
ATOM     69  C   UNL A   1      38.628  30.649  30.854  1.00  0.00     0.023 A 
ATOM     70  C   UNL A   1      38.431  30.339  32.215  1.00  0.00     0.012 A 
ATOM     71  C   UNL A   1      37.610  31.315  30.142  1.00  0.00     0.148 A 
ATOM     72  C   UNL A   1      37.234  30.666  32.851  1.00  0.00     0.002 A 
ATOM     73  C   UNL A   1      36.434  31.669  30.792  1.00  0.00     0.091 A 
ATOM     74  F   UNL A   1      37.808  31.577  28.842  1.00  0.00    -0.205 F 
ATOM     75  C   UNL A   1      36.242  31.340  32.144  1.00  0.00     0.022 A 
BRANCH  73  76
ATOM     76  S   UNL A   1      35.123  32.595  29.986  1.00  0.00     0.127 S 
ATOM     77  O   UNL A   1      35.839  33.784  29.529  1.00  0.00    -0.237 OA
ATOM     78  O   UNL A   1      34.710  31.684  28.918  1.00  0.00    -0.237 OA
ATOM     79  O   UNL A   1      34.111  32.829  31.007  1.00  0.00    -0.744 OA
ENDBRANCH  73  76
ENDBRANCH  55  69
BRANCH  56  80
ATOM     80  C   UNL A   1      47.346  27.978  26.688  1.00  0.00     0.023 A 
ATOM     81  C   UNL A   1      48.441  27.632  27.501  1.00  0.00     0.012 A 
ATOM     82  C   UNL A   1      47.490  27.924  25.287  1.00  0.00     0.148 A 
ATOM     83  C   UNL A   1      49.662  27.265  26.934  1.00  0.00     0.002 A 
ATOM     84  C   UNL A   1      48.690  27.499  24.729  1.00  0.00     0.091 A 
ATOM     85  F   UNL A   1      46.449  28.283  24.522  1.00  0.00    -0.205 F 
ATOM     86  C   UNL A   1      49.783  27.186  25.548  1.00  0.00     0.022 A 
BRANCH  84  87
ATOM     87  S   UNL A   1      48.859  27.233  22.959  1.00  0.00     0.127 S 
ATOM     88  O   UNL A   1      50.308  27.261  22.786  1.00  0.00    -0.237 OA
ATOM     89  O   UNL A   1      48.243  25.918  22.779  1.00  0.00    -0.237 OA
ATOM     90  O   UNL A   1      48.113  28.323  22.343  1.00  0.00    -0.744 OA
ENDBRANCH  84  87
ENDBRANCH  56  80
BRANCH  68  91
ATOM     91  C   UNL A   1      44.924  33.883  29.496  1.00  0.00     0.023 A 
ATOM     92  C   UNL A   1      45.624  34.176  30.684  1.00  0.00     0.012 A 
ATOM     93  C   UNL A   1      44.861  34.845  28.470  1.00  0.00     0.148 A 
ATOM     94  C   UNL A   1      46.231  35.418  30.856  1.00  0.00     0.002 A 
ATOM     95  C   UNL A   1      45.503  36.066  28.634  1.00  0.00     0.091 A 
ATOM     96  F   UNL A   1      44.169  34.552  27.360  1.00  0.00    -0.205 F 
ATOM     97  C   UNL A   1      46.181  36.358  29.829  1.00  0.00     0.022 A 
BRANCH  95  98
ATOM     98  S   UNL A   1      45.559  37.297  27.328  1.00  0.00     0.127 S 
ATOM     99  O   UNL A   1      46.329  38.368  27.960  1.00  0.00    -0.237 OA
ATOM    100  O   UNL A   1      46.262  36.589  26.259  1.00  0.00    -0.237 OA
ATOM    101  O   UNL A   1      44.170  37.616  27.024  1.00  0.00    -0.744 OA
ENDBRANCH  95  98
ENDBRANCH  68  91
ENDBRANCH  42  43
ENDBRANCH  35  37
ENDBRANCH  34  35
ENDBRANCH   1  34
TORSDOF 15
ENDMDL
MODEL 3
REMARK VINA RESULT:     -13.3      1.263      1.505
REMARK SMILES CC1(C)O[C@H]2C[C@H]3[C@@H]4CCC5=CC(=O)C=C[C@]5(C)[C@@]4(F)[C@H](O)C[C@@]3(C)[C@@]2(C(=O)OCCOC(=O)c2ccc(-c3c4nc(c(-c5cccc(S(=O)(=O)[O-])c5F)c5ccc([nH]5)c(-c5cccc(S(=O)(=O)[O-])c5F)c5nc(c(-c6cccc(S(=O)(=O)[O-])c6F)c6ccc3[nH]6)C=C5)C=C4)cc2)O1
REMARK SMILES IDX 31 1 30 2 29 3 27 4 28 5 26 6 1 7 2 8 3 9 4 10 98 11 5 12
REMARK SMILES IDX 6 13 24 14 7 15 23 16 25 17 8 18 21 19 9 20 19 21 10 22
REMARK SMILES IDX 17 23 20 24 11 25 16 26 18 27 12 28 15 29 13 30 14 31 22 32
REMARK SMILES IDX 32 34 33 35 34 36 35 37 36 38 97 39 37 40 96 41 38 42 39 43
REMARK SMILES IDX 40 44 90 45 41 46 95 47 89 48 91 49 42 50 94 51 88 52 87 53
REMARK SMILES IDX 43 55 75 56 55 57 74 58 56 59 59 60 73 61 92 62 57 63 58 64
REMARK SMILES IDX 72 66 93 67 60 68 44 69 45 70 53 71 46 72 48 73 54 74 47 75
REMARK SMILES IDX 49 76 50 77 51 78 52 79 76 80 77 81 85 82 78 83 80 84 86 85
REMARK SMILES IDX 79 86 81 87 82 88 83 89 84 90 61 91 62 92 70 93 63 94 65 95
REMARK SMILES IDX 71 96 64 97 66 98 67 99 68 100 69 101
REMARK H PARENT 22 33 91 54 59 65
REMARK Flexibility Score: inf
ROOT
ATOM      1  C   UNL A   1      31.503  30.973  26.042  1.00  0.00     0.275 C 
ENDROOT
BRANCH   1   2
ATOM      2  C   UNL A   1      31.611  29.824  25.050  1.00  0.00     0.274 C 
BRANCH   2   3
ATOM      3  O   UNL A   1      31.021  28.636  25.608  1.00  0.00    -0.460 OA
BRANCH   3   4
ATOM      4  C   UNL A   1      31.853  27.586  25.894  1.00  0.00     0.342 C 
ATOM      5  O   UNL A   1      32.653  27.551  26.814  1.00  0.00    -0.249 OA
BRANCH   4   6
ATOM      6  C   UNL A   1      31.717  26.518  24.808  1.00  0.00     0.200 C 
ATOM      7  C   UNL A   1      33.243  25.476  21.844  1.00  0.00     0.075 C 
ATOM      8  C   UNL A   1      33.006  26.646  22.827  1.00  0.00     0.165 C 
ATOM      9  C   UNL A   1      34.153  27.612  22.573  1.00  0.00     0.075 C 
ATOM     10  O   UNL A   1      31.743  27.249  22.545  1.00  0.00    -0.344 OA
ATOM     11  O   UNL A   1      33.033  26.231  24.217  1.00  0.00    -0.329 OA
ATOM     12  C   UNL A   1      30.831  26.821  23.567  1.00  0.00     0.166 C 
ATOM     13  C   UNL A   1      30.143  25.433  23.165  1.00  0.00     0.040 C 
ATOM     14  C   UNL A   1      31.006  25.230  25.412  1.00  0.00     0.016 C 
ATOM     15  C   UNL A   1      30.890  24.451  24.087  1.00  0.00     0.008 C 
ATOM     16  C   UNL A   1      31.717  24.457  26.522  1.00  0.00     0.046 C 
ATOM     17  C   UNL A   1      29.617  25.618  26.013  1.00  0.00     0.015 C 
ATOM     18  C   UNL A   1      31.481  23.044  23.868  1.00  0.00     0.035 C 
ATOM     19  C   UNL A   1      32.714  23.417  26.056  1.00  0.00     0.154 C 
ATOM     20  C   UNL A   1      30.758  22.107  22.921  1.00  0.00     0.012 C 
ATOM     21  C   UNL A   1      32.052  22.345  25.121  1.00  0.00     0.152 C 
ATOM     22  C   UNL A   1      31.823  21.167  22.337  1.00  0.00     0.032 C 
ATOM     23  C   UNL A   1      33.054  21.184  24.691  1.00  0.00     0.044 C 
ATOM     24  F   UNL A   1      30.984  21.794  25.780  1.00  0.00    -0.239 F 
ATOM     25  C   UNL A   1      32.611  20.435  23.403  1.00  0.00    -0.053 C 
ATOM     26  C   UNL A   1      33.258  20.166  25.812  1.00  0.00    -0.009 C 
ATOM     27  C   UNL A   1      34.468  21.777  24.399  1.00  0.00     0.024 C 
ATOM     28  C   UNL A   1      32.965  19.154  23.182  1.00  0.00     0.052 C 
ATOM     29  C   UNL A   1      33.578  18.881  25.600  1.00  0.00     0.048 C 
ATOM     30  C   UNL A   1      33.660  18.364  24.220  1.00  0.00     0.178 C 
ATOM     31  O   UNL A   1      34.214  17.303  23.959  1.00  0.00    -0.290 OA
BRANCH  19  32
ATOM     32  O   UNL A   1      33.288  22.832  27.230  1.00  0.00    -0.390 OA
ATOM     33  H   UNL A   1      33.754  22.015  26.989  1.00  0.00     0.211 HD
ENDBRANCH  19  32
ENDBRANCH   4   6
ENDBRANCH   3   4
ENDBRANCH   2   3
ENDBRANCH   1   2
BRANCH   1  34
ATOM     34  O   UNL A   1      32.557  30.826  27.012  1.00  0.00    -0.458 OA
BRANCH  34  35
ATOM     35  C   UNL A   1      33.224  31.944  27.333  1.00  0.00     0.338 C 
ATOM     36  O   UNL A   1      32.810  33.103  27.282  1.00  0.00    -0.246 OA
BRANCH  35  37
ATOM     37  C   UNL A   1      34.556  31.588  27.841  1.00  0.00     0.060 A 
ATOM     38  C   UNL A   1      34.799  30.282  28.286  1.00  0.00     0.016 A 
ATOM     39  C   UNL A   1      35.523  32.577  28.022  1.00  0.00     0.016 A 
ATOM     40  C   UNL A   1      35.964  29.976  28.974  1.00  0.00     0.010 A 
ATOM     41  C   UNL A   1      36.736  32.238  28.622  1.00  0.00     0.010 A 
ATOM     42  C   UNL A   1      36.959  30.944  29.125  1.00  0.00    -0.014 A 
BRANCH  42  43
ATOM     43  C   UNL A   1      38.224  30.616  29.825  1.00  0.00     0.031 A 
ATOM     44  C   UNL A   1      39.196  29.661  29.196  1.00  0.00     0.074 A 
ATOM     45  C   UNL A   1      38.482  31.154  31.034  1.00  0.00     0.049 A 
ATOM     46  N   UNL A   1      40.217  29.050  29.734  1.00  0.00    -0.248 NA
ATOM     47  C   UNL A   1      38.985  29.342  27.773  1.00  0.00     0.031 C 
ATOM     48  C   UNL A   1      37.641  32.136  31.724  1.00  0.00     0.029 A 
ATOM     49  N   UNL A   1      39.515  30.932  31.908  1.00  0.00    -0.354 N 
ATOM     50  C   UNL A   1      40.731  28.224  28.741  1.00  0.00     0.074 A 
ATOM     51  C   UNL A   1      39.918  28.423  27.561  1.00  0.00     0.031 C 
ATOM     52  C   UNL A   1      38.188  32.427  32.914  1.00  0.00     0.029 A 
ATOM     53  C   UNL A   1      39.368  31.594  33.106  1.00  0.00     0.049 A 
ATOM     54  H   UNL A   1      40.285  30.356  31.700  1.00  0.00     0.167 HD
ATOM     55  C   UNL A   1      41.789  27.384  28.811  1.00  0.00     0.034 A 
ATOM     56  C   UNL A   1      40.071  31.499  34.249  1.00  0.00     0.034 A 
ATOM     57  C   UNL A   1      42.621  27.239  29.976  1.00  0.00     0.049 A 
ATOM     58  C   UNL A   1      41.225  30.537  34.308  1.00  0.00     0.074 A 
ATOM     59  C   UNL A   1      43.707  26.404  30.161  1.00  0.00     0.029 A 
ATOM     60  N   UNL A   1      42.468  27.964  31.149  1.00  0.00    -0.354 N 
ATOM     61  N   UNL A   1      41.700  29.762  33.364  1.00  0.00    -0.248 NA
ATOM     62  C   UNL A   1      41.944  30.443  35.585  1.00  0.00     0.031 C 
ATOM     63  C   UNL A   1      44.216  26.629  31.446  1.00  0.00     0.029 A 
ATOM     64  C   UNL A   1      43.449  27.609  32.056  1.00  0.00     0.049 A 
ATOM     65  H   UNL A   1      41.765  28.635  31.310  1.00  0.00     0.167 HD
ATOM     66  C   UNL A   1      42.790  29.106  33.923  1.00  0.00     0.074 A 
ATOM     67  C   UNL A   1      42.919  29.597  35.280  1.00  0.00     0.031 C 
ATOM     68  C   UNL A   1      43.595  28.163  33.376  1.00  0.00     0.034 A 
BRANCH  55  69
ATOM     69  C   UNL A   1      42.126  26.576  27.588  1.00  0.00     0.023 A 
ATOM     70  C   UNL A   1      42.820  27.186  26.524  1.00  0.00     0.012 A 
ATOM     71  C   UNL A   1      41.812  25.204  27.514  1.00  0.00     0.148 A 
ATOM     72  C   UNL A   1      43.177  26.449  25.395  1.00  0.00     0.002 A 
ATOM     73  C   UNL A   1      42.202  24.469  26.401  1.00  0.00     0.091 A 
ATOM     74  F   UNL A   1      41.129  24.650  28.525  1.00  0.00    -0.205 F 
ATOM     75  C   UNL A   1      42.879  25.090  25.338  1.00  0.00     0.022 A 
BRANCH  73  76
ATOM     76  S   UNL A   1      41.921  22.699  26.262  1.00  0.00     0.127 S 
ATOM     77  O   UNL A   1      42.597  22.199  27.457  1.00  0.00    -0.237 OA
ATOM     78  O   UNL A   1      40.462  22.613  26.305  1.00  0.00    -0.237 OA
ATOM     79  O   UNL A   1      42.514  22.298  24.993  1.00  0.00    -0.744 OA
ENDBRANCH  73  76
ENDBRANCH  55  69
BRANCH  56  80
ATOM     80  C   UNL A   1      39.704  32.335  35.427  1.00  0.00     0.023 A 
ATOM     81  C   UNL A   1      38.944  31.767  36.467  1.00  0.00     0.012 A 
ATOM     82  C   UNL A   1      40.124  33.675  35.541  1.00  0.00     0.148 A 
ATOM     83  C   UNL A   1      38.587  32.522  37.584  1.00  0.00     0.002 A 
ATOM     84  C   UNL A   1      39.817  34.404  36.685  1.00  0.00     0.091 A 
ATOM     85  F   UNL A   1      40.822  34.216  34.533  1.00  0.00    -0.205 F 
ATOM     86  C   UNL A   1      39.035  33.837  37.700  1.00  0.00     0.022 A 
BRANCH  84  87
ATOM     87  S   UNL A   1      40.490  36.048  36.958  1.00  0.00     0.127 S 
ATOM     88  O   UNL A   1      39.813  36.828  35.926  1.00  0.00    -0.237 OA
ATOM     89  O   UNL A   1      40.065  36.338  38.327  1.00  0.00    -0.237 OA
ATOM     90  O   UNL A   1      41.932  35.893  36.808  1.00  0.00    -0.744 OA
ENDBRANCH  84  87
ENDBRANCH  56  80
BRANCH  68  91
ATOM     91  C   UNL A   1      44.709  27.629  34.234  1.00  0.00     0.023 A 
ATOM     92  C   UNL A   1      45.936  28.320  34.287  1.00  0.00     0.012 A 
ATOM     93  C   UNL A   1      44.519  26.485  35.031  1.00  0.00     0.148 A 
ATOM     94  C   UNL A   1      46.968  27.863  35.105  1.00  0.00     0.002 A 
ATOM     95  C   UNL A   1      45.538  26.059  35.873  1.00  0.00     0.091 A 
ATOM     96  F   UNL A   1      43.352  25.831  34.945  1.00  0.00    -0.205 F 
ATOM     97  C   UNL A   1      46.766  26.741  35.905  1.00  0.00     0.022 A 
BRANCH  95  98
ATOM     98  S   UNL A   1      45.330  24.675  36.998  1.00  0.00     0.127 S 
ATOM     99  O   UNL A   1      44.391  25.223  37.975  1.00  0.00    -0.237 OA
ATOM    100  O   UNL A   1      44.770  23.643  36.126  1.00  0.00    -0.237 OA
ATOM    101  O   UNL A   1      46.662  24.373  37.506  1.00  0.00    -0.744 OA
ENDBRANCH  95  98
ENDBRANCH  68  91
ENDBRANCH  42  43
ENDBRANCH  35  37
ENDBRANCH  34  35
ENDBRANCH   1  34
TORSDOF 15
ENDMDL
