MODEL 1
REMARK VINA RESULT:     -11.6      0.000      0.000
REMARK SMILES COc1ccccc1[C@H]([NH3+])c1nc(C(=O)OCCOC(=O)c2ccc(-c3c4nc(c(-c5cccc(S(=O)(=O)[O-])c5F)c5ccc([nH]5)c(-c5cccc(S(=O)(=O)[O-])c5F)c5nc(c(-c6cccc(S(=O)(=O)[O-])c6F)c6ccc3[nH]6)C=C5)C=C4)cc2)c[nH]1
REMARK SMILES IDX 17 1 16 2 14 3 15 4 13 5 11 6 12 7 86 8 85 9 9 11 8 12 3 13
REMARK SMILES IDX 4 14 5 15 7 16 6 17 2 18 1 19 10 20 18 24 19 25 20 26 21 27
REMARK SMILES IDX 22 28 23 29 84 30 24 31 83 32 25 33 26 34 27 35 77 36 28 37
REMARK SMILES IDX 82 38 76 39 78 40 29 41 81 42 75 43 74 44 30 46 62 47 42 48
REMARK SMILES IDX 61 49 43 50 46 51 60 52 79 53 44 54 45 55 59 57 80 58 47 59
REMARK SMILES IDX 31 60 32 61 40 62 33 63 35 64 41 65 34 66 36 67 37 68 38 69
REMARK SMILES IDX 39 70 63 71 64 72 72 73 65 74 67 75 73 76 66 77 68 78 69 79
REMARK SMILES IDX 70 80 71 81 48 82 49 83 57 84 50 85 52 86 58 87 51 88 53 89
REMARK SMILES IDX 54 90 55 91 56 92
REMARK H PARENT 86 10 10 21 10 22 10 23 78 45 46 56
REMARK Flexibility Score: inf
ROOT
ATOM      1  C   UNL A   1      32.620  28.892  24.893  1.00  0.00     0.275 C 
ENDROOT
BRANCH   1   2
ATOM      2  O   UNL A   1      32.187  28.525  23.571  1.00  0.00    -0.457 OA
BRANCH   2   3
ATOM      3  C   UNL A   1      33.151  27.967  22.776  1.00  0.00     0.358 C 
ATOM      4  O   UNL A   1      34.102  28.582  22.317  1.00  0.00    -0.244 OA
BRANCH   3   5
ATOM      5  C   UNL A   1      32.979  26.525  22.571  1.00  0.00     0.166 A 
ATOM      6  C   UNL A   1      32.925  24.383  22.905  1.00  0.00     0.170 A 
ATOM      7  N   UNL A   1      33.192  25.530  23.513  1.00  0.00    -0.220 NA
ATOM      8  N   UNL A   1      32.608  24.605  21.585  1.00  0.00    -0.342 N 
ATOM      9  C   UNL A   1      32.586  25.949  21.377  1.00  0.00     0.120 A 
ATOM     10  H   UNL A   1      32.428  23.912  20.909  1.00  0.00     0.167 HD
BRANCH   6  11
ATOM     11  C   UNL A   1      32.924  23.002  23.529  1.00  0.00     0.283 C 
BRANCH  11  12
ATOM     12  C   UNL A   1      34.324  22.502  23.890  1.00  0.00     0.059 A 
ATOM     13  C   UNL A   1      34.618  21.351  24.643  1.00  0.00     0.128 A 
ATOM     14  C   UNL A   1      35.943  20.949  24.861  1.00  0.00     0.047 A 
ATOM     15  C   UNL A   1      36.999  21.661  24.298  1.00  0.00     0.004 A 
ATOM     16  C   UNL A   1      35.417  23.214  23.343  1.00  0.00     0.014 A 
ATOM     17  C   UNL A   1      36.736  22.795  23.538  1.00  0.00     0.001 A 
BRANCH  13  18
ATOM     18  O   UNL A   1      33.654  20.619  25.283  1.00  0.00    -0.496 OA
ATOM     19  C   UNL A   1      33.397  21.138  26.589  1.00  0.00     0.278 C 
ENDBRANCH  13  18
ENDBRANCH  11  12
BRANCH  11  20
ATOM     20  N   UNL A   1      32.153  22.103  22.666  1.00  0.00    -0.345 N 
ATOM     21  H   UNL A   1      32.684  21.910  21.817  1.00  0.00     0.345 HD
ATOM     22  H   UNL A   1      31.267  22.546  22.420  1.00  0.00     0.345 HD
ATOM     23  H   UNL A   1      31.971  21.230  23.161  1.00  0.00     0.345 HD
ENDBRANCH  11  20
ENDBRANCH   6  11
ENDBRANCH   3   5
ENDBRANCH   2   3
ENDBRANCH   1   2
BRANCH   1  24
ATOM     24  C   UNL A   1      31.832  30.090  25.430  1.00  0.00     0.275 C 
BRANCH  24  25
ATOM     25  O   UNL A   1      32.114  30.318  26.824  1.00  0.00    -0.458 OA
BRANCH  25  26
ATOM     26  C   UNL A   1      32.740  31.484  27.109  1.00  0.00     0.338 C 
ATOM     27  O   UNL A   1      32.284  32.612  27.021  1.00  0.00    -0.246 OA
BRANCH  26  28
ATOM     28  C   UNL A   1      34.083  31.213  27.641  1.00  0.00     0.060 A 
ATOM     29  C   UNL A   1      34.424  29.893  27.925  1.00  0.00     0.016 A 
ATOM     30  C   UNL A   1      34.943  32.252  27.993  1.00  0.00     0.016 A 
ATOM     31  C   UNL A   1      35.605  29.599  28.598  1.00  0.00     0.010 A 
ATOM     32  C   UNL A   1      36.155  31.953  28.630  1.00  0.00     0.010 A 
ATOM     33  C   UNL A   1      36.487  30.625  28.964  1.00  0.00    -0.014 A 
BRANCH  33  34
ATOM     34  C   UNL A   1      37.723  30.306  29.729  1.00  0.00     0.031 A 
ATOM     35  C   UNL A   1      38.780  29.416  29.126  1.00  0.00     0.074 A 
ATOM     36  C   UNL A   1      37.907  30.816  30.963  1.00  0.00     0.049 A 
ATOM     37  N   UNL A   1      39.868  28.938  29.672  1.00  0.00    -0.248 NA
ATOM     38  C   UNL A   1      38.582  29.003  27.726  1.00  0.00     0.031 C 
ATOM     39  C   UNL A   1      36.973  31.702  31.658  1.00  0.00     0.029 A 
ATOM     40  N   UNL A   1      38.936  30.652  31.858  1.00  0.00    -0.354 N 
ATOM     41  C   UNL A   1      40.451  28.121  28.710  1.00  0.00     0.074 A 
ATOM     42  C   UNL A   1      39.601  28.173  27.541  1.00  0.00     0.031 C 
ATOM     43  C   UNL A   1      37.469  32.005  32.868  1.00  0.00     0.029 A 
ATOM     44  C   UNL A   1      38.725  31.286  33.061  1.00  0.00     0.049 A 
ATOM     45  H   UNL A   1      39.748  30.130  31.659  1.00  0.00     0.167 HD
ATOM     46  C   UNL A   1      41.595  27.399  28.790  1.00  0.00     0.034 A 
ATOM     47  C   UNL A   1      39.438  31.263  34.205  1.00  0.00     0.034 A 
ATOM     48  C   UNL A   1      42.473  27.394  29.931  1.00  0.00     0.049 A 
ATOM     49  C   UNL A   1      40.704  30.453  34.264  1.00  0.00     0.074 A 
ATOM     50  C   UNL A   1      43.678  26.732  30.085  1.00  0.00     0.029 A 
ATOM     51  N   UNL A   1      42.243  28.085  31.111  1.00  0.00    -0.354 N 
ATOM     52  N   UNL A   1      41.276  29.746  33.320  1.00  0.00    -0.248 NA
ATOM     53  C   UNL A   1      41.434  30.454  35.541  1.00  0.00     0.031 C 
ATOM     54  C   UNL A   1      44.169  27.008  31.366  1.00  0.00     0.029 A 
ATOM     55  C   UNL A   1      43.282  27.861  31.999  1.00  0.00     0.049 A 
ATOM     56  H   UNL A   1      41.459  28.651  31.290  1.00  0.00     0.167 HD
ATOM     57  C   UNL A   1      42.444  29.241  33.879  1.00  0.00     0.074 A 
ATOM     58  C   UNL A   1      42.512  29.745  35.235  1.00  0.00     0.031 C 
ATOM     59  C   UNL A   1      43.367  28.416  33.326  1.00  0.00     0.034 A 
BRANCH  46  60
ATOM     60  C   UNL A   1      41.986  26.562  27.600  1.00  0.00     0.023 A 
ATOM     61  C   UNL A   1      42.692  27.149  26.530  1.00  0.00     0.012 A 
ATOM     62  C   UNL A   1      41.718  25.178  27.574  1.00  0.00     0.148 A 
ATOM     63  C   UNL A   1      43.101  26.379  25.442  1.00  0.00     0.002 A 
ATOM     64  C   UNL A   1      42.166  24.409  26.506  1.00  0.00     0.091 A 
ATOM     65  F   UNL A   1      41.030  24.642  28.591  1.00  0.00    -0.205 F 
ATOM     66  C   UNL A   1      42.848  25.010  25.434  1.00  0.00     0.022 A 
BRANCH  64  67
ATOM     67  S   UNL A   1      41.960  22.626  26.441  1.00  0.00     0.127 S 
ATOM     68  O   UNL A   1      42.596  22.302  25.165  1.00  0.00    -0.237 OA
ATOM     69  O   UNL A   1      42.704  22.186  27.621  1.00  0.00    -0.237 OA
ATOM     70  O   UNL A   1      40.525  22.385  26.502  1.00  0.00    -0.744 OA
ENDBRANCH  64  67
ENDBRANCH  46  60
BRANCH  47  71
ATOM     71  C   UNL A   1      38.974  32.044  35.388  1.00  0.00     0.023 A 
ATOM     72  C   UNL A   1      39.128  33.443  35.401  1.00  0.00     0.012 A 
ATOM     73  C   UNL A   1      38.361  31.410  36.487  1.00  0.00     0.148 A 
ATOM     74  C   UNL A   1      38.704  34.194  36.499  1.00  0.00     0.002 A 
ATOM     75  C   UNL A   1      37.885  32.170  37.549  1.00  0.00     0.091 A 
ATOM     76  F   UNL A   1      38.245  30.075  36.468  1.00  0.00    -0.205 F 
ATOM     77  C   UNL A   1      38.071  33.561  37.565  1.00  0.00     0.022 A 
BRANCH  75  78
ATOM     78  S   UNL A   1      36.936  31.448  38.892  1.00  0.00     0.127 S 
ATOM     79  O   UNL A   1      35.733  32.276  38.885  1.00  0.00    -0.237 OA
ATOM     80  O   UNL A   1      36.741  30.076  38.425  1.00  0.00    -0.237 OA
ATOM     81  O   UNL A   1      37.782  31.563  40.072  1.00  0.00    -0.744 OA
ENDBRANCH  75  78
ENDBRANCH  47  71
BRANCH  59  82
ATOM     82  C   UNL A   1      44.555  28.033  34.169  1.00  0.00     0.023 A 
ATOM     83  C   UNL A   1      45.712  28.835  34.155  1.00  0.00     0.012 A 
ATOM     84  C   UNL A   1      44.497  26.917  35.027  1.00  0.00     0.148 A 
ATOM     85  C   UNL A   1      46.806  28.516  34.960  1.00  0.00     0.002 A 
ATOM     86  C   UNL A   1      45.571  26.632  35.861  1.00  0.00     0.091 A 
ATOM     87  F   UNL A   1      43.394  26.154  35.012  1.00  0.00    -0.205 F 
ATOM     88  C   UNL A   1      46.731  27.423  35.820  1.00  0.00     0.022 A 
BRANCH  86  89
ATOM     89  S   UNL A   1      45.525  25.301  37.067  1.00  0.00     0.127 S 
ATOM     90  O   UNL A   1      45.274  24.138  36.218  1.00  0.00    -0.237 OA
ATOM     91  O   UNL A   1      46.869  25.356  37.644  1.00  0.00    -0.237 OA
ATOM     92  O   UNL A   1      44.456  25.640  37.997  1.00  0.00    -0.744 OA
ENDBRANCH  86  89
ENDBRANCH  59  82
ENDBRANCH  33  34
ENDBRANCH  26  28
ENDBRANCH  25  26
ENDBRANCH  24  25
ENDBRANCH   1  24
TORSDOF 18
ENDMDL
MODEL 2
REMARK VINA RESULT:     -11.6      1.524      1.714
REMARK SMILES COc1ccccc1[C@H]([NH3+])c1nc(C(=O)OCCOC(=O)c2ccc(-c3c4nc(c(-c5cccc(S(=O)(=O)[O-])c5F)c5ccc([nH]5)c(-c5cccc(S(=O)(=O)[O-])c5F)c5nc(c(-c6cccc(S(=O)(=O)[O-])c6F)c6ccc3[nH]6)C=C5)C=C4)cc2)c[nH]1
REMARK SMILES IDX 17 1 16 2 14 3 15 4 13 5 11 6 12 7 86 8 85 9 9 11 8 12 3 13
REMARK SMILES IDX 4 14 5 15 7 16 6 17 2 18 1 19 10 20 18 24 19 25 20 26 21 27
REMARK SMILES IDX 22 28 23 29 84 30 24 31 83 32 25 33 26 34 27 35 77 36 28 37
REMARK SMILES IDX 82 38 76 39 78 40 29 41 81 42 75 43 74 44 30 46 62 47 42 48
REMARK SMILES IDX 61 49 43 50 46 51 60 52 79 53 44 54 45 55 59 57 80 58 47 59
REMARK SMILES IDX 31 60 32 61 40 62 33 63 35 64 41 65 34 66 36 67 37 68 38 69
REMARK SMILES IDX 39 70 63 71 64 72 72 73 65 74 67 75 73 76 66 77 68 78 69 79
REMARK SMILES IDX 70 80 71 81 48 82 49 83 57 84 50 85 52 86 58 87 51 88 53 89
REMARK SMILES IDX 54 90 55 91 56 92
REMARK H PARENT 86 10 10 21 10 22 10 23 78 45 46 56
REMARK Flexibility Score: inf
ROOT
ATOM      1  C   UNL A   1      31.059  29.415  24.382  1.00  0.00     0.275 C 
ENDROOT
BRANCH   1   2
ATOM      2  O   UNL A   1      31.789  28.341  23.764  1.00  0.00    -0.457 OA
BRANCH   2   3
ATOM      3  C   UNL A   1      31.146  27.721  22.727  1.00  0.00     0.358 C 
ATOM      4  O   UNL A   1      30.284  28.249  22.041  1.00  0.00    -0.244 OA
BRANCH   3   5
ATOM      5  C   UNL A   1      31.636  26.364  22.462  1.00  0.00     0.166 A 
ATOM      6  C   UNL A   1      32.209  24.288  22.717  1.00  0.00     0.170 A 
ATOM      7  N   UNL A   1      31.702  25.322  23.375  1.00  0.00    -0.220 NA
ATOM      8  N   UNL A   1      32.528  24.650  21.430  1.00  0.00    -0.342 N 
ATOM      9  C   UNL A   1      32.123  25.935  21.240  1.00  0.00     0.120 A 
ATOM     10  H   UNL A   1      32.970  24.079  20.761  1.00  0.00     0.167 HD
BRANCH   6  11
ATOM     11  C   UNL A   1      32.404  22.882  23.248  1.00  0.00     0.283 C 
BRANCH  11  12
ATOM     12  C   UNL A   1      33.746  22.683  23.953  1.00  0.00     0.059 A 
ATOM     13  C   UNL A   1      34.288  21.450  24.359  1.00  0.00     0.128 A 
ATOM     14  C   UNL A   1      35.561  21.377  24.942  1.00  0.00     0.047 A 
ATOM     15  C   UNL A   1      36.335  22.525  25.093  1.00  0.00     0.004 A 
ATOM     16  C   UNL A   1      34.550  23.834  24.133  1.00  0.00     0.014 A 
ATOM     17  C   UNL A   1      35.829  23.754  24.689  1.00  0.00     0.001 A 
BRANCH  13  18
ATOM     18  O   UNL A   1      33.583  20.278  24.304  1.00  0.00    -0.496 OA
ATOM     19  C   UNL A   1      32.951  19.999  25.554  1.00  0.00     0.278 C 
ENDBRANCH  13  18
ENDBRANCH  11  12
BRANCH  11  20
ATOM     20  N   UNL A   1      32.132  21.935  22.163  1.00  0.00    -0.345 N 
ATOM     21  H   UNL A   1      31.232  22.157  21.736  1.00  0.00     0.345 HD
ATOM     22  H   UNL A   1      32.107  20.987  22.538  1.00  0.00     0.345 HD
ATOM     23  H   UNL A   1      32.869  22.004  21.461  1.00  0.00     0.345 HD
ENDBRANCH  11  20
ENDBRANCH   6  11
ENDBRANCH   3   5
ENDBRANCH   2   3
ENDBRANCH   1   2
BRANCH   1  24
ATOM     24  C   UNL A   1      31.543  29.676  25.810  1.00  0.00     0.275 C 
BRANCH  24  25
ATOM     25  O   UNL A   1      32.847  30.290  25.816  1.00  0.00    -0.458 OA
BRANCH  25  26
ATOM     26  C   UNL A   1      33.082  31.147  26.837  1.00  0.00     0.338 C 
ATOM     27  O   UNL A   1      32.315  31.970  27.308  1.00  0.00    -0.246 OA
BRANCH  26  28
ATOM     28  C   UNL A   1      34.420  30.902  27.396  1.00  0.00     0.060 A 
ATOM     29  C   UNL A   1      34.777  29.589  27.696  1.00  0.00     0.016 A 
ATOM     30  C   UNL A   1      35.256  31.957  27.757  1.00  0.00     0.016 A 
ATOM     31  C   UNL A   1      35.950  29.319  28.392  1.00  0.00     0.010 A 
ATOM     32  C   UNL A   1      36.460  31.682  28.419  1.00  0.00     0.010 A 
ATOM     33  C   UNL A   1      36.807  30.362  28.768  1.00  0.00    -0.014 A 
BRANCH  33  34
ATOM     34  C   UNL A   1      38.034  30.068  29.557  1.00  0.00     0.031 A 
ATOM     35  C   UNL A   1      39.095  29.154  28.999  1.00  0.00     0.074 A 
ATOM     36  C   UNL A   1      38.206  30.623  30.774  1.00  0.00     0.049 A 
ATOM     37  N   UNL A   1      40.176  28.695  29.575  1.00  0.00    -0.248 NA
ATOM     38  C   UNL A   1      38.912  28.690  27.614  1.00  0.00     0.031 C 
ATOM     39  C   UNL A   1      37.266  31.536  31.426  1.00  0.00     0.029 A 
ATOM     40  N   UNL A   1      39.225  30.489  31.686  1.00  0.00    -0.354 N 
ATOM     41  C   UNL A   1      40.768  27.841  28.650  1.00  0.00     0.074 A 
ATOM     42  C   UNL A   1      39.930  27.853  27.470  1.00  0.00     0.031 C 
ATOM     43  C   UNL A   1      37.750  31.881  32.629  1.00  0.00     0.029 A 
ATOM     44  C   UNL A   1      39.001  31.168  32.862  1.00  0.00     0.049 A 
ATOM     45  H   UNL A   1      40.037  29.959  31.516  1.00  0.00     0.167 HD
ATOM     46  C   UNL A   1      41.908  27.120  28.770  1.00  0.00     0.034 A 
ATOM     47  C   UNL A   1      39.702  31.185  34.015  1.00  0.00     0.034 A 
ATOM     48  C   UNL A   1      42.773  27.155  29.919  1.00  0.00     0.049 A 
ATOM     49  C   UNL A   1      40.965  30.375  34.118  1.00  0.00     0.074 A 
ATOM     50  C   UNL A   1      43.975  26.496  30.111  1.00  0.00     0.029 A 
ATOM     51  N   UNL A   1      42.533  27.889  31.071  1.00  0.00    -0.354 N 
ATOM     52  N   UNL A   1      41.546  29.632  33.207  1.00  0.00    -0.248 NA
ATOM     53  C   UNL A   1      41.681  30.421  35.402  1.00  0.00     0.031 C 
ATOM     54  C   UNL A   1      44.453  26.818  31.387  1.00  0.00     0.029 A 
ATOM     55  C   UNL A   1      43.560  27.696  31.979  1.00  0.00     0.049 A 
ATOM     56  H   UNL A   1      41.748  28.463  31.221  1.00  0.00     0.167 HD
ATOM     57  C   UNL A   1      42.706  29.145  33.797  1.00  0.00     0.074 A 
ATOM     58  C   UNL A   1      42.760  29.698  35.134  1.00  0.00     0.031 C 
ATOM     59  C   UNL A   1      43.633  28.299  33.285  1.00  0.00     0.034 A 
BRANCH  46  60
ATOM     60  C   UNL A   1      42.311  26.239  27.615  1.00  0.00     0.023 A 
ATOM     61  C   UNL A   1      43.167  26.741  26.614  1.00  0.00     0.012 A 
ATOM     62  C   UNL A   1      41.898  24.892  27.560  1.00  0.00     0.148 A 
ATOM     63  C   UNL A   1      43.585  25.925  25.564  1.00  0.00     0.002 A 
ATOM     64  C   UNL A   1      42.353  24.074  26.533  1.00  0.00     0.091 A 
ATOM     65  F   UNL A   1      41.069  24.439  28.511  1.00  0.00    -0.205 F 
ATOM     66  C   UNL A   1      43.188  24.591  25.528  1.00  0.00     0.022 A 
BRANCH  64  67
ATOM     67  S   UNL A   1      41.963  22.322  26.443  1.00  0.00     0.127 S 
ATOM     68  O   UNL A   1      42.707  21.915  25.252  1.00  0.00    -0.237 OA
ATOM     69  O   UNL A   1      42.509  21.819  27.704  1.00  0.00    -0.237 OA
ATOM     70  O   UNL A   1      40.513  22.239  26.333  1.00  0.00    -0.744 OA
ENDBRANCH  64  67
ENDBRANCH  46  60
BRANCH  47  71
ATOM     71  C   UNL A   1      39.226  32.009  35.163  1.00  0.00     0.023 A 
ATOM     72  C   UNL A   1      38.310  31.460  36.080  1.00  0.00     0.012 A 
ATOM     73  C   UNL A   1      39.695  33.323  35.364  1.00  0.00     0.148 A 
ATOM     74  C   UNL A   1      37.848  32.213  37.161  1.00  0.00     0.002 A 
ATOM     75  C   UNL A   1      39.279  34.045  36.476  1.00  0.00     0.091 A 
ATOM     76  F   UNL A   1      40.548  33.838  34.468  1.00  0.00    -0.205 F 
ATOM     77  C   UNL A   1      38.342  33.498  37.367  1.00  0.00     0.022 A 
BRANCH  75  78
ATOM     78  S   UNL A   1      39.973  35.648  36.890  1.00  0.00     0.127 S 
ATOM     79  O   UNL A   1      39.354  35.917  38.185  1.00  0.00    -0.237 OA
ATOM     80  O   UNL A   1      41.405  35.357  36.941  1.00  0.00    -0.237 OA
ATOM     81  O   UNL A   1      39.582  36.534  35.802  1.00  0.00    -0.744 OA
ENDBRANCH  75  78
ENDBRANCH  47  71
BRANCH  59  82
ATOM     82  C   UNL A   1      44.810  27.944  34.154  1.00  0.00     0.023 A 
ATOM     83  C   UNL A   1      45.929  28.797  34.201  1.00  0.00     0.012 A 
ATOM     84  C   UNL A   1      44.776  26.802  34.979  1.00  0.00     0.148 A 
ATOM     85  C   UNL A   1      47.011  28.504  35.031  1.00  0.00     0.002 A 
ATOM     86  C   UNL A   1      45.836  26.541  35.838  1.00  0.00     0.091 A 
ATOM     87  F   UNL A   1      43.710  25.991  34.906  1.00  0.00    -0.205 F 
ATOM     88  C   UNL A   1      46.959  27.383  35.857  1.00  0.00     0.022 A 
BRANCH  86  89
ATOM     89  S   UNL A   1      45.813  25.173  37.004  1.00  0.00     0.127 S 
ATOM     90  O   UNL A   1      45.826  24.018  36.109  1.00  0.00    -0.237 OA
ATOM     91  O   UNL A   1      47.055  25.380  37.752  1.00  0.00    -0.237 OA
ATOM     92  O   UNL A   1      44.601  25.341  37.794  1.00  0.00    -0.744 OA
ENDBRANCH  86  89
ENDBRANCH  59  82
ENDBRANCH  33  34
ENDBRANCH  26  28
ENDBRANCH  25  26
ENDBRANCH  24  25
ENDBRANCH   1  24
TORSDOF 18
ENDMDL
MODEL 3
REMARK VINA RESULT:     -11.5      5.281     10.448
REMARK SMILES COc1ccccc1[C@H]([NH3+])c1nc(C(=O)OCCOC(=O)c2ccc(-c3c4nc(c(-c5cccc(S(=O)(=O)[O-])c5F)c5ccc([nH]5)c(-c5cccc(S(=O)(=O)[O-])c5F)c5nc(c(-c6cccc(S(=O)(=O)[O-])c6F)c6ccc3[nH]6)C=C5)C=C4)cc2)c[nH]1
REMARK SMILES IDX 17 1 16 2 14 3 15 4 13 5 11 6 12 7 86 8 85 9 9 11 8 12 3 13
REMARK SMILES IDX 4 14 5 15 7 16 6 17 2 18 1 19 10 20 18 24 19 25 20 26 21 27
REMARK SMILES IDX 22 28 23 29 84 30 24 31 83 32 25 33 26 34 27 35 77 36 28 37
REMARK SMILES IDX 82 38 76 39 78 40 29 41 81 42 75 43 74 44 30 46 62 47 42 48
REMARK SMILES IDX 61 49 43 50 46 51 60 52 79 53 44 54 45 55 59 57 80 58 47 59
REMARK SMILES IDX 31 60 32 61 40 62 33 63 35 64 41 65 34 66 36 67 37 68 38 69
REMARK SMILES IDX 39 70 63 71 64 72 72 73 65 74 67 75 73 76 66 77 68 78 69 79
REMARK SMILES IDX 70 80 71 81 48 82 49 83 57 84 50 85 52 86 58 87 51 88 53 89
REMARK SMILES IDX 54 90 55 91 56 92
REMARK H PARENT 86 10 10 21 10 22 10 23 78 45 46 56
REMARK Flexibility Score: inf
ROOT
ATOM      1  C   UNL A   1      35.284  22.015  25.501  1.00  0.00     0.275 C 
ENDROOT
BRANCH   1   2
ATOM      2  O   UNL A   1      34.614  22.284  24.258  1.00  0.00    -0.457 OA
BRANCH   2   3
ATOM      3  C   UNL A   1      33.314  21.863  24.193  1.00  0.00     0.358 C 
ATOM      4  O   UNL A   1      32.967  20.694  24.278  1.00  0.00    -0.244 OA
BRANCH   3   5
ATOM      5  C   UNL A   1      32.348  22.960  24.074  1.00  0.00     0.166 A 
ATOM      6  C   UNL A   1      30.925  24.521  24.563  1.00  0.00     0.170 A 
ATOM      7  N   UNL A   1      31.709  23.609  25.120  1.00  0.00    -0.220 NA
ATOM      8  N   UNL A   1      30.992  24.437  23.192  1.00  0.00    -0.342 N 
ATOM      9  C   UNL A   1      31.922  23.498  22.873  1.00  0.00     0.120 A 
ATOM     10  H   UNL A   1      30.461  24.965  22.554  1.00  0.00     0.167 HD
BRANCH   6  11
ATOM     11  C   UNL A   1      30.078  25.552  25.283  1.00  0.00     0.283 C 
BRANCH  11  12
ATOM     12  C   UNL A   1      30.802  26.882  25.502  1.00  0.00     0.059 A 
ATOM     13  C   UNL A   1      31.028  27.866  24.523  1.00  0.00     0.128 A 
ATOM     14  C   UNL A   1      31.648  29.080  24.849  1.00  0.00     0.047 A 
ATOM     15  C   UNL A   1      32.017  29.354  26.164  1.00  0.00     0.004 A 
ATOM     16  C   UNL A   1      31.201  27.182  26.826  1.00  0.00     0.014 A 
ATOM     17  C   UNL A   1      31.793  28.404  27.153  1.00  0.00     0.001 A 
BRANCH  13  18
ATOM     18  O   UNL A   1      30.754  27.667  23.196  1.00  0.00    -0.496 OA
ATOM     19  C   UNL A   1      29.716  28.539  22.749  1.00  0.00     0.278 C 
ENDBRANCH  13  18
ENDBRANCH  11  12
BRANCH  11  20
ATOM     20  N   UNL A   1      29.536  24.939  26.498  1.00  0.00    -0.345 N 
ATOM     21  H   UNL A   1      28.574  25.251  26.637  1.00  0.00     0.345 HD
ATOM     22  H   UNL A   1      30.102  25.216  27.301  1.00  0.00     0.345 HD
ATOM     23  H   UNL A   1      29.554  23.924  26.404  1.00  0.00     0.345 HD
ENDBRANCH  11  20
ENDBRANCH   6  11
ENDBRANCH   3   5
ENDBRANCH   2   3
ENDBRANCH   1   2
BRANCH   1  24
ATOM     24  C   UNL A   1      36.294  20.874  25.361  1.00  0.00     0.275 C 
BRANCH  24  25
ATOM     25  O   UNL A   1      37.588  21.366  24.960  1.00  0.00    -0.458 OA
BRANCH  25  26
ATOM     26  C   UNL A   1      38.622  20.997  25.751  1.00  0.00     0.338 C 
ATOM     27  O   UNL A   1      39.057  19.872  25.926  1.00  0.00    -0.246 OA
BRANCH  26  28
ATOM     28  C   UNL A   1      39.245  22.188  26.346  1.00  0.00     0.060 A 
ATOM     29  C   UNL A   1      38.743  23.439  25.993  1.00  0.00     0.016 A 
ATOM     30  C   UNL A   1      40.398  22.088  27.123  1.00  0.00     0.016 A 
ATOM     31  C   UNL A   1      39.406  24.599  26.378  1.00  0.00     0.010 A 
ATOM     32  C   UNL A   1      41.041  23.258  27.549  1.00  0.00     0.010 A 
ATOM     33  C   UNL A   1      40.568  24.525  27.159  1.00  0.00    -0.014 A 
BRANCH  33  34
ATOM     34  C   UNL A   1      41.299  25.770  27.523  1.00  0.00     0.031 A 
ATOM     35  C   UNL A   1      40.623  26.833  28.349  1.00  0.00     0.074 A 
ATOM     36  C   UNL A   1      42.573  25.949  27.120  1.00  0.00     0.049 A 
ATOM     37  N   UNL A   1      41.053  28.025  28.675  1.00  0.00    -0.248 NA
ATOM     38  C   UNL A   1      39.282  26.519  28.870  1.00  0.00     0.031 C 
ATOM     39  C   UNL A   1      43.352  24.994  26.330  1.00  0.00     0.029 A 
ATOM     40  N   UNL A   1      43.434  27.003  27.308  1.00  0.00    -0.354 N 
ATOM     41  C   UNL A   1      40.017  28.625  29.383  1.00  0.00     0.074 A 
ATOM     42  C   UNL A   1      38.939  27.663  29.447  1.00  0.00     0.031 C 
ATOM     43  C   UNL A   1      44.572  25.503  26.102  1.00  0.00     0.029 A 
ATOM     44  C   UNL A   1      44.645  26.843  26.673  1.00  0.00     0.049 A 
ATOM     45  H   UNL A   1      43.208  27.797  27.845  1.00  0.00     0.167 HD
ATOM     46  C   UNL A   1      39.972  29.861  29.936  1.00  0.00     0.034 A 
ATOM     47  C   UNL A   1      45.683  27.692  26.532  1.00  0.00     0.034 A 
ATOM     48  C   UNL A   1      41.066  30.795  29.925  1.00  0.00     0.049 A 
ATOM     49  C   UNL A   1      45.604  29.058  27.157  1.00  0.00     0.074 A 
ATOM     50  C   UNL A   1      41.130  32.052  30.501  1.00  0.00     0.029 A 
ATOM     51  N   UNL A   1      42.289  30.577  29.309  1.00  0.00    -0.354 N 
ATOM     52  N   UNL A   1      44.646  29.579  27.884  1.00  0.00    -0.248 NA
ATOM     53  C   UNL A   1      46.759  29.947  26.960  1.00  0.00     0.031 C 
ATOM     54  C   UNL A   1      42.386  32.601  30.219  1.00  0.00     0.029 A 
ATOM     55  C   UNL A   1      43.112  31.676  29.487  1.00  0.00     0.049 A 
ATOM     56  H   UNL A   1      42.536  29.760  28.818  1.00  0.00     0.167 HD
ATOM     57  C   UNL A   1      45.091  30.842  28.253  1.00  0.00     0.074 A 
ATOM     58  C   UNL A   1      46.417  30.998  27.692  1.00  0.00     0.031 C 
ATOM     59  C   UNL A   1      44.452  31.796  28.974  1.00  0.00     0.034 A 
BRANCH  46  60
ATOM     60  C   UNL A   1      38.699  30.278  30.627  1.00  0.00     0.023 A 
ATOM     61  C   UNL A   1      38.531  30.020  32.002  1.00  0.00     0.012 A 
ATOM     62  C   UNL A   1      37.702  30.991  29.931  1.00  0.00     0.148 A 
ATOM     63  C   UNL A   1      37.379  30.440  32.667  1.00  0.00     0.002 A 
ATOM     64  C   UNL A   1      36.577  31.443  30.609  1.00  0.00     0.091 A 
ATOM     65  F   UNL A   1      37.873  31.210  28.619  1.00  0.00    -0.205 F 
ATOM     66  C   UNL A   1      36.408  31.159  31.975  1.00  0.00     0.022 A 
BRANCH  64  67
ATOM     67  S   UNL A   1      35.309  32.446  29.825  1.00  0.00     0.127 S 
ATOM     68  O   UNL A   1      34.401  32.699  30.943  1.00  0.00    -0.237 OA
ATOM     69  O   UNL A   1      36.070  33.614  29.382  1.00  0.00    -0.237 OA
ATOM     70  O   UNL A   1      34.762  31.632  28.748  1.00  0.00    -0.744 OA
ENDBRANCH  64  67
ENDBRANCH  46  60
BRANCH  47  71
ATOM     71  C   UNL A   1      46.894  27.269  25.771  1.00  0.00     0.023 A 
ATOM     72  C   UNL A   1      47.842  26.429  26.386  1.00  0.00     0.012 A 
ATOM     73  C   UNL A   1      47.097  27.673  24.437  1.00  0.00     0.148 A 
ATOM     74  C   UNL A   1      48.985  26.023  25.695  1.00  0.00     0.002 A 
ATOM     75  C   UNL A   1      48.206  27.214  23.735  1.00  0.00     0.091 A 
ATOM     76  F   UNL A   1      46.197  28.492  23.875  1.00  0.00    -0.205 F 
ATOM     77  C   UNL A   1      49.160  26.402  24.368  1.00  0.00     0.022 A 
BRANCH  75  78
ATOM     78  S   UNL A   1      48.431  27.541  21.984  1.00  0.00     0.127 S 
ATOM     79  O   UNL A   1      47.173  28.197  21.638  1.00  0.00    -0.237 OA
ATOM     80  O   UNL A   1      49.603  28.417  21.985  1.00  0.00    -0.237 OA
ATOM     81  O   UNL A   1      48.661  26.239  21.371  1.00  0.00    -0.744 OA
ENDBRANCH  75  78
ENDBRANCH  47  71
BRANCH  59  82
ATOM     82  C   UNL A   1      45.188  33.084  29.234  1.00  0.00     0.023 A 
ATOM     83  C   UNL A   1      46.027  33.197  30.360  1.00  0.00     0.012 A 
ATOM     84  C   UNL A   1      45.103  34.157  28.325  1.00  0.00     0.148 A 
ATOM     85  C   UNL A   1      46.746  34.369  30.594  1.00  0.00     0.002 A 
ATOM     86  C   UNL A   1      45.858  35.303  28.539  1.00  0.00     0.091 A 
ATOM     87  F   UNL A   1      44.283  34.038  27.270  1.00  0.00    -0.205 F 
ATOM     88  C   UNL A   1      46.671  35.416  29.679  1.00  0.00     0.022 A 
BRANCH  86  89
ATOM     89  S   UNL A   1      45.895  36.663  27.365  1.00  0.00     0.127 S 
ATOM     90  O   UNL A   1      46.862  36.181  26.381  1.00  0.00    -0.237 OA
ATOM     91  O   UNL A   1      44.511  36.704  26.890  1.00  0.00    -0.237 OA
ATOM     92  O   UNL A   1      46.306  37.836  28.124  1.00  0.00    -0.744 OA
ENDBRANCH  86  89
ENDBRANCH  59  82
ENDBRANCH  33  34
ENDBRANCH  26  28
ENDBRANCH  25  26
ENDBRANCH  24  25
ENDBRANCH   1  24
TORSDOF 18
ENDMDL
