MODEL 1
REMARK VINA RESULT:     -11.6      0.000      0.000
REMARK SMILES O=C(OCCOC(=O)c1sccc1S(=O)(=O)Nc1ccc(Cn2cncn2)cc1)c1ccc(-c2c3nc(c(-c4cccc(S(=O)(=O)[O-])c4F)c4ccc([nH]4)c(-c4cccc(S(=O)(=O)[O-])c4F)c4nc(c(-c5cccc(S(=O)(=O)[O-])c5F)c5ccc2[nH]5)C=C4)C=C3)cc1
REMARK SMILES IDX 5 1 4 2 3 3 2 4 1 5 30 6 31 7 92 8 32 9 91 10 33 11 34 12
REMARK SMILES IDX 35 13 85 14 36 15 90 16 84 17 86 18 37 19 89 20 83 21 82 22
REMARK SMILES IDX 38 24 70 25 50 26 69 27 51 28 54 29 68 30 87 31 52 32 53 33
REMARK SMILES IDX 67 35 88 36 55 37 39 38 40 39 48 40 41 41 43 42 49 43 42 44
REMARK SMILES IDX 44 45 45 46 46 47 47 48 71 49 72 50 80 51 73 52 75 53 81 54
REMARK SMILES IDX 74 55 76 56 77 57 78 58 79 59 56 60 57 61 65 62 58 63 60 64
REMARK SMILES IDX 66 65 59 66 61 67 62 68 63 69 64 70 6 71 7 72 8 73 9 74
REMARK SMILES IDX 10 75 13 76 11 77 12 78 14 79 15 80 16 81 17 82 18 84 19 85
REMARK SMILES IDX 29 86 20 87 28 88 21 89 22 90 23 91 24 92 27 93 25 94 26 95
REMARK H PARENT 86 23 54 34 17 83
REMARK Flexibility Score: inf
ROOT
ATOM      1  C   UNL A   1      33.011  30.160  26.887  1.00  0.00     0.275 C 
ENDROOT
BRANCH   1   2
ATOM      2  C   UNL A   1      33.433  31.565  27.301  1.00  0.00     0.275 C 
BRANCH   2   3
ATOM      3  O   UNL A   1      34.846  31.676  27.602  1.00  0.00    -0.458 OA
BRANCH   3   4
ATOM      4  C   UNL A   1      35.483  31.932  28.770  1.00  0.00     0.338 C 
ATOM      5  O   UNL A   1      35.161  32.918  29.431  1.00  0.00    -0.246 OA
BRANCH   4   6
ATOM      6  C   UNL A   1      36.626  31.110  29.229  1.00  0.00     0.060 A 
ATOM      7  C   UNL A   1      37.946  31.544  29.140  1.00  0.00     0.016 A 
ATOM      8  C   UNL A   1      36.356  29.802  29.674  1.00  0.00     0.016 A 
ATOM      9  C   UNL A   1      38.977  30.726  29.584  1.00  0.00     0.010 A 
ATOM     10  C   UNL A   1      37.394  28.956  30.064  1.00  0.00     0.010 A 
ATOM     11  C   UNL A   1      38.708  29.424  30.018  1.00  0.00    -0.014 A 
BRANCH  11  12
ATOM     12  C   UNL A   1      39.874  28.573  30.228  1.00  0.00     0.031 A 
ATOM     13  C   UNL A   1      40.549  28.551  31.551  1.00  0.00     0.074 A 
ATOM     14  C   UNL A   1      40.421  27.879  29.215  1.00  0.00     0.049 A 
ATOM     15  N   UNL A   1      41.697  29.066  31.867  1.00  0.00    -0.248 NA
ATOM     16  C   UNL A   1      39.869  27.864  32.652  1.00  0.00     0.031 C 
ATOM     17  C   UNL A   1      39.801  27.517  27.938  1.00  0.00     0.029 A 
ATOM     18  N   UNL A   1      41.640  27.270  29.169  1.00  0.00    -0.354 N 
ATOM     19  C   UNL A   1      41.970  28.621  33.160  1.00  0.00     0.074 A 
ATOM     20  C   UNL A   1      40.766  27.981  33.633  1.00  0.00     0.031 C 
ATOM     21  C   UNL A   1      40.558  26.571  27.342  1.00  0.00     0.029 A 
ATOM     22  C   UNL A   1      41.771  26.382  28.120  1.00  0.00     0.049 A 
ATOM     23  H   UNL A   1      42.357  27.446  29.822  1.00  0.00     0.167 HD
ATOM     24  C   UNL A   1      43.213  28.654  33.714  1.00  0.00     0.034 A 
ATOM     25  C   UNL A   1      42.773  25.498  27.934  1.00  0.00     0.034 A 
ATOM     26  C   UNL A   1      44.147  29.451  32.972  1.00  0.00     0.049 A 
ATOM     27  C   UNL A   1      43.966  25.968  28.668  1.00  0.00     0.074 A 
ATOM     28  C   UNL A   1      44.266  30.782  32.632  1.00  0.00     0.029 A 
ATOM     29  N   UNL A   1      45.084  28.785  32.225  1.00  0.00    -0.354 N 
ATOM     30  N   UNL A   1      44.661  27.024  28.342  1.00  0.00    -0.248 NA
ATOM     31  C   UNL A   1      44.261  25.413  29.979  1.00  0.00     0.031 C 
ATOM     32  C   UNL A   1      44.988  30.799  31.404  1.00  0.00     0.029 A 
ATOM     33  C   UNL A   1      45.239  29.470  31.048  1.00  0.00     0.049 A 
ATOM     34  H   UNL A   1      45.560  27.963  32.487  1.00  0.00     0.167 HD
ATOM     35  C   UNL A   1      45.174  27.497  29.542  1.00  0.00     0.074 A 
ATOM     36  C   UNL A   1      45.041  26.380  30.467  1.00  0.00     0.031 C 
ATOM     37  C   UNL A   1      45.384  28.833  29.752  1.00  0.00     0.034 A 
BRANCH  24  38
ATOM     38  C   UNL A   1      43.676  27.766  34.840  1.00  0.00     0.023 A 
ATOM     39  C   UNL A   1      44.083  28.365  36.053  1.00  0.00     0.012 A 
ATOM     40  C   UNL A   1      43.918  26.384  34.695  1.00  0.00     0.148 A 
ATOM     41  C   UNL A   1      44.681  27.620  37.076  1.00  0.00     0.002 A 
ATOM     42  C   UNL A   1      44.432  25.632  35.747  1.00  0.00     0.091 A 
ATOM     43  F   UNL A   1      43.757  25.802  33.499  1.00  0.00    -0.205 F 
ATOM     44  C   UNL A   1      44.835  26.245  36.934  1.00  0.00     0.022 A 
BRANCH  42  45
ATOM     45  S   UNL A   1      44.512  23.845  35.608  1.00  0.00     0.127 S 
ATOM     46  O   UNL A   1      43.137  23.504  35.264  1.00  0.00    -0.237 OA
ATOM     47  O   UNL A   1      45.485  23.651  34.532  1.00  0.00    -0.237 OA
ATOM     48  O   UNL A   1      44.990  23.416  36.919  1.00  0.00    -0.744 OA
ENDBRANCH  42  45
ENDBRANCH  24  38
BRANCH  25  49
ATOM     49  C   UNL A   1      42.680  24.175  27.287  1.00  0.00     0.023 A 
ATOM     50  C   UNL A   1      41.485  23.438  27.344  1.00  0.00     0.012 A 
ATOM     51  C   UNL A   1      43.711  23.721  26.432  1.00  0.00     0.148 A 
ATOM     52  C   UNL A   1      41.325  22.281  26.573  1.00  0.00     0.002 A 
ATOM     53  C   UNL A   1      43.556  22.559  25.689  1.00  0.00     0.091 A 
ATOM     54  F   UNL A   1      44.808  24.476  26.280  1.00  0.00    -0.205 F 
ATOM     55  C   UNL A   1      42.359  21.838  25.750  1.00  0.00     0.022 A 
BRANCH  53  56
ATOM     56  S   UNL A   1      44.876  21.942  24.637  1.00  0.00     0.127 S 
ATOM     57  O   UNL A   1      46.003  21.857  25.566  1.00  0.00    -0.237 OA
ATOM     58  O   UNL A   1      44.343  20.656  24.202  1.00  0.00    -0.237 OA
ATOM     59  O   UNL A   1      45.042  22.954  23.599  1.00  0.00    -0.744 OA
ENDBRANCH  53  56
ENDBRANCH  25  49
BRANCH  37  60
ATOM     60  C   UNL A   1      45.379  29.757  28.553  1.00  0.00     0.023 A 
ATOM     61  C   UNL A   1      44.179  30.058  27.875  1.00  0.00     0.012 A 
ATOM     62  C   UNL A   1      46.541  30.476  28.215  1.00  0.00     0.148 A 
ATOM     63  C   UNL A   1      44.143  31.018  26.863  1.00  0.00     0.002 A 
ATOM     64  C   UNL A   1      46.490  31.469  27.239  1.00  0.00     0.091 A 
ATOM     65  F   UNL A   1      47.679  30.201  28.872  1.00  0.00    -0.205 F 
ATOM     66  C   UNL A   1      45.295  31.734  26.553  1.00  0.00     0.022 A 
BRANCH  64  67
ATOM     67  S   UNL A   1      47.902  32.529  26.905  1.00  0.00     0.127 S 
ATOM     68  O   UNL A   1      48.130  33.163  28.201  1.00  0.00    -0.237 OA
ATOM     69  O   UNL A   1      48.937  31.574  26.503  1.00  0.00    -0.237 OA
ATOM     70  O   UNL A   1      47.473  33.416  25.828  1.00  0.00    -0.744 OA
ENDBRANCH  64  67
ENDBRANCH  37  60
ENDBRANCH  11  12
ENDBRANCH   4   6
ENDBRANCH   3   4
ENDBRANCH   2   3
ENDBRANCH   1   2
BRANCH   1  71
ATOM     71  O   UNL A   1      32.243  30.057  25.676  1.00  0.00    -0.458 OA
BRANCH  71  72
ATOM     72  C   UNL A   1      32.628  29.093  24.802  1.00  0.00     0.349 C 
ATOM     73  O   UNL A   1      33.765  28.972  24.360  1.00  0.00    -0.245 OA
BRANCH  72  74
ATOM     74  C   UNL A   1      31.517  28.255  24.450  1.00  0.00     0.133 A 
ATOM     75  S   UNL A   1      30.501  28.793  23.180  1.00  0.00    -0.136 S 
ATOM     76  C   UNL A   1      31.037  27.089  25.018  1.00  0.00     0.113 A 
ATOM     77  C   UNL A   1      29.478  27.436  23.312  1.00  0.00     0.067 A 
ATOM     78  C   UNL A   1      29.874  26.602  24.333  1.00  0.00     0.035 A 
BRANCH  76  79
ATOM     79  S   UNL A   1      31.677  26.255  26.396  1.00  0.00     0.263 S 
ATOM     80  O   UNL A   1      33.030  25.910  26.004  1.00  0.00    -0.201 OA
ATOM     81  O   UNL A   1      31.433  27.170  27.486  1.00  0.00    -0.201 OA
BRANCH  79  82
ATOM     82  N   UNL A   1      30.871  24.853  26.793  1.00  0.00    -0.280 N 
ATOM     83  H   UNL A   1      29.995  24.950  27.232  1.00  0.00     0.180 HD
BRANCH  82  84
ATOM     84  C   UNL A   1      31.333  23.525  26.554  1.00  0.00     0.049 A 
ATOM     85  C   UNL A   1      30.987  22.984  25.311  1.00  0.00     0.027 A 
ATOM     86  C   UNL A   1      32.320  22.902  27.311  1.00  0.00     0.027 A 
ATOM     87  C   UNL A   1      31.782  21.994  24.723  1.00  0.00     0.008 A 
ATOM     88  C   UNL A   1      33.099  21.893  26.734  1.00  0.00     0.008 A 
ATOM     89  C   UNL A   1      32.905  21.502  25.396  1.00  0.00    -0.026 A 
BRANCH  89  90
ATOM     90  C   UNL A   1      34.058  20.803  24.701  1.00  0.00     0.181 C 
BRANCH  90  91
ATOM     91  N   UNL A   1      35.287  21.566  24.593  1.00  0.00    -0.249 N 
ATOM     92  C   UNL A   1      36.502  21.267  25.135  1.00  0.00     0.220 A 
ATOM     93  N   UNL A   1      35.385  22.618  23.750  1.00  0.00    -0.160 NA
ATOM     94  N   UNL A   1      37.402  22.123  24.700  1.00  0.00    -0.224 NA
ATOM     95  C   UNL A   1      36.687  22.896  23.833  1.00  0.00     0.246 A 
ENDBRANCH  90  91
ENDBRANCH  89  90
ENDBRANCH  82  84
ENDBRANCH  79  82
ENDBRANCH  76  79
ENDBRANCH  72  74
ENDBRANCH  71  72
ENDBRANCH   1  71
TORSDOF 19
ENDMDL
MODEL 2
REMARK VINA RESULT:     -11.6      1.679      2.305
REMARK SMILES O=C(OCCOC(=O)c1sccc1S(=O)(=O)Nc1ccc(Cn2cncn2)cc1)c1ccc(-c2c3nc(c(-c4cccc(S(=O)(=O)[O-])c4F)c4ccc([nH]4)c(-c4cccc(S(=O)(=O)[O-])c4F)c4nc(c(-c5cccc(S(=O)(=O)[O-])c5F)c5ccc2[nH]5)C=C4)C=C3)cc1
REMARK SMILES IDX 5 1 4 2 3 3 2 4 1 5 30 6 31 7 92 8 32 9 91 10 33 11 34 12
REMARK SMILES IDX 35 13 85 14 36 15 90 16 84 17 86 18 37 19 89 20 83 21 82 22
REMARK SMILES IDX 38 24 70 25 50 26 69 27 51 28 54 29 68 30 87 31 52 32 53 33
REMARK SMILES IDX 67 35 88 36 55 37 39 38 40 39 48 40 41 41 43 42 49 43 42 44
REMARK SMILES IDX 44 45 45 46 46 47 47 48 71 49 72 50 80 51 73 52 75 53 81 54
REMARK SMILES IDX 74 55 76 56 77 57 78 58 79 59 56 60 57 61 65 62 58 63 60 64
REMARK SMILES IDX 66 65 59 66 61 67 62 68 63 69 64 70 6 71 7 72 8 73 9 74
REMARK SMILES IDX 10 75 13 76 11 77 12 78 14 79 15 80 16 81 17 82 18 84 19 85
REMARK SMILES IDX 29 86 20 87 28 88 21 89 22 90 23 91 24 92 27 93 25 94 26 95
REMARK H PARENT 86 23 54 34 17 83
REMARK Flexibility Score: inf
ROOT
ATOM      1  C   UNL A   1      32.486  30.053  25.892  1.00  0.00     0.275 C 
ENDROOT
BRANCH   1   2
ATOM      2  C   UNL A   1      32.761  30.643  27.270  1.00  0.00     0.275 C 
BRANCH   2   3
ATOM      3  O   UNL A   1      33.977  31.428  27.329  1.00  0.00    -0.458 OA
BRANCH   3   4
ATOM      4  C   UNL A   1      34.829  31.659  28.357  1.00  0.00     0.338 C 
ATOM      5  O   UNL A   1      34.550  32.517  29.193  1.00  0.00    -0.246 OA
BRANCH   4   6
ATOM      6  C   UNL A   1      36.139  30.974  28.450  1.00  0.00     0.060 A 
ATOM      7  C   UNL A   1      36.308  29.630  28.126  1.00  0.00     0.016 A 
ATOM      8  C   UNL A   1      37.221  31.698  28.984  1.00  0.00     0.016 A 
ATOM      9  C   UNL A   1      37.560  29.042  28.236  1.00  0.00     0.010 A 
ATOM     10  C   UNL A   1      38.467  31.093  29.152  1.00  0.00     0.010 A 
ATOM     11  C   UNL A   1      38.633  29.760  28.775  1.00  0.00    -0.014 A 
BRANCH  11  12
ATOM     12  C   UNL A   1      39.830  28.982  29.072  1.00  0.00     0.031 A 
ATOM     13  C   UNL A   1      40.326  28.885  30.470  1.00  0.00     0.074 A 
ATOM     14  C   UNL A   1      40.562  28.429  28.090  1.00  0.00     0.049 A 
ATOM     15  N   UNL A   1      41.374  29.450  30.983  1.00  0.00    -0.248 NA
ATOM     16  C   UNL A   1      39.569  28.048  31.405  1.00  0.00     0.031 C 
ATOM     17  C   UNL A   1      40.148  28.144  26.714  1.00  0.00     0.029 A 
ATOM     18  N   UNL A   1      41.825  27.918  28.162  1.00  0.00    -0.354 N 
ATOM     19  C   UNL A   1      41.513  28.907  32.259  1.00  0.00     0.074 A 
ATOM     20  C   UNL A   1      40.317  28.138  32.507  1.00  0.00     0.031 C 
ATOM     21  C   UNL A   1      41.055  27.317  26.151  1.00  0.00     0.029 A 
ATOM     22  C   UNL A   1      42.168  27.145  27.070  1.00  0.00     0.049 A 
ATOM     23  H   UNL A   1      42.432  28.084  28.920  1.00  0.00     0.167 HD
ATOM     24  C   UNL A   1      42.665  28.978  32.980  1.00  0.00     0.034 A 
ATOM     25  C   UNL A   1      43.257  26.359  26.951  1.00  0.00     0.034 A 
ATOM     26  C   UNL A   1      43.617  29.909  32.444  1.00  0.00     0.049 A 
ATOM     27  C   UNL A   1      44.299  26.844  27.880  1.00  0.00     0.074 A 
ATOM     28  C   UNL A   1      43.664  31.272  32.236  1.00  0.00     0.029 A 
ATOM     29  N   UNL A   1      44.697  29.387  31.780  1.00  0.00    -0.354 N 
ATOM     30  N   UNL A   1      44.937  27.974  27.742  1.00  0.00    -0.248 NA
ATOM     31  C   UNL A   1      44.466  26.191  29.168  1.00  0.00     0.031 C 
ATOM     32  C   UNL A   1      44.537  31.457  31.124  1.00  0.00     0.029 A 
ATOM     33  C   UNL A   1      44.945  30.189  30.697  1.00  0.00     0.049 A 
ATOM     34  H   UNL A   1      45.203  28.581  32.035  1.00  0.00     0.167 HD
ATOM     35  C   UNL A   1      45.247  28.368  29.037  1.00  0.00     0.074 A 
ATOM     36  C   UNL A   1      45.090  27.163  29.838  1.00  0.00     0.031 C 
ATOM     37  C   UNL A   1      45.312  29.691  29.385  1.00  0.00     0.034 A 
BRANCH  24  38
ATOM     38  C   UNL A   1      43.051  28.025  34.081  1.00  0.00     0.023 A 
ATOM     39  C   UNL A   1      43.131  28.513  35.405  1.00  0.00     0.012 A 
ATOM     40  C   UNL A   1      43.532  26.719  33.850  1.00  0.00     0.148 A 
ATOM     41  C   UNL A   1      43.644  27.731  36.446  1.00  0.00     0.002 A 
ATOM     42  C   UNL A   1      43.959  25.915  34.902  1.00  0.00     0.091 A 
ATOM     43  F   UNL A   1      43.686  26.280  32.593  1.00  0.00    -0.205 F 
ATOM     44  C   UNL A   1      44.037  26.420  36.201  1.00  0.00     0.022 A 
BRANCH  42  45
ATOM     45  S   UNL A   1      44.348  24.189  34.604  1.00  0.00     0.127 S 
ATOM     46  O   UNL A   1      44.648  23.708  35.947  1.00  0.00    -0.237 OA
ATOM     47  O   UNL A   1      43.104  23.676  34.028  1.00  0.00    -0.237 OA
ATOM     48  O   UNL A   1      45.458  24.242  33.658  1.00  0.00    -0.744 OA
ENDBRANCH  42  45
ENDBRANCH  24  38
BRANCH  25  49
ATOM     49  C   UNL A   1      43.363  25.100  26.189  1.00  0.00     0.023 A 
ATOM     50  C   UNL A   1      44.345  24.952  25.195  1.00  0.00     0.012 A 
ATOM     51  C   UNL A   1      42.623  23.961  26.580  1.00  0.00     0.148 A 
ATOM     52  C   UNL A   1      44.580  23.703  24.607  1.00  0.00     0.002 A 
ATOM     53  C   UNL A   1      42.843  22.730  25.976  1.00  0.00     0.091 A 
ATOM     54  F   UNL A   1      41.766  24.062  27.606  1.00  0.00    -0.205 F 
ATOM     55  C   UNL A   1      43.828  22.594  24.992  1.00  0.00     0.022 A 
BRANCH  53  56
ATOM     56  S   UNL A   1      41.877  21.284  26.427  1.00  0.00     0.127 S 
ATOM     57  O   UNL A   1      40.510  21.715  26.131  1.00  0.00    -0.237 OA
ATOM     58  O   UNL A   1      42.407  20.268  25.523  1.00  0.00    -0.237 OA
ATOM     59  O   UNL A   1      42.136  21.079  27.848  1.00  0.00    -0.744 OA
ENDBRANCH  53  56
ENDBRANCH  25  49
BRANCH  37  60
ATOM     60  C   UNL A   1      45.385  30.720  28.278  1.00  0.00     0.023 A 
ATOM     61  C   UNL A   1      44.211  31.258  27.709  1.00  0.00     0.012 A 
ATOM     62  C   UNL A   1      46.623  31.294  27.932  1.00  0.00     0.148 A 
ATOM     63  C   UNL A   1      44.268  32.310  26.794  1.00  0.00     0.002 A 
ATOM     64  C   UNL A   1      46.672  32.377  27.056  1.00  0.00     0.091 A 
ATOM     65  F   UNL A   1      47.739  30.793  28.486  1.00  0.00    -0.205 F 
ATOM     66  C   UNL A   1      45.497  32.879  26.477  1.00  0.00     0.022 A 
BRANCH  64  67
ATOM     67  S   UNL A   1      48.209  33.250  26.729  1.00  0.00     0.127 S 
ATOM     68  O   UNL A   1      47.826  34.164  25.656  1.00  0.00    -0.237 OA
ATOM     69  O   UNL A   1      48.492  33.898  28.011  1.00  0.00    -0.237 OA
ATOM     70  O   UNL A   1      49.172  32.214  26.370  1.00  0.00    -0.744 OA
ENDBRANCH  64  67
ENDBRANCH  37  60
ENDBRANCH  11  12
ENDBRANCH   4   6
ENDBRANCH   3   4
ENDBRANCH   2   3
ENDBRANCH   1   2
BRANCH   1  71
ATOM     71  O   UNL A   1      31.801  28.789  25.865  1.00  0.00    -0.458 OA
BRANCH  71  72
ATOM     72  C   UNL A   1      32.570  27.696  25.626  1.00  0.00     0.349 C 
ATOM     73  O   UNL A   1      33.576  27.404  26.261  1.00  0.00    -0.245 OA
BRANCH  72  74
ATOM     74  C   UNL A   1      32.054  26.947  24.515  1.00  0.00     0.133 A 
ATOM     75  S   UNL A   1      32.181  27.662  22.963  1.00  0.00    -0.136 S 
ATOM     76  C   UNL A   1      31.369  25.748  24.462  1.00  0.00     0.113 A 
ATOM     77  C   UNL A   1      31.417  26.341  22.202  1.00  0.00     0.067 A 
ATOM     78  C   UNL A   1      31.031  25.386  23.114  1.00  0.00     0.035 A 
BRANCH  76  79
ATOM     79  S   UNL A   1      30.911  24.742  25.798  1.00  0.00     0.263 S 
ATOM     80  O   UNL A   1      29.897  25.514  26.489  1.00  0.00    -0.201 OA
ATOM     81  O   UNL A   1      30.584  23.482  25.173  1.00  0.00    -0.201 OA
BRANCH  79  82
ATOM     82  N   UNL A   1      32.142  24.411  26.869  1.00  0.00    -0.280 N 
ATOM     83  H   UNL A   1      32.045  24.762  27.784  1.00  0.00     0.180 HD
BRANCH  82  84
ATOM     84  C   UNL A   1      33.324  23.667  26.582  1.00  0.00     0.049 A 
ATOM     85  C   UNL A   1      33.576  22.589  27.438  1.00  0.00     0.027 A 
ATOM     86  C   UNL A   1      34.019  23.752  25.380  1.00  0.00     0.027 A 
ATOM     87  C   UNL A   1      34.316  21.488  26.993  1.00  0.00     0.008 A 
ATOM     88  C   UNL A   1      34.782  22.662  24.945  1.00  0.00     0.008 A 
ATOM     89  C   UNL A   1      34.852  21.477  25.700  1.00  0.00    -0.026 A 
BRANCH  89  90
ATOM     90  C   UNL A   1      35.252  20.209  24.971  1.00  0.00     0.181 C 
BRANCH  90  91
ATOM     91  N   UNL A   1      34.181  19.266  24.709  1.00  0.00    -0.249 N 
ATOM     92  C   UNL A   1      32.844  19.523  24.641  1.00  0.00     0.220 A 
ATOM     93  N   UNL A   1      34.445  18.000  24.316  1.00  0.00    -0.160 NA
ATOM     94  N   UNL A   1      32.206  18.443  24.245  1.00  0.00    -0.224 NA
ATOM     95  C   UNL A   1      33.221  17.559  24.022  1.00  0.00     0.246 A 
ENDBRANCH  90  91
ENDBRANCH  89  90
ENDBRANCH  82  84
ENDBRANCH  79  82
ENDBRANCH  76  79
ENDBRANCH  72  74
ENDBRANCH  71  72
ENDBRANCH   1  71
TORSDOF 19
ENDMDL
MODEL 3
REMARK VINA RESULT:     -11.5      3.375      9.089
REMARK SMILES O=C(OCCOC(=O)c1sccc1S(=O)(=O)Nc1ccc(Cn2cncn2)cc1)c1ccc(-c2c3nc(c(-c4cccc(S(=O)(=O)[O-])c4F)c4ccc([nH]4)c(-c4cccc(S(=O)(=O)[O-])c4F)c4nc(c(-c5cccc(S(=O)(=O)[O-])c5F)c5ccc2[nH]5)C=C4)C=C3)cc1
REMARK SMILES IDX 5 1 4 2 3 3 2 4 1 5 30 6 31 7 92 8 32 9 91 10 33 11 34 12
REMARK SMILES IDX 35 13 85 14 36 15 90 16 84 17 86 18 37 19 89 20 83 21 82 22
REMARK SMILES IDX 38 24 70 25 50 26 69 27 51 28 54 29 68 30 87 31 52 32 53 33
REMARK SMILES IDX 67 35 88 36 55 37 39 38 40 39 48 40 41 41 43 42 49 43 42 44
REMARK SMILES IDX 44 45 45 46 46 47 47 48 71 49 72 50 80 51 73 52 75 53 81 54
REMARK SMILES IDX 74 55 76 56 77 57 78 58 79 59 56 60 57 61 65 62 58 63 60 64
REMARK SMILES IDX 66 65 59 66 61 67 62 68 63 69 64 70 6 71 7 72 8 73 9 74
REMARK SMILES IDX 10 75 13 76 11 77 12 78 14 79 15 80 16 81 17 82 18 84 19 85
REMARK SMILES IDX 29 86 20 87 28 88 21 89 22 90 23 91 24 92 27 93 25 94 26 95
REMARK H PARENT 86 23 54 34 17 83
REMARK Flexibility Score: inf
ROOT
ATOM      1  C   UNL A   1      37.972  22.189  24.940  1.00  0.00     0.275 C 
ENDROOT
BRANCH   1   2
ATOM      2  C   UNL A   1      38.702  21.183  25.823  1.00  0.00     0.275 C 
BRANCH   2   3
ATOM      3  O   UNL A   1      40.037  21.606  26.195  1.00  0.00    -0.458 OA
BRANCH   3   4
ATOM      4  C   UNL A   1      40.515  22.086  27.369  1.00  0.00     0.338 C 
ATOM      5  O   UNL A   1      40.775  21.304  28.281  1.00  0.00    -0.246 OA
BRANCH   4   6
ATOM      6  C   UNL A   1      40.644  23.540  27.620  1.00  0.00     0.060 A 
ATOM      7  C   UNL A   1      41.762  24.100  28.232  1.00  0.00     0.016 A 
ATOM      8  C   UNL A   1      39.541  24.358  27.312  1.00  0.00     0.016 A 
ATOM      9  C   UNL A   1      41.825  25.470  28.444  1.00  0.00     0.010 A 
ATOM     10  C   UNL A   1      39.577  25.727  27.577  1.00  0.00     0.010 A 
ATOM     11  C   UNL A   1      40.724  26.281  28.145  1.00  0.00    -0.014 A 
BRANCH  11  12
ATOM     12  C   UNL A   1      40.802  27.656  28.628  1.00  0.00     0.031 A 
ATOM     13  C   UNL A   1      41.879  28.555  28.140  1.00  0.00     0.074 A 
ATOM     14  C   UNL A   1      39.976  28.102  29.591  1.00  0.00     0.049 A 
ATOM     15  N   UNL A   1      42.921  28.972  28.790  1.00  0.00    -0.248 NA
ATOM     16  C   UNL A   1      41.777  29.060  26.769  1.00  0.00     0.031 C 
ATOM     17  C   UNL A   1      38.696  27.530  30.012  1.00  0.00     0.029 A 
ATOM     18  N   UNL A   1      40.086  29.239  30.336  1.00  0.00    -0.354 N 
ATOM     19  C   UNL A   1      43.519  29.931  27.972  1.00  0.00     0.074 A 
ATOM     20  C   UNL A   1      42.840  29.862  26.701  1.00  0.00     0.031 C 
ATOM     21  C   UNL A   1      38.046  28.435  30.773  1.00  0.00     0.029 A 
ATOM     22  C   UNL A   1      38.925  29.569  31.007  1.00  0.00     0.049 A 
ATOM     23  H   UNL A   1      40.912  29.773  30.391  1.00  0.00     0.167 HD
ATOM     24  C   UNL A   1      44.426  30.839  28.426  1.00  0.00     0.034 A 
ATOM     25  C   UNL A   1      38.670  30.725  31.654  1.00  0.00     0.034 A 
ATOM     26  C   UNL A   1      44.930  30.536  29.735  1.00  0.00     0.049 A 
ATOM     27  C   UNL A   1      39.953  31.355  32.028  1.00  0.00     0.074 A 
ATOM     28  C   UNL A   1      45.666  29.519  30.305  1.00  0.00     0.029 A 
ATOM     29  N   UNL A   1      44.455  31.290  30.778  1.00  0.00    -0.354 N 
ATOM     30  N   UNL A   1      40.771  30.879  32.926  1.00  0.00    -0.248 NA
ATOM     31  C   UNL A   1      40.498  32.413  31.192  1.00  0.00     0.031 C 
ATOM     32  C   UNL A   1      45.264  29.477  31.672  1.00  0.00     0.029 A 
ATOM     33  C   UNL A   1      44.277  30.452  31.848  1.00  0.00     0.049 A 
ATOM     34  H   UNL A   1      44.276  32.259  30.762  1.00  0.00     0.167 HD
ATOM     35  C   UNL A   1      42.032  31.282  32.509  1.00  0.00     0.074 A 
ATOM     36  C   UNL A   1      41.782  32.351  31.552  1.00  0.00     0.031 C 
ATOM     37  C   UNL A   1      43.142  30.517  32.750  1.00  0.00     0.034 A 
BRANCH  24  38
ATOM     38  C   UNL A   1      44.713  32.167  27.774  1.00  0.00     0.023 A 
ATOM     39  C   UNL A   1      45.897  32.308  27.016  1.00  0.00     0.012 A 
ATOM     40  C   UNL A   1      43.975  33.340  28.035  1.00  0.00     0.148 A 
ATOM     41  C   UNL A   1      46.311  33.552  26.525  1.00  0.00     0.002 A 
ATOM     42  C   UNL A   1      44.344  34.558  27.472  1.00  0.00     0.091 A 
ATOM     43  F   UNL A   1      42.971  33.311  28.922  1.00  0.00    -0.205 F 
ATOM     44  C   UNL A   1      45.521  34.677  26.732  1.00  0.00     0.022 A 
BRANCH  42  45
ATOM     45  S   UNL A   1      43.260  35.979  27.636  1.00  0.00     0.127 S 
ATOM     46  O   UNL A   1      43.331  36.252  29.067  1.00  0.00    -0.237 OA
ATOM     47  O   UNL A   1      43.908  36.977  26.784  1.00  0.00    -0.237 OA
ATOM     48  O   UNL A   1      41.981  35.502  27.118  1.00  0.00    -0.744 OA
ENDBRANCH  42  45
ENDBRANCH  24  38
BRANCH  25  49
ATOM     49  C   UNL A   1      37.359  31.386  31.805  1.00  0.00     0.023 A 
ATOM     50  C   UNL A   1      36.835  31.639  33.084  1.00  0.00     0.012 A 
ATOM     51  C   UNL A   1      36.710  31.957  30.686  1.00  0.00     0.148 A 
ATOM     52  C   UNL A   1      35.694  32.436  33.241  1.00  0.00     0.002 A 
ATOM     53  C   UNL A   1      35.565  32.725  30.846  1.00  0.00     0.091 A 
ATOM     54  F   UNL A   1      37.265  31.821  29.474  1.00  0.00    -0.205 F 
ATOM     55  C   UNL A   1      35.056  32.975  32.125  1.00  0.00     0.022 A 
BRANCH  53  56
ATOM     56  S   UNL A   1      34.701  33.416  29.430  1.00  0.00     0.127 S 
ATOM     57  O   UNL A   1      33.599  34.144  30.060  1.00  0.00    -0.237 OA
ATOM     58  O   UNL A   1      35.728  34.259  28.828  1.00  0.00    -0.237 OA
ATOM     59  O   UNL A   1      34.272  32.263  28.644  1.00  0.00    -0.744 OA
ENDBRANCH  53  56
ENDBRANCH  25  49
BRANCH  37  60
ATOM     60  C   UNL A   1      43.038  29.405  33.771  1.00  0.00     0.023 A 
ATOM     61  C   UNL A   1      42.484  28.154  33.427  1.00  0.00     0.012 A 
ATOM     62  C   UNL A   1      43.666  29.541  35.024  1.00  0.00     0.148 A 
ATOM     63  C   UNL A   1      42.518  27.080  34.317  1.00  0.00     0.002 A 
ATOM     64  C   UNL A   1      43.741  28.452  35.890  1.00  0.00     0.091 A 
ATOM     65  F   UNL A   1      44.208  30.726  35.344  1.00  0.00    -0.205 F 
ATOM     66  C   UNL A   1      43.158  27.224  35.544  1.00  0.00     0.022 A 
BRANCH  64  67
ATOM     67  S   UNL A   1      44.686  28.532  37.417  1.00  0.00     0.127 S 
ATOM     68  O   UNL A   1      46.055  28.683  36.929  1.00  0.00    -0.237 OA
ATOM     69  O   UNL A   1      44.139  29.720  38.075  1.00  0.00    -0.237 OA
ATOM     70  O   UNL A   1      44.394  27.286  38.117  1.00  0.00    -0.744 OA
ENDBRANCH  64  67
ENDBRANCH  37  60
ENDBRANCH  11  12
ENDBRANCH   4   6
ENDBRANCH   3   4
ENDBRANCH   2   3
ENDBRANCH   1   2
BRANCH   1  71
ATOM     71  O   UNL A   1      36.540  22.229  25.072  1.00  0.00    -0.458 OA
BRANCH  71  72
ATOM     72  C   UNL A   1      35.837  22.398  23.923  1.00  0.00     0.349 C 
ATOM     73  O   UNL A   1      36.296  22.876  22.893  1.00  0.00    -0.245 OA
BRANCH  72  74
ATOM     74  C   UNL A   1      34.480  21.960  24.091  1.00  0.00     0.133 A 
ATOM     75  S   UNL A   1      34.233  20.470  24.901  1.00  0.00    -0.136 S 
ATOM     76  C   UNL A   1      33.287  22.486  23.632  1.00  0.00     0.113 A 
ATOM     77  C   UNL A   1      32.539  20.565  24.733  1.00  0.00     0.067 A 
ATOM     78  C   UNL A   1      32.163  21.691  24.036  1.00  0.00     0.035 A 
BRANCH  76  79
ATOM     79  S   UNL A   1      33.073  23.911  22.668  1.00  0.00     0.263 S 
ATOM     80  O   UNL A   1      33.799  24.938  23.390  1.00  0.00    -0.201 OA
ATOM     81  O   UNL A   1      33.495  23.492  21.352  1.00  0.00    -0.201 OA
BRANCH  79  82
ATOM     82  N   UNL A   1      31.491  24.403  22.501  1.00  0.00    -0.280 N 
ATOM     83  H   UNL A   1      30.856  23.748  22.131  1.00  0.00     0.180 HD
BRANCH  82  84
ATOM     84  C   UNL A   1      30.973  25.686  22.845  1.00  0.00     0.049 A 
ATOM     85  C   UNL A   1      30.459  25.797  24.142  1.00  0.00     0.027 A 
ATOM     86  C   UNL A   1      31.230  26.845  22.119  1.00  0.00     0.027 A 
ATOM     87  C   UNL A   1      30.441  27.035  24.794  1.00  0.00     0.008 A 
ATOM     88  C   UNL A   1      31.186  28.087  22.762  1.00  0.00     0.008 A 
ATOM     89  C   UNL A   1      30.893  28.184  24.135  1.00  0.00    -0.026 A 
BRANCH  89  90
ATOM     90  C   UNL A   1      31.343  29.440  24.857  1.00  0.00     0.181 C 
BRANCH  90  91
ATOM     91  N   UNL A   1      32.473  29.283  25.754  1.00  0.00    -0.249 N 
ATOM     92  C   UNL A   1      32.469  29.343  27.116  1.00  0.00     0.220 A 
ATOM     93  N   UNL A   1      33.675  28.867  25.297  1.00  0.00    -0.160 NA
ATOM     94  N   UNL A   1      33.655  29.012  27.576  1.00  0.00    -0.224 NA
ATOM     95  C   UNL A   1      34.340  28.693  26.440  1.00  0.00     0.246 A 
ENDBRANCH  90  91
ENDBRANCH  89  90
ENDBRANCH  82  84
ENDBRANCH  79  82
ENDBRANCH  76  79
ENDBRANCH  72  74
ENDBRANCH  71  72
ENDBRANCH   1  71
TORSDOF 19
ENDMDL
