MODEL 1
REMARK VINA RESULT:     -11.7      0.000      0.000
REMARK SMILES O=C(CCCN1C(=O)/C(=C\c2ccc(O)c(O)c2)SC1=S)OCCOC(=O)c1ccc(-c2c3nc(c(-c4cccc(S(=O)(=O)[O-])c4F)c4ccc([nH]4)c(-c4cccc(S(=O)(=O)[O-])c4F)c4nc(c(-c5cccc(S(=O)(=O)[O-])c5F)c5ccc2[nH]5)C=C4)C=C3)cc1
REMARK SMILES IDX 23 1 22 2 2 3 1 4 3 5 4 6 5 7 6 8 7 9 20 10 8 11 9 12 19 13
REMARK SMILES IDX 21 14 10 15 11 16 12 17 18 18 13 19 16 20 14 21 17 22 15 24
REMARK SMILES IDX 24 26 25 27 26 28 27 29 28 30 29 31 90 32 30 33 89 34 31 35
REMARK SMILES IDX 32 36 33 37 83 38 34 39 88 40 82 41 84 42 35 43 87 44 81 45
REMARK SMILES IDX 80 46 36 48 68 49 48 50 67 51 49 52 52 53 66 54 85 55 50 56
REMARK SMILES IDX 51 57 65 59 86 60 53 61 37 62 38 63 46 64 39 65 41 66 47 67
REMARK SMILES IDX 40 68 42 69 43 70 44 71 45 72 69 73 70 74 78 75 71 76 73 77
REMARK SMILES IDX 79 78 72 79 74 80 75 81 76 82 77 83 54 84 55 85 63 86 56 87
REMARK SMILES IDX 58 88 64 89 57 90 59 91 60 92 61 93 62 94
REMARK H PARENT 17 23 15 25 84 47 52 58
REMARK Flexibility Score: inf
ROOT
ATOM      1  C   UNL A   1      31.079  31.421  26.222  1.00  0.00     0.274 C 
ENDROOT
BRANCH   1   2
ATOM      2  O   UNL A   1      32.144  30.607  25.703  1.00  0.00    -0.462 OA
BRANCH   2   3
ATOM      3  C   UNL A   1      32.565  29.511  26.385  1.00  0.00     0.305 C 
ATOM      4  O   UNL A   1      31.950  29.112  27.368  1.00  0.00    -0.252 OA
BRANCH   3   5
ATOM      5  C   UNL A   1      33.898  28.915  25.981  1.00  0.00     0.124 C 
BRANCH   5   6
ATOM      6  C   UNL A   1      33.806  27.570  25.269  1.00  0.00     0.034 C 
BRANCH   6   7
ATOM      7  C   UNL A   1      33.091  27.559  23.906  1.00  0.00     0.128 C 
BRANCH   7   8
ATOM      8  N   UNL A   1      31.656  27.225  23.875  1.00  0.00    -0.293 N 
ATOM      9  C   UNL A   1      30.772  28.222  23.478  1.00  0.00     0.266 C 
ATOM     10  C   UNL A   1      31.074  26.058  24.326  1.00  0.00     0.148 C 
ATOM     11  O   UNL A   1      31.098  29.352  23.139  1.00  0.00    -0.268 OA
ATOM     12  C   UNL A   1      29.369  27.718  23.459  1.00  0.00     0.081 C 
ATOM     13  S   UNL A   1      29.339  26.090  24.010  1.00  0.00    -0.054 SA
ATOM     14  S   UNL A   1      31.791  24.747  25.057  1.00  0.00    -0.052 S 
ATOM     15  C   UNL A   1      28.267  28.382  23.076  1.00  0.00     0.029 C 
BRANCH  15  16
ATOM     16  C   UNL A   1      28.255  29.784  22.651  1.00  0.00    -0.020 A 
ATOM     17  C   UNL A   1      28.409  30.825  23.582  1.00  0.00     0.012 A 
ATOM     18  C   UNL A   1      28.010  30.086  21.307  1.00  0.00     0.058 A 
ATOM     19  C   UNL A   1      28.252  32.158  23.190  1.00  0.00     0.051 A 
ATOM     20  C   UNL A   1      27.867  31.413  20.925  1.00  0.00     0.157 A 
ATOM     21  C   UNL A   1      27.964  32.441  21.860  1.00  0.00     0.157 A 
BRANCH  20  22
ATOM     22  O   UNL A   1      27.591  31.706  19.619  1.00  0.00    -0.504 OA
ATOM     23  H   UNL A   1      27.637  31.034  18.969  1.00  0.00     0.293 HD
ENDBRANCH  20  22
BRANCH  21  24
ATOM     24  O   UNL A   1      27.749  33.720  21.426  1.00  0.00    -0.504 OA
ATOM     25  H   UNL A   1      27.004  34.199  21.729  1.00  0.00     0.293 HD
ENDBRANCH  21  24
ENDBRANCH  15  16
ENDBRANCH   7   8
ENDBRANCH   6   7
ENDBRANCH   5   6
ENDBRANCH   3   5
ENDBRANCH   2   3
ENDBRANCH   1   2
BRANCH   1  26
ATOM     26  C   UNL A   1      31.581  32.667  26.951  1.00  0.00     0.275 C 
BRANCH  26  27
ATOM     27  O   UNL A   1      33.005  32.796  26.822  1.00  0.00    -0.458 OA
BRANCH  27  28
ATOM     28  C   UNL A   1      33.606  33.456  27.848  1.00  0.00     0.338 C 
ATOM     29  O   UNL A   1      33.149  34.401  28.460  1.00  0.00    -0.246 OA
BRANCH  28  30
ATOM     30  C   UNL A   1      34.854  32.758  28.240  1.00  0.00     0.060 A 
ATOM     31  C   UNL A   1      34.758  31.396  28.558  1.00  0.00     0.016 A 
ATOM     32  C   UNL A   1      36.088  33.411  28.308  1.00  0.00     0.016 A 
ATOM     33  C   UNL A   1      35.885  30.697  28.995  1.00  0.00     0.010 A 
ATOM     34  C   UNL A   1      37.215  32.708  28.745  1.00  0.00     0.010 A 
ATOM     35  C   UNL A   1      37.111  31.359  29.129  1.00  0.00    -0.014 A 
BRANCH  35  36
ATOM     36  C   UNL A   1      38.233  30.703  29.840  1.00  0.00     0.031 A 
ATOM     37  C   UNL A   1      38.503  31.090  31.268  1.00  0.00     0.074 A 
ATOM     38  C   UNL A   1      39.014  29.794  29.229  1.00  0.00     0.049 A 
ATOM     39  N   UNL A   1      39.440  30.672  32.078  1.00  0.00    -0.248 NA
ATOM     40  C   UNL A   1      37.595  32.089  31.859  1.00  0.00     0.031 C 
ATOM     41  C   UNL A   1      38.865  29.341  27.848  1.00  0.00     0.029 A 
ATOM     42  N   UNL A   1      40.110  29.109  29.694  1.00  0.00    -0.354 N 
ATOM     43  C   UNL A   1      39.254  31.375  33.261  1.00  0.00     0.074 A 
ATOM     44  C   UNL A   1      38.125  32.256  33.061  1.00  0.00     0.031 C 
ATOM     45  C   UNL A   1      39.855  28.475  27.567  1.00  0.00     0.029 A 
ATOM     46  C   UNL A   1      40.715  28.326  28.740  1.00  0.00     0.049 A 
ATOM     47  H   UNL A   1      40.433  29.175  30.621  1.00  0.00     0.167 HD
ATOM     48  C   UNL A   1      39.949  31.285  34.420  1.00  0.00     0.034 A 
ATOM     49  C   UNL A   1      41.840  27.587  28.804  1.00  0.00     0.034 A 
ATOM     50  C   UNL A   1      41.056  30.397  34.631  1.00  0.00     0.049 A 
ATOM     51  C   UNL A   1      42.603  27.506  30.103  1.00  0.00     0.074 A 
ATOM     52  C   UNL A   1      41.791  30.198  35.786  1.00  0.00     0.029 A 
ATOM     53  N   UNL A   1      41.599  29.568  33.662  1.00  0.00    -0.354 N 
ATOM     54  N   UNL A   1      42.332  28.069  31.257  1.00  0.00    -0.248 NA
ATOM     55  C   UNL A   1      43.807  26.660  30.121  1.00  0.00     0.031 C 
ATOM     56  C   UNL A   1      42.790  29.258  35.510  1.00  0.00     0.029 A 
ATOM     57  C   UNL A   1      42.664  28.860  34.188  1.00  0.00     0.049 A 
ATOM     58  H   UNL A   1      41.274  29.494  32.735  1.00  0.00     0.167 HD
ATOM     59  C   UNL A   1      43.304  27.614  32.144  1.00  0.00     0.074 A 
ATOM     60  C   UNL A   1      44.166  26.722  31.398  1.00  0.00     0.031 C 
ATOM     61  C   UNL A   1      43.473  27.919  33.455  1.00  0.00     0.034 A 
BRANCH  48  62
ATOM     62  C   UNL A   1      39.498  32.155  35.561  1.00  0.00     0.023 A 
ATOM     63  C   UNL A   1      38.625  31.626  36.533  1.00  0.00     0.012 A 
ATOM     64  C   UNL A   1      39.952  33.481  35.685  1.00  0.00     0.148 A 
ATOM     65  C   UNL A   1      38.183  32.416  37.593  1.00  0.00     0.002 A 
ATOM     66  C   UNL A   1      39.538  34.250  36.766  1.00  0.00     0.091 A 
ATOM     67  F   UNL A   1      40.757  33.977  34.734  1.00  0.00    -0.205 F 
ATOM     68  C   UNL A   1      38.646  33.723  37.715  1.00  0.00     0.022 A 
BRANCH  66  69
ATOM     69  S   UNL A   1      40.139  35.922  37.036  1.00  0.00     0.127 S 
ATOM     70  O   UNL A   1      39.467  36.280  38.283  1.00  0.00    -0.237 OA
ATOM     71  O   UNL A   1      41.583  35.721  37.159  1.00  0.00    -0.237 OA
ATOM     72  O   UNL A   1      39.735  36.679  35.859  1.00  0.00    -0.744 OA
ENDBRANCH  66  69
ENDBRANCH  48  62
BRANCH  49  73
ATOM     73  C   UNL A   1      42.289  26.817  27.609  1.00  0.00     0.023 A 
ATOM     74  C   UNL A   1      43.051  27.464  26.617  1.00  0.00     0.012 A 
ATOM     75  C   UNL A   1      41.993  25.448  27.466  1.00  0.00     0.148 A 
ATOM     76  C   UNL A   1      43.490  26.767  25.490  1.00  0.00     0.002 A 
ATOM     77  C   UNL A   1      42.475  24.747  26.366  1.00  0.00     0.091 A 
ATOM     78  F   UNL A   1      41.254  24.856  28.415  1.00  0.00    -0.205 F 
ATOM     79  C   UNL A   1      43.211  25.408  25.370  1.00  0.00     0.022 A 
BRANCH  77  80
ATOM     80  S   UNL A   1      42.267  22.972  26.181  1.00  0.00     0.127 S 
ATOM     81  O   UNL A   1      40.817  22.830  26.272  1.00  0.00    -0.237 OA
ATOM     82  O   UNL A   1      42.826  22.743  24.848  1.00  0.00    -0.237 OA
ATOM     83  O   UNL A   1      43.029  22.369  27.266  1.00  0.00    -0.744 OA
ENDBRANCH  77  80
ENDBRANCH  49  73
BRANCH  61  84
ATOM     84  C   UNL A   1      44.603  27.260  34.200  1.00  0.00     0.023 A 
ATOM     85  C   UNL A   1      45.880  27.853  34.201  1.00  0.00     0.012 A 
ATOM     86  C   UNL A   1      44.368  26.120  34.996  1.00  0.00     0.148 A 
ATOM     87  C   UNL A   1      46.911  27.312  34.970  1.00  0.00     0.002 A 
ATOM     88  C   UNL A   1      45.388  25.613  35.793  1.00  0.00     0.091 A 
ATOM     89  F   UNL A   1      43.150  25.560  34.967  1.00  0.00    -0.205 F 
ATOM     90  C   UNL A   1      46.662  26.202  35.775  1.00  0.00     0.022 A 
BRANCH  88  91
ATOM     91  S   UNL A   1      45.129  24.249  36.934  1.00  0.00     0.127 S 
ATOM     92  O   UNL A   1      46.456  24.101  37.528  1.00  0.00    -0.237 OA
ATOM     93  O   UNL A   1      44.113  24.787  37.839  1.00  0.00    -0.237 OA
ATOM     94  O   UNL A   1      44.677  23.127  36.121  1.00  0.00    -0.744 OA
ENDBRANCH  88  91
ENDBRANCH  61  84
ENDBRANCH  35  36
ENDBRANCH  28  30
ENDBRANCH  27  28
ENDBRANCH  26  27
ENDBRANCH   1  26
TORSDOF 20
ENDMDL
MODEL 2
REMARK VINA RESULT:     -11.5      5.915     11.413
REMARK SMILES O=C(CCCN1C(=O)/C(=C\c2ccc(O)c(O)c2)SC1=S)OCCOC(=O)c1ccc(-c2c3nc(c(-c4cccc(S(=O)(=O)[O-])c4F)c4ccc([nH]4)c(-c4cccc(S(=O)(=O)[O-])c4F)c4nc(c(-c5cccc(S(=O)(=O)[O-])c5F)c5ccc2[nH]5)C=C4)C=C3)cc1
REMARK SMILES IDX 23 1 22 2 2 3 1 4 3 5 4 6 5 7 6 8 7 9 20 10 8 11 9 12 19 13
REMARK SMILES IDX 21 14 10 15 11 16 12 17 18 18 13 19 16 20 14 21 17 22 15 24
REMARK SMILES IDX 24 26 25 27 26 28 27 29 28 30 29 31 90 32 30 33 89 34 31 35
REMARK SMILES IDX 32 36 33 37 83 38 34 39 88 40 82 41 84 42 35 43 87 44 81 45
REMARK SMILES IDX 80 46 36 48 68 49 48 50 67 51 49 52 52 53 66 54 85 55 50 56
REMARK SMILES IDX 51 57 65 59 86 60 53 61 37 62 38 63 46 64 39 65 41 66 47 67
REMARK SMILES IDX 40 68 42 69 43 70 44 71 45 72 69 73 70 74 78 75 71 76 73 77
REMARK SMILES IDX 79 78 72 79 74 80 75 81 76 82 77 83 54 84 55 85 63 86 56 87
REMARK SMILES IDX 58 88 64 89 57 90 59 91 60 92 61 93 62 94
REMARK H PARENT 17 23 15 25 84 47 52 58
REMARK Flexibility Score: inf
ROOT
ATOM      1  C   UNL A   1      37.243  20.274  24.669  1.00  0.00     0.274 C 
ENDROOT
BRANCH   1   2
ATOM      2  O   UNL A   1      37.226  21.645  25.100  1.00  0.00    -0.462 OA
BRANCH   2   3
ATOM      3  C   UNL A   1      36.668  22.604  24.316  1.00  0.00     0.305 C 
ATOM      4  O   UNL A   1      36.847  22.602  23.102  1.00  0.00    -0.252 OA
BRANCH   3   5
ATOM      5  C   UNL A   1      35.969  23.750  25.017  1.00  0.00     0.124 C 
BRANCH   5   6
ATOM      6  C   UNL A   1      35.442  23.420  26.410  1.00  0.00     0.034 C 
BRANCH   6   7
ATOM      7  C   UNL A   1      33.934  23.141  26.527  1.00  0.00     0.128 C 
BRANCH   7   8
ATOM      8  N   UNL A   1      33.232  22.591  25.353  1.00  0.00    -0.293 N 
ATOM      9  C   UNL A   1      33.322  21.222  25.135  1.00  0.00     0.266 C 
ATOM     10  C   UNL A   1      32.598  23.313  24.363  1.00  0.00     0.148 C 
ATOM     11  O   UNL A   1      33.926  20.436  25.852  1.00  0.00    -0.268 OA
ATOM     12  C   UNL A   1      32.528  20.818  23.938  1.00  0.00     0.081 C 
ATOM     13  S   UNL A   1      31.842  22.215  23.209  1.00  0.00    -0.054 SA
ATOM     14  S   UNL A   1      32.482  24.963  24.184  1.00  0.00    -0.052 S 
ATOM     15  C   UNL A   1      32.341  19.576  23.463  1.00  0.00     0.029 C 
BRANCH  15  16
ATOM     16  C   UNL A   1      32.954  18.374  24.032  1.00  0.00    -0.020 A 
ATOM     17  C   UNL A   1      34.146  17.849  23.506  1.00  0.00     0.012 A 
ATOM     18  C   UNL A   1      32.298  17.699  25.068  1.00  0.00     0.058 A 
ATOM     19  C   UNL A   1      34.646  16.625  23.959  1.00  0.00     0.051 A 
ATOM     20  C   UNL A   1      32.807  16.489  25.519  1.00  0.00     0.157 A 
ATOM     21  C   UNL A   1      33.958  15.943  24.957  1.00  0.00     0.157 A 
BRANCH  20  22
ATOM     22  O   UNL A   1      32.145  15.812  26.504  1.00  0.00    -0.504 OA
ATOM     23  H   UNL A   1      31.865  14.930  26.360  1.00  0.00     0.293 HD
ENDBRANCH  20  22
BRANCH  21  24
ATOM     24  O   UNL A   1      34.368  14.718  25.406  1.00  0.00    -0.504 OA
ATOM     25  H   UNL A   1      35.009  14.659  26.087  1.00  0.00     0.293 HD
ENDBRANCH  21  24
ENDBRANCH  15  16
ENDBRANCH   7   8
ENDBRANCH   6   7
ENDBRANCH   5   6
ENDBRANCH   3   5
ENDBRANCH   2   3
ENDBRANCH   1   2
BRANCH   1  26
ATOM     26  C   UNL A   1      38.540  19.551  25.030  1.00  0.00     0.275 C 
BRANCH  26  27
ATOM     27  O   UNL A   1      39.030  19.988  26.307  1.00  0.00    -0.458 OA
BRANCH  27  28
ATOM     28  C   UNL A   1      40.367  20.235  26.342  1.00  0.00     0.338 C 
ATOM     29  O   UNL A   1      41.242  19.513  25.906  1.00  0.00    -0.246 OA
BRANCH  28  30
ATOM     30  C   UNL A   1      40.619  21.603  26.854  1.00  0.00     0.060 A 
ATOM     31  C   UNL A   1      40.055  22.671  26.142  1.00  0.00     0.016 A 
ATOM     32  C   UNL A   1      41.392  21.848  27.991  1.00  0.00     0.016 A 
ATOM     33  C   UNL A   1      40.306  23.986  26.535  1.00  0.00     0.010 A 
ATOM     34  C   UNL A   1      41.642  23.167  28.383  1.00  0.00     0.010 A 
ATOM     35  C   UNL A   1      41.133  24.242  27.634  1.00  0.00    -0.014 A 
BRANCH  35  36
ATOM     36  C   UNL A   1      41.619  25.619  27.891  1.00  0.00     0.031 A 
ATOM     37  C   UNL A   1      43.017  25.978  27.469  1.00  0.00     0.074 A 
ATOM     38  C   UNL A   1      40.845  26.532  28.505  1.00  0.00     0.049 A 
ATOM     39  N   UNL A   1      43.664  27.104  27.612  1.00  0.00    -0.248 NA
ATOM     40  C   UNL A   1      43.791  24.918  26.799  1.00  0.00     0.031 C 
ATOM     41  C   UNL A   1      39.480  26.307  28.973  1.00  0.00     0.029 A 
ATOM     42  N   UNL A   1      41.118  27.829  28.863  1.00  0.00    -0.354 N 
ATOM     43  C   UNL A   1      44.926  26.883  27.079  1.00  0.00     0.074 A 
ATOM     44  C   UNL A   1      44.962  25.512  26.621  1.00  0.00     0.031 C 
ATOM     45  C   UNL A   1      39.043  27.421  29.586  1.00  0.00     0.029 A 
ATOM     46  C   UNL A   1      40.102  28.430  29.569  1.00  0.00     0.049 A 
ATOM     47  H   UNL A   1      41.960  28.285  28.638  1.00  0.00     0.167 HD
ATOM     48  C   UNL A   1      45.962  27.747  26.963  1.00  0.00     0.034 A 
ATOM     49  C   UNL A   1      40.042  29.646  30.146  1.00  0.00     0.034 A 
ATOM     50  C   UNL A   1      45.926  29.115  27.396  1.00  0.00     0.049 A 
ATOM     51  C   UNL A   1      41.210  30.592  30.010  1.00  0.00     0.074 A 
ATOM     52  C   UNL A   1      46.907  30.082  27.275  1.00  0.00     0.029 A 
ATOM     53  N   UNL A   1      44.855  29.708  28.046  1.00  0.00    -0.354 N 
ATOM     54  N   UNL A   1      42.346  30.415  29.379  1.00  0.00    -0.248 NA
ATOM     55  C   UNL A   1      41.075  31.917  30.636  1.00  0.00     0.031 C 
ATOM     56  C   UNL A   1      46.434  31.259  27.867  1.00  0.00     0.029 A 
ATOM     57  C   UNL A   1      45.152  31.027  28.340  1.00  0.00     0.049 A 
ATOM     58  H   UNL A   1      44.007  29.258  28.266  1.00  0.00     0.167 HD
ATOM     59  C   UNL A   1      43.041  31.616  29.496  1.00  0.00     0.074 A 
ATOM     60  C   UNL A   1      42.195  32.516  30.250  1.00  0.00     0.031 C 
ATOM     61  C   UNL A   1      44.273  31.937  29.030  1.00  0.00     0.034 A 
BRANCH  48  62
ATOM     62  C   UNL A   1      47.215  27.235  26.306  1.00  0.00     0.023 A 
ATOM     63  C   UNL A   1      47.411  27.449  24.927  1.00  0.00     0.012 A 
ATOM     64  C   UNL A   1      48.203  26.566  27.052  1.00  0.00     0.148 A 
ATOM     65  C   UNL A   1      48.557  26.974  24.292  1.00  0.00     0.002 A 
ATOM     66  C   UNL A   1      49.362  26.130  26.420  1.00  0.00     0.091 A 
ATOM     67  F   UNL A   1      47.985  26.345  28.356  1.00  0.00    -0.205 F 
ATOM     68  C   UNL A   1      49.536  26.323  25.040  1.00  0.00     0.022 A 
BRANCH  66  69
ATOM     69  S   UNL A   1      50.702  25.342  27.320  1.00  0.00     0.127 S 
ATOM     70  O   UNL A   1      51.110  26.406  28.234  1.00  0.00    -0.237 OA
ATOM     71  O   UNL A   1      50.029  24.212  27.961  1.00  0.00    -0.237 OA
ATOM     72  O   UNL A   1      51.683  24.963  26.311  1.00  0.00    -0.744 OA
ENDBRANCH  66  69
ENDBRANCH  48  62
BRANCH  49  73
ATOM     73  C   UNL A   1      38.805  30.064  30.865  1.00  0.00     0.023 A 
ATOM     74  C   UNL A   1      38.640  29.713  32.219  1.00  0.00     0.012 A 
ATOM     75  C   UNL A   1      37.809  30.829  30.227  1.00  0.00     0.148 A 
ATOM     76  C   UNL A   1      37.495  30.096  32.918  1.00  0.00     0.002 A 
ATOM     77  C   UNL A   1      36.694  31.250  30.943  1.00  0.00     0.091 A 
ATOM     78  F   UNL A   1      37.979  31.140  28.934  1.00  0.00    -0.205 F 
ATOM     79  C   UNL A   1      36.529  30.871  32.285  1.00  0.00     0.022 A 
BRANCH  77  80
ATOM     80  S   UNL A   1      35.453  32.347  30.248  1.00  0.00     0.127 S 
ATOM     81  O   UNL A   1      35.010  31.594  29.078  1.00  0.00    -0.237 OA
ATOM     82  O   UNL A   1      34.478  32.424  31.337  1.00  0.00    -0.237 OA
ATOM     83  O   UNL A   1      36.143  33.599  29.967  1.00  0.00    -0.744 OA
ENDBRANCH  77  80
ENDBRANCH  49  73
BRANCH  61  84
ATOM     84  C   UNL A   1      44.786  33.332  29.273  1.00  0.00     0.023 A 
ATOM     85  C   UNL A   1      45.429  33.639  30.488  1.00  0.00     0.012 A 
ATOM     86  C   UNL A   1      44.736  34.303  28.252  1.00  0.00     0.148 A 
ATOM     87  C   UNL A   1      46.001  34.896  30.688  1.00  0.00     0.002 A 
ATOM     88  C   UNL A   1      45.346  35.537  28.442  1.00  0.00     0.091 A 
ATOM     89  F   UNL A   1      44.103  33.997  27.110  1.00  0.00    -0.205 F 
ATOM     90  C   UNL A   1      45.972  35.839  29.663  1.00  0.00     0.022 A 
BRANCH  88  91
ATOM     91  S   UNL A   1      45.442  36.774  27.141  1.00  0.00     0.127 S 
ATOM     92  O   UNL A   1      44.040  37.153  26.986  1.00  0.00    -0.237 OA
ATOM     93  O   UNL A   1      46.288  37.802  27.750  1.00  0.00    -0.237 OA
ATOM     94  O   UNL A   1      46.041  36.103  25.995  1.00  0.00    -0.744 OA
ENDBRANCH  88  91
ENDBRANCH  61  84
ENDBRANCH  35  36
ENDBRANCH  28  30
ENDBRANCH  27  28
ENDBRANCH  26  27
ENDBRANCH   1  26
TORSDOF 20
ENDMDL
MODEL 3
REMARK VINA RESULT:     -11.2      2.088      7.764
REMARK SMILES O=C(CCCN1C(=O)/C(=C\c2ccc(O)c(O)c2)SC1=S)OCCOC(=O)c1ccc(-c2c3nc(c(-c4cccc(S(=O)(=O)[O-])c4F)c4ccc([nH]4)c(-c4cccc(S(=O)(=O)[O-])c4F)c4nc(c(-c5cccc(S(=O)(=O)[O-])c5F)c5ccc2[nH]5)C=C4)C=C3)cc1
REMARK SMILES IDX 23 1 22 2 2 3 1 4 3 5 4 6 5 7 6 8 7 9 20 10 8 11 9 12 19 13
REMARK SMILES IDX 21 14 10 15 11 16 12 17 18 18 13 19 16 20 14 21 17 22 15 24
REMARK SMILES IDX 24 26 25 27 26 28 27 29 28 30 29 31 90 32 30 33 89 34 31 35
REMARK SMILES IDX 32 36 33 37 83 38 34 39 88 40 82 41 84 42 35 43 87 44 81 45
REMARK SMILES IDX 80 46 36 48 68 49 48 50 67 51 49 52 52 53 66 54 85 55 50 56
REMARK SMILES IDX 51 57 65 59 86 60 53 61 37 62 38 63 46 64 39 65 41 66 47 67
REMARK SMILES IDX 40 68 42 69 43 70 44 71 45 72 69 73 70 74 78 75 71 76 73 77
REMARK SMILES IDX 79 78 72 79 74 80 75 81 76 82 77 83 54 84 55 85 63 86 56 87
REMARK SMILES IDX 58 88 64 89 57 90 59 91 60 92 61 93 62 94
REMARK H PARENT 17 23 15 25 84 47 52 58
REMARK Flexibility Score: inf
ROOT
ATOM      1  C   UNL A   1      33.121  31.020  27.259  1.00  0.00     0.274 C 
ENDROOT
BRANCH   1   2
ATOM      2  O   UNL A   1      32.199  29.920  27.185  1.00  0.00    -0.462 OA
BRANCH   2   3
ATOM      3  C   UNL A   1      32.515  28.806  26.476  1.00  0.00     0.305 C 
ATOM      4  O   UNL A   1      32.128  27.701  26.841  1.00  0.00    -0.252 OA
BRANCH   3   5
ATOM      5  C   UNL A   1      33.491  28.971  25.329  1.00  0.00     0.124 C 
BRANCH   5   6
ATOM      6  C   UNL A   1      33.812  27.685  24.574  1.00  0.00     0.034 C 
BRANCH   6   7
ATOM      7  C   UNL A   1      32.972  27.396  23.318  1.00  0.00     0.128 C 
BRANCH   7   8
ATOM      8  N   UNL A   1      31.530  27.142  23.486  1.00  0.00    -0.293 N 
ATOM      9  C   UNL A   1      30.655  28.176  23.177  1.00  0.00     0.266 C 
ATOM     10  C   UNL A   1      30.954  26.021  24.049  1.00  0.00     0.148 C 
ATOM     11  O   UNL A   1      30.991  29.277  22.761  1.00  0.00    -0.268 OA
ATOM     12  C   UNL A   1      29.237  27.751  23.359  1.00  0.00     0.081 C 
ATOM     13  S   UNL A   1      29.196  26.142  23.962  1.00  0.00    -0.054 SA
ATOM     14  S   UNL A   1      31.693  24.692  24.721  1.00  0.00    -0.052 S 
ATOM     15  C   UNL A   1      28.130  28.466  23.103  1.00  0.00     0.029 C 
BRANCH  15  16
ATOM     16  C   UNL A   1      28.134  29.855  22.638  1.00  0.00    -0.020 A 
ATOM     17  C   UNL A   1      28.278  30.921  23.540  1.00  0.00     0.012 A 
ATOM     18  C   UNL A   1      27.915  30.119  21.281  1.00  0.00     0.058 A 
ATOM     19  C   UNL A   1      28.137  32.243  23.107  1.00  0.00     0.051 A 
ATOM     20  C   UNL A   1      27.786  31.435  20.859  1.00  0.00     0.157 A 
ATOM     21  C   UNL A   1      27.874  32.489  21.765  1.00  0.00     0.157 A 
BRANCH  20  22
ATOM     22  O   UNL A   1      27.535  31.692  19.540  1.00  0.00    -0.504 OA
ATOM     23  H   UNL A   1      28.233  31.666  18.917  1.00  0.00     0.293 HD
ENDBRANCH  20  22
BRANCH  21  24
ATOM     24  O   UNL A   1      27.675  33.757  21.290  1.00  0.00    -0.504 OA
ATOM     25  H   UNL A   1      27.949  34.495  21.798  1.00  0.00     0.293 HD
ENDBRANCH  21  24
ENDBRANCH  15  16
ENDBRANCH   7   8
ENDBRANCH   6   7
ENDBRANCH   5   6
ENDBRANCH   3   5
ENDBRANCH   2   3
ENDBRANCH   1   2
BRANCH   1  26
ATOM     26  C   UNL A   1      32.426  32.381  27.288  1.00  0.00     0.275 C 
BRANCH  26  27
ATOM     27  O   UNL A   1      33.388  33.447  27.268  1.00  0.00    -0.458 OA
BRANCH  27  28
ATOM     28  C   UNL A   1      33.344  34.266  28.352  1.00  0.00     0.338 C 
ATOM     29  O   UNL A   1      32.484  35.089  28.597  1.00  0.00    -0.246 OA
BRANCH  28  30
ATOM     30  C   UNL A   1      34.424  33.909  29.303  1.00  0.00     0.060 A 
ATOM     31  C   UNL A   1      35.725  34.322  28.985  1.00  0.00     0.016 A 
ATOM     32  C   UNL A   1      34.184  33.181  30.471  1.00  0.00     0.016 A 
ATOM     33  C   UNL A   1      36.795  33.965  29.806  1.00  0.00     0.010 A 
ATOM     34  C   UNL A   1      35.258  32.825  31.293  1.00  0.00     0.010 A 
ATOM     35  C   UNL A   1      36.573  33.180  30.943  1.00  0.00    -0.014 A 
BRANCH  35  36
ATOM     36  C   UNL A   1      37.719  32.576  31.663  1.00  0.00     0.031 A 
ATOM     37  C   UNL A   1      38.446  31.427  31.019  1.00  0.00     0.074 A 
ATOM     38  C   UNL A   1      38.101  33.020  32.873  1.00  0.00     0.049 A 
ATOM     39  N   UNL A   1      39.454  30.727  31.467  1.00  0.00    -0.248 NA
ATOM     40  C   UNL A   1      37.964  31.009  29.691  1.00  0.00     0.031 C 
ATOM     41  C   UNL A   1      37.474  34.116  33.608  1.00  0.00     0.029 A 
ATOM     42  N   UNL A   1      39.098  32.578  33.707  1.00  0.00    -0.354 N 
ATOM     43  C   UNL A   1      39.709  29.770  30.494  1.00  0.00     0.074 A 
ATOM     44  C   UNL A   1      38.743  29.968  29.437  1.00  0.00     0.031 C 
ATOM     45  C   UNL A   1      38.082  34.241  34.801  1.00  0.00     0.029 A 
ATOM     46  C   UNL A   1      39.128  33.225  34.920  1.00  0.00     0.049 A 
ATOM     47  H   UNL A   1      39.730  31.865  33.462  1.00  0.00     0.167 HD
ATOM     48  C   UNL A   1      40.674  28.819  30.470  1.00  0.00     0.034 A 
ATOM     49  C   UNL A   1      39.900  33.012  36.004  1.00  0.00     0.034 A 
ATOM     50  C   UNL A   1      41.648  28.632  31.507  1.00  0.00     0.049 A 
ATOM     51  C   UNL A   1      40.964  31.943  35.959  1.00  0.00     0.074 A 
ATOM     52  C   UNL A   1      42.696  27.729  31.549  1.00  0.00     0.029 A 
ATOM     53  N   UNL A   1      41.690  29.351  32.690  1.00  0.00    -0.354 N 
ATOM     54  N   UNL A   1      41.285  31.138  34.974  1.00  0.00    -0.248 NA
ATOM     55  C   UNL A   1      41.796  31.775  37.161  1.00  0.00     0.031 C 
ATOM     56  C   UNL A   1      43.362  27.893  32.768  1.00  0.00     0.029 A 
ATOM     57  C   UNL A   1      42.740  28.909  33.475  1.00  0.00     0.049 A 
ATOM     58  H   UNL A   1      41.065  30.071  32.936  1.00  0.00     0.167 HD
ATOM     59  C   UNL A   1      42.378  30.400  35.421  1.00  0.00     0.074 A 
ATOM     60  C   UNL A   1      42.671  30.859  36.762  1.00  0.00     0.031 C 
ATOM     61  C   UNL A   1      43.067  29.423  34.781  1.00  0.00     0.034 A 
BRANCH  48  62
ATOM     62  C   UNL A   1      40.733  27.931  29.258  1.00  0.00     0.023 A 
ATOM     63  C   UNL A   1      39.880  26.811  29.177  1.00  0.00     0.012 A 
ATOM     64  C   UNL A   1      41.610  28.214  28.194  1.00  0.00     0.148 A 
ATOM     65  C   UNL A   1      39.924  25.966  28.070  1.00  0.00     0.002 A 
ATOM     66  C   UNL A   1      41.620  27.388  27.076  1.00  0.00     0.091 A 
ATOM     67  F   UNL A   1      42.435  29.264  28.303  1.00  0.00    -0.205 F 
ATOM     68  C   UNL A   1      40.786  26.259  27.016  1.00  0.00     0.022 A 
BRANCH  66  69
ATOM     69  S   UNL A   1      42.652  27.730  25.646  1.00  0.00     0.127 S 
ATOM     70  O   UNL A   1      41.965  28.875  25.053  1.00  0.00    -0.237 OA
ATOM     71  O   UNL A   1      43.943  28.044  26.257  1.00  0.00    -0.237 OA
ATOM     72  O   UNL A   1      42.643  26.507  24.854  1.00  0.00    -0.744 OA
ENDBRANCH  66  69
ENDBRANCH  48  62
BRANCH  49  73
ATOM     73  C   UNL A   1      39.731  33.866  37.213  1.00  0.00     0.023 A 
ATOM     74  C   UNL A   1      40.270  35.167  37.221  1.00  0.00     0.012 A 
ATOM     75  C   UNL A   1      39.017  33.411  38.339  1.00  0.00     0.148 A 
ATOM     76  C   UNL A   1      40.122  35.991  38.337  1.00  0.00     0.002 A 
ATOM     77  C   UNL A   1      38.830  34.254  39.428  1.00  0.00     0.091 A 
ATOM     78  F   UNL A   1      38.525  32.164  38.315  1.00  0.00    -0.205 F 
ATOM     79  C   UNL A   1      39.395  35.539  39.435  1.00  0.00     0.022 A 
BRANCH  77  80
ATOM     80  S   UNL A   1      37.811  33.806  40.837  1.00  0.00     0.127 S 
ATOM     81  O   UNL A   1      38.689  32.890  41.561  1.00  0.00    -0.237 OA
ATOM     82  O   UNL A   1      37.606  35.103  41.483  1.00  0.00    -0.237 OA
ATOM     83  O   UNL A   1      36.603  33.212  40.281  1.00  0.00    -0.744 OA
ENDBRANCH  77  80
ENDBRANCH  49  73
BRANCH  61  84
ATOM     84  C   UNL A   1      44.240  28.798  35.489  1.00  0.00     0.023 A 
ATOM     85  C   UNL A   1      45.532  29.328  35.303  1.00  0.00     0.012 A 
ATOM     86  C   UNL A   1      44.045  27.765  36.428  1.00  0.00     0.148 A 
ATOM     87  C   UNL A   1      46.613  28.828  36.029  1.00  0.00     0.002 A 
ATOM     88  C   UNL A   1      45.119  27.303  37.179  1.00  0.00     0.091 A 
ATOM     89  F   UNL A   1      42.810  27.262  36.577  1.00  0.00    -0.205 F 
ATOM     90  C   UNL A   1      46.405  27.827  36.975  1.00  0.00     0.022 A 
BRANCH  88  91
ATOM     91  S   UNL A   1      44.924  26.087  38.488  1.00  0.00     0.127 S 
ATOM     92  O   UNL A   1      46.310  25.869  38.901  1.00  0.00    -0.237 OA
ATOM     93  O   UNL A   1      44.104  26.805  39.463  1.00  0.00    -0.237 OA
ATOM     94  O   UNL A   1      44.266  24.941  37.875  1.00  0.00    -0.744 OA
ENDBRANCH  88  91
ENDBRANCH  61  84
ENDBRANCH  35  36
ENDBRANCH  28  30
ENDBRANCH  27  28
ENDBRANCH  26  27
ENDBRANCH   1  26
TORSDOF 20
ENDMDL
