MODEL 1
REMARK VINA RESULT:     -12.5      0.000      0.000
REMARK SMILES CC(C)CCN1C(=O)/C(=C2/SC(=S)N(CCC(=O)OCCOC(=O)c3ccc(-c4c5nc(c(-c6cccc(S(=O)(=O)[O-])c6F)c6ccc([nH]6)c(-c6cccc(S(=O)(=O)[O-])c6F)c6nc(c(-c7cccc(S(=O)(=O)[O-])c7F)c7ccc4[nH]7)C=C6)C=C5)cc3)C2=O)c2ccccc21
REMARK SMILES IDX 20 1 19 2 17 3 18 4 16 5 15 6 14 7 6 8 7 9 95 10 8 11 9 12
REMARK SMILES IDX 90 13 94 14 10 15 91 16 93 17 11 18 88 19 92 20 12 21 89 22
REMARK SMILES IDX 13 23 5 24 4 25 2 26 1 27 3 28 21 29 22 30 23 31 24 32 25 33
REMARK SMILES IDX 26 34 87 35 27 36 86 37 28 38 29 39 30 40 80 41 31 42 85 43
REMARK SMILES IDX 79 44 81 45 32 46 84 47 78 48 77 49 33 51 65 52 45 53 64 54
REMARK SMILES IDX 46 55 49 56 63 57 82 58 47 59 48 60 62 62 83 63 50 64 34 65
REMARK SMILES IDX 35 66 43 67 36 68 38 69 44 70 37 71 39 72 40 73 41 74 42 75
REMARK SMILES IDX 66 76 67 77 75 78 68 79 70 80 76 81 69 82 71 83 72 84 73 85
REMARK SMILES IDX 74 86 51 87 52 88 60 89 53 90 55 91 61 92 54 93 56 94 57 95
REMARK SMILES IDX 58 96 59 97
REMARK H PARENT 81 50 49 61
REMARK Flexibility Score: inf
ROOT
ATOM      1  C   UNL A   1      37.375  20.568  24.899  1.00  0.00     0.274 C 
ENDROOT
BRANCH   1   2
ATOM      2  O   UNL A   1      37.527  21.950  24.501  1.00  0.00    -0.462 OA
BRANCH   2   3
ATOM      3  C   UNL A   1      36.519  22.456  23.745  1.00  0.00     0.307 C 
ATOM      4  O   UNL A   1      36.686  23.140  22.740  1.00  0.00    -0.252 OA
BRANCH   3   5
ATOM      5  C   UNL A   1      35.149  22.191  24.319  1.00  0.00     0.144 C 
BRANCH   5   6
ATOM      6  C   UNL A   1      33.934  22.473  23.430  1.00  0.00     0.139 C 
BRANCH   6   7
ATOM      7  N   UNL A   1      32.923  23.402  23.961  1.00  0.00    -0.292 N 
ATOM      8  N   UNL A   1      30.943  28.764  23.173  1.00  0.00    -0.308 N 
ATOM      9  C   UNL A   1      31.192  27.454  22.708  1.00  0.00     0.260 C 
ATOM     10  C   UNL A   1      31.316  28.884  24.524  1.00  0.00     0.052 A 
ATOM     11  O   UNL A   1      30.967  26.995  21.605  1.00  0.00    -0.269 OA
ATOM     12  C   UNL A   1      31.621  26.691  23.938  1.00  0.00     0.069 C 
ATOM     13  C   UNL A   1      31.586  27.630  25.062  1.00  0.00     0.012 A 
ATOM     14  C   UNL A   1      31.436  30.014  25.308  1.00  0.00     0.027 A 
ATOM     15  C   UNL A   1      31.575  25.355  23.975  1.00  0.00     0.093 C 
ATOM     16  C   UNL A   1      31.867  27.478  26.414  1.00  0.00     0.011 A 
ATOM     17  C   UNL A   1      31.647  29.869  26.681  1.00  0.00     0.002 A 
ATOM     18  S   UNL A   1      31.023  24.458  25.331  1.00  0.00    -0.053 SA
ATOM     19  C   UNL A   1      32.595  24.549  23.230  1.00  0.00     0.267 C 
ATOM     20  C   UNL A   1      31.838  28.602  27.236  1.00  0.00     0.001 A 
ATOM     21  C   UNL A   1      32.170  23.167  25.096  1.00  0.00     0.148 C 
ATOM     22  O   UNL A   1      33.125  24.897  22.185  1.00  0.00    -0.268 OA
ATOM     23  S   UNL A   1      32.167  21.920  26.193  1.00  0.00    -0.052 S 
BRANCH   8  24
ATOM     24  C   UNL A   1      30.232  29.778  22.401  1.00  0.00     0.126 C 
BRANCH  24  25
ATOM     25  C   UNL A   1      28.692  29.579  22.241  1.00  0.00     0.025 C 
BRANCH  25  26
ATOM     26  C   UNL A   1      27.799  30.840  22.284  1.00  0.00    -0.016 C 
ATOM     27  C   UNL A   1      27.742  31.492  23.669  1.00  0.00     0.007 C 
ATOM     28  C   UNL A   1      28.203  31.901  21.255  1.00  0.00     0.007 C 
ENDBRANCH  25  26
ENDBRANCH  24  25
ENDBRANCH   8  24
ENDBRANCH   6   7
ENDBRANCH   5   6
ENDBRANCH   3   5
ENDBRANCH   2   3
ENDBRANCH   1   2
BRANCH   1  29
ATOM     29  C   UNL A   1      38.613  20.015  25.613  1.00  0.00     0.275 C 
BRANCH  29  30
ATOM     30  O   UNL A   1      39.698  20.954  25.666  1.00  0.00    -0.458 OA
BRANCH  30  31
ATOM     31  C   UNL A   1      40.384  20.965  26.829  1.00  0.00     0.338 C 
ATOM     32  O   UNL A   1      40.770  20.014  27.475  1.00  0.00    -0.246 OA
BRANCH  31  33
ATOM     33  C   UNL A   1      40.744  22.324  27.198  1.00  0.00     0.060 A 
ATOM     34  C   UNL A   1      40.216  23.397  26.486  1.00  0.00     0.016 A 
ATOM     35  C   UNL A   1      41.562  22.504  28.316  1.00  0.00     0.016 A 
ATOM     36  C   UNL A   1      40.583  24.680  26.857  1.00  0.00     0.010 A 
ATOM     37  C   UNL A   1      41.905  23.789  28.702  1.00  0.00     0.010 A 
ATOM     38  C   UNL A   1      41.445  24.876  27.949  1.00  0.00    -0.014 A 
BRANCH  38  39
ATOM     39  C   UNL A   1      41.904  26.236  28.272  1.00  0.00     0.031 A 
ATOM     40  C   UNL A   1      43.295  26.654  27.905  1.00  0.00     0.074 A 
ATOM     41  C   UNL A   1      41.050  27.079  28.875  1.00  0.00     0.049 A 
ATOM     42  N   UNL A   1      43.855  27.826  28.035  1.00  0.00    -0.248 NA
ATOM     43  C   UNL A   1      44.175  25.628  27.317  1.00  0.00     0.031 C 
ATOM     44  C   UNL A   1      39.692  26.734  29.304  1.00  0.00     0.029 A 
ATOM     45  N   UNL A   1      41.192  28.392  29.223  1.00  0.00    -0.354 N 
ATOM     46  C   UNL A   1      45.151  27.675  27.564  1.00  0.00     0.074 A 
ATOM     47  C   UNL A   1      45.310  26.296  27.167  1.00  0.00     0.031 C 
ATOM     48  C   UNL A   1      39.115  27.822  29.836  1.00  0.00     0.029 A 
ATOM     49  C   UNL A   1      40.070  28.925  29.808  1.00  0.00     0.049 A 
ATOM     50  H   UNL A   1      42.017  28.906  29.071  1.00  0.00     0.167 HD
ATOM     51  C   UNL A   1      46.111  28.620  27.450  1.00  0.00     0.034 A 
ATOM     52  C   UNL A   1      39.840  30.169  30.264  1.00  0.00     0.034 A 
ATOM     53  C   UNL A   1      45.922  29.993  27.822  1.00  0.00     0.049 A 
ATOM     54  C   UNL A   1      40.921  31.200  30.121  1.00  0.00     0.074 A 
ATOM     55  C   UNL A   1      46.809  31.045  27.695  1.00  0.00     0.029 A 
ATOM     56  N   UNL A   1      44.771  30.501  28.403  1.00  0.00    -0.354 N 
ATOM     57  N   UNL A   1      42.105  31.073  29.572  1.00  0.00    -0.248 NA
ATOM     58  C   UNL A   1      40.632  32.545  30.633  1.00  0.00     0.031 C 
ATOM     59  C   UNL A   1      46.200  32.188  28.220  1.00  0.00     0.029 A 
ATOM     60  C   UNL A   1      44.927  31.851  28.653  1.00  0.00     0.049 A 
ATOM     61  H   UNL A   1      43.962  29.979  28.608  1.00  0.00     0.167 HD
ATOM     62  C   UNL A   1      42.703  32.322  29.662  1.00  0.00     0.074 A 
ATOM     63  C   UNL A   1      41.739  33.198  30.302  1.00  0.00     0.031 C 
ATOM     64  C   UNL A   1      43.939  32.705  29.263  1.00  0.00     0.034 A 
BRANCH  51  65
ATOM     65  C   UNL A   1      47.430  28.218  26.854  1.00  0.00     0.023 A 
ATOM     66  C   UNL A   1      48.524  27.969  27.705  1.00  0.00     0.012 A 
ATOM     67  C   UNL A   1      47.561  28.000  25.470  1.00  0.00     0.148 A 
ATOM     68  C   UNL A   1      49.737  27.515  27.186  1.00  0.00     0.002 A 
ATOM     69  C   UNL A   1      48.762  27.519  24.962  1.00  0.00     0.091 A 
ATOM     70  F   UNL A   1      46.511  28.262  24.680  1.00  0.00    -0.205 F 
ATOM     71  C   UNL A   1      49.851  27.279  25.819  1.00  0.00     0.022 A 
BRANCH  69  72
ATOM     72  S   UNL A   1      49.004  27.138  23.225  1.00  0.00     0.127 S 
ATOM     73  O   UNL A   1      48.214  25.915  23.078  1.00  0.00    -0.237 OA
ATOM     74  O   UNL A   1      48.431  28.316  22.573  1.00  0.00    -0.237 OA
ATOM     75  O   UNL A   1      50.439  26.971  23.042  1.00  0.00    -0.744 OA
ENDBRANCH  69  72
ENDBRANCH  51  65
BRANCH  52  76
ATOM     76  C   UNL A   1      38.505  30.490  30.830  1.00  0.00     0.023 A 
ATOM     77  C   UNL A   1      38.253  30.231  32.190  1.00  0.00     0.012 A 
ATOM     78  C   UNL A   1      37.534  31.158  30.059  1.00  0.00     0.148 A 
ATOM     79  C   UNL A   1      37.052  30.634  32.775  1.00  0.00     0.002 A 
ATOM     80  C   UNL A   1      36.356  31.588  30.655  1.00  0.00     0.091 A 
ATOM     81  F   UNL A   1      37.809  31.398  28.769  1.00  0.00    -0.205 F 
ATOM     82  C   UNL A   1      36.110  31.322  32.012  1.00  0.00     0.022 A 
BRANCH  80  83
ATOM     83  S   UNL A   1      35.128  32.564  29.783  1.00  0.00     0.127 S 
ATOM     84  O   UNL A   1      34.230  32.951  30.869  1.00  0.00    -0.237 OA
ATOM     85  O   UNL A   1      35.942  33.651  29.240  1.00  0.00    -0.237 OA
ATOM     86  O   UNL A   1      34.549  31.677  28.784  1.00  0.00    -0.744 OA
ENDBRANCH  80  83
ENDBRANCH  52  76
BRANCH  64  87
ATOM     87  C   UNL A   1      44.341  34.133  29.503  1.00  0.00     0.023 A 
ATOM     88  C   UNL A   1      44.898  34.492  30.744  1.00  0.00     0.012 A 
ATOM     89  C   UNL A   1      44.293  35.075  28.457  1.00  0.00     0.148 A 
ATOM     90  C   UNL A   1      45.397  35.777  30.946  1.00  0.00     0.002 A 
ATOM     91  C   UNL A   1      44.824  36.343  28.654  1.00  0.00     0.091 A 
ATOM     92  F   UNL A   1      43.755  34.702  27.287  1.00  0.00    -0.205 F 
ATOM     93  C   UNL A   1      45.372  36.696  29.899  1.00  0.00     0.022 A 
BRANCH  91  94
ATOM     94  S   UNL A   1      44.901  37.573  27.349  1.00  0.00     0.127 S 
ATOM     95  O   UNL A   1      45.757  36.911  26.366  1.00  0.00    -0.237 OA
ATOM     96  O   UNL A   1      43.497  37.691  26.955  1.00  0.00    -0.237 OA
ATOM     97  O   UNL A   1      45.468  38.771  27.953  1.00  0.00    -0.744 OA
ENDBRANCH  91  94
ENDBRANCH  64  87
ENDBRANCH  38  39
ENDBRANCH  31  33
ENDBRANCH  30  31
ENDBRANCH  29  30
ENDBRANCH   1  29
TORSDOF 19
ENDMDL
MODEL 2
REMARK VINA RESULT:     -12.3      0.696      7.333
REMARK SMILES CC(C)CCN1C(=O)/C(=C2/SC(=S)N(CCC(=O)OCCOC(=O)c3ccc(-c4c5nc(c(-c6cccc(S(=O)(=O)[O-])c6F)c6ccc([nH]6)c(-c6cccc(S(=O)(=O)[O-])c6F)c6nc(c(-c7cccc(S(=O)(=O)[O-])c7F)c7ccc4[nH]7)C=C6)C=C5)cc3)C2=O)c2ccccc21
REMARK SMILES IDX 20 1 19 2 17 3 18 4 16 5 15 6 14 7 6 8 7 9 95 10 8 11 9 12
REMARK SMILES IDX 90 13 94 14 10 15 91 16 93 17 11 18 88 19 92 20 12 21 89 22
REMARK SMILES IDX 13 23 5 24 4 25 2 26 1 27 3 28 21 29 22 30 23 31 24 32 25 33
REMARK SMILES IDX 26 34 87 35 27 36 86 37 28 38 29 39 30 40 80 41 31 42 85 43
REMARK SMILES IDX 79 44 81 45 32 46 84 47 78 48 77 49 33 51 65 52 45 53 64 54
REMARK SMILES IDX 46 55 49 56 63 57 82 58 47 59 48 60 62 62 83 63 50 64 34 65
REMARK SMILES IDX 35 66 43 67 36 68 38 69 44 70 37 71 39 72 40 73 41 74 42 75
REMARK SMILES IDX 66 76 67 77 75 78 68 79 70 80 76 81 69 82 71 83 72 84 73 85
REMARK SMILES IDX 74 86 51 87 52 88 60 89 53 90 55 91 61 92 54 93 56 94 57 95
REMARK SMILES IDX 58 96 59 97
REMARK H PARENT 81 50 49 61
REMARK Flexibility Score: inf
ROOT
ATOM      1  C   UNL A   1      38.055  19.766  24.894  1.00  0.00     0.274 C 
ENDROOT
BRANCH   1   2
ATOM      2  O   UNL A   1      37.423  21.030  25.204  1.00  0.00    -0.462 OA
BRANCH   2   3
ATOM      3  C   UNL A   1      36.092  21.099  24.942  1.00  0.00     0.307 C 
ATOM      4  O   UNL A   1      35.325  20.144  25.009  1.00  0.00    -0.252 OA
BRANCH   3   5
ATOM      5  C   UNL A   1      35.648  22.453  24.448  1.00  0.00     0.144 C 
BRANCH   5   6
ATOM      6  C   UNL A   1      34.370  22.524  23.607  1.00  0.00     0.139 C 
BRANCH   6   7
ATOM      7  N   UNL A   1      33.312  23.430  24.082  1.00  0.00    -0.292 N 
ATOM      8  N   UNL A   1      31.222  28.725  23.139  1.00  0.00    -0.308 N 
ATOM      9  C   UNL A   1      31.527  27.418  22.703  1.00  0.00     0.260 C 
ATOM     10  C   UNL A   1      31.532  28.871  24.504  1.00  0.00     0.052 A 
ATOM     11  O   UNL A   1      31.364  26.940  21.596  1.00  0.00    -0.269 OA
ATOM     12  C   UNL A   1      31.922  26.681  23.959  1.00  0.00     0.069 C 
ATOM     13  C   UNL A   1      31.811  27.631  25.069  1.00  0.00     0.012 A 
ATOM     14  C   UNL A   1      31.586  30.013  25.278  1.00  0.00     0.027 A 
ATOM     15  C   UNL A   1      31.911  25.344  24.012  1.00  0.00     0.093 C 
ATOM     16  C   UNL A   1      32.037  27.503  26.434  1.00  0.00     0.011 A 
ATOM     17  C   UNL A   1      31.740  29.890  26.660  1.00  0.00     0.002 A 
ATOM     18  S   UNL A   1      31.325  24.448  25.354  1.00  0.00    -0.053 SA
ATOM     19  C   UNL A   1      32.985  24.559  23.322  1.00  0.00     0.267 C 
ATOM     20  C   UNL A   1      31.941  28.635  27.239  1.00  0.00     0.001 A 
ATOM     21  C   UNL A   1      32.516  23.187  25.185  1.00  0.00     0.148 C 
ATOM     22  O   UNL A   1      33.550  24.909  22.297  1.00  0.00    -0.268 OA
ATOM     23  S   UNL A   1      32.499  21.953  26.296  1.00  0.00    -0.052 S 
BRANCH   8  24
ATOM     24  C   UNL A   1      30.518  29.711  22.324  1.00  0.00     0.126 C 
BRANCH  24  25
ATOM     25  C   UNL A   1      28.994  29.465  22.097  1.00  0.00     0.025 C 
BRANCH  25  26
ATOM     26  C   UNL A   1      28.053  29.630  23.313  1.00  0.00    -0.016 C 
ATOM     27  C   UNL A   1      27.549  31.065  23.496  1.00  0.00     0.007 C 
ATOM     28  C   UNL A   1      26.848  28.684  23.277  1.00  0.00     0.007 C 
ENDBRANCH  25  26
ENDBRANCH  24  25
ENDBRANCH   8  24
ENDBRANCH   6   7
ENDBRANCH   5   6
ENDBRANCH   3   5
ENDBRANCH   2   3
ENDBRANCH   1   2
BRANCH   1  29
ATOM     29  C   UNL A   1      39.396  19.580  25.614  1.00  0.00     0.275 C 
BRANCH  29  30
ATOM     30  O   UNL A   1      39.529  20.410  26.778  1.00  0.00    -0.458 OA
BRANCH  30  31
ATOM     31  C   UNL A   1      40.791  20.544  27.239  1.00  0.00     0.338 C 
ATOM     32  O   UNL A   1      41.620  19.674  27.402  1.00  0.00    -0.246 OA
BRANCH  31  33
ATOM     33  C   UNL A   1      41.123  21.946  27.423  1.00  0.00     0.060 A 
ATOM     34  C   UNL A   1      40.598  22.901  26.556  1.00  0.00     0.016 A 
ATOM     35  C   UNL A   1      41.910  22.295  28.524  1.00  0.00     0.016 A 
ATOM     36  C   UNL A   1      40.938  24.229  26.753  1.00  0.00     0.010 A 
ATOM     37  C   UNL A   1      42.225  23.627  28.735  1.00  0.00     0.010 A 
ATOM     38  C   UNL A   1      41.770  24.590  27.826  1.00  0.00    -0.014 A 
BRANCH  38  39
ATOM     39  C   UNL A   1      42.201  25.990  27.967  1.00  0.00     0.031 A 
ATOM     40  C   UNL A   1      41.279  26.987  28.599  1.00  0.00     0.074 A 
ATOM     41  C   UNL A   1      43.427  26.333  27.541  1.00  0.00     0.049 A 
ATOM     42  N   UNL A   1      41.504  28.241  28.881  1.00  0.00    -0.248 NA
ATOM     43  C   UNL A   1      39.927  26.522  28.961  1.00  0.00     0.031 C 
ATOM     44  C   UNL A   1      44.370  25.429  26.877  1.00  0.00     0.029 A 
ATOM     45  N   UNL A   1      44.092  27.525  27.608  1.00  0.00    -0.354 N 
ATOM     46  C   UNL A   1      40.325  28.719  29.434  1.00  0.00     0.074 A 
ATOM     47  C   UNL A   1      39.374  27.631  29.428  1.00  0.00     0.031 C 
ATOM     48  C   UNL A   1      45.505  26.096  26.620  1.00  0.00     0.029 A 
ATOM     49  C   UNL A   1      45.357  27.474  27.078  1.00  0.00     0.049 A 
ATOM     50  H   UNL A   1      43.702  28.340  27.998  1.00  0.00     0.167 HD
ATOM     51  C   UNL A   1      40.076  29.951  29.928  1.00  0.00     0.034 A 
ATOM     52  C   UNL A   1      46.293  28.435  26.981  1.00  0.00     0.034 A 
ATOM     53  C   UNL A   1      41.046  31.008  29.952  1.00  0.00     0.049 A 
ATOM     54  C   UNL A   1      45.992  29.794  27.541  1.00  0.00     0.074 A 
ATOM     55  C   UNL A   1      40.916  32.279  30.482  1.00  0.00     0.029 A 
ATOM     56  N   UNL A   1      42.321  30.921  29.415  1.00  0.00    -0.354 N 
ATOM     57  N   UNL A   1      44.912  30.202  28.162  1.00  0.00    -0.248 NA
ATOM     58  C   UNL A   1      47.039  30.816  27.412  1.00  0.00     0.031 C 
ATOM     59  C   UNL A   1      42.109  32.968  30.244  1.00  0.00     0.029 A 
ATOM     60  C   UNL A   1      42.987  32.119  29.588  1.00  0.00     0.049 A 
ATOM     61  H   UNL A   1      42.696  30.124  28.975  1.00  0.00     0.167 HD
ATOM     62  C   UNL A   1      45.148  31.524  28.510  1.00  0.00     0.074 A 
ATOM     63  C   UNL A   1      46.485  31.843  28.045  1.00  0.00     0.031 C 
ATOM     64  C   UNL A   1      44.329  32.398  29.142  1.00  0.00     0.034 A 
BRANCH  51  65
ATOM     65  C   UNL A   1      38.724  30.211  30.530  1.00  0.00     0.023 A 
ATOM     66  C   UNL A   1      38.455  29.768  31.840  1.00  0.00     0.012 A 
ATOM     67  C   UNL A   1      37.758  30.966  29.839  1.00  0.00     0.148 A 
ATOM     68  C   UNL A   1      37.239  30.067  32.453  1.00  0.00     0.002 A 
ATOM     69  C   UNL A   1      36.560  31.287  30.466  1.00  0.00     0.091 A 
ATOM     70  F   UNL A   1      38.032  31.360  28.587  1.00  0.00    -0.205 F 
ATOM     71  C   UNL A   1      36.298  30.835  31.771  1.00  0.00     0.022 A 
BRANCH  69  72
ATOM     72  S   UNL A   1      35.300  32.307  29.697  1.00  0.00     0.127 S 
ATOM     73  O   UNL A   1      34.356  32.492  30.800  1.00  0.00    -0.237 OA
ATOM     74  O   UNL A   1      36.057  33.505  29.335  1.00  0.00    -0.237 OA
ATOM     75  O   UNL A   1      34.788  31.540  28.571  1.00  0.00    -0.744 OA
ENDBRANCH  69  72
ENDBRANCH  51  65
BRANCH  52  76
ATOM     76  C   UNL A   1      47.609  28.096  26.381  1.00  0.00     0.023 A 
ATOM     77  C   UNL A   1      48.680  27.744  27.223  1.00  0.00     0.012 A 
ATOM     78  C   UNL A   1      47.765  28.005  24.984  1.00  0.00     0.148 A 
ATOM     79  C   UNL A   1      49.888  27.304  26.682  1.00  0.00     0.002 A 
ATOM     80  C   UNL A   1      48.958  27.532  24.453  1.00  0.00     0.091 A 
ATOM     81  F   UNL A   1      46.723  28.339  24.210  1.00  0.00    -0.205 F 
ATOM     82  C   UNL A   1      50.023  27.187  25.300  1.00  0.00     0.022 A 
BRANCH  80  83
ATOM     83  S   UNL A   1      49.194  27.254  22.695  1.00  0.00     0.127 S 
ATOM     84  O   UNL A   1      50.634  27.014  22.624  1.00  0.00    -0.237 OA
ATOM     85  O   UNL A   1      48.361  26.075  22.466  1.00  0.00    -0.237 OA
ATOM     86  O   UNL A   1      48.733  28.466  22.034  1.00  0.00    -0.744 OA
ENDBRANCH  80  83
ENDBRANCH  52  76
BRANCH  64  87
ATOM     87  C   UNL A   1      44.839  33.791  29.376  1.00  0.00     0.023 A 
ATOM     88  C   UNL A   1      45.545  34.076  30.561  1.00  0.00     0.012 A 
ATOM     89  C   UNL A   1      44.739  34.769  28.368  1.00  0.00     0.148 A 
ATOM     90  C   UNL A   1      46.140  35.322  30.743  1.00  0.00     0.002 A 
ATOM     91  C   UNL A   1      45.364  35.997  28.541  1.00  0.00     0.091 A 
ATOM     92  F   UNL A   1      44.060  34.467  27.253  1.00  0.00    -0.205 F 
ATOM     93  C   UNL A   1      46.061  36.276  29.730  1.00  0.00     0.022 A 
BRANCH  91  94
ATOM     94  S   UNL A   1      45.378  37.264  27.270  1.00  0.00     0.127 S 
ATOM     95  O   UNL A   1      46.180  36.628  26.226  1.00  0.00    -0.237 OA
ATOM     96  O   UNL A   1      43.956  37.397  26.953  1.00  0.00    -0.237 OA
ATOM     97  O   UNL A   1      45.981  38.443  27.878  1.00  0.00    -0.744 OA
ENDBRANCH  91  94
ENDBRANCH  64  87
ENDBRANCH  38  39
ENDBRANCH  31  33
ENDBRANCH  30  31
ENDBRANCH  29  30
ENDBRANCH   1  29
TORSDOF 19
ENDMDL
MODEL 3
REMARK VINA RESULT:     -11.8      1.794      7.555
REMARK SMILES CC(C)CCN1C(=O)/C(=C2/SC(=S)N(CCC(=O)OCCOC(=O)c3ccc(-c4c5nc(c(-c6cccc(S(=O)(=O)[O-])c6F)c6ccc([nH]6)c(-c6cccc(S(=O)(=O)[O-])c6F)c6nc(c(-c7cccc(S(=O)(=O)[O-])c7F)c7ccc4[nH]7)C=C6)C=C5)cc3)C2=O)c2ccccc21
REMARK SMILES IDX 20 1 19 2 17 3 18 4 16 5 15 6 14 7 6 8 7 9 95 10 8 11 9 12
REMARK SMILES IDX 90 13 94 14 10 15 91 16 93 17 11 18 88 19 92 20 12 21 89 22
REMARK SMILES IDX 13 23 5 24 4 25 2 26 1 27 3 28 21 29 22 30 23 31 24 32 25 33
REMARK SMILES IDX 26 34 87 35 27 36 86 37 28 38 29 39 30 40 80 41 31 42 85 43
REMARK SMILES IDX 79 44 81 45 32 46 84 47 78 48 77 49 33 51 65 52 45 53 64 54
REMARK SMILES IDX 46 55 49 56 63 57 82 58 47 59 48 60 62 62 83 63 50 64 34 65
REMARK SMILES IDX 35 66 43 67 36 68 38 69 44 70 37 71 39 72 40 73 41 74 42 75
REMARK SMILES IDX 66 76 67 77 75 78 68 79 70 80 76 81 69 82 71 83 72 84 73 85
REMARK SMILES IDX 74 86 51 87 52 88 60 89 53 90 55 91 61 92 54 93 56 94 57 95
REMARK SMILES IDX 58 96 59 97
REMARK H PARENT 81 50 49 61
REMARK Flexibility Score: inf
ROOT
ATOM      1  C   UNL A   1      36.573  19.770  25.004  1.00  0.00     0.274 C 
ENDROOT
BRANCH   1   2
ATOM      2  O   UNL A   1      35.605  20.769  25.404  1.00  0.00    -0.462 OA
BRANCH   2   3
ATOM      3  C   UNL A   1      34.499  20.859  24.621  1.00  0.00     0.307 C 
ATOM      4  O   UNL A   1      33.729  19.929  24.406  1.00  0.00    -0.252 OA
BRANCH   3   5
ATOM      5  C   UNL A   1      34.355  22.197  23.940  1.00  0.00     0.144 C 
BRANCH   5   6
ATOM      6  C   UNL A   1      33.013  22.520  23.275  1.00  0.00     0.139 C 
BRANCH   6   7
ATOM      7  N   UNL A   1      32.176  23.539  23.928  1.00  0.00    -0.292 N 
ATOM      8  N   UNL A   1      30.913  29.159  23.587  1.00  0.00    -0.308 N 
ATOM      9  C   UNL A   1      30.948  27.861  23.033  1.00  0.00     0.260 C 
ATOM     10  C   UNL A   1      31.383  29.138  24.913  1.00  0.00     0.052 A 
ATOM     11  O   UNL A   1      30.594  27.510  21.924  1.00  0.00    -0.269 OA
ATOM     12  C   UNL A   1      31.343  26.968  24.184  1.00  0.00     0.069 C 
ATOM     13  C   UNL A   1      31.509  27.827  25.359  1.00  0.00     0.012 A 
ATOM     14  C   UNL A   1      31.708  30.188  25.750  1.00  0.00     0.027 A 
ATOM     15  C   UNL A   1      31.115  25.650  24.149  1.00  0.00     0.093 C 
ATOM     16  C   UNL A   1      31.850  27.550  26.677  1.00  0.00     0.011 A 
ATOM     17  C   UNL A   1      31.981  29.926  27.093  1.00  0.00     0.002 A 
ATOM     18  S   UNL A   1      30.530  24.749  25.487  1.00  0.00    -0.053 SA
ATOM     19  C   UNL A   1      31.965  24.765  23.288  1.00  0.00     0.267 C 
ATOM     20  C   UNL A   1      32.029  28.611  27.561  1.00  0.00     0.001 A 
ATOM     21  C   UNL A   1      31.470  23.333  25.098  1.00  0.00     0.148 C 
ATOM     22  O   UNL A   1      32.472  25.107  22.230  1.00  0.00    -0.268 OA
ATOM     23  S   UNL A   1      31.363  22.029  26.120  1.00  0.00    -0.052 S 
BRANCH   8  24
ATOM     24  C   UNL A   1      30.303  30.308  22.927  1.00  0.00     0.126 C 
BRANCH  24  25
ATOM     25  C   UNL A   1      28.905  30.755  23.458  1.00  0.00     0.025 C 
BRANCH  25  26
ATOM     26  C   UNL A   1      27.661  30.328  22.645  1.00  0.00    -0.016 C 
ATOM     27  C   UNL A   1      27.891  30.354  21.131  1.00  0.00     0.007 C 
ATOM     28  C   UNL A   1      27.128  28.947  23.040  1.00  0.00     0.007 C 
ENDBRANCH  25  26
ENDBRANCH  24  25
ENDBRANCH   8  24
ENDBRANCH   6   7
ENDBRANCH   5   6
ENDBRANCH   3   5
ENDBRANCH   2   3
ENDBRANCH   1   2
BRANCH   1  29
ATOM     29  C   UNL A   1      37.979  20.349  24.811  1.00  0.00     0.275 C 
BRANCH  29  30
ATOM     30  O   UNL A   1      38.279  21.415  25.725  1.00  0.00    -0.458 OA
BRANCH  30  31
ATOM     31  C   UNL A   1      39.476  21.315  26.342  1.00  0.00     0.338 C 
ATOM     32  O   UNL A   1      40.156  20.323  26.490  1.00  0.00    -0.246 OA
BRANCH  31  33
ATOM     33  C   UNL A   1      39.959  22.627  26.737  1.00  0.00     0.060 A 
ATOM     34  C   UNL A   1      39.340  23.771  26.240  1.00  0.00     0.016 A 
ATOM     35  C   UNL A   1      40.997  22.689  27.670  1.00  0.00     0.016 A 
ATOM     36  C   UNL A   1      39.828  25.007  26.630  1.00  0.00     0.010 A 
ATOM     37  C   UNL A   1      41.465  23.927  28.079  1.00  0.00     0.010 A 
ATOM     38  C   UNL A   1      40.905  25.086  27.529  1.00  0.00    -0.014 A 
BRANCH  38  39
ATOM     39  C   UNL A   1      41.476  26.402  27.859  1.00  0.00     0.031 A 
ATOM     40  C   UNL A   1      40.622  27.428  28.538  1.00  0.00     0.074 A 
ATOM     41  C   UNL A   1      42.763  26.641  27.558  1.00  0.00     0.049 A 
ATOM     42  N   UNL A   1      40.962  28.609  28.977  1.00  0.00    -0.248 NA
ATOM     43  C   UNL A   1      39.203  27.091  28.752  1.00  0.00     0.031 C 
ATOM     44  C   UNL A   1      43.649  25.707  26.858  1.00  0.00     0.029 A 
ATOM     45  N   UNL A   1      43.547  27.731  27.806  1.00  0.00    -0.354 N 
ATOM     46  C   UNL A   1      39.803  29.162  29.501  1.00  0.00     0.074 A 
ATOM     47  C   UNL A   1      38.741  28.203  29.307  1.00  0.00     0.031 C 
ATOM     48  C   UNL A   1      44.868  26.258  26.757  1.00  0.00     0.029 A 
ATOM     49  C   UNL A   1      44.838  27.587  27.360  1.00  0.00     0.049 A 
ATOM     50  H   UNL A   1      43.220  28.541  28.260  1.00  0.00     0.167 HD
ATOM     51  C   UNL A   1      39.653  30.356  30.117  1.00  0.00     0.034 A 
ATOM     52  C   UNL A   1      45.879  28.435  27.436  1.00  0.00     0.034 A 
ATOM     53  C   UNL A   1      40.729  31.281  30.326  1.00  0.00     0.049 A 
ATOM     54  C   UNL A   1      45.686  29.752  28.128  1.00  0.00     0.074 A 
ATOM     55  C   UNL A   1      40.699  32.494  30.989  1.00  0.00     0.029 A 
ATOM     56  N   UNL A   1      42.025  31.101  29.869  1.00  0.00    -0.354 N 
ATOM     57  N   UNL A   1      44.612  30.217  28.718  1.00  0.00    -0.248 NA
ATOM     58  C   UNL A   1      46.847  30.650  28.188  1.00  0.00     0.031 C 
ATOM     59  C   UNL A   1      41.976  33.058  30.913  1.00  0.00     0.029 A 
ATOM     60  C   UNL A   1      42.804  32.186  30.223  1.00  0.00     0.049 A 
ATOM     61  H   UNL A   1      42.344  30.317  29.367  1.00  0.00     0.167 HD
ATOM     62  C   UNL A   1      44.964  31.457  29.231  1.00  0.00     0.074 A 
ATOM     63  C   UNL A   1      46.361  31.662  28.896  1.00  0.00     0.031 C 
ATOM     64  C   UNL A   1      44.200  32.349  29.904  1.00  0.00     0.034 A 
BRANCH  51  65
ATOM     65  C   UNL A   1      38.294  30.709  30.652  1.00  0.00     0.023 A 
ATOM     66  C   UNL A   1      37.932  30.287  31.947  1.00  0.00     0.012 A 
ATOM     67  C   UNL A   1      37.417  31.528  29.916  1.00  0.00     0.148 A 
ATOM     68  C   UNL A   1      36.711  30.669  32.501  1.00  0.00     0.002 A 
ATOM     69  C   UNL A   1      36.215  31.931  30.486  1.00  0.00     0.091 A 
ATOM     70  F   UNL A   1      37.778  31.900  28.680  1.00  0.00    -0.205 F 
ATOM     71  C   UNL A   1      35.859  31.499  31.776  1.00  0.00     0.022 A 
BRANCH  69  72
ATOM     72  S   UNL A   1      35.067  33.034  29.659  1.00  0.00     0.127 S 
ATOM     73  O   UNL A   1      34.577  32.189  28.569  1.00  0.00    -0.237 OA
ATOM     74  O   UNL A   1      34.088  33.300  30.712  1.00  0.00    -0.237 OA
ATOM     75  O   UNL A   1      35.847  34.190  29.239  1.00  0.00    -0.744 OA
ENDBRANCH  69  72
ENDBRANCH  51  65
BRANCH  52  76
ATOM     76  C   UNL A   1      47.192  28.007  26.891  1.00  0.00     0.023 A 
ATOM     77  C   UNL A   1      48.194  27.564  27.774  1.00  0.00     0.012 A 
ATOM     78  C   UNL A   1      47.407  27.926  25.501  1.00  0.00     0.148 A 
ATOM     79  C   UNL A   1      49.391  27.043  27.281  1.00  0.00     0.002 A 
ATOM     80  C   UNL A   1      48.585  27.374  25.017  1.00  0.00     0.091 A 
ATOM     81  F   UNL A   1      46.430  28.349  24.687  1.00  0.00    -0.205 F 
ATOM     82  C   UNL A   1      49.581  26.937  25.904  1.00  0.00     0.022 A 
BRANCH  80  83
ATOM     83  S   UNL A   1      48.882  27.106  23.266  1.00  0.00     0.127 S 
ATOM     84  O   UNL A   1      50.332  26.927  23.235  1.00  0.00    -0.237 OA
ATOM     85  O   UNL A   1      48.106  25.892  23.015  1.00  0.00    -0.237 OA
ATOM     86  O   UNL A   1      48.389  28.297  22.590  1.00  0.00    -0.744 OA
ENDBRANCH  80  83
ENDBRANCH  52  76
BRANCH  64  87
ATOM     87  C   UNL A   1      44.840  33.639  30.330  1.00  0.00     0.023 A 
ATOM     88  C   UNL A   1      44.733  34.769  29.498  1.00  0.00     0.012 A 
ATOM     89  C   UNL A   1      45.422  33.762  31.607  1.00  0.00     0.148 A 
ATOM     90  C   UNL A   1      45.204  36.007  29.929  1.00  0.00     0.002 A 
ATOM     91  C   UNL A   1      45.858  35.006  32.044  1.00  0.00     0.091 A 
ATOM     92  F   UNL A   1      45.510  32.667  32.375  1.00  0.00    -0.205 F 
ATOM     93  C   UNL A   1      45.754  36.128  31.204  1.00  0.00     0.022 A 
BRANCH  91  94
ATOM     94  S   UNL A   1      46.516  35.277  33.691  1.00  0.00     0.127 S 
ATOM     95  O   UNL A   1      46.814  36.708  33.660  1.00  0.00    -0.237 OA
ATOM     96  O   UNL A   1      45.382  34.908  34.540  1.00  0.00    -0.237 OA
ATOM     97  O   UNL A   1      47.678  34.408  33.813  1.00  0.00    -0.744 OA
ENDBRANCH  91  94
ENDBRANCH  64  87
ENDBRANCH  38  39
ENDBRANCH  31  33
ENDBRANCH  30  31
ENDBRANCH  29  30
ENDBRANCH   1  29
TORSDOF 19
ENDMDL
