MODEL 1
REMARK VINA RESULT:     -12.6      0.000      0.000
REMARK SMILES Cc1cc2c(c(C)c1Cl)C=C(C(=O)OCCOC(=O)c1ccc(-c3c4nc(c(-c5cccc(S(=O)(=O)[O-])c5F)c5ccc([nH]5)c(-c5cccc(S(=O)(=O)[O-])c5F)c5nc(c(-c6cccc(S(=O)(=O)[O-])c6F)c6ccc3[nH]6)C=C5)C=C4)cc1)[C@@H](C(F)(F)F)O2
REMARK SMILES IDX 16 1 15 2 14 3 12 4 13 5 11 6 1 7 2 8 3 9 8 10 4 11 6 12
REMARK SMILES IDX 9 13 5 14 88 15 7 16 10 17 83 18 84 19 85 20 86 21 87 22
REMARK SMILES IDX 17 23 18 24 19 25 20 26 21 27 82 28 22 29 81 30 23 31 24 32
REMARK SMILES IDX 25 33 75 34 26 35 80 36 74 37 76 38 27 39 79 40 73 41 72 42
REMARK SMILES IDX 28 44 60 45 40 46 59 47 41 48 44 49 58 50 77 51 42 52 43 53
REMARK SMILES IDX 57 55 78 56 45 57 29 58 30 59 38 60 31 61 33 62 39 63 32 64
REMARK SMILES IDX 34 65 35 66 36 67 37 68 61 69 62 70 70 71 63 72 65 73 71 74
REMARK SMILES IDX 64 75 66 76 67 77 68 78 69 79 46 80 47 81 55 82 48 83 50 84
REMARK SMILES IDX 56 85 49 86 51 87 52 88 53 89 54 90
REMARK H PARENT 76 43 44 54
REMARK Flexibility Score: inf
ROOT
ATOM      1  C   UNL A   1      36.297  20.997  25.162  1.00  0.00     0.275 C 
ENDROOT
BRANCH   1   2
ATOM      2  C   UNL A   1      35.128  21.742  24.518  1.00  0.00     0.275 C 
BRANCH   2   3
ATOM      3  O   UNL A   1      35.167  23.153  24.826  1.00  0.00    -0.459 OA
BRANCH   3   4
ATOM      4  C   UNL A   1      34.224  23.587  25.695  1.00  0.00     0.338 C 
ATOM      5  O   UNL A   1      33.984  23.124  26.800  1.00  0.00    -0.246 OA
BRANCH   4   6
ATOM      6  C   UNL A   1      33.475  24.725  25.128  1.00  0.00     0.087 C 
ATOM      7  C   UNL A   1      30.035  30.088  23.857  1.00  0.00     0.046 C 
ATOM      8  C   UNL A   1      30.982  29.040  24.374  1.00  0.00    -0.028 A 
ATOM      9  C   UNL A   1      31.036  27.795  23.734  1.00  0.00     0.052 A 
ATOM     10  C   UNL A   1      31.821  29.279  25.479  1.00  0.00     0.047 A 
ATOM     11  C   UNL A   1      31.888  26.792  24.191  1.00  0.00     0.128 A 
ATOM     12  C   UNL A   1      32.691  28.275  25.959  1.00  0.00    -0.021 A 
ATOM     13  Cl  UNL A   1      31.759  30.840  26.239  1.00  0.00    -0.084 Cl
ATOM     14  C   UNL A   1      32.709  27.015  25.301  1.00  0.00     0.022 A 
ATOM     15  O   UNL A   1      31.857  25.628  23.472  1.00  0.00    -0.475 OA
ATOM     16  C   UNL A   1      33.602  28.527  27.138  1.00  0.00     0.047 C 
ATOM     17  C   UNL A   1      33.550  25.908  25.751  1.00  0.00     0.027 C 
ATOM     18  C   UNL A   1      32.555  24.461  23.978  1.00  0.00     0.316 C 
BRANCH  18  19
ATOM     19  C   UNL A   1      31.526  23.372  24.323  1.00  0.00     0.430 C 
ATOM     20  F   UNL A   1      30.420  23.475  23.545  1.00  0.00    -0.167 F 
ATOM     21  F   UNL A   1      32.023  22.128  24.112  1.00  0.00    -0.167 F 
ATOM     22  F   UNL A   1      31.120  23.434  25.611  1.00  0.00    -0.167 F 
ENDBRANCH  18  19
ENDBRANCH   4   6
ENDBRANCH   3   4
ENDBRANCH   2   3
ENDBRANCH   1   2
BRANCH   1  23
ATOM     23  O   UNL A   1      37.544  21.604  24.781  1.00  0.00    -0.458 OA
BRANCH  23  24
ATOM     24  C   UNL A   1      38.611  21.226  25.520  1.00  0.00     0.338 C 
ATOM     25  O   UNL A   1      39.220  20.172  25.448  1.00  0.00    -0.246 OA
BRANCH  24  26
ATOM     26  C   UNL A   1      39.047  22.324  26.397  1.00  0.00     0.060 A 
ATOM     27  C   UNL A   1      38.532  23.592  26.173  1.00  0.00     0.016 A 
ATOM     28  C   UNL A   1      40.132  22.156  27.253  1.00  0.00     0.016 A 
ATOM     29  C   UNL A   1      39.222  24.707  26.637  1.00  0.00     0.010 A 
ATOM     30  C   UNL A   1      40.728  23.280  27.841  1.00  0.00     0.010 A 
ATOM     31  C   UNL A   1      40.342  24.582  27.471  1.00  0.00    -0.014 A 
BRANCH  31  32
ATOM     32  C   UNL A   1      41.142  25.782  27.888  1.00  0.00     0.031 A 
ATOM     33  C   UNL A   1      40.512  26.858  28.751  1.00  0.00     0.074 A 
ATOM     34  C   UNL A   1      42.439  25.926  27.534  1.00  0.00     0.049 A 
ATOM     35  N   UNL A   1      40.925  28.078  28.989  1.00  0.00    -0.248 NA
ATOM     36  C   UNL A   1      39.241  26.526  29.418  1.00  0.00     0.031 C 
ATOM     37  C   UNL A   1      43.228  24.962  26.766  1.00  0.00     0.029 A 
ATOM     38  N   UNL A   1      43.327  26.950  27.775  1.00  0.00    -0.354 N 
ATOM     39  C   UNL A   1      39.923  28.686  29.741  1.00  0.00     0.074 A 
ATOM     40  C   UNL A   1      38.887  27.695  29.935  1.00  0.00     0.031 C 
ATOM     41  C   UNL A   1      44.486  25.407  26.647  1.00  0.00     0.029 A 
ATOM     42  C   UNL A   1      44.559  26.755  27.192  1.00  0.00     0.049 A 
ATOM     43  H   UNL A   1      43.103  27.744  28.313  1.00  0.00     0.167 HD
ATOM     44  C   UNL A   1      39.872  29.950  30.228  1.00  0.00     0.034 A 
ATOM     45  C   UNL A   1      45.611  27.582  27.031  1.00  0.00     0.034 A 
ATOM     46  C   UNL A   1      40.951  30.899  30.124  1.00  0.00     0.049 A 
ATOM     47  C   UNL A   1      45.522  28.989  27.547  1.00  0.00     0.074 A 
ATOM     48  C   UNL A   1      41.003  32.195  30.608  1.00  0.00     0.029 A 
ATOM     49  N   UNL A   1      42.172  30.653  29.518  1.00  0.00    -0.354 N 
ATOM     50  N   UNL A   1      44.555  29.560  28.222  1.00  0.00    -0.248 NA
ATOM     51  C   UNL A   1      46.669  29.868  27.277  1.00  0.00     0.031 C 
ATOM     52  C   UNL A   1      42.246  32.740  30.272  1.00  0.00     0.029 A 
ATOM     53  C   UNL A   1      42.981  31.773  29.609  1.00  0.00     0.049 A 
ATOM     54  H   UNL A   1      42.428  29.805  29.086  1.00  0.00     0.167 HD
ATOM     55  C   UNL A   1      44.980  30.860  28.469  1.00  0.00     0.074 A 
ATOM     56  C   UNL A   1      46.311  30.978  27.906  1.00  0.00     0.031 C 
ATOM     57  C   UNL A   1      44.319  31.872  29.083  1.00  0.00     0.034 A 
BRANCH  44  58
ATOM     58  C   UNL A   1      38.618  30.398  30.940  1.00  0.00     0.023 A 
ATOM     59  C   UNL A   1      38.509  30.267  32.338  1.00  0.00     0.012 A 
ATOM     60  C   UNL A   1      37.588  31.051  30.228  1.00  0.00     0.148 A 
ATOM     61  C   UNL A   1      37.389  30.756  33.013  1.00  0.00     0.002 A 
ATOM     62  C   UNL A   1      36.500  31.581  30.913  1.00  0.00     0.091 A 
ATOM     63  F   UNL A   1      37.700  31.154  28.896  1.00  0.00    -0.205 F 
ATOM     64  C   UNL A   1      36.393  31.425  32.304  1.00  0.00     0.022 A 
BRANCH  62  65
ATOM     65  S   UNL A   1      35.215  32.544  30.105  1.00  0.00     0.127 S 
ATOM     66  O   UNL A   1      34.280  32.770  31.207  1.00  0.00    -0.237 OA
ATOM     67  O   UNL A   1      35.948  33.734  29.676  1.00  0.00    -0.237 OA
ATOM     68  O   UNL A   1      34.708  31.714  29.021  1.00  0.00    -0.744 OA
ENDBRANCH  62  65
ENDBRANCH  44  58
BRANCH  45  69
ATOM     69  C   UNL A   1      46.831  27.097  26.317  1.00  0.00     0.023 A 
ATOM     70  C   UNL A   1      46.983  27.366  24.944  1.00  0.00     0.012 A 
ATOM     71  C   UNL A   1      47.866  26.429  27.003  1.00  0.00     0.148 A 
ATOM     72  C   UNL A   1      48.137  26.971  24.266  1.00  0.00     0.002 A 
ATOM     73  C   UNL A   1      49.044  26.108  26.340  1.00  0.00     0.091 A 
ATOM     74  F   UNL A   1      47.693  26.155  28.305  1.00  0.00    -0.205 F 
ATOM     75  C   UNL A   1      49.175  26.361  24.967  1.00  0.00     0.022 A 
BRANCH  73  76
ATOM     76  S   UNL A   1      50.492  25.481  27.200  1.00  0.00     0.127 S 
ATOM     77  O   UNL A   1      49.986  24.236  27.772  1.00  0.00    -0.237 OA
ATOM     78  O   UNL A   1      51.444  25.314  26.101  1.00  0.00    -0.237 OA
ATOM     79  O   UNL A   1      50.860  26.514  28.159  1.00  0.00    -0.744 OA
ENDBRANCH  73  76
ENDBRANCH  45  69
BRANCH  57  80
ATOM     80  C   UNL A   1      45.025  33.198  29.198  1.00  0.00     0.023 A 
ATOM     81  C   UNL A   1      45.820  33.470  30.329  1.00  0.00     0.012 A 
ATOM     82  C   UNL A   1      44.954  34.150  28.161  1.00  0.00     0.148 A 
ATOM     83  C   UNL A   1      46.502  34.680  30.444  1.00  0.00     0.002 A 
ATOM     84  C   UNL A   1      45.680  35.331  28.257  1.00  0.00     0.091 A 
ATOM     85  F   UNL A   1      44.178  33.882  27.100  1.00  0.00    -0.205 F 
ATOM     86  C   UNL A   1      46.442  35.605  29.405  1.00  0.00     0.022 A 
BRANCH  84  87
ATOM     87  S   UNL A   1      45.748  36.534  26.925  1.00  0.00     0.127 S 
ATOM     88  O   UNL A   1      44.350  36.954  26.832  1.00  0.00    -0.237 OA
ATOM     89  O   UNL A   1      46.652  37.547  27.469  1.00  0.00    -0.237 OA
ATOM     90  O   UNL A   1      46.265  35.822  25.764  1.00  0.00    -0.744 OA
ENDBRANCH  84  87
ENDBRANCH  57  80
ENDBRANCH  31  32
ENDBRANCH  24  26
ENDBRANCH  23  24
ENDBRANCH   1  23
TORSDOF 15
ENDMDL
MODEL 2
REMARK VINA RESULT:     -12.5      4.856      9.948
REMARK SMILES Cc1cc2c(c(C)c1Cl)C=C(C(=O)OCCOC(=O)c1ccc(-c3c4nc(c(-c5cccc(S(=O)(=O)[O-])c5F)c5ccc([nH]5)c(-c5cccc(S(=O)(=O)[O-])c5F)c5nc(c(-c6cccc(S(=O)(=O)[O-])c6F)c6ccc3[nH]6)C=C5)C=C4)cc1)[C@@H](C(F)(F)F)O2
REMARK SMILES IDX 16 1 15 2 14 3 12 4 13 5 11 6 1 7 2 8 3 9 8 10 4 11 6 12
REMARK SMILES IDX 9 13 5 14 88 15 7 16 10 17 83 18 84 19 85 20 86 21 87 22
REMARK SMILES IDX 17 23 18 24 19 25 20 26 21 27 82 28 22 29 81 30 23 31 24 32
REMARK SMILES IDX 25 33 75 34 26 35 80 36 74 37 76 38 27 39 79 40 73 41 72 42
REMARK SMILES IDX 28 44 60 45 40 46 59 47 41 48 44 49 58 50 77 51 42 52 43 53
REMARK SMILES IDX 57 55 78 56 45 57 29 58 30 59 38 60 31 61 33 62 39 63 32 64
REMARK SMILES IDX 34 65 35 66 36 67 37 68 61 69 62 70 70 71 63 72 65 73 71 74
REMARK SMILES IDX 64 75 66 76 67 77 68 78 69 79 46 80 47 81 55 82 48 83 50 84
REMARK SMILES IDX 56 85 49 86 51 87 52 88 53 89 54 90
REMARK H PARENT 76 43 44 54
REMARK Flexibility Score: inf
ROOT
ATOM      1  C   UNL A   1      31.681  30.143  25.603  1.00  0.00     0.275 C 
ENDROOT
BRANCH   1   2
ATOM      2  C   UNL A   1      31.405  28.739  25.066  1.00  0.00     0.275 C 
BRANCH   2   3
ATOM      3  O   UNL A   1      32.272  27.759  25.678  1.00  0.00    -0.459 OA
BRANCH   3   4
ATOM      4  C   UNL A   1      33.233  27.246  24.874  1.00  0.00     0.338 C 
ATOM      5  O   UNL A   1      34.006  27.877  24.169  1.00  0.00    -0.246 OA
BRANCH   4   6
ATOM      6  C   UNL A   1      33.233  25.771  24.935  1.00  0.00     0.087 C 
ATOM      7  C   UNL A   1      34.369  19.382  24.623  1.00  0.00     0.046 C 
ATOM      8  C   UNL A   1      34.427  20.878  24.775  1.00  0.00    -0.028 A 
ATOM      9  C   UNL A   1      33.239  21.616  24.700  1.00  0.00     0.052 A 
ATOM     10  C   UNL A   1      35.641  21.553  25.000  1.00  0.00     0.047 A 
ATOM     11  C   UNL A   1      33.251  23.005  24.820  1.00  0.00     0.128 A 
ATOM     12  C   UNL A   1      35.675  22.960  25.124  1.00  0.00    -0.021 A 
ATOM     13  Cl  UNL A   1      37.098  20.614  25.121  1.00  0.00    -0.084 Cl
ATOM     14  C   UNL A   1      34.456  23.685  25.023  1.00  0.00     0.022 A 
ATOM     15  O   UNL A   1      32.025  23.608  24.742  1.00  0.00    -0.475 OA
ATOM     16  C   UNL A   1      36.973  23.692  25.376  1.00  0.00     0.047 C 
ATOM     17  C   UNL A   1      34.403  25.143  25.102  1.00  0.00     0.027 C 
ATOM     18  C   UNL A   1      31.949  25.054  24.659  1.00  0.00     0.316 C 
BRANCH  18  19
ATOM     19  C   UNL A   1      31.372  25.447  23.289  1.00  0.00     0.430 C 
ATOM     20  F   UNL A   1      30.586  26.548  23.383  1.00  0.00    -0.167 F 
ATOM     21  F   UNL A   1      32.350  25.755  22.402  1.00  0.00    -0.167 F 
ATOM     22  F   UNL A   1      30.624  24.463  22.742  1.00  0.00    -0.167 F 
ENDBRANCH  18  19
ENDBRANCH   4   6
ENDBRANCH   3   4
ENDBRANCH   2   3
ENDBRANCH   1   2
BRANCH   1  23
ATOM     23  O   UNL A   1      32.376  30.067  26.860  1.00  0.00    -0.458 OA
BRANCH  23  24
ATOM     24  C   UNL A   1      32.990  31.209  27.241  1.00  0.00     0.338 C 
ATOM     25  O   UNL A   1      32.468  32.290  27.459  1.00  0.00    -0.246 OA
BRANCH  24  26
ATOM     26  C   UNL A   1      34.423  30.971  27.479  1.00  0.00     0.060 A 
ATOM     27  C   UNL A   1      34.860  29.662  27.613  1.00  0.00     0.016 A 
ATOM     28  C   UNL A   1      35.267  32.024  27.818  1.00  0.00     0.016 A 
ATOM     29  C   UNL A   1      36.056  29.401  28.274  1.00  0.00     0.010 A 
ATOM     30  C   UNL A   1      36.538  31.749  28.343  1.00  0.00     0.010 A 
ATOM     31  C   UNL A   1      36.919  30.434  28.666  1.00  0.00    -0.014 A 
BRANCH  31  32
ATOM     32  C   UNL A   1      38.158  30.154  29.466  1.00  0.00     0.031 A 
ATOM     33  C   UNL A   1      39.256  29.278  28.893  1.00  0.00     0.074 A 
ATOM     34  C   UNL A   1      38.344  30.687  30.694  1.00  0.00     0.049 A 
ATOM     35  N   UNL A   1      40.258  28.698  29.505  1.00  0.00    -0.248 NA
ATOM     36  C   UNL A   1      39.210  29.004  27.446  1.00  0.00     0.031 C 
ATOM     37  C   UNL A   1      37.429  31.604  31.376  1.00  0.00     0.029 A 
ATOM     38  N   UNL A   1      39.373  30.530  31.596  1.00  0.00    -0.354 N 
ATOM     39  C   UNL A   1      40.895  27.914  28.546  1.00  0.00     0.074 A 
ATOM     40  C   UNL A   1      40.176  28.106  27.305  1.00  0.00     0.031 C 
ATOM     41  C   UNL A   1      37.955  31.970  32.552  1.00  0.00     0.029 A 
ATOM     42  C   UNL A   1      39.168  31.199  32.782  1.00  0.00     0.049 A 
ATOM     43  H   UNL A   1      40.176  29.992  31.410  1.00  0.00     0.167 HD
ATOM     44  C   UNL A   1      41.979  27.114  28.684  1.00  0.00     0.034 A 
ATOM     45  C   UNL A   1      39.823  31.149  33.959  1.00  0.00     0.034 A 
ATOM     46  C   UNL A   1      42.756  27.007  29.893  1.00  0.00     0.049 A 
ATOM     47  C   UNL A   1      41.001  30.230  34.103  1.00  0.00     0.074 A 
ATOM     48  C   UNL A   1      43.886  26.241  30.122  1.00  0.00     0.029 A 
ATOM     49  N   UNL A   1      42.502  27.701  31.065  1.00  0.00    -0.354 N 
ATOM     50  N   UNL A   1      41.568  29.468  33.200  1.00  0.00    -0.248 NA
ATOM     51  C   UNL A   1      41.629  30.161  35.430  1.00  0.00     0.031 C 
ATOM     52  C   UNL A   1      44.300  26.453  31.441  1.00  0.00     0.029 A 
ATOM     53  C   UNL A   1      43.449  27.376  32.023  1.00  0.00     0.049 A 
ATOM     54  H   UNL A   1      41.758  28.332  31.198  1.00  0.00     0.167 HD
ATOM     55  C   UNL A   1      42.626  28.839  33.843  1.00  0.00     0.074 A 
ATOM     56  C   UNL A   1      42.646  29.341  35.203  1.00  0.00     0.031 C 
ATOM     57  C   UNL A   1      43.488  27.909  33.361  1.00  0.00     0.034 A 
BRANCH  44  58
ATOM     58  C   UNL A   1      42.421  26.287  27.500  1.00  0.00     0.023 A 
ATOM     59  C   UNL A   1      43.330  26.816  26.562  1.00  0.00     0.012 A 
ATOM     60  C   UNL A   1      42.014  24.940  27.378  1.00  0.00     0.148 A 
ATOM     61  C   UNL A   1      43.808  26.030  25.512  1.00  0.00     0.002 A 
ATOM     62  C   UNL A   1      42.534  24.148  26.360  1.00  0.00     0.091 A 
ATOM     63  F   UNL A   1      41.136  24.456  28.269  1.00  0.00    -0.205 F 
ATOM     64  C   UNL A   1      43.422  24.694  25.420  1.00  0.00     0.022 A 
BRANCH  62  65
ATOM     65  S   UNL A   1      42.176  22.393  26.212  1.00  0.00     0.127 S 
ATOM     66  O   UNL A   1      40.723  22.401  26.053  1.00  0.00    -0.237 OA
ATOM     67  O   UNL A   1      42.919  22.029  25.005  1.00  0.00    -0.237 OA
ATOM     68  O   UNL A   1      42.663  21.775  27.437  1.00  0.00    -0.744 OA
ENDBRANCH  62  65
ENDBRANCH  44  58
BRANCH  45  69
ATOM     69  C   UNL A   1      39.349  31.982  35.105  1.00  0.00     0.023 A 
ATOM     70  C   UNL A   1      38.493  31.414  36.067  1.00  0.00     0.012 A 
ATOM     71  C   UNL A   1      39.791  33.310  35.280  1.00  0.00     0.148 A 
ATOM     72  C   UNL A   1      38.080  32.154  37.176  1.00  0.00     0.002 A 
ATOM     73  C   UNL A   1      39.438  34.014  36.424  1.00  0.00     0.091 A 
ATOM     74  F   UNL A   1      40.582  33.846  34.339  1.00  0.00    -0.205 F 
ATOM     75  C   UNL A   1      38.567  33.445  37.365  1.00  0.00     0.022 A 
BRANCH  73  76
ATOM     76  S   UNL A   1      40.156  35.610  36.832  1.00  0.00     0.127 S 
ATOM     77  O   UNL A   1      39.648  36.452  35.753  1.00  0.00    -0.237 OA
ATOM     78  O   UNL A   1      39.571  35.874  38.148  1.00  0.00    -0.237 OA
ATOM     79  O   UNL A   1      41.597  35.403  36.847  1.00  0.00    -0.744 OA
ENDBRANCH  73  76
ENDBRANCH  45  69
BRANCH  57  80
ATOM     80  C   UNL A   1      44.541  27.380  34.299  1.00  0.00     0.023 A 
ATOM     81  C   UNL A   1      45.749  28.087  34.462  1.00  0.00     0.012 A 
ATOM     82  C   UNL A   1      44.312  26.220  35.066  1.00  0.00     0.148 A 
ATOM     83  C   UNL A   1      46.727  27.629  35.344  1.00  0.00     0.002 A 
ATOM     84  C   UNL A   1      45.267  25.800  35.984  1.00  0.00     0.091 A 
ATOM     85  F   UNL A   1      43.164  25.551  34.885  1.00  0.00    -0.205 F 
ATOM     86  C   UNL A   1      46.482  26.494  36.113  1.00  0.00     0.022 A 
BRANCH  84  87
ATOM     87  S   UNL A   1      44.998  24.412  37.091  1.00  0.00     0.127 S 
ATOM     88  O   UNL A   1      43.825  24.854  37.843  1.00  0.00    -0.237 OA
ATOM     89  O   UNL A   1      44.743  23.315  36.156  1.00  0.00    -0.237 OA
ATOM     90  O   UNL A   1      46.222  24.273  37.868  1.00  0.00    -0.744 OA
ENDBRANCH  84  87
ENDBRANCH  57  80
ENDBRANCH  31  32
ENDBRANCH  24  26
ENDBRANCH  23  24
ENDBRANCH   1  23
TORSDOF 15
ENDMDL
MODEL 3
REMARK VINA RESULT:     -12.5      5.172      9.965
REMARK SMILES Cc1cc2c(c(C)c1Cl)C=C(C(=O)OCCOC(=O)c1ccc(-c3c4nc(c(-c5cccc(S(=O)(=O)[O-])c5F)c5ccc([nH]5)c(-c5cccc(S(=O)(=O)[O-])c5F)c5nc(c(-c6cccc(S(=O)(=O)[O-])c6F)c6ccc3[nH]6)C=C5)C=C4)cc1)[C@@H](C(F)(F)F)O2
REMARK SMILES IDX 16 1 15 2 14 3 12 4 13 5 11 6 1 7 2 8 3 9 8 10 4 11 6 12
REMARK SMILES IDX 9 13 5 14 88 15 7 16 10 17 83 18 84 19 85 20 86 21 87 22
REMARK SMILES IDX 17 23 18 24 19 25 20 26 21 27 82 28 22 29 81 30 23 31 24 32
REMARK SMILES IDX 25 33 75 34 26 35 80 36 74 37 76 38 27 39 79 40 73 41 72 42
REMARK SMILES IDX 28 44 60 45 40 46 59 47 41 48 44 49 58 50 77 51 42 52 43 53
REMARK SMILES IDX 57 55 78 56 45 57 29 58 30 59 38 60 31 61 33 62 39 63 32 64
REMARK SMILES IDX 34 65 35 66 36 67 37 68 61 69 62 70 70 71 63 72 65 73 71 74
REMARK SMILES IDX 64 75 66 76 67 77 68 78 69 79 46 80 47 81 55 82 48 83 50 84
REMARK SMILES IDX 56 85 49 86 51 87 52 88 53 89 54 90
REMARK H PARENT 76 43 44 54
REMARK Flexibility Score: inf
ROOT
ATOM      1  C   UNL A   1      31.748  30.473  26.228  1.00  0.00     0.275 C 
ENDROOT
BRANCH   1   2
ATOM      2  C   UNL A   1      31.803  29.285  25.268  1.00  0.00     0.275 C 
BRANCH   2   3
ATOM      3  O   UNL A   1      32.647  28.230  25.781  1.00  0.00    -0.459 OA
BRANCH   3   4
ATOM      4  C   UNL A   1      33.434  27.615  24.867  1.00  0.00     0.338 C 
ATOM      5  O   UNL A   1      34.161  28.159  24.049  1.00  0.00    -0.246 OA
BRANCH   4   6
ATOM      6  C   UNL A   1      33.300  26.149  24.963  1.00  0.00     0.087 C 
ATOM      7  C   UNL A   1      33.825  19.676  24.759  1.00  0.00     0.046 C 
ATOM      8  C   UNL A   1      34.028  21.163  24.873  1.00  0.00    -0.028 A 
ATOM      9  C   UNL A   1      32.912  22.008  24.828  1.00  0.00     0.052 A 
ATOM     10  C   UNL A   1      35.307  21.726  25.033  1.00  0.00     0.047 A 
ATOM     11  C   UNL A   1      33.057  23.391  24.914  1.00  0.00     0.128 A 
ATOM     12  C   UNL A   1      35.477  23.126  25.121  1.00  0.00    -0.021 A 
ATOM     13  Cl  UNL A   1      36.675  20.657  25.117  1.00  0.00    -0.084 Cl
ATOM     14  C   UNL A   1      34.328  23.959  25.052  1.00  0.00     0.022 A 
ATOM     15  O   UNL A   1      31.890  24.104  24.871  1.00  0.00    -0.475 OA
ATOM     16  C   UNL A   1      36.847  23.738  25.303  1.00  0.00     0.047 C 
ATOM     17  C   UNL A   1      34.413  25.417  25.099  1.00  0.00     0.027 C 
ATOM     18  C   UNL A   1      31.945  25.549  24.756  1.00  0.00     0.316 C 
BRANCH  18  19
ATOM     19  C   UNL A   1      31.349  25.967  23.402  1.00  0.00     0.430 C 
ATOM     20  F   UNL A   1      30.679  24.942  22.821  1.00  0.00    -0.167 F 
ATOM     21  F   UNL A   1      30.454  26.976  23.538  1.00  0.00    -0.167 F 
ATOM     22  F   UNL A   1      32.294  26.378  22.527  1.00  0.00    -0.167 F 
ENDBRANCH  18  19
ENDBRANCH   4   6
ENDBRANCH   3   4
ENDBRANCH   2   3
ENDBRANCH   1   2
BRANCH   1  23
ATOM     23  O   UNL A   1      32.768  30.347  27.234  1.00  0.00    -0.458 OA
BRANCH  23  24
ATOM     24  C   UNL A   1      33.466  31.478  27.481  1.00  0.00     0.338 C 
ATOM     25  O   UNL A   1      33.018  32.602  27.636  1.00  0.00    -0.246 OA
BRANCH  24  26
ATOM     26  C   UNL A   1      34.895  31.175  27.657  1.00  0.00     0.060 A 
ATOM     27  C   UNL A   1      35.282  29.846  27.744  1.00  0.00     0.016 A 
ATOM     28  C   UNL A   1      35.796  32.184  27.984  1.00  0.00     0.016 A 
ATOM     29  C   UNL A   1      36.491  29.520  28.352  1.00  0.00     0.010 A 
ATOM     30  C   UNL A   1      37.073  31.845  28.452  1.00  0.00     0.010 A 
ATOM     31  C   UNL A   1      37.411  30.507  28.731  1.00  0.00    -0.014 A 
BRANCH  31  32
ATOM     32  C   UNL A   1      38.667  30.158  29.474  1.00  0.00     0.031 A 
ATOM     33  C   UNL A   1      39.679  29.209  28.861  1.00  0.00     0.074 A 
ATOM     34  C   UNL A   1      38.945  30.690  30.685  1.00  0.00     0.049 A 
ATOM     35  N   UNL A   1      40.671  28.573  29.431  1.00  0.00    -0.248 NA
ATOM     36  C   UNL A   1      39.546  28.924  27.422  1.00  0.00     0.031 C 
ATOM     37  C   UNL A   1      38.123  31.670  31.398  1.00  0.00     0.029 A 
ATOM     38  N   UNL A   1      40.005  30.477  31.539  1.00  0.00    -0.354 N 
ATOM     39  C   UNL A   1      41.211  27.741  28.453  1.00  0.00     0.074 A 
ATOM     40  C   UNL A   1      40.446  27.965  27.246  1.00  0.00     0.031 C 
ATOM     41  C   UNL A   1      38.728  32.014  32.542  1.00  0.00     0.029 A 
ATOM     42  C   UNL A   1      39.900  31.169  32.724  1.00  0.00     0.049 A 
ATOM     43  H   UNL A   1      40.763  29.888  31.322  1.00  0.00     0.167 HD
ATOM     44  C   UNL A   1      42.249  26.875  28.550  1.00  0.00     0.034 A 
ATOM     45  C   UNL A   1      40.607  31.090  33.870  1.00  0.00     0.034 A 
ATOM     46  C   UNL A   1      43.075  26.732  29.722  1.00  0.00     0.049 A 
ATOM     47  C   UNL A   1      41.731  30.100  33.969  1.00  0.00     0.074 A 
ATOM     48  C   UNL A   1      44.165  25.898  29.907  1.00  0.00     0.029 A 
ATOM     49  N   UNL A   1      42.922  27.451  30.896  1.00  0.00    -0.354 N 
ATOM     50  N   UNL A   1      42.204  29.295  33.050  1.00  0.00    -0.248 NA
ATOM     51  C   UNL A   1      42.417  30.004  35.265  1.00  0.00     0.031 C 
ATOM     52  C   UNL A   1      44.655  26.097  31.201  1.00  0.00     0.029 A 
ATOM     53  C   UNL A   1      43.892  27.077  31.811  1.00  0.00     0.049 A 
ATOM     54  H   UNL A   1      42.226  28.130  31.056  1.00  0.00     0.167 HD
ATOM     55  C   UNL A   1      43.251  28.606  33.650  1.00  0.00     0.074 A 
ATOM     56  C   UNL A   1      43.368  29.120  35.000  1.00  0.00     0.031 C 
ATOM     57  C   UNL A   1      44.029  27.620  33.139  1.00  0.00     0.034 A 
BRANCH  44  58
ATOM     58  C   UNL A   1      42.580  26.010  27.357  1.00  0.00     0.023 A 
ATOM     59  C   UNL A   1      43.454  26.482  26.358  1.00  0.00     0.012 A 
ATOM     60  C   UNL A   1      42.105  24.683  27.283  1.00  0.00     0.148 A 
ATOM     61  C   UNL A   1      43.831  25.658  25.295  1.00  0.00     0.002 A 
ATOM     62  C   UNL A   1      42.526  23.851  26.251  1.00  0.00     0.091 A 
ATOM     63  F   UNL A   1      41.261  24.254  28.234  1.00  0.00    -0.205 F 
ATOM     64  C   UNL A   1      43.380  24.340  25.250  1.00  0.00     0.022 A 
BRANCH  62  65
ATOM     65  S   UNL A   1      42.080  22.112  26.156  1.00  0.00     0.127 S 
ATOM     66  O   UNL A   1      42.872  21.667  25.010  1.00  0.00    -0.237 OA
ATOM     67  O   UNL A   1      42.541  21.607  27.449  1.00  0.00    -0.237 OA
ATOM     68  O   UNL A   1      40.637  22.074  25.965  1.00  0.00    -0.744 OA
ENDBRANCH  62  65
ENDBRANCH  44  58
BRANCH  45  69
ATOM     69  C   UNL A   1      40.243  31.963  35.026  1.00  0.00     0.023 A 
ATOM     70  C   UNL A   1      40.775  33.263  35.108  1.00  0.00     0.012 A 
ATOM     71  C   UNL A   1      39.326  31.534  36.009  1.00  0.00     0.148 A 
ATOM     72  C   UNL A   1      40.408  34.117  36.149  1.00  0.00     0.002 A 
ATOM     73  C   UNL A   1      38.907  32.415  36.998  1.00  0.00     0.091 A 
ATOM     74  F   UNL A   1      38.852  30.282  35.933  1.00  0.00    -0.205 F 
ATOM     75  C   UNL A   1      39.460  33.701  37.081  1.00  0.00     0.022 A 
BRANCH  73  76
ATOM     76  S   UNL A   1      37.568  32.024  38.130  1.00  0.00     0.127 S 
ATOM     77  O   UNL A   1      37.355  30.603  37.865  1.00  0.00    -0.237 OA
ATOM     78  O   UNL A   1      38.175  32.325  39.427  1.00  0.00    -0.237 OA
ATOM     79  O   UNL A   1      36.469  32.906  37.763  1.00  0.00    -0.744 OA
ENDBRANCH  73  76
ENDBRANCH  45  69
BRANCH  57  80
ATOM     80  C   UNL A   1      45.091  27.034  34.033  1.00  0.00     0.023 A 
ATOM     81  C   UNL A   1      46.380  27.603  34.050  1.00  0.00     0.012 A 
ATOM     82  C   UNL A   1      44.799  25.963  34.901  1.00  0.00     0.148 A 
ATOM     83  C   UNL A   1      47.371  27.094  34.888  1.00  0.00     0.002 A 
ATOM     84  C   UNL A   1      45.775  25.496  35.773  1.00  0.00     0.091 A 
ATOM     85  F   UNL A   1      43.572  25.423  34.858  1.00  0.00    -0.205 F 
ATOM     86  C   UNL A   1      47.065  26.049  35.757  1.00  0.00     0.022 A 
BRANCH  84  87
ATOM     87  S   UNL A   1      45.445  24.226  37.000  1.00  0.00     0.127 S 
ATOM     88  O   UNL A   1      45.157  23.067  36.157  1.00  0.00    -0.237 OA
ATOM     89  O   UNL A   1      46.718  24.154  37.719  1.00  0.00    -0.237 OA
ATOM     90  O   UNL A   1      44.327  24.714  37.795  1.00  0.00    -0.744 OA
ENDBRANCH  84  87
ENDBRANCH  57  80
ENDBRANCH  31  32
ENDBRANCH  24  26
ENDBRANCH  23  24
ENDBRANCH   1  23
TORSDOF 15
ENDMDL
