MODEL 1
REMARK VINA RESULT:     -12.2      0.000      0.000
REMARK SMILES C[C@@H](C(=O)OCCOC(=O)c1ccc(-c2c3nc(c(-c4cccc(S(=O)(=O)[O-])c4F)c4ccc([nH]4)c(-c4cccc(S(=O)(=O)[O-])c4F)c4nc(c(-c5cccc(S(=O)(=O)[O-])c5F)c5ccc2[nH]5)C=C4)C=C3)cc1)c1ccc(-c2ccccc2)c(F)c1
REMARK SMILES IDX 7 1 6 2 5 3 3 4 4 5 2 6 1 7 74 8 75 9 86 10 76 11 84 12
REMARK SMILES IDX 77 13 85 14 78 15 79 16 83 17 80 18 82 19 81 20 8 21 9 22
REMARK SMILES IDX 10 23 11 24 12 25 73 26 13 27 72 28 14 29 15 30 16 31 66 32
REMARK SMILES IDX 17 33 71 34 65 35 67 36 18 37 70 38 64 39 63 40 19 42 51 43
REMARK SMILES IDX 31 44 50 45 32 46 35 47 49 48 68 49 33 50 34 51 48 53 69 54
REMARK SMILES IDX 36 55 20 56 21 57 29 58 22 59 24 60 30 61 23 62 25 63 26 64
REMARK SMILES IDX 27 65 28 66 52 67 53 68 61 69 54 70 56 71 62 72 55 73 57 74
REMARK SMILES IDX 58 75 59 76 60 77 37 78 38 79 46 80 39 81 41 82 47 83 40 84
REMARK SMILES IDX 42 85 43 86 44 87 45 88
REMARK H PARENT 67 41 35 52
REMARK Flexibility Score: inf
ROOT
ATOM      1  C   UNL A   1      35.774  21.079  25.495  1.00  0.00     0.275 C 
ENDROOT
BRANCH   1   2
ATOM      2  C   UNL A   1      34.642  21.174  24.476  1.00  0.00     0.274 C 
BRANCH   2   3
ATOM      3  O   UNL A   1      33.973  22.447  24.592  1.00  0.00    -0.462 OA
BRANCH   3   4
ATOM      4  C   UNL A   1      34.326  23.415  23.700  1.00  0.00     0.313 C 
ATOM      5  O   UNL A   1      34.591  23.199  22.522  1.00  0.00    -0.252 OA
BRANCH   4   6
ATOM      6  C   UNL A   1      34.425  24.804  24.346  1.00  0.00     0.126 C 
ATOM      7  C   UNL A   1      34.843  24.771  25.819  1.00  0.00     0.025 C 
BRANCH   6   8
ATOM      8  C   UNL A   1      33.165  25.628  24.105  1.00  0.00    -0.031 A 
ATOM      9  C   UNL A   1      32.566  26.315  25.170  1.00  0.00     0.005 A 
ATOM     10  C   UNL A   1      32.596  25.782  22.836  1.00  0.00     0.044 A 
ATOM     11  C   UNL A   1      31.454  27.148  24.963  1.00  0.00     0.012 A 
ATOM     12  C   UNL A   1      31.490  26.621  22.639  1.00  0.00     0.131 A 
ATOM     13  C   UNL A   1      30.901  27.352  23.685  1.00  0.00     0.017 A 
ATOM     14  F   UNL A   1      31.059  26.757  21.375  1.00  0.00    -0.206 F 
BRANCH  13  15
ATOM     15  C   UNL A   1      29.817  28.347  23.461  1.00  0.00    -0.015 A 
ATOM     16  C   UNL A   1      28.490  27.936  23.211  1.00  0.00     0.009 A 
ATOM     17  C   UNL A   1      30.041  29.734  23.537  1.00  0.00     0.009 A 
ATOM     18  C   UNL A   1      27.448  28.857  23.055  1.00  0.00     0.001 A 
ATOM     19  C   UNL A   1      28.997  30.657  23.399  1.00  0.00     0.001 A 
ATOM     20  C   UNL A   1      27.700  30.218  23.159  1.00  0.00     0.000 A 
ENDBRANCH  13  15
ENDBRANCH   6   8
ENDBRANCH   4   6
ENDBRANCH   3   4
ENDBRANCH   2   3
ENDBRANCH   1   2
BRANCH   1  21
ATOM     21  O   UNL A   1      36.963  21.649  24.924  1.00  0.00    -0.458 OA
BRANCH  21  22
ATOM     22  C   UNL A   1      38.135  21.253  25.472  1.00  0.00     0.338 C 
ATOM     23  O   UNL A   1      38.638  20.144  25.417  1.00  0.00    -0.246 OA
BRANCH  22  24
ATOM     24  C   UNL A   1      38.762  22.397  26.154  1.00  0.00     0.060 A 
ATOM     25  C   UNL A   1      38.208  23.669  26.024  1.00  0.00     0.016 A 
ATOM     26  C   UNL A   1      39.974  22.224  26.823  1.00  0.00     0.016 A 
ATOM     27  C   UNL A   1      38.925  24.779  26.470  1.00  0.00     0.010 A 
ATOM     28  C   UNL A   1      40.641  23.337  27.349  1.00  0.00     0.010 A 
ATOM     29  C   UNL A   1      40.156  24.637  27.130  1.00  0.00    -0.014 A 
BRANCH  29  30
ATOM     30  C   UNL A   1      40.952  25.839  27.529  1.00  0.00     0.031 A 
ATOM     31  C   UNL A   1      40.362  26.881  28.453  1.00  0.00     0.074 A 
ATOM     32  C   UNL A   1      42.214  26.008  27.085  1.00  0.00     0.049 A 
ATOM     33  N   UNL A   1      40.817  28.071  28.756  1.00  0.00    -0.248 NA
ATOM     34  C   UNL A   1      39.078  26.557  29.096  1.00  0.00     0.031 C 
ATOM     35  C   UNL A   1      42.932  25.086  26.204  1.00  0.00     0.029 A 
ATOM     36  N   UNL A   1      43.126  27.008  27.326  1.00  0.00    -0.354 N 
ATOM     37  C   UNL A   1      39.840  28.665  29.547  1.00  0.00     0.074 A 
ATOM     38  C   UNL A   1      38.769  27.703  29.687  1.00  0.00     0.031 C 
ATOM     39  C   UNL A   1      44.187  25.525  26.036  1.00  0.00     0.029 A 
ATOM     40  C   UNL A   1      44.342  26.806  26.718  1.00  0.00     0.049 A 
ATOM     41  H   UNL A   1      42.926  27.795  27.884  1.00  0.00     0.167 HD
ATOM     42  C   UNL A   1      39.841  29.892  30.123  1.00  0.00     0.034 A 
ATOM     43  C   UNL A   1      45.452  27.569  26.685  1.00  0.00     0.034 A 
ATOM     44  C   UNL A   1      40.961  30.797  30.103  1.00  0.00     0.049 A 
ATOM     45  C   UNL A   1      45.454  28.898  27.384  1.00  0.00     0.074 A 
ATOM     46  C   UNL A   1      41.064  32.049  30.684  1.00  0.00     0.029 A 
ATOM     47  N   UNL A   1      42.182  30.532  29.504  1.00  0.00    -0.354 N 
ATOM     48  N   UNL A   1      44.519  29.442  28.126  1.00  0.00    -0.248 NA
ATOM     49  C   UNL A   1      46.662  29.724  27.238  1.00  0.00     0.031 C 
ATOM     50  C   UNL A   1      42.355  32.536  30.449  1.00  0.00     0.029 A 
ATOM     51  C   UNL A   1      43.051  31.589  29.717  1.00  0.00     0.049 A 
ATOM     52  H   UNL A   1      42.400  29.714  29.002  1.00  0.00     0.167 HD
ATOM     53  C   UNL A   1      45.018  30.676  28.521  1.00  0.00     0.074 A 
ATOM     54  C   UNL A   1      46.360  30.777  27.986  1.00  0.00     0.031 C 
ATOM     55  C   UNL A   1      44.402  31.656  29.226  1.00  0.00     0.034 A 
BRANCH  42  56
ATOM     56  C   UNL A   1      38.608  30.321  30.872  1.00  0.00     0.023 A 
ATOM     57  C   UNL A   1      38.491  30.033  32.245  1.00  0.00     0.012 A 
ATOM     58  C   UNL A   1      37.605  31.080  30.236  1.00  0.00     0.148 A 
ATOM     59  C   UNL A   1      37.384  30.476  32.970  1.00  0.00     0.002 A 
ATOM     60  C   UNL A   1      36.522  31.548  30.972  1.00  0.00     0.091 A 
ATOM     61  F   UNL A   1      37.720  31.323  28.922  1.00  0.00    -0.205 F 
ATOM     62  C   UNL A   1      36.408  31.241  32.338  1.00  0.00     0.022 A 
BRANCH  60  63
ATOM     63  S   UNL A   1      35.261  32.607  30.250  1.00  0.00     0.127 S 
ATOM     64  O   UNL A   1      36.014  33.833  29.992  1.00  0.00    -0.237 OA
ATOM     65  O   UNL A   1      34.875  31.865  29.049  1.00  0.00    -0.237 OA
ATOM     66  O   UNL A   1      34.212  32.707  31.255  1.00  0.00    -0.744 OA
ENDBRANCH  60  63
ENDBRANCH  42  56
BRANCH  43  67
ATOM     67  C   UNL A   1      46.664  27.067  25.977  1.00  0.00     0.023 A 
ATOM     68  C   UNL A   1      46.809  27.316  24.599  1.00  0.00     0.012 A 
ATOM     69  C   UNL A   1      47.708  26.423  26.668  1.00  0.00     0.148 A 
ATOM     70  C   UNL A   1      47.969  26.933  23.925  1.00  0.00     0.002 A 
ATOM     71  C   UNL A   1      48.890  26.112  26.007  1.00  0.00     0.091 A 
ATOM     72  F   UNL A   1      47.543  26.154  27.972  1.00  0.00    -0.205 F 
ATOM     73  C   UNL A   1      49.019  26.352  24.632  1.00  0.00     0.022 A 
BRANCH  71  74
ATOM     74  S   UNL A   1      50.334  25.542  26.913  1.00  0.00     0.127 S 
ATOM     75  O   UNL A   1      49.829  24.338  27.566  1.00  0.00    -0.237 OA
ATOM     76  O   UNL A   1      51.305  25.302  25.844  1.00  0.00    -0.237 OA
ATOM     77  O   UNL A   1      50.684  26.654  27.787  1.00  0.00    -0.744 OA
ENDBRANCH  71  74
ENDBRANCH  43  67
BRANCH  55  78
ATOM     78  C   UNL A   1      45.168  32.932  29.452  1.00  0.00     0.023 A 
ATOM     79  C   UNL A   1      45.996  33.039  30.587  1.00  0.00     0.012 A 
ATOM     80  C   UNL A   1      45.123  33.988  28.523  1.00  0.00     0.148 A 
ATOM     81  C   UNL A   1      46.753  34.189  30.805  1.00  0.00     0.002 A 
ATOM     82  C   UNL A   1      45.906  35.119  28.731  1.00  0.00     0.091 A 
ATOM     83  F   UNL A   1      44.310  33.877  27.462  1.00  0.00    -0.205 F 
ATOM     84  C   UNL A   1      46.716  35.224  29.874  1.00  0.00     0.022 A 
BRANCH  82  85
ATOM     85  S   UNL A   1      45.967  36.463  27.540  1.00  0.00     0.127 S 
ATOM     86  O   UNL A   1      46.937  37.366  28.158  1.00  0.00    -0.237 OA
ATOM     87  O   UNL A   1      46.443  35.794  26.329  1.00  0.00    -0.237 OA
ATOM     88  O   UNL A   1      44.603  36.966  27.448  1.00  0.00    -0.744 OA
ENDBRANCH  82  85
ENDBRANCH  55  78
ENDBRANCH  29  30
ENDBRANCH  22  24
ENDBRANCH  21  22
ENDBRANCH   1  21
TORSDOF 16
ENDMDL
MODEL 2
REMARK VINA RESULT:     -12.1      1.656      2.156
REMARK SMILES C[C@@H](C(=O)OCCOC(=O)c1ccc(-c2c3nc(c(-c4cccc(S(=O)(=O)[O-])c4F)c4ccc([nH]4)c(-c4cccc(S(=O)(=O)[O-])c4F)c4nc(c(-c5cccc(S(=O)(=O)[O-])c5F)c5ccc2[nH]5)C=C4)C=C3)cc1)c1ccc(-c2ccccc2)c(F)c1
REMARK SMILES IDX 7 1 6 2 5 3 3 4 4 5 2 6 1 7 74 8 75 9 86 10 76 11 84 12
REMARK SMILES IDX 77 13 85 14 78 15 79 16 83 17 80 18 82 19 81 20 8 21 9 22
REMARK SMILES IDX 10 23 11 24 12 25 73 26 13 27 72 28 14 29 15 30 16 31 66 32
REMARK SMILES IDX 17 33 71 34 65 35 67 36 18 37 70 38 64 39 63 40 19 42 51 43
REMARK SMILES IDX 31 44 50 45 32 46 35 47 49 48 68 49 33 50 34 51 48 53 69 54
REMARK SMILES IDX 36 55 20 56 21 57 29 58 22 59 24 60 30 61 23 62 25 63 26 64
REMARK SMILES IDX 27 65 28 66 52 67 53 68 61 69 54 70 56 71 62 72 55 73 57 74
REMARK SMILES IDX 58 75 59 76 60 77 37 78 38 79 46 80 39 81 41 82 47 83 40 84
REMARK SMILES IDX 42 85 43 86 44 87 45 88
REMARK H PARENT 67 41 35 52
REMARK Flexibility Score: inf
ROOT
ATOM      1  C   UNL A   1      37.447  20.091  25.009  1.00  0.00     0.275 C 
ENDROOT
BRANCH   1   2
ATOM      2  C   UNL A   1      35.959  20.412  24.899  1.00  0.00     0.274 C 
BRANCH   2   3
ATOM      3  O   UNL A   1      35.640  21.573  25.695  1.00  0.00    -0.462 OA
BRANCH   3   4
ATOM      4  C   UNL A   1      34.344  21.992  25.686  1.00  0.00     0.313 C 
ATOM      5  O   UNL A   1      33.530  21.688  24.820  1.00  0.00    -0.252 OA
BRANCH   4   6
ATOM      6  C   UNL A   1      34.025  22.946  26.845  1.00  0.00     0.126 C 
ATOM      7  C   UNL A   1      33.368  22.259  28.046  1.00  0.00     0.025 C 
BRANCH   6   8
ATOM      8  C   UNL A   1      33.253  24.172  26.368  1.00  0.00    -0.031 A 
ATOM      9  C   UNL A   1      33.910  25.171  25.638  1.00  0.00     0.005 A 
ATOM     10  C   UNL A   1      31.878  24.326  26.580  1.00  0.00     0.044 A 
ATOM     11  C   UNL A   1      33.208  26.269  25.114  1.00  0.00     0.012 A 
ATOM     12  C   UNL A   1      31.186  25.423  26.048  1.00  0.00     0.131 A 
ATOM     13  C   UNL A   1      31.818  26.413  25.276  1.00  0.00     0.017 A 
ATOM     14  F   UNL A   1      29.858  25.448  26.246  1.00  0.00    -0.206 F 
BRANCH  13  15
ATOM     15  C   UNL A   1      31.068  27.504  24.596  1.00  0.00    -0.015 A 
ATOM     16  C   UNL A   1      31.278  28.857  24.938  1.00  0.00     0.009 A 
ATOM     17  C   UNL A   1      30.161  27.254  23.550  1.00  0.00     0.009 A 
ATOM     18  C   UNL A   1      30.625  29.899  24.270  1.00  0.00     0.001 A 
ATOM     19  C   UNL A   1      29.519  28.296  22.868  1.00  0.00     0.001 A 
ATOM     20  C   UNL A   1      29.752  29.618  23.228  1.00  0.00     0.000 A 
ENDBRANCH  13  15
ENDBRANCH   6   8
ENDBRANCH   4   6
ENDBRANCH   3   4
ENDBRANCH   2   3
ENDBRANCH   1   2
BRANCH   1  21
ATOM     21  O   UNL A   1      38.150  21.274  25.420  1.00  0.00    -0.458 OA
BRANCH  21  22
ATOM     22  C   UNL A   1      39.301  21.077  26.102  1.00  0.00     0.338 C 
ATOM     23  O   UNL A   1      39.922  20.034  26.215  1.00  0.00    -0.246 OA
BRANCH  22  24
ATOM     24  C   UNL A   1      39.738  22.351  26.697  1.00  0.00     0.060 A 
ATOM     25  C   UNL A   1      39.179  23.549  26.255  1.00  0.00     0.016 A 
ATOM     26  C   UNL A   1      40.793  22.363  27.608  1.00  0.00     0.016 A 
ATOM     27  C   UNL A   1      39.751  24.759  26.643  1.00  0.00     0.010 A 
ATOM     28  C   UNL A   1      41.302  23.586  28.065  1.00  0.00     0.010 A 
ATOM     29  C   UNL A   1      40.827  24.802  27.545  1.00  0.00    -0.014 A 
BRANCH  29  30
ATOM     30  C   UNL A   1      41.484  26.101  27.889  1.00  0.00     0.031 A 
ATOM     31  C   UNL A   1      40.763  27.128  28.733  1.00  0.00     0.074 A 
ATOM     32  C   UNL A   1      42.735  26.373  27.467  1.00  0.00     0.049 A 
ATOM     33  N   UNL A   1      41.086  28.375  28.974  1.00  0.00    -0.248 NA
ATOM     34  C   UNL A   1      39.500  26.712  29.363  1.00  0.00     0.031 C 
ATOM     35  C   UNL A   1      43.570  25.481  26.662  1.00  0.00     0.029 A 
ATOM     36  N   UNL A   1      43.533  27.474  27.669  1.00  0.00    -0.354 N 
ATOM     37  C   UNL A   1      40.029  28.910  29.703  1.00  0.00     0.074 A 
ATOM     38  C   UNL A   1      39.058  27.852  29.875  1.00  0.00     0.031 C 
ATOM     39  C   UNL A   1      44.778  26.037  26.498  1.00  0.00     0.029 A 
ATOM     40  C   UNL A   1      44.781  27.364  27.104  1.00  0.00     0.049 A 
ATOM     41  H   UNL A   1      43.237  28.268  28.172  1.00  0.00     0.167 HD
ATOM     42  C   UNL A   1      39.888  30.161  30.203  1.00  0.00     0.034 A 
ATOM     43  C   UNL A   1      45.809  28.234  27.052  1.00  0.00     0.034 A 
ATOM     44  C   UNL A   1      40.910  31.174  30.154  1.00  0.00     0.049 A 
ATOM     45  C   UNL A   1      45.654  29.596  27.668  1.00  0.00     0.074 A 
ATOM     46  C   UNL A   1      40.867  32.462  30.661  1.00  0.00     0.029 A 
ATOM     47  N   UNL A   1      42.170  31.003  29.603  1.00  0.00    -0.354 N 
ATOM     48  N   UNL A   1      44.647  30.082  28.352  1.00  0.00    -0.248 NA
ATOM     49  C   UNL A   1      46.775  30.532  27.501  1.00  0.00     0.031 C 
ATOM     50  C   UNL A   1      42.108  33.066  30.428  1.00  0.00     0.029 A 
ATOM     51  C   UNL A   1      42.919  32.155  29.772  1.00  0.00     0.049 A 
ATOM     52  H   UNL A   1      42.485  30.184  29.158  1.00  0.00     0.167 HD
ATOM     53  C   UNL A   1      45.005  31.382  28.683  1.00  0.00     0.074 A 
ATOM     54  C   UNL A   1      46.345  31.590  28.176  1.00  0.00     0.031 C 
ATOM     55  C   UNL A   1      44.271  32.332  29.311  1.00  0.00     0.034 A 
BRANCH  42  56
ATOM     56  C   UNL A   1      38.595  30.504  30.894  1.00  0.00     0.023 A 
ATOM     57  C   UNL A   1      38.425  30.180  32.253  1.00  0.00     0.012 A 
ATOM     58  C   UNL A   1      37.584  31.218  30.219  1.00  0.00     0.148 A 
ATOM     59  C   UNL A   1      37.258  30.544  32.927  1.00  0.00     0.002 A 
ATOM     60  C   UNL A   1      36.440  31.608  30.907  1.00  0.00     0.091 A 
ATOM     61  F   UNL A   1      37.752  31.496  28.918  1.00  0.00    -0.205 F 
ATOM     62  C   UNL A   1      36.273  31.266  32.258  1.00  0.00     0.022 A 
BRANCH  60  63
ATOM     63  S   UNL A   1      35.158  32.609  30.139  1.00  0.00     0.127 S 
ATOM     64  O   UNL A   1      35.912  33.792  29.728  1.00  0.00    -0.237 OA
ATOM     65  O   UNL A   1      34.711  31.758  29.035  1.00  0.00    -0.237 OA
ATOM     66  O   UNL A   1      34.156  32.823  31.174  1.00  0.00    -0.744 OA
ENDBRANCH  60  63
ENDBRANCH  42  56
BRANCH  43  67
ATOM     67  C   UNL A   1      47.087  27.821  26.405  1.00  0.00     0.023 A 
ATOM     68  C   UNL A   1      48.052  27.134  27.165  1.00  0.00     0.012 A 
ATOM     69  C   UNL A   1      47.318  28.027  25.031  1.00  0.00     0.148 A 
ATOM     70  C   UNL A   1      49.222  26.661  26.568  1.00  0.00     0.002 A 
ATOM     71  C   UNL A   1      48.449  27.489  24.430  1.00  0.00     0.091 A 
ATOM     72  F   UNL A   1      46.411  28.719  24.325  1.00  0.00    -0.205 F 
ATOM     73  C   UNL A   1      49.411  26.818  25.197  1.00  0.00     0.022 A 
BRANCH  71  74
ATOM     74  S   UNL A   1      48.638  27.498  22.642  1.00  0.00     0.127 S 
ATOM     75  O   UNL A   1      49.934  28.149  22.476  1.00  0.00    -0.237 OA
ATOM     76  O   UNL A   1      48.618  26.071  22.314  1.00  0.00    -0.237 OA
ATOM     77  O   UNL A   1      47.477  28.231  22.152  1.00  0.00    -0.744 OA
ENDBRANCH  71  74
ENDBRANCH  43  67
BRANCH  55  78
ATOM     78  C   UNL A   1      44.896  33.691  29.478  1.00  0.00     0.023 A 
ATOM     79  C   UNL A   1      45.603  33.978  30.662  1.00  0.00     0.012 A 
ATOM     80  C   UNL A   1      44.843  34.653  28.452  1.00  0.00     0.148 A 
ATOM     81  C   UNL A   1      46.231  35.210  30.832  1.00  0.00     0.002 A 
ATOM     82  C   UNL A   1      45.500  35.868  28.615  1.00  0.00     0.091 A 
ATOM     83  F   UNL A   1      44.144  34.371  27.342  1.00  0.00    -0.205 F 
ATOM     84  C   UNL A   1      46.188  36.151  29.806  1.00  0.00     0.022 A 
BRANCH  82  85
ATOM     85  S   UNL A   1      45.550  37.103  27.311  1.00  0.00     0.127 S 
ATOM     86  O   UNL A   1      44.130  37.379  27.105  1.00  0.00    -0.237 OA
ATOM     87  O   UNL A   1      46.299  38.195  27.934  1.00  0.00    -0.237 OA
ATOM     88  O   UNL A   1      46.239  36.465  26.196  1.00  0.00    -0.744 OA
ENDBRANCH  82  85
ENDBRANCH  55  78
ENDBRANCH  29  30
ENDBRANCH  22  24
ENDBRANCH  21  22
ENDBRANCH   1  21
TORSDOF 16
ENDMDL
MODEL 3
REMARK VINA RESULT:     -12.1      5.732     10.325
REMARK SMILES C[C@@H](C(=O)OCCOC(=O)c1ccc(-c2c3nc(c(-c4cccc(S(=O)(=O)[O-])c4F)c4ccc([nH]4)c(-c4cccc(S(=O)(=O)[O-])c4F)c4nc(c(-c5cccc(S(=O)(=O)[O-])c5F)c5ccc2[nH]5)C=C4)C=C3)cc1)c1ccc(-c2ccccc2)c(F)c1
REMARK SMILES IDX 7 1 6 2 5 3 3 4 4 5 2 6 1 7 74 8 75 9 86 10 76 11 84 12
REMARK SMILES IDX 77 13 85 14 78 15 79 16 83 17 80 18 82 19 81 20 8 21 9 22
REMARK SMILES IDX 10 23 11 24 12 25 73 26 13 27 72 28 14 29 15 30 16 31 66 32
REMARK SMILES IDX 17 33 71 34 65 35 67 36 18 37 70 38 64 39 63 40 19 42 51 43
REMARK SMILES IDX 31 44 50 45 32 46 35 47 49 48 68 49 33 50 34 51 48 53 69 54
REMARK SMILES IDX 36 55 20 56 21 57 29 58 22 59 24 60 30 61 23 62 25 63 26 64
REMARK SMILES IDX 27 65 28 66 52 67 53 68 61 69 54 70 56 71 62 72 55 73 57 74
REMARK SMILES IDX 58 75 59 76 60 77 37 78 38 79 46 80 39 81 41 82 47 83 40 84
REMARK SMILES IDX 42 85 43 86 44 87 45 88
REMARK H PARENT 67 41 35 52
REMARK Flexibility Score: inf
ROOT
ATOM      1  C   UNL A   1      32.873  35.275  28.542  1.00  0.00     0.275 C 
ENDROOT
BRANCH   1   2
ATOM      2  C   UNL A   1      32.950  35.193  30.064  1.00  0.00     0.274 C 
BRANCH   2   3
ATOM      3  O   UNL A   1      34.320  35.015  30.483  1.00  0.00    -0.462 OA
BRANCH   3   4
ATOM      4  C   UNL A   1      34.549  34.118  31.483  1.00  0.00     0.313 C 
ATOM      5  O   UNL A   1      34.267  32.927  31.415  1.00  0.00    -0.252 OA
BRANCH   4   6
ATOM      6  C   UNL A   1      35.138  34.774  32.739  1.00  0.00     0.126 C 
ATOM      7  C   UNL A   1      34.579  36.171  33.026  1.00  0.00     0.025 C 
BRANCH   6   8
ATOM      8  C   UNL A   1      36.662  34.736  32.733  1.00  0.00    -0.031 A 
ATOM      9  C   UNL A   1      37.367  34.759  33.943  1.00  0.00     0.005 A 
ATOM     10  C   UNL A   1      37.408  34.619  31.554  1.00  0.00     0.044 A 
ATOM     11  C   UNL A   1      38.767  34.640  33.972  1.00  0.00     0.012 A 
ATOM     12  C   UNL A   1      38.804  34.495  31.594  1.00  0.00     0.131 A 
ATOM     13  C   UNL A   1      39.526  34.472  32.799  1.00  0.00     0.017 A 
ATOM     14  F   UNL A   1      39.424  34.318  30.416  1.00  0.00    -0.206 F 
BRANCH  13  15
ATOM     15  C   UNL A   1      40.989  34.205  32.856  1.00  0.00    -0.015 A 
ATOM     16  C   UNL A   1      41.881  35.146  33.412  1.00  0.00     0.009 A 
ATOM     17  C   UNL A   1      41.549  32.992  32.414  1.00  0.00     0.009 A 
ATOM     18  C   UNL A   1      43.252  34.888  33.525  1.00  0.00     0.001 A 
ATOM     19  C   UNL A   1      42.918  32.724  32.543  1.00  0.00     0.001 A 
ATOM     20  C   UNL A   1      43.769  33.671  33.100  1.00  0.00     0.000 A 
ENDBRANCH  13  15
ENDBRANCH   6   8
ENDBRANCH   4   6
ENDBRANCH   3   4
ENDBRANCH   2   3
ENDBRANCH   1   2
BRANCH   1  21
ATOM     21  O   UNL A   1      33.980  34.554  27.979  1.00  0.00    -0.458 OA
BRANCH  21  22
ATOM     22  C   UNL A   1      33.765  33.245  27.714  1.00  0.00     0.338 C 
ATOM     23  O   UNL A   1      32.773  32.747  27.210  1.00  0.00    -0.246 OA
BRANCH  22  24
ATOM     24  C   UNL A   1      34.952  32.468  28.109  1.00  0.00     0.060 A 
ATOM     25  C   UNL A   1      34.818  31.121  28.442  1.00  0.00     0.016 A 
ATOM     26  C   UNL A   1      36.179  33.111  28.268  1.00  0.00     0.016 A 
ATOM     27  C   UNL A   1      35.886  30.451  29.037  1.00  0.00     0.010 A 
ATOM     28  C   UNL A   1      37.273  32.403  28.781  1.00  0.00     0.010 A 
ATOM     29  C   UNL A   1      37.127  31.079  29.227  1.00  0.00    -0.014 A 
BRANCH  29  30
ATOM     30  C   UNL A   1      38.238  30.375  29.940  1.00  0.00     0.031 A 
ATOM     31  C   UNL A   1      38.411  30.525  31.435  1.00  0.00     0.074 A 
ATOM     32  C   UNL A   1      39.095  29.581  29.267  1.00  0.00     0.049 A 
ATOM     33  N   UNL A   1      39.412  30.155  32.194  1.00  0.00    -0.248 NA
ATOM     34  C   UNL A   1      37.333  31.209  32.169  1.00  0.00     0.031 C 
ATOM     35  C   UNL A   1      39.053  29.318  27.828  1.00  0.00     0.029 A 
ATOM     36  N   UNL A   1      40.163  28.834  29.705  1.00  0.00    -0.354 N 
ATOM     37  C   UNL A   1      39.125  30.635  33.467  1.00  0.00     0.074 A 
ATOM     38  C   UNL A   1      37.853  31.318  33.384  1.00  0.00     0.031 C 
ATOM     39  C   UNL A   1      39.999  28.422  27.516  1.00  0.00     0.029 A 
ATOM     40  C   UNL A   1      40.779  28.114  28.710  1.00  0.00     0.049 A 
ATOM     41  H   UNL A   1      40.459  28.818  30.644  1.00  0.00     0.167 HD
ATOM     42  C   UNL A   1      39.845  30.504  34.607  1.00  0.00     0.034 A 
ATOM     43  C   UNL A   1      41.863  27.313  28.738  1.00  0.00     0.034 A 
ATOM     44  C   UNL A   1      41.040  29.710  34.726  1.00  0.00     0.049 A 
ATOM     45  C   UNL A   1      42.611  27.131  30.029  1.00  0.00     0.074 A 
ATOM     46  C   UNL A   1      41.821  29.494  35.849  1.00  0.00     0.029 A 
ATOM     47  N   UNL A   1      41.605  28.970  33.699  1.00  0.00    -0.354 N 
ATOM     48  N   UNL A   1      42.324  27.595  31.221  1.00  0.00    -0.248 NA
ATOM     49  C   UNL A   1      43.835  26.318  29.978  1.00  0.00     0.031 C 
ATOM     50  C   UNL A   1      42.850  28.611  35.504  1.00  0.00     0.029 A 
ATOM     51  C   UNL A   1      42.713  28.283  34.166  1.00  0.00     0.049 A 
ATOM     52  H   UNL A   1      41.268  28.937  32.775  1.00  0.00     0.167 HD
ATOM     53  C   UNL A   1      43.338  27.145  32.057  1.00  0.00     0.074 A 
ATOM     54  C   UNL A   1      44.215  26.323  31.249  1.00  0.00     0.031 C 
ATOM     55  C   UNL A   1      43.547  27.425  33.366  1.00  0.00     0.034 A 
BRANCH  42  56
ATOM     56  C   UNL A   1      39.341  31.196  35.845  1.00  0.00     0.023 A 
ATOM     57  C   UNL A   1      38.208  30.693  36.513  1.00  0.00     0.012 A 
ATOM     58  C   UNL A   1      40.035  32.295  36.391  1.00  0.00     0.148 A 
ATOM     59  C   UNL A   1      37.761  31.285  37.695  1.00  0.00     0.002 A 
ATOM     60  C   UNL A   1      39.605  32.857  37.588  1.00  0.00     0.091 A 
ATOM     61  F   UNL A   1      41.097  32.778  35.728  1.00  0.00    -0.205 F 
ATOM     62  C   UNL A   1      38.465  32.357  38.237  1.00  0.00     0.022 A 
BRANCH  60  63
ATOM     63  S   UNL A   1      40.502  34.191  38.394  1.00  0.00     0.127 S 
ATOM     64  O   UNL A   1      39.675  34.435  39.574  1.00  0.00    -0.237 OA
ATOM     65  O   UNL A   1      41.799  33.574  38.677  1.00  0.00    -0.237 OA
ATOM     66  O   UNL A   1      40.553  35.273  37.420  1.00  0.00    -0.744 OA
ENDBRANCH  60  63
ENDBRANCH  42  56
BRANCH  43  67
ATOM     67  C   UNL A   1      42.284  26.606  27.495  1.00  0.00     0.023 A 
ATOM     68  C   UNL A   1      43.073  27.287  26.550  1.00  0.00     0.012 A 
ATOM     69  C   UNL A   1      41.982  25.247  27.282  1.00  0.00     0.148 A 
ATOM     70  C   UNL A   1      43.553  26.628  25.417  1.00  0.00     0.002 A 
ATOM     71  C   UNL A   1      42.524  24.579  26.191  1.00  0.00     0.091 A 
ATOM     72  F   UNL A   1      41.195  24.619  28.169  1.00  0.00    -0.205 F 
ATOM     73  C   UNL A   1      43.298  25.268  25.249  1.00  0.00     0.022 A 
BRANCH  71  74
ATOM     74  S   UNL A   1      42.383  22.793  26.039  1.00  0.00     0.127 S 
ATOM     75  O   UNL A   1      42.978  22.552  24.728  1.00  0.00    -0.237 OA
ATOM     76  O   UNL A   1      43.176  22.315  27.173  1.00  0.00    -0.237 OA
ATOM     77  O   UNL A   1      40.956  22.523  26.163  1.00  0.00    -0.744 OA
ENDBRANCH  71  74
ENDBRANCH  43  67
BRANCH  55  78
ATOM     78  C   UNL A   1      44.779  26.848  34.009  1.00  0.00     0.023 A 
ATOM     79  C   UNL A   1      45.994  27.554  33.912  1.00  0.00     0.012 A 
ATOM     80  C   UNL A   1      44.727  25.656  34.755  1.00  0.00     0.148 A 
ATOM     81  C   UNL A   1      47.146  27.071  34.532  1.00  0.00     0.002 A 
ATOM     82  C   UNL A   1      45.872  25.198  35.398  1.00  0.00     0.091 A 
ATOM     83  F   UNL A   1      43.566  24.986  34.816  1.00  0.00    -0.205 F 
ATOM     84  C   UNL A   1      47.083  25.900  35.282  1.00  0.00     0.022 A 
BRANCH  82  85
ATOM     85  S   UNL A   1      45.853  23.736  36.442  1.00  0.00     0.127 S 
ATOM     86  O   UNL A   1      44.944  24.144  37.512  1.00  0.00    -0.237 OA
ATOM     87  O   UNL A   1      45.318  22.711  35.546  1.00  0.00    -0.237 OA
ATOM     88  O   UNL A   1      47.239  23.520  36.837  1.00  0.00    -0.744 OA
ENDBRANCH  82  85
ENDBRANCH  55  78
ENDBRANCH  29  30
ENDBRANCH  22  24
ENDBRANCH  21  22
ENDBRANCH   1  21
TORSDOF 16
ENDMDL
