MODEL 1
REMARK VINA RESULT:     -12.0      0.000      0.000
REMARK SMILES CCc1cc(Nc2ccc(C(=O)OCCOC(=O)c3ccc(-c4c5nc(c(-c6cccc(S(=O)(=O)[O-])c6F)c6ccc([nH]6)c(-c6cccc(S(=O)(=O)[O-])c6F)c6nc(c(-c7cccc(S(=O)(=O)[O-])c7F)c7ccc4[nH]7)C=C6)C=C5)cc3)cc2)nc(C(C)C)n1
REMARK SMILES IDX 14 1 13 2 11 3 12 4 10 5 7 6 8 7 83 8 9 9 82 10 6 11 5 13
REMARK SMILES IDX 3 14 4 15 89 16 85 17 84 18 2 19 1 20 86 21 87 22 88 23
REMARK SMILES IDX 15 24 16 25 17 26 18 27 19 28 20 29 81 30 21 31 80 32 22 33
REMARK SMILES IDX 23 34 24 35 74 36 25 37 79 38 73 39 75 40 26 41 78 42 72 43
REMARK SMILES IDX 71 44 27 46 59 47 39 48 58 49 40 50 43 51 57 52 76 53 41 54
REMARK SMILES IDX 42 55 56 57 77 58 44 59 28 60 29 61 37 62 30 63 32 64 38 65
REMARK SMILES IDX 31 66 33 67 34 68 35 69 36 70 60 71 61 72 69 73 62 74 64 75
REMARK SMILES IDX 70 76 63 77 65 78 66 79 67 80 68 81 45 82 46 83 54 84 47 85
REMARK SMILES IDX 49 86 55 87 48 88 50 89 51 90 52 91 53 92
REMARK H PARENT 6 12 75 45 43 56
REMARK Flexibility Score: inf
ROOT
ATOM      1  C   UNL A   1      35.326  20.173  25.143  1.00  0.00     0.275 C 
ENDROOT
BRANCH   1   2
ATOM      2  O   UNL A   1      34.228  20.478  24.256  1.00  0.00    -0.458 OA
BRANCH   2   3
ATOM      3  C   UNL A   1      33.001  20.469  24.835  1.00  0.00     0.338 C 
ATOM      4  O   UNL A   1      32.510  19.560  25.479  1.00  0.00    -0.246 OA
BRANCH   3   5
ATOM      5  C   UNL A   1      32.327  21.776  24.664  1.00  0.00     0.060 A 
ATOM      6  C   UNL A   1      30.830  24.137  24.394  1.00  0.00     0.040 A 
ATOM      7  C   UNL A   1      30.851  23.456  25.608  1.00  0.00     0.027 A 
ATOM      8  C   UNL A   1      31.584  23.633  23.322  1.00  0.00     0.027 A 
ATOM      9  C   UNL A   1      31.556  22.266  25.721  1.00  0.00     0.018 A 
ATOM     10  C   UNL A   1      32.355  22.471  23.458  1.00  0.00     0.018 A 
BRANCH   6  11
ATOM     11  N   UNL A   1      29.920  25.196  24.248  1.00  0.00    -0.340 N 
ATOM     12  H   UNL A   1      28.973  24.963  24.106  1.00  0.00     0.168 HD
BRANCH  11  13
ATOM     13  C   UNL A   1      30.249  26.562  24.289  1.00  0.00     0.134 A 
ATOM     14  C   UNL A   1      29.948  28.756  23.487  1.00  0.00     0.046 A 
ATOM     15  C   UNL A   1      29.639  27.414  23.395  1.00  0.00     0.071 A 
ATOM     16  N   UNL A   1      30.841  29.227  24.384  1.00  0.00    -0.238 NA
ATOM     17  C   UNL A   1      31.412  28.322  25.202  1.00  0.00     0.133 A 
ATOM     18  N   UNL A   1      31.123  27.014  25.200  1.00  0.00    -0.216 NA
BRANCH  14  19
ATOM     19  C   UNL A   1      29.313  29.756  22.556  1.00  0.00     0.053 C 
ATOM     20  C   UNL A   1      28.053  30.399  23.128  1.00  0.00     0.011 C 
ENDBRANCH  14  19
BRANCH  17  21
ATOM     21  C   UNL A   1      32.430  28.777  26.222  1.00  0.00     0.051 C 
ATOM     22  C   UNL A   1      33.850  28.734  25.662  1.00  0.00     0.016 C 
ATOM     23  C   UNL A   1      32.076  30.163  26.753  1.00  0.00     0.016 C 
ENDBRANCH  17  21
ENDBRANCH  11  13
ENDBRANCH   6  11
ENDBRANCH   3   5
ENDBRANCH   2   3
ENDBRANCH   1   2
BRANCH   1  24
ATOM     24  C   UNL A   1      35.980  21.445  25.685  1.00  0.00     0.275 C 
BRANCH  24  25
ATOM     25  O   UNL A   1      37.219  21.725  25.006  1.00  0.00    -0.458 OA
BRANCH  25  26
ATOM     26  C   UNL A   1      38.331  21.343  25.673  1.00  0.00     0.338 C 
ATOM     27  O   UNL A   1      38.888  20.258  25.619  1.00  0.00    -0.246 OA
BRANCH  26  28
ATOM     28  C   UNL A   1      38.885  22.460  26.452  1.00  0.00     0.060 A 
ATOM     29  C   UNL A   1      38.398  23.731  26.188  1.00  0.00     0.016 A 
ATOM     30  C   UNL A   1      40.021  22.303  27.239  1.00  0.00     0.016 A 
ATOM     31  C   UNL A   1      39.147  24.851  26.528  1.00  0.00     0.010 A 
ATOM     32  C   UNL A   1      40.671  23.441  27.739  1.00  0.00     0.010 A 
ATOM     33  C   UNL A   1      40.283  24.734  27.341  1.00  0.00    -0.014 A 
BRANCH  33  34
ATOM     34  C   UNL A   1      41.039  25.952  27.772  1.00  0.00     0.031 A 
ATOM     35  C   UNL A   1      40.370  27.023  28.606  1.00  0.00     0.074 A 
ATOM     36  C   UNL A   1      42.327  26.119  27.398  1.00  0.00     0.049 A 
ATOM     37  N   UNL A   1      40.800  28.223  28.907  1.00  0.00    -0.248 NA
ATOM     38  C   UNL A   1      39.040  26.717  29.160  1.00  0.00     0.031 C 
ATOM     39  C   UNL A   1      43.113  25.171  26.600  1.00  0.00     0.029 A 
ATOM     40  N   UNL A   1      43.206  27.155  27.619  1.00  0.00    -0.354 N 
ATOM     41  C   UNL A   1      39.764  28.842  29.600  1.00  0.00     0.074 A 
ATOM     42  C   UNL A   1      38.689  27.879  29.696  1.00  0.00     0.031 C 
ATOM     43  C   UNL A   1      44.349  25.651  26.421  1.00  0.00     0.029 A 
ATOM     44  C   UNL A   1      44.418  26.991  26.985  1.00  0.00     0.049 A 
ATOM     45  H   UNL A   1      42.989  27.938  28.176  1.00  0.00     0.167 HD
ATOM     46  C   UNL A   1      39.714  30.097  30.109  1.00  0.00     0.034 A 
ATOM     47  C   UNL A   1      45.450  27.838  26.807  1.00  0.00     0.034 A 
ATOM     48  C   UNL A   1      40.813  31.026  30.078  1.00  0.00     0.049 A 
ATOM     49  C   UNL A   1      45.362  29.220  27.382  1.00  0.00     0.074 A 
ATOM     50  C   UNL A   1      40.878  32.296  30.629  1.00  0.00     0.029 A 
ATOM     51  N   UNL A   1      42.034  30.794  29.466  1.00  0.00    -0.354 N 
ATOM     52  N   UNL A   1      44.398  29.760  28.088  1.00  0.00    -0.248 NA
ATOM     53  C   UNL A   1      46.508  30.109  27.150  1.00  0.00     0.031 C 
ATOM     54  C   UNL A   1      42.124  32.845  30.316  1.00  0.00     0.029 A 
ATOM     55  C   UNL A   1      42.853  31.900  29.612  1.00  0.00     0.049 A 
ATOM     56  H   UNL A   1      42.282  29.965  28.998  1.00  0.00     0.167 HD
ATOM     57  C   UNL A   1      44.837  31.036  28.413  1.00  0.00     0.074 A 
ATOM     58  C   UNL A   1      46.164  31.181  27.851  1.00  0.00     0.031 C 
ATOM     59  C   UNL A   1      44.193  32.009  29.101  1.00  0.00     0.034 A 
BRANCH  46  60
ATOM     60  C   UNL A   1      38.433  30.563  30.756  1.00  0.00     0.023 A 
ATOM     61  C   UNL A   1      38.248  30.431  32.146  1.00  0.00     0.012 A 
ATOM     62  C   UNL A   1      37.458  31.240  29.991  1.00  0.00     0.148 A 
ATOM     63  C   UNL A   1      37.106  30.946  32.761  1.00  0.00     0.002 A 
ATOM     64  C   UNL A   1      36.348  31.791  30.618  1.00  0.00     0.091 A 
ATOM     65  F   UNL A   1      37.647  31.345  28.668  1.00  0.00    -0.205 F 
ATOM     66  C   UNL A   1      36.164  31.636  32.001  1.00  0.00     0.022 A 
BRANCH  64  67
ATOM     67  S   UNL A   1      35.123  32.774  29.743  1.00  0.00     0.127 S 
ATOM     68  O   UNL A   1      34.575  31.796  28.804  1.00  0.00    -0.237 OA
ATOM     69  O   UNL A   1      34.214  33.160  30.822  1.00  0.00    -0.237 OA
ATOM     70  O   UNL A   1      35.851  33.877  29.132  1.00  0.00    -0.744 OA
ENDBRANCH  64  67
ENDBRANCH  46  60
BRANCH  47  71
ATOM     71  C   UNL A   1      46.645  27.415  26.019  1.00  0.00     0.023 A 
ATOM     72  C   UNL A   1      46.694  27.667  24.634  1.00  0.00     0.012 A 
ATOM     73  C   UNL A   1      47.731  26.759  26.634  1.00  0.00     0.148 A 
ATOM     74  C   UNL A   1      47.781  27.236  23.872  1.00  0.00     0.002 A 
ATOM     75  C   UNL A   1      48.840  26.395  25.880  1.00  0.00     0.091 A 
ATOM     76  F   UNL A   1      47.663  26.509  27.950  1.00  0.00    -0.205 F 
ATOM     77  C   UNL A   1      48.856  26.611  24.495  1.00  0.00     0.022 A 
BRANCH  75  78
ATOM     78  S   UNL A   1      50.324  25.716  26.630  1.00  0.00     0.127 S 
ATOM     79  O   UNL A   1      51.209  25.586  25.475  1.00  0.00    -0.237 OA
ATOM     80  O   UNL A   1      50.695  26.769  27.576  1.00  0.00    -0.237 OA
ATOM     81  O   UNL A   1      49.909  24.469  27.258  1.00  0.00    -0.744 OA
ENDBRANCH  75  78
ENDBRANCH  47  71
BRANCH  59  82
ATOM     82  C   UNL A   1      44.936  33.295  29.346  1.00  0.00     0.023 A 
ATOM     83  C   UNL A   1      45.746  33.439  30.489  1.00  0.00     0.012 A 
ATOM     84  C   UNL A   1      44.872  34.341  28.404  1.00  0.00     0.148 A 
ATOM     85  C   UNL A   1      46.450  34.622  30.711  1.00  0.00     0.002 A 
ATOM     86  C   UNL A   1      45.620  35.493  28.604  1.00  0.00     0.091 A 
ATOM     87  F   UNL A   1      44.080  34.189  27.333  1.00  0.00    -0.205 F 
ATOM     88  C   UNL A   1      46.397  35.642  29.763  1.00  0.00     0.022 A 
BRANCH  86  89
ATOM     89  S   UNL A   1      45.692  36.815  27.390  1.00  0.00     0.127 S 
ATOM     90  O   UNL A   1      46.647  37.734  28.007  1.00  0.00    -0.237 OA
ATOM     91  O   UNL A   1      46.194  36.118  26.206  1.00  0.00    -0.237 OA
ATOM     92  O   UNL A   1      44.333  37.321  27.263  1.00  0.00    -0.744 OA
ENDBRANCH  86  89
ENDBRANCH  59  82
ENDBRANCH  33  34
ENDBRANCH  26  28
ENDBRANCH  25  26
ENDBRANCH  24  25
ENDBRANCH   1  24
TORSDOF 18
ENDMDL
MODEL 2
REMARK VINA RESULT:     -11.7      1.478      2.298
REMARK SMILES CCc1cc(Nc2ccc(C(=O)OCCOC(=O)c3ccc(-c4c5nc(c(-c6cccc(S(=O)(=O)[O-])c6F)c6ccc([nH]6)c(-c6cccc(S(=O)(=O)[O-])c6F)c6nc(c(-c7cccc(S(=O)(=O)[O-])c7F)c7ccc4[nH]7)C=C6)C=C5)cc3)cc2)nc(C(C)C)n1
REMARK SMILES IDX 14 1 13 2 11 3 12 4 10 5 7 6 8 7 83 8 9 9 82 10 6 11 5 13
REMARK SMILES IDX 3 14 4 15 89 16 85 17 84 18 2 19 1 20 86 21 87 22 88 23
REMARK SMILES IDX 15 24 16 25 17 26 18 27 19 28 20 29 81 30 21 31 80 32 22 33
REMARK SMILES IDX 23 34 24 35 74 36 25 37 79 38 73 39 75 40 26 41 78 42 72 43
REMARK SMILES IDX 71 44 27 46 59 47 39 48 58 49 40 50 43 51 57 52 76 53 41 54
REMARK SMILES IDX 42 55 56 57 77 58 44 59 28 60 29 61 37 62 30 63 32 64 38 65
REMARK SMILES IDX 31 66 33 67 34 68 35 69 36 70 60 71 61 72 69 73 62 74 64 75
REMARK SMILES IDX 70 76 63 77 65 78 66 79 67 80 68 81 45 82 46 83 54 84 47 85
REMARK SMILES IDX 49 86 55 87 48 88 50 89 51 90 52 91 53 92
REMARK H PARENT 6 12 75 45 43 56
REMARK Flexibility Score: inf
ROOT
ATOM      1  C   UNL A   1      35.849  21.766  25.544  1.00  0.00     0.275 C 
ENDROOT
BRANCH   1   2
ATOM      2  O   UNL A   1      34.859  21.908  24.503  1.00  0.00    -0.458 OA
BRANCH   2   3
ATOM      3  C   UNL A   1      35.120  22.875  23.588  1.00  0.00     0.338 C 
ATOM      4  O   UNL A   1      36.077  22.924  22.837  1.00  0.00    -0.246 OA
BRANCH   3   5
ATOM      5  C   UNL A   1      34.020  23.866  23.539  1.00  0.00     0.060 A 
ATOM      6  C   UNL A   1      31.775  25.550  23.440  1.00  0.00     0.040 A 
ATOM      7  C   UNL A   1      31.937  24.661  24.500  1.00  0.00     0.027 A 
ATOM      8  C   UNL A   1      32.760  25.600  22.441  1.00  0.00     0.027 A 
ATOM      9  C   UNL A   1      33.026  23.801  24.518  1.00  0.00     0.018 A 
ATOM     10  C   UNL A   1      33.896  24.783  22.498  1.00  0.00     0.018 A 
BRANCH   6  11
ATOM     11  N   UNL A   1      30.550  26.227  23.331  1.00  0.00    -0.340 N 
ATOM     12  H   UNL A   1      29.771  25.708  23.023  1.00  0.00     0.168 HD
BRANCH  11  13
ATOM     13  C   UNL A   1      30.344  27.587  23.625  1.00  0.00     0.134 A 
ATOM     14  C   UNL A   1      31.009  29.554  24.735  1.00  0.00     0.046 A 
ATOM     15  C   UNL A   1      31.208  28.210  24.499  1.00  0.00     0.071 A 
ATOM     16  N   UNL A   1      29.990  30.239  24.172  1.00  0.00    -0.238 NA
ATOM     17  C   UNL A   1      29.177  29.547  23.352  1.00  0.00     0.133 A 
ATOM     18  N   UNL A   1      29.339  28.255  23.041  1.00  0.00    -0.216 NA
BRANCH  14  19
ATOM     19  C   UNL A   1      31.919  30.314  25.666  1.00  0.00     0.053 C 
ATOM     20  C   UNL A   1      31.277  31.568  26.250  1.00  0.00     0.011 C 
ENDBRANCH  14  19
BRANCH  17  21
ATOM     21  C   UNL A   1      28.008  30.247  22.697  1.00  0.00     0.051 C 
ATOM     22  C   UNL A   1      27.655  31.549  23.414  1.00  0.00     0.016 C 
ATOM     23  C   UNL A   1      28.281  30.477  21.214  1.00  0.00     0.016 C 
ENDBRANCH  17  21
ENDBRANCH  11  13
ENDBRANCH   6  11
ENDBRANCH   3   5
ENDBRANCH   2   3
ENDBRANCH   1   2
BRANCH   1  24
ATOM     24  C   UNL A   1      37.027  20.907  25.084  1.00  0.00     0.275 C 
BRANCH  24  25
ATOM     25  O   UNL A   1      38.246  21.671  25.042  1.00  0.00    -0.458 OA
BRANCH  25  26
ATOM     26  C   UNL A   1      39.178  21.309  25.952  1.00  0.00     0.338 C 
ATOM     27  O   UNL A   1      39.682  20.206  26.092  1.00  0.00    -0.246 OA
BRANCH  26  28
ATOM     28  C   UNL A   1      39.608  22.465  26.752  1.00  0.00     0.060 A 
ATOM     29  C   UNL A   1      39.028  23.692  26.471  1.00  0.00     0.016 A 
ATOM     30  C   UNL A   1      40.724  22.400  27.579  1.00  0.00     0.016 A 
ATOM     31  C   UNL A   1      39.670  24.870  26.838  1.00  0.00     0.010 A 
ATOM     32  C   UNL A   1      41.260  23.585  28.102  1.00  0.00     0.010 A 
ATOM     33  C   UNL A   1      40.781  24.843  27.691  1.00  0.00    -0.014 A 
BRANCH  33  34
ATOM     34  C   UNL A   1      41.417  26.118  28.149  1.00  0.00     0.031 A 
ATOM     35  C   UNL A   1      40.608  27.171  28.875  1.00  0.00     0.074 A 
ATOM     36  C   UNL A   1      42.725  26.353  27.898  1.00  0.00     0.049 A 
ATOM     37  N   UNL A   1      40.934  28.404  29.173  1.00  0.00    -0.248 NA
ATOM     38  C   UNL A   1      39.249  26.801  29.306  1.00  0.00     0.031 C 
ATOM     39  C   UNL A   1      43.640  25.432  27.216  1.00  0.00     0.029 A 
ATOM     40  N   UNL A   1      43.515  27.447  28.166  1.00  0.00    -0.354 N 
ATOM     41  C   UNL A   1      39.799  28.978  29.738  1.00  0.00     0.074 A 
ATOM     42  C   UNL A   1      38.779  27.955  29.763  1.00  0.00     0.031 C 
ATOM     43  C   UNL A   1      44.858  25.982  27.141  1.00  0.00     0.029 A 
ATOM     44  C   UNL A   1      44.792  27.339  27.660  1.00  0.00     0.049 A 
ATOM     45  H   UNL A   1      43.198  28.232  28.671  1.00  0.00     0.167 HD
ATOM     46  C   UNL A   1      39.626  30.243  30.193  1.00  0.00     0.034 A 
ATOM     47  C   UNL A   1      45.786  28.243  27.553  1.00  0.00     0.034 A 
ATOM     48  C   UNL A   1      40.666  31.237  30.237  1.00  0.00     0.049 A 
ATOM     49  C   UNL A   1      45.559  29.634  28.066  1.00  0.00     0.074 A 
ATOM     50  C   UNL A   1      40.602  32.524  30.745  1.00  0.00     0.029 A 
ATOM     51  N   UNL A   1      41.953  31.061  29.757  1.00  0.00    -0.354 N 
ATOM     52  N   UNL A   1      44.500  30.134  28.654  1.00  0.00    -0.248 NA
ATOM     53  C   UNL A   1      46.669  30.584  27.916  1.00  0.00     0.031 C 
ATOM     54  C   UNL A   1      41.839  33.139  30.536  1.00  0.00     0.029 A 
ATOM     55  C   UNL A   1      42.688  32.220  29.942  1.00  0.00     0.049 A 
ATOM     56  H   UNL A   1      42.295  30.236  29.345  1.00  0.00     0.167 HD
ATOM     57  C   UNL A   1      44.830  31.444  28.975  1.00  0.00     0.074 A 
ATOM     58  C   UNL A   1      46.195  31.653  28.541  1.00  0.00     0.031 C 
ATOM     59  C   UNL A   1      44.064  32.396  29.560  1.00  0.00     0.034 A 
BRANCH  46  60
ATOM     60  C   UNL A   1      38.261  30.648  30.695  1.00  0.00     0.023 A 
ATOM     61  C   UNL A   1      37.931  30.503  32.056  1.00  0.00     0.012 A 
ATOM     62  C   UNL A   1      37.348  31.283  29.826  1.00  0.00     0.148 A 
ATOM     63  C   UNL A   1      36.706  30.964  32.541  1.00  0.00     0.002 A 
ATOM     64  C   UNL A   1      36.151  31.781  30.326  1.00  0.00     0.091 A 
ATOM     65  F   UNL A   1      37.676  31.401  28.532  1.00  0.00    -0.205 F 
ATOM     66  C   UNL A   1      35.823  31.613  31.680  1.00  0.00     0.022 A 
BRANCH  64  67
ATOM     67  S   UNL A   1      34.987  32.711  29.320  1.00  0.00     0.127 S 
ATOM     68  O   UNL A   1      34.040  33.187  30.327  1.00  0.00    -0.237 OA
ATOM     69  O   UNL A   1      35.842  33.751  28.746  1.00  0.00    -0.237 OA
ATOM     70  O   UNL A   1      34.441  31.766  28.356  1.00  0.00    -0.744 OA
ENDBRANCH  64  67
ENDBRANCH  46  60
BRANCH  47  71
ATOM     71  C   UNL A   1      47.076  27.870  26.902  1.00  0.00     0.023 A 
ATOM     72  C   UNL A   1      48.185  27.524  27.699  1.00  0.00     0.012 A 
ATOM     73  C   UNL A   1      47.212  27.863  25.500  1.00  0.00     0.148 A 
ATOM     74  C   UNL A   1      49.414  27.220  27.111  1.00  0.00     0.002 A 
ATOM     75  C   UNL A   1      48.419  27.493  24.920  1.00  0.00     0.091 A 
ATOM     76  F   UNL A   1      46.153  28.212  24.755  1.00  0.00    -0.205 F 
ATOM     77  C   UNL A   1      49.528  27.194  25.724  1.00  0.00     0.022 A 
BRANCH  75  78
ATOM     78  S   UNL A   1      48.607  27.295  23.145  1.00  0.00     0.127 S 
ATOM     79  O   UNL A   1      47.740  28.354  22.633  1.00  0.00    -0.237 OA
ATOM     80  O   UNL A   1      50.040  27.529  22.963  1.00  0.00    -0.237 OA
ATOM     81  O   UNL A   1      48.184  25.931  22.858  1.00  0.00    -0.744 OA
ENDBRANCH  75  78
ENDBRANCH  47  71
BRANCH  59  82
ATOM     82  C   UNL A   1      44.702  33.732  29.830  1.00  0.00     0.023 A 
ATOM     83  C   UNL A   1      45.392  33.958  31.037  1.00  0.00     0.012 A 
ATOM     84  C   UNL A   1      44.664  34.746  28.852  1.00  0.00     0.148 A 
ATOM     85  C   UNL A   1      46.000  35.188  31.284  1.00  0.00     0.002 A 
ATOM     86  C   UNL A   1      45.320  35.947  29.082  1.00  0.00     0.091 A 
ATOM     87  F   UNL A   1      43.986  34.516  27.719  1.00  0.00    -0.205 F 
ATOM     88  C   UNL A   1      45.975  36.177  30.303  1.00  0.00     0.022 A 
BRANCH  86  89
ATOM     89  S   UNL A   1      45.426  37.238  27.837  1.00  0.00     0.127 S 
ATOM     90  O   UNL A   1      46.187  38.269  28.541  1.00  0.00    -0.237 OA
ATOM     91  O   UNL A   1      46.157  36.568  26.761  1.00  0.00    -0.237 OA
ATOM     92  O   UNL A   1      44.054  37.594  27.506  1.00  0.00    -0.744 OA
ENDBRANCH  86  89
ENDBRANCH  59  82
ENDBRANCH  33  34
ENDBRANCH  26  28
ENDBRANCH  25  26
ENDBRANCH  24  25
ENDBRANCH   1  24
TORSDOF 18
ENDMDL
MODEL 3
REMARK VINA RESULT:     -11.6      1.348      7.679
REMARK SMILES CCc1cc(Nc2ccc(C(=O)OCCOC(=O)c3ccc(-c4c5nc(c(-c6cccc(S(=O)(=O)[O-])c6F)c6ccc([nH]6)c(-c6cccc(S(=O)(=O)[O-])c6F)c6nc(c(-c7cccc(S(=O)(=O)[O-])c7F)c7ccc4[nH]7)C=C6)C=C5)cc3)cc2)nc(C(C)C)n1
REMARK SMILES IDX 14 1 13 2 11 3 12 4 10 5 7 6 8 7 83 8 9 9 82 10 6 11 5 13
REMARK SMILES IDX 3 14 4 15 89 16 85 17 84 18 2 19 1 20 86 21 87 22 88 23
REMARK SMILES IDX 15 24 16 25 17 26 18 27 19 28 20 29 81 30 21 31 80 32 22 33
REMARK SMILES IDX 23 34 24 35 74 36 25 37 79 38 73 39 75 40 26 41 78 42 72 43
REMARK SMILES IDX 71 44 27 46 59 47 39 48 58 49 40 50 43 51 57 52 76 53 41 54
REMARK SMILES IDX 42 55 56 57 77 58 44 59 28 60 29 61 37 62 30 63 32 64 38 65
REMARK SMILES IDX 31 66 33 67 34 68 35 69 36 70 60 71 61 72 69 73 62 74 64 75
REMARK SMILES IDX 70 76 63 77 65 78 66 79 67 80 68 81 45 82 46 83 54 84 47 85
REMARK SMILES IDX 49 86 55 87 48 88 50 89 51 90 52 91 53 92
REMARK H PARENT 6 12 75 45 43 56
REMARK Flexibility Score: inf
ROOT
ATOM      1  C   UNL A   1      35.722  21.577  25.562  1.00  0.00     0.275 C 
ENDROOT
BRANCH   1   2
ATOM      2  O   UNL A   1      34.918  21.696  24.370  1.00  0.00    -0.458 OA
BRANCH   2   3
ATOM      3  C   UNL A   1      33.724  21.054  24.414  1.00  0.00     0.338 C 
ATOM      4  O   UNL A   1      33.548  19.858  24.562  1.00  0.00    -0.246 OA
BRANCH   3   5
ATOM      5  C   UNL A   1      32.603  22.018  24.348  1.00  0.00     0.060 A 
ATOM      6  C   UNL A   1      30.648  24.028  24.179  1.00  0.00     0.040 A 
ATOM      7  C   UNL A   1      31.476  23.764  23.091  1.00  0.00     0.027 A 
ATOM      8  C   UNL A   1      30.796  23.261  25.346  1.00  0.00     0.027 A 
ATOM      9  C   UNL A   1      32.470  22.801  23.198  1.00  0.00     0.018 A 
ATOM     10  C   UNL A   1      31.749  22.238  25.427  1.00  0.00     0.018 A 
BRANCH   6  11
ATOM     11  N   UNL A   1      29.825  25.164  24.118  1.00  0.00    -0.340 N 
ATOM     12  H   UNL A   1      28.863  25.018  23.962  1.00  0.00     0.168 HD
BRANCH  11  13
ATOM     13  C   UNL A   1      30.261  26.493  24.264  1.00  0.00     0.134 A 
ATOM     14  C   UNL A   1      30.161  28.753  23.610  1.00  0.00     0.046 A 
ATOM     15  C   UNL A   1      29.749  27.451  23.416  1.00  0.00     0.071 A 
ATOM     16  N   UNL A   1      31.060  29.088  24.561  1.00  0.00    -0.238 NA
ATOM     17  C   UNL A   1      31.531  28.086  25.328  1.00  0.00     0.133 A 
ATOM     18  N   UNL A   1      31.139  26.809  25.227  1.00  0.00    -0.216 NA
BRANCH  14  19
ATOM     19  C   UNL A   1      29.637  29.863  22.736  1.00  0.00     0.053 C 
ATOM     20  C   UNL A   1      28.171  29.689  22.351  1.00  0.00     0.011 C 
ENDBRANCH  14  19
BRANCH  17  21
ATOM     21  C   UNL A   1      32.549  28.386  26.403  1.00  0.00     0.051 C 
ATOM     22  C   UNL A   1      33.960  28.501  25.830  1.00  0.00     0.016 C 
ATOM     23  C   UNL A   1      32.155  29.637  27.182  1.00  0.00     0.016 C 
ENDBRANCH  17  21
ENDBRANCH  11  13
ENDBRANCH   6  11
ENDBRANCH   3   5
ENDBRANCH   2   3
ENDBRANCH   1   2
BRANCH   1  24
ATOM     24  C   UNL A   1      36.847  20.557  25.382  1.00  0.00     0.275 C 
BRANCH  24  25
ATOM     25  O   UNL A   1      38.088  21.204  25.044  1.00  0.00    -0.458 OA
BRANCH  25  26
ATOM     26  C   UNL A   1      39.097  20.994  25.919  1.00  0.00     0.338 C 
ATOM     27  O   UNL A   1      39.675  19.942  26.140  1.00  0.00    -0.246 OA
BRANCH  26  28
ATOM     28  C   UNL A   1      39.507  22.253  26.558  1.00  0.00     0.060 A 
ATOM     29  C   UNL A   1      38.846  23.411  26.179  1.00  0.00     0.016 A 
ATOM     30  C   UNL A   1      40.669  22.335  27.318  1.00  0.00     0.016 A 
ATOM     31  C   UNL A   1      39.442  24.652  26.374  1.00  0.00     0.010 A 
ATOM     32  C   UNL A   1      41.167  23.597  27.673  1.00  0.00     0.010 A 
ATOM     33  C   UNL A   1      40.599  24.776  27.156  1.00  0.00    -0.014 A 
BRANCH  33  34
ATOM     34  C   UNL A   1      41.189  26.124  27.430  1.00  0.00     0.031 A 
ATOM     35  C   UNL A   1      42.592  26.461  26.977  1.00  0.00     0.074 A 
ATOM     36  C   UNL A   1      40.478  27.051  28.111  1.00  0.00     0.049 A 
ATOM     37  N   UNL A   1      43.335  27.494  27.288  1.00  0.00    -0.248 NA
ATOM     38  C   UNL A   1      43.258  25.509  26.071  1.00  0.00     0.031 C 
ATOM     39  C   UNL A   1      39.109  26.878  28.608  1.00  0.00     0.029 A 
ATOM     40  N   UNL A   1      40.810  28.320  28.525  1.00  0.00    -0.354 N 
ATOM     41  C   UNL A   1      44.575  27.271  26.697  1.00  0.00     0.074 A 
ATOM     42  C   UNL A   1      44.482  26.014  25.988  1.00  0.00     0.031 C 
ATOM     43  C   UNL A   1      38.713  27.995  29.232  1.00  0.00     0.029 A 
ATOM     44  C   UNL A   1      39.832  28.922  29.287  1.00  0.00     0.049 A 
ATOM     45  H   UNL A   1      41.664  28.756  28.300  1.00  0.00     0.167 HD
ATOM     46  C   UNL A   1      45.688  28.044  26.742  1.00  0.00     0.034 A 
ATOM     47  C   UNL A   1      39.843  30.057  30.013  1.00  0.00     0.034 A 
ATOM     48  C   UNL A   1      45.754  29.330  27.384  1.00  0.00     0.049 A 
ATOM     49  C   UNL A   1      41.092  30.887  30.042  1.00  0.00     0.074 A 
ATOM     50  C   UNL A   1      46.818  30.216  27.423  1.00  0.00     0.029 A 
ATOM     51  N   UNL A   1      44.722  29.915  28.100  1.00  0.00    -0.354 N 
ATOM     52  N   UNL A   1      42.229  30.688  29.423  1.00  0.00    -0.248 NA
ATOM     53  C   UNL A   1      41.056  32.109  30.858  1.00  0.00     0.031 C 
ATOM     54  C   UNL A   1      46.443  31.318  28.195  1.00  0.00     0.029 A 
ATOM     55  C   UNL A   1      45.129  31.142  28.597  1.00  0.00     0.049 A 
ATOM     56  H   UNL A   1      43.832  29.518  28.236  1.00  0.00     0.167 HD
ATOM     57  C   UNL A   1      43.031  31.775  29.746  1.00  0.00     0.074 A 
ATOM     58  C   UNL A   1      42.240  32.643  30.593  1.00  0.00     0.031 C 
ATOM     59  C   UNL A   1      44.313  32.024  29.388  1.00  0.00     0.034 A 
BRANCH  46  60
ATOM     60  C   UNL A   1      46.944  27.539  26.076  1.00  0.00     0.023 A 
ATOM     61  C   UNL A   1      47.799  26.647  26.752  1.00  0.00     0.012 A 
ATOM     62  C   UNL A   1      47.212  27.866  24.729  1.00  0.00     0.148 A 
ATOM     63  C   UNL A   1      48.911  26.104  26.106  1.00  0.00     0.002 A 
ATOM     64  C   UNL A   1      48.293  27.284  24.079  1.00  0.00     0.091 A 
ATOM     65  F   UNL A   1      46.393  28.725  24.107  1.00  0.00    -0.205 F 
ATOM     66  C   UNL A   1      49.150  26.411  24.768  1.00  0.00     0.022 A 
BRANCH  64  67
ATOM     67  S   UNL A   1      48.636  27.545  22.333  1.00  0.00     0.127 S 
ATOM     68  O   UNL A   1      47.447  28.281  21.906  1.00  0.00    -0.237 OA
ATOM     69  O   UNL A   1      49.862  28.341  22.379  1.00  0.00    -0.237 OA
ATOM     70  O   UNL A   1      48.786  26.220  21.748  1.00  0.00    -0.744 OA
ENDBRANCH  64  67
ENDBRANCH  46  60
BRANCH  47  71
ATOM     71  C   UNL A   1      38.642  30.458  30.802  1.00  0.00     0.023 A 
ATOM     72  C   UNL A   1      38.551  30.107  32.164  1.00  0.00     0.012 A 
ATOM     73  C   UNL A   1      37.587  31.181  30.211  1.00  0.00     0.148 A 
ATOM     74  C   UNL A   1      37.415  30.430  32.906  1.00  0.00     0.002 A 
ATOM     75  C   UNL A   1      36.489  31.559  30.974  1.00  0.00     0.091 A 
ATOM     76  F   UNL A   1      37.678  31.493  28.910  1.00  0.00    -0.205 F 
ATOM     77  C   UNL A   1      36.391  31.165  32.316  1.00  0.00     0.022 A 
BRANCH  75  78
ATOM     78  S   UNL A   1      35.197  32.627  30.328  1.00  0.00     0.127 S 
ATOM     79  O   UNL A   1      34.298  32.734  31.475  1.00  0.00    -0.237 OA
ATOM     80  O   UNL A   1      35.941  33.847  30.012  1.00  0.00    -0.237 OA
ATOM     81  O   UNL A   1      34.665  31.933  29.164  1.00  0.00    -0.744 OA
ENDBRANCH  75  78
ENDBRANCH  47  71
BRANCH  59  82
ATOM     82  C   UNL A   1      44.925  33.318  29.852  1.00  0.00     0.023 A 
ATOM     83  C   UNL A   1      45.665  33.362  31.050  1.00  0.00     0.012 A 
ATOM     84  C   UNL A   1      44.811  34.480  29.063  1.00  0.00     0.148 A 
ATOM     85  C   UNL A   1      46.249  34.555  31.476  1.00  0.00     0.002 A 
ATOM     86  C   UNL A   1      45.443  35.649  29.466  1.00  0.00     0.091 A 
ATOM     87  F   UNL A   1      44.086  34.419  27.937  1.00  0.00    -0.205 F 
ATOM     88  C   UNL A   1      46.148  35.693  30.678  1.00  0.00     0.022 A 
BRANCH  86  89
ATOM     89  S   UNL A   1      45.452  37.133  28.454  1.00  0.00     0.127 S 
ATOM     90  O   UNL A   1      46.281  36.718  27.324  1.00  0.00    -0.237 OA
ATOM     91  O   UNL A   1      44.033  37.301  28.141  1.00  0.00    -0.237 OA
ATOM     92  O   UNL A   1      46.016  38.186  29.287  1.00  0.00    -0.744 OA
ENDBRANCH  86  89
ENDBRANCH  59  82
ENDBRANCH  33  34
ENDBRANCH  26  28
ENDBRANCH  25  26
ENDBRANCH  24  25
ENDBRANCH   1  24
TORSDOF 18
ENDMDL
