MODEL 1
REMARK VINA RESULT:     -13.0      0.000      0.000
REMARK SMILES Nc1c(C(=O)OCC2c3ccccc3-c3ccccc32)ccc(F)c1C(=O)OCCOC(=O)c1ccc(-c2c3nc(c(-c4cccc(S(=O)(=O)[O-])c4F)c4ccc([nH]4)c(-c4cccc(S(=O)(=O)[O-])c4F)c4nc(c(-c5cccc(S(=O)(=O)[O-])c5F)c5ccc2[nH]5)C=C4)C=C3)cc1
REMARK SMILES IDX 29 1 28 2 26 3 27 4 25 5 2 6 3 7 21 8 23 9 22 10 24 11 1 12
REMARK SMILES IDX 4 15 5 16 6 17 7 18 8 19 9 20 20 21 10 22 14 23 15 24 19 25
REMARK SMILES IDX 11 26 13 27 16 28 18 29 12 30 17 31 30 32 31 33 32 34 33 35
REMARK SMILES IDX 34 36 35 37 96 38 36 39 95 40 37 41 38 42 39 43 89 44 40 45
REMARK SMILES IDX 94 46 88 47 90 48 41 49 93 50 87 51 86 52 42 54 74 55 54 56
REMARK SMILES IDX 73 57 55 58 58 59 72 60 91 61 56 62 57 63 71 65 92 66 59 67
REMARK SMILES IDX 43 68 44 69 52 70 45 71 47 72 53 73 46 74 48 75 49 76 50 77
REMARK SMILES IDX 51 78 75 79 76 80 84 81 77 82 79 83 85 84 78 85 80 86 81 87
REMARK SMILES IDX 82 88 83 89 60 90 61 91 69 92 62 93 64 94 70 95 63 96 65 97
REMARK SMILES IDX 66 98 67 99 68 100
REMARK H PARENT 1 13 1 14 90 53 58 64
REMARK Flexibility Score: inf
ROOT
ATOM      1  C   UNL A   1      35.167  21.130  24.819  1.00  0.00     0.275 C 
ENDROOT
BRANCH   1   2
ATOM      2  O   UNL A   1      33.963  20.708  25.491  1.00  0.00    -0.458 OA
BRANCH   2   3
ATOM      3  C   UNL A   1      32.872  20.460  24.718  1.00  0.00     0.343 C 
ATOM      4  O   UNL A   1      32.549  19.380  24.259  1.00  0.00    -0.246 OA
BRANCH   3   5
ATOM      5  C   UNL A   1      32.085  21.708  24.560  1.00  0.00     0.119 A 
ATOM      6  C   UNL A   1      31.624  22.450  25.668  1.00  0.00     0.064 A 
ATOM      7  C   UNL A   1      30.908  23.641  25.401  1.00  0.00     0.084 A 
ATOM      8  C   UNL A   1      30.580  24.018  24.087  1.00  0.00     0.021 A 
ATOM      9  C   UNL A   1      31.833  22.157  23.255  1.00  0.00     0.139 A 
ATOM     10  C   UNL A   1      31.052  23.278  23.013  1.00  0.00     0.041 A 
ATOM     11  F   UNL A   1      32.338  21.520  22.190  1.00  0.00    -0.206 F 
BRANCH   6  12
ATOM     12  N   UNL A   1      31.991  22.093  26.972  1.00  0.00    -0.397 N 
ATOM     13  H   UNL A   1      32.871  22.357  27.325  1.00  0.00     0.156 HD
ATOM     14  H   UNL A   1      31.368  21.580  27.535  1.00  0.00     0.156 HD
ENDBRANCH   6  12
BRANCH   7  15
ATOM     15  C   UNL A   1      30.520  24.607  26.457  1.00  0.00     0.340 C 
ATOM     16  O   UNL A   1      29.364  24.845  26.769  1.00  0.00    -0.246 OA
BRANCH  15  17
ATOM     17  O   UNL A   1      31.628  25.280  26.866  1.00  0.00    -0.461 OA
BRANCH  17  18
ATOM     18  C   UNL A   1      31.536  26.708  26.831  1.00  0.00     0.246 C 
BRANCH  18  19
ATOM     19  C   UNL A   1      32.628  27.320  25.932  1.00  0.00     0.088 C 
ATOM     20  C   UNL A   1      33.465  26.293  25.178  1.00  0.00    -0.029 A 
ATOM     21  C   UNL A   1      31.947  28.054  24.782  1.00  0.00    -0.029 A 
ATOM     22  C   UNL A   1      34.443  25.443  25.675  1.00  0.00     0.005 A 
ATOM     23  C   UNL A   1      33.144  26.313  23.805  1.00  0.00    -0.014 A 
ATOM     24  C   UNL A   1      32.217  27.398  23.560  1.00  0.00    -0.014 A 
ATOM     25  C   UNL A   1      31.116  29.163  24.845  1.00  0.00     0.005 A 
ATOM     26  C   UNL A   1      35.038  24.535  24.799  1.00  0.00     0.000 A 
ATOM     27  C   UNL A   1      33.731  25.407  22.936  1.00  0.00     0.009 A 
ATOM     28  C   UNL A   1      31.638  27.843  22.386  1.00  0.00     0.009 A 
ATOM     29  C   UNL A   1      30.534  29.610  23.659  1.00  0.00     0.000 A 
ATOM     30  C   UNL A   1      34.671  24.504  23.445  1.00  0.00     0.001 A 
ATOM     31  C   UNL A   1      30.787  28.953  22.443  1.00  0.00     0.001 A 
ENDBRANCH  18  19
ENDBRANCH  17  18
ENDBRANCH  15  17
ENDBRANCH   7  15
ENDBRANCH   3   5
ENDBRANCH   2   3
ENDBRANCH   1   2
BRANCH   1  32
ATOM     32  C   UNL A   1      36.310  21.243  25.826  1.00  0.00     0.275 C 
BRANCH  32  33
ATOM     33  O   UNL A   1      37.535  21.524  25.128  1.00  0.00    -0.458 OA
BRANCH  33  34
ATOM     34  C   UNL A   1      38.667  21.145  25.761  1.00  0.00     0.338 C 
ATOM     35  O   UNL A   1      39.199  20.048  25.748  1.00  0.00    -0.246 OA
BRANCH  34  36
ATOM     36  C   UNL A   1      39.273  22.324  26.393  1.00  0.00     0.060 A 
ATOM     37  C   UNL A   1      38.827  23.576  25.984  1.00  0.00     0.016 A 
ATOM     38  C   UNL A   1      40.343  22.213  27.276  1.00  0.00     0.016 A 
ATOM     39  C   UNL A   1      39.502  24.727  26.375  1.00  0.00     0.010 A 
ATOM     40  C   UNL A   1      40.962  23.380  27.745  1.00  0.00     0.010 A 
ATOM     41  C   UNL A   1      40.577  24.649  27.270  1.00  0.00    -0.014 A 
BRANCH  41  42
ATOM     42  C   UNL A   1      41.317  25.880  27.674  1.00  0.00     0.031 A 
ATOM     43  C   UNL A   1      40.634  26.934  28.509  1.00  0.00     0.074 A 
ATOM     44  C   UNL A   1      42.600  26.066  27.298  1.00  0.00     0.049 A 
ATOM     45  N   UNL A   1      41.035  28.144  28.808  1.00  0.00    -0.248 NA
ATOM     46  C   UNL A   1      39.316  26.589  29.070  1.00  0.00     0.031 C 
ATOM     47  C   UNL A   1      43.399  25.126  26.510  1.00  0.00     0.029 A 
ATOM     48  N   UNL A   1      43.457  27.120  27.519  1.00  0.00    -0.354 N 
ATOM     49  C   UNL A   1      39.992  28.729  29.516  1.00  0.00     0.074 A 
ATOM     50  C   UNL A   1      38.943  27.737  29.616  1.00  0.00     0.031 C 
ATOM     51  C   UNL A   1      44.627  25.634  26.326  1.00  0.00     0.029 A 
ATOM     52  C   UNL A   1      44.682  26.969  26.910  1.00  0.00     0.049 A 
ATOM     53  H   UNL A   1      43.217  27.906  28.060  1.00  0.00     0.167 HD
ATOM     54  C   UNL A   1      39.917  29.974  30.045  1.00  0.00     0.034 A 
ATOM     55  C   UNL A   1      45.720  27.821  26.790  1.00  0.00     0.034 A 
ATOM     56  C   UNL A   1      40.992  30.929  30.021  1.00  0.00     0.049 A 
ATOM     57  C   UNL A   1      45.619  29.190  27.404  1.00  0.00     0.074 A 
ATOM     58  C   UNL A   1      41.024  32.203  30.562  1.00  0.00     0.029 A 
ATOM     59  N   UNL A   1      42.232  30.713  29.440  1.00  0.00    -0.354 N 
ATOM     60  N   UNL A   1      44.637  29.712  28.098  1.00  0.00    -0.248 NA
ATOM     61  C   UNL A   1      46.773  30.084  27.230  1.00  0.00     0.031 C 
ATOM     62  C   UNL A   1      42.281  32.759  30.303  1.00  0.00     0.029 A 
ATOM     63  C   UNL A   1      43.038  31.825  29.615  1.00  0.00     0.049 A 
ATOM     64  H   UNL A   1      42.501  29.889  28.973  1.00  0.00     0.167 HD
ATOM     65  C   UNL A   1      45.061  30.986  28.458  1.00  0.00     0.074 A 
ATOM     66  C   UNL A   1      46.401  31.144  27.934  1.00  0.00     0.031 C 
ATOM     67  C   UNL A   1      44.391  31.948  29.139  1.00  0.00     0.034 A 
BRANCH  54  68
ATOM     68  C   UNL A   1      38.634  30.376  30.727  1.00  0.00     0.023 A 
ATOM     69  C   UNL A   1      38.450  30.098  32.095  1.00  0.00     0.012 A 
ATOM     70  C   UNL A   1      37.642  31.094  30.028  1.00  0.00     0.148 A 
ATOM     71  C   UNL A   1      37.289  30.505  32.752  1.00  0.00     0.002 A 
ATOM     72  C   UNL A   1      36.506  31.534  30.699  1.00  0.00     0.091 A 
ATOM     73  F   UNL A   1      37.827  31.332  28.721  1.00  0.00    -0.205 F 
ATOM     74  C   UNL A   1      36.324  31.231  32.057  1.00  0.00     0.022 A 
BRANCH  72  75
ATOM     75  S   UNL A   1      35.245  32.543  29.912  1.00  0.00     0.127 S 
ATOM     76  O   UNL A   1      34.730  31.630  28.893  1.00  0.00    -0.237 OA
ATOM     77  O   UNL A   1      34.324  32.801  31.019  1.00  0.00    -0.237 OA
ATOM     78  O   UNL A   1      35.932  33.722  29.406  1.00  0.00    -0.744 OA
ENDBRANCH  72  75
ENDBRANCH  54  68
BRANCH  55  79
ATOM     79  C   UNL A   1      46.949  27.400  26.057  1.00  0.00     0.023 A 
ATOM     80  C   UNL A   1      47.910  26.605  26.711  1.00  0.00     0.012 A 
ATOM     81  C   UNL A   1      47.154  27.752  24.708  1.00  0.00     0.148 A 
ATOM     82  C   UNL A   1      49.063  26.189  26.041  1.00  0.00     0.002 A 
ATOM     83  C   UNL A   1      48.271  27.280  24.029  1.00  0.00     0.091 A 
ATOM     84  F   UNL A   1      46.245  28.535  24.110  1.00  0.00    -0.205 F 
ATOM     85  C   UNL A   1      49.236  26.513  24.698  1.00  0.00     0.022 A 
BRANCH  83  86
ATOM     86  S   UNL A   1      48.484  27.528  22.263  1.00  0.00     0.127 S 
ATOM     87  O   UNL A   1      47.209  28.135  21.889  1.00  0.00    -0.237 OA
ATOM     88  O   UNL A   1      49.633  28.433  22.215  1.00  0.00    -0.237 OA
ATOM     89  O   UNL A   1      48.746  26.204  21.716  1.00  0.00    -0.744 OA
ENDBRANCH  83  86
ENDBRANCH  55  79
BRANCH  67  90
ATOM     90  C   UNL A   1      45.104  33.250  29.387  1.00  0.00     0.023 A 
ATOM     91  C   UNL A   1      45.883  33.407  30.550  1.00  0.00     0.012 A 
ATOM     92  C   UNL A   1      45.056  34.290  28.439  1.00  0.00     0.148 A 
ATOM     93  C   UNL A   1      46.580  34.592  30.781  1.00  0.00     0.002 A 
ATOM     94  C   UNL A   1      45.789  35.451  28.654  1.00  0.00     0.091 A 
ATOM     95  F   UNL A   1      44.293  34.129  27.348  1.00  0.00    -0.205 F 
ATOM     96  C   UNL A   1      46.543  35.609  29.829  1.00  0.00     0.022 A 
BRANCH  94  97
ATOM     97  S   UNL A   1      45.870  36.775  27.442  1.00  0.00     0.127 S 
ATOM     98  O   UNL A   1      46.407  36.078  26.275  1.00  0.00    -0.237 OA
ATOM     99  O   UNL A   1      44.467  37.174  27.322  1.00  0.00    -0.237 OA
ATOM    100  O   UNL A   1      46.738  37.792  28.019  1.00  0.00    -0.744 OA
ENDBRANCH  94  97
ENDBRANCH  67  90
ENDBRANCH  41  42
ENDBRANCH  34  36
ENDBRANCH  33  34
ENDBRANCH  32  33
ENDBRANCH   1  32
TORSDOF 19
ENDMDL
MODEL 2
REMARK VINA RESULT:     -12.6      0.482      7.217
REMARK SMILES Nc1c(C(=O)OCC2c3ccccc3-c3ccccc32)ccc(F)c1C(=O)OCCOC(=O)c1ccc(-c2c3nc(c(-c4cccc(S(=O)(=O)[O-])c4F)c4ccc([nH]4)c(-c4cccc(S(=O)(=O)[O-])c4F)c4nc(c(-c5cccc(S(=O)(=O)[O-])c5F)c5ccc2[nH]5)C=C4)C=C3)cc1
REMARK SMILES IDX 29 1 28 2 26 3 27 4 25 5 2 6 3 7 21 8 23 9 22 10 24 11 1 12
REMARK SMILES IDX 4 15 5 16 6 17 7 18 8 19 9 20 20 21 10 22 14 23 15 24 19 25
REMARK SMILES IDX 11 26 13 27 16 28 18 29 12 30 17 31 30 32 31 33 32 34 33 35
REMARK SMILES IDX 34 36 35 37 96 38 36 39 95 40 37 41 38 42 39 43 89 44 40 45
REMARK SMILES IDX 94 46 88 47 90 48 41 49 93 50 87 51 86 52 42 54 74 55 54 56
REMARK SMILES IDX 73 57 55 58 58 59 72 60 91 61 56 62 57 63 71 65 92 66 59 67
REMARK SMILES IDX 43 68 44 69 52 70 45 71 47 72 53 73 46 74 48 75 49 76 50 77
REMARK SMILES IDX 51 78 75 79 76 80 84 81 77 82 79 83 85 84 78 85 80 86 81 87
REMARK SMILES IDX 82 88 83 89 60 90 61 91 69 92 62 93 64 94 70 95 63 96 65 97
REMARK SMILES IDX 66 98 67 99 68 100
REMARK H PARENT 1 13 1 14 90 53 58 64
REMARK Flexibility Score: inf
ROOT
ATOM      1  C   UNL A   1      35.380  20.770  24.542  1.00  0.00     0.275 C 
ENDROOT
BRANCH   1   2
ATOM      2  O   UNL A   1      34.370  20.883  25.566  1.00  0.00    -0.458 OA
BRANCH   2   3
ATOM      3  C   UNL A   1      33.120  20.444  25.259  1.00  0.00     0.343 C 
ATOM      4  O   UNL A   1      32.732  19.291  25.309  1.00  0.00    -0.246 OA
BRANCH   3   5
ATOM      5  C   UNL A   1      32.263  21.602  24.904  1.00  0.00     0.119 A 
ATOM      6  C   UNL A   1      31.609  22.380  25.883  1.00  0.00     0.064 A 
ATOM      7  C   UNL A   1      30.841  23.480  25.433  1.00  0.00     0.084 A 
ATOM      8  C   UNL A   1      30.652  23.728  24.063  1.00  0.00     0.021 A 
ATOM      9  C   UNL A   1      32.143  21.929  23.545  1.00  0.00     0.139 A 
ATOM     10  C   UNL A   1      31.313  22.955  23.118  1.00  0.00     0.041 A 
ATOM     11  F   UNL A   1      32.826  21.262  22.605  1.00  0.00    -0.206 F 
BRANCH   6  12
ATOM     12  N   UNL A   1      31.836  22.154  27.246  1.00  0.00    -0.397 N 
ATOM     13  H   UNL A   1      31.483  22.785  27.915  1.00  0.00     0.156 HD
ATOM     14  H   UNL A   1      32.347  21.365  27.536  1.00  0.00     0.156 HD
ENDBRANCH   6  12
BRANCH   7  15
ATOM     15  C   UNL A   1      30.248  24.483  26.350  1.00  0.00     0.340 C 
ATOM     16  O   UNL A   1      29.476  24.206  27.254  1.00  0.00    -0.246 OA
BRANCH  15  17
ATOM     17  O   UNL A   1      30.565  25.727  25.903  1.00  0.00    -0.461 OA
BRANCH  17  18
ATOM     18  C   UNL A   1      31.440  26.485  26.744  1.00  0.00     0.246 C 
BRANCH  18  19
ATOM     19  C   UNL A   1      32.595  27.110  25.935  1.00  0.00     0.088 C 
ATOM     20  C   UNL A   1      33.472  26.094  25.212  1.00  0.00    -0.029 A 
ATOM     21  C   UNL A   1      31.998  27.879  24.762  1.00  0.00    -0.029 A 
ATOM     22  C   UNL A   1      34.408  25.222  25.751  1.00  0.00     0.005 A 
ATOM     23  C   UNL A   1      33.244  26.152  23.822  1.00  0.00    -0.014 A 
ATOM     24  C   UNL A   1      32.344  27.252  23.544  1.00  0.00    -0.014 A 
ATOM     25  C   UNL A   1      31.174  28.994  24.798  1.00  0.00     0.005 A 
ATOM     26  C   UNL A   1      35.053  24.331  24.893  1.00  0.00     0.000 A 
ATOM     27  C   UNL A   1      33.881  25.262  22.971  1.00  0.00     0.009 A 
ATOM     28  C   UNL A   1      31.848  27.731  22.346  1.00  0.00     0.009 A 
ATOM     29  C   UNL A   1      30.675  29.476  23.588  1.00  0.00     0.000 A 
ATOM     30  C   UNL A   1      34.778  24.338  23.518  1.00  0.00     0.001 A 
ATOM     31  C   UNL A   1      31.004  28.848  22.375  1.00  0.00     0.001 A 
ENDBRANCH  18  19
ENDBRANCH  17  18
ENDBRANCH  15  17
ENDBRANCH   7  15
ENDBRANCH   3   5
ENDBRANCH   2   3
ENDBRANCH   1   2
BRANCH   1  32
ATOM     32  C   UNL A   1      36.696  20.307  25.163  1.00  0.00     0.275 C 
BRANCH  32  33
ATOM     33  O   UNL A   1      37.402  21.444  25.687  1.00  0.00    -0.458 OA
BRANCH  33  34
ATOM     34  C   UNL A   1      38.707  21.239  25.974  1.00  0.00     0.338 C 
ATOM     35  O   UNL A   1      39.374  20.244  25.748  1.00  0.00    -0.246 OA
BRANCH  34  36
ATOM     36  C   UNL A   1      39.277  22.485  26.503  1.00  0.00     0.060 A 
ATOM     37  C   UNL A   1      38.581  23.665  26.263  1.00  0.00     0.016 A 
ATOM     38  C   UNL A   1      40.528  22.518  27.110  1.00  0.00     0.016 A 
ATOM     39  C   UNL A   1      39.165  24.897  26.540  1.00  0.00     0.010 A 
ATOM     40  C   UNL A   1      41.074  23.756  27.477  1.00  0.00     0.010 A 
ATOM     41  C   UNL A   1      40.419  24.963  27.160  1.00  0.00    -0.014 A 
BRANCH  41  42
ATOM     42  C   UNL A   1      41.058  26.282  27.439  1.00  0.00     0.031 A 
ATOM     43  C   UNL A   1      42.466  26.554  26.972  1.00  0.00     0.074 A 
ATOM     44  C   UNL A   1      40.389  27.243  28.110  1.00  0.00     0.049 A 
ATOM     45  N   UNL A   1      43.259  27.553  27.266  1.00  0.00    -0.248 NA
ATOM     46  C   UNL A   1      43.071  25.563  26.065  1.00  0.00     0.031 C 
ATOM     47  C   UNL A   1      39.015  27.134  28.604  1.00  0.00     0.029 A 
ATOM     48  N   UNL A   1      40.780  28.501  28.505  1.00  0.00    -0.354 N 
ATOM     49  C   UNL A   1      44.474  27.271  26.653  1.00  0.00     0.074 A 
ATOM     50  C   UNL A   1      44.312  26.014  25.957  1.00  0.00     0.031 C 
ATOM     51  C   UNL A   1      38.673  28.275  29.220  1.00  0.00     0.029 A 
ATOM     52  C   UNL A   1      39.826  29.169  29.239  1.00  0.00     0.049 A 
ATOM     53  H   UNL A   1      41.658  28.887  28.284  1.00  0.00     0.167 HD
ATOM     54  C   UNL A   1      45.618  27.998  26.660  1.00  0.00     0.034 A 
ATOM     55  C   UNL A   1      39.879  30.345  29.896  1.00  0.00     0.034 A 
ATOM     56  C   UNL A   1      45.752  29.290  27.279  1.00  0.00     0.049 A 
ATOM     57  C   UNL A   1      41.155  31.141  29.870  1.00  0.00     0.074 A 
ATOM     58  C   UNL A   1      46.860  30.119  27.307  1.00  0.00     0.029 A 
ATOM     59  N   UNL A   1      44.744  29.949  27.965  1.00  0.00    -0.354 N 
ATOM     60  N   UNL A   1      42.282  30.874  29.257  1.00  0.00    -0.248 NA
ATOM     61  C   UNL A   1      41.163  32.408  30.616  1.00  0.00     0.031 C 
ATOM     62  C   UNL A   1      46.523  31.277  28.015  1.00  0.00     0.029 A 
ATOM     63  C   UNL A   1      45.201  31.177  28.414  1.00  0.00     0.049 A 
ATOM     64  H   UNL A   1      43.836  29.597  28.110  1.00  0.00     0.167 HD
ATOM     65  C   UNL A   1      43.126  31.944  29.527  1.00  0.00     0.074 A 
ATOM     66  C   UNL A   1      42.369  32.881  30.332  1.00  0.00     0.031 C 
ATOM     67  C   UNL A   1      44.419  32.125  29.164  1.00  0.00     0.034 A 
BRANCH  54  68
ATOM     68  C   UNL A   1      46.819  27.431  25.948  1.00  0.00     0.023 A 
ATOM     69  C   UNL A   1      47.640  26.488  26.598  1.00  0.00     0.012 A 
ATOM     70  C   UNL A   1      47.091  27.777  24.609  1.00  0.00     0.148 A 
ATOM     71  C   UNL A   1      48.727  25.919  25.938  1.00  0.00     0.002 A 
ATOM     72  C   UNL A   1      48.152  27.174  23.942  1.00  0.00     0.091 A 
ATOM     73  F   UNL A   1      46.311  28.690  24.013  1.00  0.00    -0.205 F 
ATOM     74  C   UNL A   1      48.977  26.253  24.608  1.00  0.00     0.022 A 
BRANCH  72  75
ATOM     75  S   UNL A   1      48.506  27.478  22.207  1.00  0.00     0.127 S 
ATOM     76  O   UNL A   1      49.752  28.239  22.289  1.00  0.00    -0.237 OA
ATOM     77  O   UNL A   1      48.655  26.121  21.681  1.00  0.00    -0.237 OA
ATOM     78  O   UNL A   1      47.360  28.208  21.685  1.00  0.00    -0.744 OA
ENDBRANCH  72  75
ENDBRANCH  54  68
BRANCH  55  79
ATOM     79  C   UNL A   1      38.682  30.841  30.634  1.00  0.00     0.023 A 
ATOM     80  C   UNL A   1      38.627  30.711  32.036  1.00  0.00     0.012 A 
ATOM     81  C   UNL A   1      37.615  31.469  29.962  1.00  0.00     0.148 A 
ATOM     82  C   UNL A   1      37.521  31.178  32.750  1.00  0.00     0.002 A 
ATOM     83  C   UNL A   1      36.548  31.989  30.685  1.00  0.00     0.091 A 
ATOM     84  F   UNL A   1      37.668  31.556  28.626  1.00  0.00    -0.205 F 
ATOM     85  C   UNL A   1      36.490  31.830  32.078  1.00  0.00     0.022 A 
BRANCH  83  86
ATOM     86  S   UNL A   1      35.262  32.972  29.907  1.00  0.00     0.127 S 
ATOM     87  O   UNL A   1      34.413  33.311  31.045  1.00  0.00    -0.237 OA
ATOM     88  O   UNL A   1      36.024  34.091  29.351  1.00  0.00    -0.237 OA
ATOM     89  O   UNL A   1      34.666  32.102  28.902  1.00  0.00    -0.744 OA
ENDBRANCH  83  86
ENDBRANCH  55  79
BRANCH  67  90
ATOM     90  C   UNL A   1      45.095  33.395  29.605  1.00  0.00     0.023 A 
ATOM     91  C   UNL A   1      45.818  33.417  30.814  1.00  0.00     0.012 A 
ATOM     92  C   UNL A   1      45.070  34.545  28.791  1.00  0.00     0.148 A 
ATOM     93  C   UNL A   1      46.481  34.573  31.222  1.00  0.00     0.002 A 
ATOM     94  C   UNL A   1      45.770  35.679  29.183  1.00  0.00     0.091 A 
ATOM     95  F   UNL A   1      44.360  34.510  27.655  1.00  0.00    -0.205 F 
ATOM     96  C   UNL A   1      46.467  35.700  30.403  1.00  0.00     0.022 A 
BRANCH  94  97
ATOM     97  S   UNL A   1      45.880  37.145  28.149  1.00  0.00     0.127 S 
ATOM     98  O   UNL A   1      46.460  36.602  26.923  1.00  0.00    -0.237 OA
ATOM     99  O   UNL A   1      44.478  37.551  28.033  1.00  0.00    -0.237 OA
ATOM    100  O   UNL A   1      46.720  38.086  28.877  1.00  0.00    -0.744 OA
ENDBRANCH  94  97
ENDBRANCH  67  90
ENDBRANCH  41  42
ENDBRANCH  34  36
ENDBRANCH  33  34
ENDBRANCH  32  33
ENDBRANCH   1  32
TORSDOF 19
ENDMDL
MODEL 3
REMARK VINA RESULT:     -12.5      1.219      1.885
REMARK SMILES Nc1c(C(=O)OCC2c3ccccc3-c3ccccc32)ccc(F)c1C(=O)OCCOC(=O)c1ccc(-c2c3nc(c(-c4cccc(S(=O)(=O)[O-])c4F)c4ccc([nH]4)c(-c4cccc(S(=O)(=O)[O-])c4F)c4nc(c(-c5cccc(S(=O)(=O)[O-])c5F)c5ccc2[nH]5)C=C4)C=C3)cc1
REMARK SMILES IDX 29 1 28 2 26 3 27 4 25 5 2 6 3 7 21 8 23 9 22 10 24 11 1 12
REMARK SMILES IDX 4 15 5 16 6 17 7 18 8 19 9 20 20 21 10 22 14 23 15 24 19 25
REMARK SMILES IDX 11 26 13 27 16 28 18 29 12 30 17 31 30 32 31 33 32 34 33 35
REMARK SMILES IDX 34 36 35 37 96 38 36 39 95 40 37 41 38 42 39 43 89 44 40 45
REMARK SMILES IDX 94 46 88 47 90 48 41 49 93 50 87 51 86 52 42 54 74 55 54 56
REMARK SMILES IDX 73 57 55 58 58 59 72 60 91 61 56 62 57 63 71 65 92 66 59 67
REMARK SMILES IDX 43 68 44 69 52 70 45 71 47 72 53 73 46 74 48 75 49 76 50 77
REMARK SMILES IDX 51 78 75 79 76 80 84 81 77 82 79 83 85 84 78 85 80 86 81 87
REMARK SMILES IDX 82 88 83 89 60 90 61 91 69 92 62 93 64 94 70 95 63 96 65 97
REMARK SMILES IDX 66 98 67 99 68 100
REMARK H PARENT 1 13 1 14 90 53 58 64
REMARK Flexibility Score: inf
ROOT
ATOM      1  C   UNL A   1      36.818  21.395  24.260  1.00  0.00     0.275 C 
ENDROOT
BRANCH   1   2
ATOM      2  O   UNL A   1      35.696  21.870  25.032  1.00  0.00    -0.458 OA
BRANCH   2   3
ATOM      3  C   UNL A   1      35.275  23.143  24.801  1.00  0.00     0.343 C 
ATOM      4  O   UNL A   1      35.988  24.118  24.651  1.00  0.00    -0.246 OA
BRANCH   3   5
ATOM      5  C   UNL A   1      33.796  23.163  24.699  1.00  0.00     0.119 A 
ATOM      6  C   UNL A   1      32.972  23.509  25.793  1.00  0.00     0.064 A 
ATOM      7  C   UNL A   1      31.575  23.523  25.576  1.00  0.00     0.084 A 
ATOM      8  C   UNL A   1      31.021  23.111  24.351  1.00  0.00     0.021 A 
ATOM      9  C   UNL A   1      33.225  22.854  23.456  1.00  0.00     0.139 A 
ATOM     10  C   UNL A   1      31.849  22.785  23.287  1.00  0.00     0.041 A 
ATOM     11  F   UNL A   1      33.987  22.612  22.380  1.00  0.00    -0.206 F 
BRANCH   6  12
ATOM     12  N   UNL A   1      33.531  23.958  26.996  1.00  0.00    -0.397 N 
ATOM     13  H   UNL A   1      32.977  24.005  27.808  1.00  0.00     0.156 HD
ATOM     14  H   UNL A   1      34.477  24.226  27.029  1.00  0.00     0.156 HD
ENDBRANCH   6  12
BRANCH   7  15
ATOM     15  C   UNL A   1      30.604  24.034  26.573  1.00  0.00     0.340 C 
ATOM     16  O   UNL A   1      29.834  23.323  27.199  1.00  0.00    -0.246 OA
BRANCH  15  17
ATOM     17  O   UNL A   1      30.605  25.393  26.530  1.00  0.00    -0.461 OA
BRANCH  17  18
ATOM     18  C   UNL A   1      29.880  25.980  25.445  1.00  0.00     0.246 C 
BRANCH  18  19
ATOM     19  C   UNL A   1      30.607  27.220  24.889  1.00  0.00     0.088 C 
ATOM     20  C   UNL A   1      31.712  27.755  25.794  1.00  0.00    -0.029 A 
ATOM     21  C   UNL A   1      31.404  26.798  23.660  1.00  0.00    -0.029 A 
ATOM     22  C   UNL A   1      31.589  28.445  26.991  1.00  0.00     0.005 A 
ATOM     23  C   UNL A   1      32.977  27.485  25.233  1.00  0.00    -0.014 A 
ATOM     24  C   UNL A   1      32.789  26.903  23.921  1.00  0.00    -0.014 A 
ATOM     25  C   UNL A   1      30.926  26.308  22.454  1.00  0.00     0.005 A 
ATOM     26  C   UNL A   1      32.752  28.783  27.683  1.00  0.00     0.000 A 
ATOM     27  C   UNL A   1      34.133  27.815  25.923  1.00  0.00     0.009 A 
ATOM     28  C   UNL A   1      33.711  26.497  22.973  1.00  0.00     0.009 A 
ATOM     29  C   UNL A   1      31.858  25.901  21.499  1.00  0.00     0.000 A 
ATOM     30  C   UNL A   1      34.013  28.454  27.162  1.00  0.00     0.001 A 
ATOM     31  C   UNL A   1      33.236  25.989  21.758  1.00  0.00     0.001 A 
ENDBRANCH  18  19
ENDBRANCH  17  18
ENDBRANCH  15  17
ENDBRANCH   7  15
ENDBRANCH   3   5
ENDBRANCH   2   3
ENDBRANCH   1   2
BRANCH   1  32
ATOM     32  C   UNL A   1      37.798  20.658  25.170  1.00  0.00     0.275 C 
BRANCH  32  33
ATOM     33  O   UNL A   1      38.974  21.463  25.357  1.00  0.00    -0.458 OA
BRANCH  33  34
ATOM     34  C   UNL A   1      39.691  21.199  26.471  1.00  0.00     0.338 C 
ATOM     35  O   UNL A   1      40.022  20.108  26.905  1.00  0.00    -0.246 OA
BRANCH  34  36
ATOM     36  C   UNL A   1      40.155  22.467  27.048  1.00  0.00     0.060 A 
ATOM     37  C   UNL A   1      39.623  23.643  26.531  1.00  0.00     0.016 A 
ATOM     38  C   UNL A   1      41.180  22.513  27.987  1.00  0.00     0.016 A 
ATOM     39  C   UNL A   1      40.170  24.875  26.874  1.00  0.00     0.010 A 
ATOM     40  C   UNL A   1      41.667  23.759  28.403  1.00  0.00     0.010 A 
ATOM     41  C   UNL A   1      41.197  24.955  27.823  1.00  0.00    -0.014 A 
BRANCH  41  42
ATOM     42  C   UNL A   1      41.802  26.273  28.175  1.00  0.00     0.031 A 
ATOM     43  C   UNL A   1      40.984  27.309  28.903  1.00  0.00     0.074 A 
ATOM     44  C   UNL A   1      43.081  26.552  27.848  1.00  0.00     0.049 A 
ATOM     45  N   UNL A   1      41.259  28.568  29.136  1.00  0.00    -0.248 NA
ATOM     46  C   UNL A   1      39.675  26.881  29.424  1.00  0.00     0.031 C 
ATOM     47  C   UNL A   1      44.001  25.642  27.164  1.00  0.00     0.029 A 
ATOM     48  N   UNL A   1      43.827  27.692  28.035  1.00  0.00    -0.354 N 
ATOM     49  C   UNL A   1      40.132  29.098  29.753  1.00  0.00     0.074 A 
ATOM     50  C   UNL A   1      39.172  28.022  29.872  1.00  0.00     0.031 C 
ATOM     51  C   UNL A   1      45.187  26.248  27.003  1.00  0.00     0.029 A 
ATOM     52  C   UNL A   1      45.092  27.617  27.496  1.00  0.00     0.049 A 
ATOM     53  H   UNL A   1      43.490  28.486  28.509  1.00  0.00     0.167 HD
ATOM     54  C   UNL A   1      39.918  30.362  30.191  1.00  0.00     0.034 A 
ATOM     55  C   UNL A   1      46.054  28.552  27.366  1.00  0.00     0.034 A 
ATOM     56  C   UNL A   1      40.904  31.410  30.152  1.00  0.00     0.049 A 
ATOM     57  C   UNL A   1      45.799  29.943  27.879  1.00  0.00     0.074 A 
ATOM     58  C   UNL A   1      40.792  32.712  30.605  1.00  0.00     0.029 A 
ATOM     59  N   UNL A   1      42.187  31.272  29.646  1.00  0.00    -0.354 N 
ATOM     60  N   UNL A   1      44.739  30.415  28.489  1.00  0.00    -0.248 NA
ATOM     61  C   UNL A   1      46.876  30.927  27.698  1.00  0.00     0.031 C 
ATOM     62  C   UNL A   1      42.007  33.365  30.368  1.00  0.00     0.029 A 
ATOM     63  C   UNL A   1      42.880  32.463  29.781  1.00  0.00     0.049 A 
ATOM     64  H   UNL A   1      42.552  30.448  29.249  1.00  0.00     0.167 HD
ATOM     65  C   UNL A   1      45.028  31.743  28.780  1.00  0.00     0.074 A 
ATOM     66  C   UNL A   1      46.374  31.991  28.309  1.00  0.00     0.031 C 
ATOM     67  C   UNL A   1      44.240  32.680  29.361  1.00  0.00     0.034 A 
BRANCH  54  68
ATOM     68  C   UNL A   1      38.570  30.687  30.784  1.00  0.00     0.023 A 
ATOM     69  C   UNL A   1      38.311  30.397  32.137  1.00  0.00     0.012 A 
ATOM     70  C   UNL A   1      37.588  31.345  30.016  1.00  0.00     0.148 A 
ATOM     71  C   UNL A   1      37.086  30.733  32.713  1.00  0.00     0.002 A 
ATOM     72  C   UNL A   1      36.385  31.716  30.608  1.00  0.00     0.091 A 
ATOM     73  F   UNL A   1      37.846  31.596  28.725  1.00  0.00    -0.205 F 
ATOM     74  C   UNL A   1      36.129  31.401  31.952  1.00  0.00     0.022 A 
BRANCH  72  75
ATOM     75  S   UNL A   1      35.122  32.649  29.735  1.00  0.00     0.127 S 
ATOM     76  O   UNL A   1      34.685  31.684  28.728  1.00  0.00    -0.237 OA
ATOM     77  O   UNL A   1      34.145  32.909  30.793  1.00  0.00    -0.237 OA
ATOM     78  O   UNL A   1      35.786  33.837  29.216  1.00  0.00    -0.744 OA
ENDBRANCH  72  75
ENDBRANCH  54  68
BRANCH  55  79
ATOM     79  C   UNL A   1      47.353  28.201  26.721  1.00  0.00     0.023 A 
ATOM     80  C   UNL A   1      48.490  27.982  27.523  1.00  0.00     0.012 A 
ATOM     81  C   UNL A   1      47.459  28.048  25.325  1.00  0.00     0.148 A 
ATOM     82  C   UNL A   1      49.713  27.641  26.943  1.00  0.00     0.002 A 
ATOM     83  C   UNL A   1      48.663  27.644  24.760  1.00  0.00     0.091 A 
ATOM     84  F   UNL A   1      46.376  28.289  24.574  1.00  0.00    -0.205 F 
ATOM     85  C   UNL A   1      49.797  27.457  25.565  1.00  0.00     0.022 A 
BRANCH  83  86
ATOM     86  S   UNL A   1      48.806  27.241  23.016  1.00  0.00     0.127 S 
ATOM     87  O   UNL A   1      48.189  25.918  22.962  1.00  0.00    -0.237 OA
ATOM     88  O   UNL A   1      48.029  28.309  22.387  1.00  0.00    -0.237 OA
ATOM     89  O   UNL A   1      50.232  27.293  22.724  1.00  0.00    -0.744 OA
ENDBRANCH  83  86
ENDBRANCH  55  79
BRANCH  67  90
ATOM     90  C   UNL A   1      44.819  34.056  29.552  1.00  0.00     0.023 A 
ATOM     91  C   UNL A   1      45.503  34.365  30.745  1.00  0.00     0.012 A 
ATOM     92  C   UNL A   1      44.744  35.019  28.527  1.00  0.00     0.148 A 
ATOM     93  C   UNL A   1      46.078  35.621  30.927  1.00  0.00     0.002 A 
ATOM     94  C   UNL A   1      45.358  36.254  28.697  1.00  0.00     0.091 A 
ATOM     95  F   UNL A   1      44.072  34.713  27.408  1.00  0.00    -0.205 F 
ATOM     96  C   UNL A   1      46.016  36.562  29.900  1.00  0.00     0.022 A 
BRANCH  94  97
ATOM     97  S   UNL A   1      45.404  37.491  27.395  1.00  0.00     0.127 S 
ATOM     98  O   UNL A   1      46.121  38.585  28.048  1.00  0.00    -0.237 OA
ATOM     99  O   UNL A   1      46.159  36.810  26.342  1.00  0.00    -0.237 OA
ATOM    100  O   UNL A   1      44.014  37.767  27.057  1.00  0.00    -0.744 OA
ENDBRANCH  94  97
ENDBRANCH  67  90
ENDBRANCH  41  42
ENDBRANCH  34  36
ENDBRANCH  33  34
ENDBRANCH  32  33
ENDBRANCH   1  32
TORSDOF 19
ENDMDL
