MODEL 1
REMARK VINA RESULT:     -12.3      0.000      0.000
REMARK SMILES O=C(Nc1ccc(O)cc1C(=O)OCCOC(=O)c1ccc(-c2c3nc(c(-c4cccc(S(=O)(=O)[O-])c4F)c4ccc([nH]4)c(-c4cccc(S(=O)(=O)[O-])c4F)c4nc(c(-c5cccc(S(=O)(=O)[O-])c5F)c5ccc2[nH]5)C=C4)C=C3)cc1)c1ccc(Br)nc1
REMARK SMILES IDX 15 1 14 2 13 3 11 4 12 5 10 6 4 7 5 8 6 9 9 10 7 11 3 12
REMARK SMILES IDX 1 13 2 14 82 16 83 17 88 18 84 19 87 20 85 21 86 22 8 23
REMARK SMILES IDX 16 25 17 26 18 27 19 28 20 29 81 30 21 31 80 32 22 33 23 34
REMARK SMILES IDX 24 35 74 36 25 37 79 38 73 39 75 40 26 41 78 42 72 43 71 44
REMARK SMILES IDX 27 46 59 47 39 48 58 49 40 50 43 51 57 52 76 53 41 54 42 55
REMARK SMILES IDX 56 57 77 58 44 59 28 60 29 61 37 62 30 63 32 64 38 65 31 66
REMARK SMILES IDX 33 67 34 68 35 69 36 70 60 71 61 72 69 73 62 74 64 75 70 76
REMARK SMILES IDX 63 77 65 78 66 79 67 80 68 81 45 82 46 83 54 84 47 85 49 86
REMARK SMILES IDX 55 87 48 88 50 89 51 90 52 91 53 92
REMARK H PARENT 3 15 8 24 75 45 43 56
REMARK Flexibility Score: inf
ROOT
ATOM      1  C   UNL A   1      36.624  20.441  25.045  1.00  0.00     0.275 C 
ENDROOT
BRANCH   1   2
ATOM      2  C   UNL A   1      35.304  21.206  25.133  1.00  0.00     0.275 C 
BRANCH   2   3
ATOM      3  O   UNL A   1      35.370  22.255  26.125  1.00  0.00    -0.458 OA
BRANCH   3   4
ATOM      4  C   UNL A   1      34.893  23.471  25.748  1.00  0.00     0.340 C 
ATOM      5  O   UNL A   1      35.565  24.454  25.507  1.00  0.00    -0.246 OA
BRANCH   4   6
ATOM      6  C   UNL A   1      33.410  23.453  25.584  1.00  0.00     0.087 A 
ATOM      7  C   UNL A   1      32.715  23.964  24.471  1.00  0.00     0.056 A 
ATOM      8  C   UNL A   1      31.315  23.825  24.442  1.00  0.00     0.031 A 
ATOM      9  C   UNL A   1      30.603  23.356  25.547  1.00  0.00     0.048 A 
ATOM     10  C   UNL A   1      32.685  22.911  26.661  1.00  0.00     0.064 A 
ATOM     11  C   UNL A   1      31.298  22.932  26.662  1.00  0.00     0.116 A 
BRANCH   7  12
ATOM     12  N   UNL A   1      33.408  24.563  23.392  1.00  0.00    -0.321 N 
ATOM     13  O   UNL A   1      33.906  26.183  21.879  1.00  0.00    -0.269 OA
ATOM     14  C   UNL A   1      33.463  25.878  22.984  1.00  0.00     0.257 C 
ATOM     15  H   UNL A   1      33.937  23.939  22.845  1.00  0.00     0.170 HD
BRANCH  14  16
ATOM     16  C   UNL A   1      33.051  26.956  23.899  1.00  0.00     0.058 A 
ATOM     17  C   UNL A   1      33.937  27.433  24.863  1.00  0.00     0.018 A 
ATOM     18  C   UNL A   1      31.803  27.557  23.785  1.00  0.00     0.126 A 
ATOM     19  C   UNL A   1      33.573  28.545  25.619  1.00  0.00     0.037 A 
ATOM     20  N   UNL A   1      31.430  28.639  24.509  1.00  0.00    -0.249 NA
ATOM     21  C   UNL A   1      32.326  29.120  25.399  1.00  0.00     0.106 A 
ATOM     22  Br  UNL A   1      31.856  30.685  26.358  1.00  0.00    -0.029 Br
ENDBRANCH  14  16
ENDBRANCH   7  12
BRANCH  11  23
ATOM     23  O   UNL A   1      30.654  22.522  27.788  1.00  0.00    -0.508 OA
ATOM     24  H   UNL A   1      29.885  21.992  27.720  1.00  0.00     0.293 HD
ENDBRANCH  11  23
ENDBRANCH   4   6
ENDBRANCH   3   4
ENDBRANCH   2   3
ENDBRANCH   1   2
BRANCH   1  25
ATOM     25  O   UNL A   1      37.735  21.353  25.035  1.00  0.00    -0.458 OA
BRANCH  25  26
ATOM     26  C   UNL A   1      38.802  20.977  25.777  1.00  0.00     0.338 C 
ATOM     27  O   UNL A   1      39.290  19.863  25.865  1.00  0.00    -0.246 OA
BRANCH  26  28
ATOM     28  C   UNL A   1      39.405  22.167  26.395  1.00  0.00     0.060 A 
ATOM     29  C   UNL A   1      38.861  23.404  26.064  1.00  0.00     0.016 A 
ATOM     30  C   UNL A   1      40.557  22.091  27.172  1.00  0.00     0.016 A 
ATOM     31  C   UNL A   1      39.501  24.580  26.441  1.00  0.00     0.010 A 
ATOM     32  C   UNL A   1      41.161  23.276  27.615  1.00  0.00     0.010 A 
ATOM     33  C   UNL A   1      40.660  24.534  27.226  1.00  0.00    -0.014 A 
BRANCH  33  34
ATOM     34  C   UNL A   1      41.366  25.797  27.589  1.00  0.00     0.031 A 
ATOM     35  C   UNL A   1      40.674  26.838  28.430  1.00  0.00     0.074 A 
ATOM     36  C   UNL A   1      42.632  26.015  27.175  1.00  0.00     0.049 A 
ATOM     37  N   UNL A   1      41.066  28.050  28.735  1.00  0.00    -0.248 NA
ATOM     38  C   UNL A   1      39.362  26.477  28.991  1.00  0.00     0.031 C 
ATOM     39  C   UNL A   1      43.430  25.089  26.371  1.00  0.00     0.029 A 
ATOM     40  N   UNL A   1      43.468  27.088  27.370  1.00  0.00    -0.354 N 
ATOM     41  C   UNL A   1      40.020  28.621  29.452  1.00  0.00     0.074 A 
ATOM     42  C   UNL A   1      38.980  27.618  29.548  1.00  0.00     0.031 C 
ATOM     43  C   UNL A   1      44.643  25.621  26.159  1.00  0.00     0.029 A 
ATOM     44  C   UNL A   1      44.688  26.956  26.747  1.00  0.00     0.049 A 
ATOM     45  H   UNL A   1      43.218  27.877  27.904  1.00  0.00     0.167 HD
ATOM     46  C   UNL A   1      39.935  29.860  29.991  1.00  0.00     0.034 A 
ATOM     47  C   UNL A   1      45.716  27.820  26.628  1.00  0.00     0.034 A 
ATOM     48  C   UNL A   1      41.002  30.827  29.971  1.00  0.00     0.049 A 
ATOM     49  C   UNL A   1      45.608  29.180  27.257  1.00  0.00     0.074 A 
ATOM     50  C   UNL A   1      41.029  32.089  30.537  1.00  0.00     0.029 A 
ATOM     51  N   UNL A   1      42.235  30.634  29.368  1.00  0.00    -0.354 N 
ATOM     52  N   UNL A   1      44.630  29.682  27.973  1.00  0.00    -0.248 NA
ATOM     53  C   UNL A   1      46.747  30.091  27.073  1.00  0.00     0.031 C 
ATOM     54  C   UNL A   1      42.276  32.663  30.268  1.00  0.00     0.029 A 
ATOM     55  C   UNL A   1      43.031  31.753  29.547  1.00  0.00     0.049 A 
ATOM     56  H   UNL A   1      42.505  29.821  28.884  1.00  0.00     0.167 HD
ATOM     57  C   UNL A   1      45.043  30.959  28.339  1.00  0.00     0.074 A 
ATOM     58  C   UNL A   1      46.371  31.141  27.792  1.00  0.00     0.031 C 
ATOM     59  C   UNL A   1      44.371  31.902  29.043  1.00  0.00     0.034 A 
BRANCH  46  60
ATOM     60  C   UNL A   1      38.647  30.242  30.675  1.00  0.00     0.023 A 
ATOM     61  C   UNL A   1      38.442  29.901  32.026  1.00  0.00     0.012 A 
ATOM     62  C   UNL A   1      37.663  30.987  29.992  1.00  0.00     0.148 A 
ATOM     63  C   UNL A   1      37.264  30.266  32.678  1.00  0.00     0.002 A 
ATOM     64  C   UNL A   1      36.512  31.383  30.661  1.00  0.00     0.091 A 
ATOM     65  F   UNL A   1      37.866  31.283  28.700  1.00  0.00    -0.205 F 
ATOM     66  C   UNL A   1      36.305  31.015  31.999  1.00  0.00     0.022 A 
BRANCH  64  67
ATOM     67  S   UNL A   1      35.259  32.416  29.891  1.00  0.00     0.127 S 
ATOM     68  O   UNL A   1      34.769  31.543  28.826  1.00  0.00    -0.237 OA
ATOM     69  O   UNL A   1      34.312  32.628  30.987  1.00  0.00    -0.237 OA
ATOM     70  O   UNL A   1      35.950  33.620  29.452  1.00  0.00    -0.744 OA
ENDBRANCH  64  67
ENDBRANCH  46  60
BRANCH  47  71
ATOM     71  C   UNL A   1      46.947  27.407  25.895  1.00  0.00     0.023 A 
ATOM     72  C   UNL A   1      47.900  26.597  26.542  1.00  0.00     0.012 A 
ATOM     73  C   UNL A   1      47.156  27.769  24.549  1.00  0.00     0.148 A 
ATOM     74  C   UNL A   1      49.043  26.166  25.868  1.00  0.00     0.002 A 
ATOM     75  C   UNL A   1      48.264  27.286  23.864  1.00  0.00     0.091 A 
ATOM     76  F   UNL A   1      46.254  28.564  23.957  1.00  0.00    -0.205 F 
ATOM     77  C   UNL A   1      49.217  26.497  24.526  1.00  0.00     0.022 A 
BRANCH  75  78
ATOM     78  S   UNL A   1      48.484  27.541  22.099  1.00  0.00     0.127 S 
ATOM     79  O   UNL A   1      48.694  26.176  21.624  1.00  0.00    -0.237 OA
ATOM     80  O   UNL A   1      47.203  28.136  21.715  1.00  0.00    -0.237 OA
ATOM     81  O   UNL A   1      49.621  28.441  21.975  1.00  0.00    -0.744 OA
ENDBRANCH  75  78
ENDBRANCH  47  71
BRANCH  59  82
ATOM     82  C   UNL A   1      45.067  33.215  29.286  1.00  0.00     0.023 A 
ATOM     83  C   UNL A   1      45.878  33.370  30.428  1.00  0.00     0.012 A 
ATOM     84  C   UNL A   1      44.976  34.266  28.354  1.00  0.00     0.148 A 
ATOM     85  C   UNL A   1      46.565  34.563  30.652  1.00  0.00     0.002 A 
ATOM     86  C   UNL A   1      45.697  35.436  28.562  1.00  0.00     0.091 A 
ATOM     87  F   UNL A   1      44.182  34.107  27.284  1.00  0.00    -0.205 F 
ATOM     88  C   UNL A   1      46.484  35.590  29.715  1.00  0.00     0.022 A 
BRANCH  86  89
ATOM     89  S   UNL A   1      45.719  36.775  27.364  1.00  0.00     0.127 S 
ATOM     90  O   UNL A   1      46.589  37.750  28.021  1.00  0.00    -0.237 OA
ATOM     91  O   UNL A   1      46.305  36.133  26.186  1.00  0.00    -0.237 OA
ATOM     92  O   UNL A   1      44.330  37.183  27.199  1.00  0.00    -0.744 OA
ENDBRANCH  86  89
ENDBRANCH  59  82
ENDBRANCH  33  34
ENDBRANCH  26  28
ENDBRANCH  25  26
ENDBRANCH   1  25
TORSDOF 17
ENDMDL
MODEL 2
REMARK VINA RESULT:     -12.1      5.288     10.059
REMARK SMILES O=C(Nc1ccc(O)cc1C(=O)OCCOC(=O)c1ccc(-c2c3nc(c(-c4cccc(S(=O)(=O)[O-])c4F)c4ccc([nH]4)c(-c4cccc(S(=O)(=O)[O-])c4F)c4nc(c(-c5cccc(S(=O)(=O)[O-])c5F)c5ccc2[nH]5)C=C4)C=C3)cc1)c1ccc(Br)nc1
REMARK SMILES IDX 15 1 14 2 13 3 11 4 12 5 10 6 4 7 5 8 6 9 9 10 7 11 3 12
REMARK SMILES IDX 1 13 2 14 82 16 83 17 88 18 84 19 87 20 85 21 86 22 8 23
REMARK SMILES IDX 16 25 17 26 18 27 19 28 20 29 81 30 21 31 80 32 22 33 23 34
REMARK SMILES IDX 24 35 74 36 25 37 79 38 73 39 75 40 26 41 78 42 72 43 71 44
REMARK SMILES IDX 27 46 59 47 39 48 58 49 40 50 43 51 57 52 76 53 41 54 42 55
REMARK SMILES IDX 56 57 77 58 44 59 28 60 29 61 37 62 30 63 32 64 38 65 31 66
REMARK SMILES IDX 33 67 34 68 35 69 36 70 60 71 61 72 69 73 62 74 64 75 70 76
REMARK SMILES IDX 63 77 65 78 66 79 67 80 68 81 45 82 46 83 54 84 47 85 49 86
REMARK SMILES IDX 55 87 48 88 50 89 51 90 52 91 53 92
REMARK H PARENT 3 15 8 24 75 45 43 56
REMARK Flexibility Score: inf
ROOT
ATOM      1  C   UNL A   1      31.560  30.540  25.656  1.00  0.00     0.275 C 
ENDROOT
BRANCH   1   2
ATOM      2  C   UNL A   1      31.626  29.249  24.839  1.00  0.00     0.275 C 
BRANCH   2   3
ATOM      3  O   UNL A   1      32.980  28.754  24.748  1.00  0.00    -0.458 OA
BRANCH   3   4
ATOM      4  C   UNL A   1      33.182  27.474  25.159  1.00  0.00     0.340 C 
ATOM      5  O   UNL A   1      33.621  27.135  26.241  1.00  0.00    -0.246 OA
BRANCH   4   6
ATOM      6  C   UNL A   1      32.726  26.489  24.135  1.00  0.00     0.087 A 
ATOM      7  C   UNL A   1      32.007  25.311  24.413  1.00  0.00     0.056 A 
ATOM      8  C   UNL A   1      31.603  24.509  23.330  1.00  0.00     0.031 A 
ATOM      9  C   UNL A   1      32.037  24.764  22.028  1.00  0.00     0.048 A 
ATOM     10  C   UNL A   1      33.092  26.777  22.808  1.00  0.00     0.064 A 
ATOM     11  C   UNL A   1      32.808  25.883  21.785  1.00  0.00     0.116 A 
BRANCH   7  12
ATOM     12  N   UNL A   1      31.665  24.963  25.741  1.00  0.00    -0.321 N 
ATOM     13  O   UNL A   1      31.513  23.624  27.571  1.00  0.00    -0.269 OA
ATOM     14  C   UNL A   1      32.102  23.925  26.535  1.00  0.00     0.257 C 
ATOM     15  H   UNL A   1      31.009  25.559  26.168  1.00  0.00     0.170 HD
BRANCH  14  16
ATOM     16  C   UNL A   1      33.334  23.195  26.189  1.00  0.00     0.058 A 
ATOM     17  C   UNL A   1      33.264  22.012  25.455  1.00  0.00     0.018 A 
ATOM     18  C   UNL A   1      34.585  23.693  26.532  1.00  0.00     0.126 A 
ATOM     19  C   UNL A   1      34.447  21.419  25.022  1.00  0.00     0.037 A 
ATOM     20  N   UNL A   1      35.747  23.132  26.121  1.00  0.00    -0.249 NA
ATOM     21  C   UNL A   1      35.655  22.018  25.363  1.00  0.00     0.106 A 
ATOM     22  Br  UNL A   1      37.267  21.269  24.704  1.00  0.00    -0.029 Br
ENDBRANCH  14  16
ENDBRANCH   7  12
BRANCH  11  23
ATOM     23  O   UNL A   1      33.308  26.147  20.548  1.00  0.00    -0.508 OA
ATOM     24  H   UNL A   1      34.234  26.215  20.423  1.00  0.00     0.293 HD
ENDBRANCH  11  23
ENDBRANCH   4   6
ENDBRANCH   3   4
ENDBRANCH   2   3
ENDBRANCH   1   2
BRANCH   1  25
ATOM     25  O   UNL A   1      32.432  30.460  26.795  1.00  0.00    -0.458 OA
BRANCH  25  26
ATOM     26  C   UNL A   1      33.032  31.620  27.150  1.00  0.00     0.338 C 
ATOM     27  O   UNL A   1      32.538  32.735  27.170  1.00  0.00    -0.246 OA
BRANCH  26  28
ATOM     28  C   UNL A   1      34.383  31.333  27.654  1.00  0.00     0.060 A 
ATOM     29  C   UNL A   1      34.669  30.015  27.999  1.00  0.00     0.016 A 
ATOM     30  C   UNL A   1      35.304  32.343  27.912  1.00  0.00     0.016 A 
ATOM     31  C   UNL A   1      35.845  29.702  28.671  1.00  0.00     0.010 A 
ATOM     32  C   UNL A   1      36.522  32.016  28.524  1.00  0.00     0.010 A 
ATOM     33  C   UNL A   1      36.793  30.697  28.942  1.00  0.00    -0.014 A 
BRANCH  33  34
ATOM     34  C   UNL A   1      38.030  30.362  29.703  1.00  0.00     0.031 A 
ATOM     35  C   UNL A   1      39.081  29.472  29.091  1.00  0.00     0.074 A 
ATOM     36  C   UNL A   1      38.226  30.860  30.942  1.00  0.00     0.049 A 
ATOM     37  N   UNL A   1      40.153  28.959  29.639  1.00  0.00    -0.248 NA
ATOM     38  C   UNL A   1      38.895  29.097  27.679  1.00  0.00     0.031 C 
ATOM     39  C   UNL A   1      37.304  31.747  31.653  1.00  0.00     0.029 A 
ATOM     40  N   UNL A   1      39.263  30.685  31.827  1.00  0.00    -0.354 N 
ATOM     41  C   UNL A   1      40.723  28.140  28.670  1.00  0.00     0.074 A 
ATOM     42  C   UNL A   1      39.885  28.234  27.494  1.00  0.00     0.031 C 
ATOM     43  C   UNL A   1      37.823  32.055  32.851  1.00  0.00     0.029 A 
ATOM     44  C   UNL A   1      39.078  31.332  33.027  1.00  0.00     0.049 A 
ATOM     45  H   UNL A   1      40.062  30.147  31.622  1.00  0.00     0.167 HD
ATOM     46  C   UNL A   1      41.847  27.387  28.747  1.00  0.00     0.034 A 
ATOM     47  C   UNL A   1      39.812  31.321  34.158  1.00  0.00     0.034 A 
ATOM     48  C   UNL A   1      42.728  27.361  29.885  1.00  0.00     0.049 A 
ATOM     49  C   UNL A   1      41.069  30.498  34.209  1.00  0.00     0.074 A 
ATOM     50  C   UNL A   1      43.918  26.670  30.035  1.00  0.00     0.029 A 
ATOM     51  N   UNL A   1      42.525  28.066  31.060  1.00  0.00    -0.354 N 
ATOM     52  N   UNL A   1      41.617  29.770  33.265  1.00  0.00    -0.248 NA
ATOM     53  C   UNL A   1      41.816  30.501  35.475  1.00  0.00     0.031 C 
ATOM     54  C   UNL A   1      44.430  26.952  31.306  1.00  0.00     0.029 A 
ATOM     55  C   UNL A   1      43.566  27.828  31.942  1.00  0.00     0.049 A 
ATOM     56  H   UNL A   1      41.754  28.650  31.243  1.00  0.00     0.167 HD
ATOM     57  C   UNL A   1      42.779  29.244  33.817  1.00  0.00     0.074 A 
ATOM     58  C   UNL A   1      42.873  29.762  35.166  1.00  0.00     0.031 C 
ATOM     59  C   UNL A   1      43.675  28.390  33.263  1.00  0.00     0.034 A 
BRANCH  46  60
ATOM     60  C   UNL A   1      42.207  26.541  27.553  1.00  0.00     0.023 A 
ATOM     61  C   UNL A   1      42.930  27.106  26.484  1.00  0.00     0.012 A 
ATOM     62  C   UNL A   1      41.877  25.170  27.516  1.00  0.00     0.148 A 
ATOM     63  C   UNL A   1      43.289  26.330  25.382  1.00  0.00     0.002 A 
ATOM     64  C   UNL A   1      42.275  24.394  26.435  1.00  0.00     0.091 A 
ATOM     65  F   UNL A   1      41.169  24.655  28.532  1.00  0.00    -0.205 F 
ATOM     66  C   UNL A   1      42.971  24.974  25.362  1.00  0.00     0.022 A 
BRANCH  64  67
ATOM     67  S   UNL A   1      41.979  22.623  26.360  1.00  0.00     0.127 S 
ATOM     68  O   UNL A   1      40.519  22.568  26.344  1.00  0.00    -0.237 OA
ATOM     69  O   UNL A   1      42.615  22.253  25.094  1.00  0.00    -0.237 OA
ATOM     70  O   UNL A   1      42.619  22.063  27.541  1.00  0.00    -0.744 OA
ENDBRANCH  64  67
ENDBRANCH  46  60
BRANCH  47  71
ATOM     71  C   UNL A   1      39.380  32.138  35.328  1.00  0.00     0.023 A 
ATOM     72  C   UNL A   1      38.573  31.551  36.322  1.00  0.00     0.012 A 
ATOM     73  C   UNL A   1      39.801  33.473  35.487  1.00  0.00     0.148 A 
ATOM     74  C   UNL A   1      38.185  32.281  37.445  1.00  0.00     0.002 A 
ATOM     75  C   UNL A   1      39.463  34.175  36.638  1.00  0.00     0.091 A 
ATOM     76  F   UNL A   1      40.544  34.026  34.517  1.00  0.00    -0.205 F 
ATOM     77  C   UNL A   1      38.641  33.587  37.611  1.00  0.00     0.022 A 
BRANCH  75  78
ATOM     78  S   UNL A   1      40.133  35.804  36.996  1.00  0.00     0.127 S 
ATOM     79  O   UNL A   1      39.666  36.578  35.849  1.00  0.00    -0.237 OA
ATOM     80  O   UNL A   1      39.482  36.129  38.265  1.00  0.00    -0.237 OA
ATOM     81  O   UNL A   1      41.574  35.617  37.095  1.00  0.00    -0.744 OA
ENDBRANCH  75  78
ENDBRANCH  47  71
BRANCH  59  82
ATOM     82  C   UNL A   1      44.851  27.974  34.106  1.00  0.00     0.023 A 
ATOM     83  C   UNL A   1      46.004  28.785  34.138  1.00  0.00     0.012 A 
ATOM     84  C   UNL A   1      44.791  26.824  34.915  1.00  0.00     0.148 A 
ATOM     85  C   UNL A   1      47.090  28.441  34.942  1.00  0.00     0.002 A 
ATOM     86  C   UNL A   1      45.860  26.511  35.747  1.00  0.00     0.091 A 
ATOM     87  F   UNL A   1      43.695  26.054  34.855  1.00  0.00    -0.205 F 
ATOM     88  C   UNL A   1      47.013  27.312  35.754  1.00  0.00     0.022 A 
BRANCH  86  89
ATOM     89  S   UNL A   1      45.812  25.125  36.889  1.00  0.00     0.127 S 
ATOM     90  O   UNL A   1      47.180  25.115  37.405  1.00  0.00    -0.237 OA
ATOM     91  O   UNL A   1      44.799  25.551  37.857  1.00  0.00    -0.237 OA
ATOM     92  O   UNL A   1      45.431  23.966  36.093  1.00  0.00    -0.744 OA
ENDBRANCH  86  89
ENDBRANCH  59  82
ENDBRANCH  33  34
ENDBRANCH  26  28
ENDBRANCH  25  26
ENDBRANCH   1  25
TORSDOF 17
ENDMDL
MODEL 3
REMARK VINA RESULT:     -11.9      1.471      1.792
REMARK SMILES O=C(Nc1ccc(O)cc1C(=O)OCCOC(=O)c1ccc(-c2c3nc(c(-c4cccc(S(=O)(=O)[O-])c4F)c4ccc([nH]4)c(-c4cccc(S(=O)(=O)[O-])c4F)c4nc(c(-c5cccc(S(=O)(=O)[O-])c5F)c5ccc2[nH]5)C=C4)C=C3)cc1)c1ccc(Br)nc1
REMARK SMILES IDX 15 1 14 2 13 3 11 4 12 5 10 6 4 7 5 8 6 9 9 10 7 11 3 12
REMARK SMILES IDX 1 13 2 14 82 16 83 17 88 18 84 19 87 20 85 21 86 22 8 23
REMARK SMILES IDX 16 25 17 26 18 27 19 28 20 29 81 30 21 31 80 32 22 33 23 34
REMARK SMILES IDX 24 35 74 36 25 37 79 38 73 39 75 40 26 41 78 42 72 43 71 44
REMARK SMILES IDX 27 46 59 47 39 48 58 49 40 50 43 51 57 52 76 53 41 54 42 55
REMARK SMILES IDX 56 57 77 58 44 59 28 60 29 61 37 62 30 63 32 64 38 65 31 66
REMARK SMILES IDX 33 67 34 68 35 69 36 70 60 71 61 72 69 73 62 74 64 75 70 76
REMARK SMILES IDX 63 77 65 78 66 79 67 80 68 81 45 82 46 83 54 84 47 85 49 86
REMARK SMILES IDX 55 87 48 88 50 89 51 90 52 91 53 92
REMARK H PARENT 3 15 8 24 75 45 43 56
REMARK Flexibility Score: inf
ROOT
ATOM      1  C   UNL A   1      36.333  20.493  25.144  1.00  0.00     0.275 C 
ENDROOT
BRANCH   1   2
ATOM      2  C   UNL A   1      35.043  21.098  24.587  1.00  0.00     0.275 C 
BRANCH   2   3
ATOM      3  O   UNL A   1      35.134  22.537  24.501  1.00  0.00    -0.458 OA
BRANCH   3   4
ATOM      4  C   UNL A   1      34.604  23.237  25.540  1.00  0.00     0.340 C 
ATOM      5  O   UNL A   1      35.234  23.754  26.442  1.00  0.00    -0.246 OA
BRANCH   4   6
ATOM      6  C   UNL A   1      33.124  23.370  25.416  1.00  0.00     0.087 A 
ATOM      7  C   UNL A   1      32.453  23.926  24.311  1.00  0.00     0.056 A 
ATOM      8  C   UNL A   1      31.046  23.933  24.323  1.00  0.00     0.031 A 
ATOM      9  C   UNL A   1      30.321  23.563  25.457  1.00  0.00     0.048 A 
ATOM     10  C   UNL A   1      32.378  22.928  26.525  1.00  0.00     0.064 A 
ATOM     11  C   UNL A   1      31.001  23.092  26.563  1.00  0.00     0.116 A 
BRANCH   7  12
ATOM     12  N   UNL A   1      33.172  24.428  23.200  1.00  0.00    -0.321 N 
ATOM     13  O   UNL A   1      33.791  25.956  21.637  1.00  0.00    -0.269 OA
ATOM     14  C   UNL A   1      33.351  25.721  22.760  1.00  0.00     0.257 C 
ATOM     15  H   UNL A   1      33.617  23.741  22.653  1.00  0.00     0.170 HD
BRANCH  14  16
ATOM     16  C   UNL A   1      33.081  26.855  23.661  1.00  0.00     0.058 A 
ATOM     17  C   UNL A   1      31.956  27.653  23.463  1.00  0.00     0.018 A 
ATOM     18  C   UNL A   1      33.901  27.116  24.753  1.00  0.00     0.126 A 
ATOM     19  C   UNL A   1      31.649  28.628  24.410  1.00  0.00     0.037 A 
ATOM     20  N   UNL A   1      33.620  28.058  25.684  1.00  0.00    -0.249 NA
ATOM     21  C   UNL A   1      32.494  28.783  25.503  1.00  0.00     0.106 A 
ATOM     22  Br  UNL A   1      32.039  30.044  26.842  1.00  0.00    -0.029 Br
ENDBRANCH  14  16
ENDBRANCH   7  12
BRANCH  11  23
ATOM     23  O   UNL A   1      30.351  22.775  27.715  1.00  0.00    -0.508 OA
ATOM     24  H   UNL A   1      29.607  22.207  27.691  1.00  0.00     0.293 HD
ENDBRANCH  11  23
ENDBRANCH   4   6
ENDBRANCH   3   4
ENDBRANCH   2   3
ENDBRANCH   1   2
BRANCH   1  25
ATOM     25  O   UNL A   1      37.386  21.470  25.149  1.00  0.00    -0.458 OA
BRANCH  25  26
ATOM     26  C   UNL A   1      38.543  21.075  25.729  1.00  0.00     0.338 C 
ATOM     27  O   UNL A   1      39.072  19.978  25.656  1.00  0.00    -0.246 OA
BRANCH  26  28
ATOM     28  C   UNL A   1      39.176  22.228  26.384  1.00  0.00     0.060 A 
ATOM     29  C   UNL A   1      38.682  23.491  26.071  1.00  0.00     0.016 A 
ATOM     30  C   UNL A   1      40.311  22.094  27.179  1.00  0.00     0.016 A 
ATOM     31  C   UNL A   1      39.356  24.635  26.486  1.00  0.00     0.010 A 
ATOM     32  C   UNL A   1      40.948  23.247  27.659  1.00  0.00     0.010 A 
ATOM     33  C   UNL A   1      40.499  24.531  27.290  1.00  0.00    -0.014 A 
BRANCH  33  34
ATOM     34  C   UNL A   1      41.242  25.759  27.693  1.00  0.00     0.031 A 
ATOM     35  C   UNL A   1      40.567  26.813  28.533  1.00  0.00     0.074 A 
ATOM     36  C   UNL A   1      42.526  25.934  27.319  1.00  0.00     0.049 A 
ATOM     37  N   UNL A   1      40.996  28.003  28.869  1.00  0.00    -0.248 NA
ATOM     38  C   UNL A   1      39.227  26.494  29.051  1.00  0.00     0.031 C 
ATOM     39  C   UNL A   1      43.311  24.991  26.521  1.00  0.00     0.029 A 
ATOM     40  N   UNL A   1      43.397  26.971  27.554  1.00  0.00    -0.354 N 
ATOM     41  C   UNL A   1      39.953  28.603  29.567  1.00  0.00     0.074 A 
ATOM     42  C   UNL A   1      38.873  27.640  29.617  1.00  0.00     0.031 C 
ATOM     43  C   UNL A   1      44.549  25.479  26.351  1.00  0.00     0.029 A 
ATOM     44  C   UNL A   1      44.628  26.802  26.963  1.00  0.00     0.049 A 
ATOM     45  H   UNL A   1      43.162  27.760  28.094  1.00  0.00     0.167 HD
ATOM     46  C   UNL A   1      39.901  29.836  30.124  1.00  0.00     0.034 A 
ATOM     47  C   UNL A   1      45.691  27.626  26.887  1.00  0.00     0.034 A 
ATOM     48  C   UNL A   1      41.004  30.760  30.150  1.00  0.00     0.049 A 
ATOM     49  C   UNL A   1      45.618  28.980  27.536  1.00  0.00     0.074 A 
ATOM     50  C   UNL A   1      41.063  32.012  30.738  1.00  0.00     0.029 A 
ATOM     51  N   UNL A   1      42.245  30.529  29.578  1.00  0.00    -0.354 N 
ATOM     52  N   UNL A   1      44.640  29.508  28.233  1.00  0.00    -0.248 NA
ATOM     53  C   UNL A   1      46.795  29.849  27.399  1.00  0.00     0.031 C 
ATOM     54  C   UNL A   1      42.339  32.541  30.513  1.00  0.00     0.029 A 
ATOM     55  C   UNL A   1      43.077  31.614  29.798  1.00  0.00     0.049 A 
ATOM     56  H   UNL A   1      42.498  29.714  29.087  1.00  0.00     0.167 HD
ATOM     57  C   UNL A   1      45.091  30.762  28.632  1.00  0.00     0.074 A 
ATOM     58  C   UNL A   1      46.441  30.901  28.125  1.00  0.00     0.031 C 
ATOM     59  C   UNL A   1      44.436  31.719  29.333  1.00  0.00     0.034 A 
BRANCH  46  60
ATOM     60  C   UNL A   1      38.609  30.256  30.778  1.00  0.00     0.023 A 
ATOM     61  C   UNL A   1      38.384  29.965  32.138  1.00  0.00     0.012 A 
ATOM     62  C   UNL A   1      37.643  30.989  30.058  1.00  0.00     0.148 A 
ATOM     63  C   UNL A   1      37.203  30.366  32.763  1.00  0.00     0.002 A 
ATOM     64  C   UNL A   1      36.489  31.422  30.699  1.00  0.00     0.091 A 
ATOM     65  F   UNL A   1      37.865  31.237  28.759  1.00  0.00    -0.205 F 
ATOM     66  C   UNL A   1      36.261  31.103  32.047  1.00  0.00     0.022 A 
BRANCH  64  67
ATOM     67  S   UNL A   1      35.257  32.443  29.879  1.00  0.00     0.127 S 
ATOM     68  O   UNL A   1      34.301  32.677  30.958  1.00  0.00    -0.237 OA
ATOM     69  O   UNL A   1      36.036  33.620  29.490  1.00  0.00    -0.237 OA
ATOM     70  O   UNL A   1      34.766  31.651  28.760  1.00  0.00    -0.744 OA
ENDBRANCH  64  67
ENDBRANCH  46  60
BRANCH  47  71
ATOM     71  C   UNL A   1      46.926  27.178  26.181  1.00  0.00     0.023 A 
ATOM     72  C   UNL A   1      47.092  27.481  24.816  1.00  0.00     0.012 A 
ATOM     73  C   UNL A   1      47.956  26.498  26.863  1.00  0.00     0.148 A 
ATOM     74  C   UNL A   1      48.254  27.106  24.141  1.00  0.00     0.002 A 
ATOM     75  C   UNL A   1      49.135  26.182  26.201  1.00  0.00     0.091 A 
ATOM     76  F   UNL A   1      47.768  26.192  28.155  1.00  0.00    -0.205 F 
ATOM     77  C   UNL A   1      49.281  26.471  24.835  1.00  0.00     0.022 A 
BRANCH  75  78
ATOM     78  S   UNL A   1      50.560  25.502  27.058  1.00  0.00     0.127 S 
ATOM     79  O   UNL A   1      50.013  24.269  27.616  1.00  0.00    -0.237 OA
ATOM     80  O   UNL A   1      51.514  25.313  25.964  1.00  0.00    -0.237 OA
ATOM     81  O   UNL A   1      50.954  26.518  28.024  1.00  0.00    -0.744 OA
ENDBRANCH  75  78
ENDBRANCH  47  71
BRANCH  59  82
ATOM     82  C   UNL A   1      45.175  33.000  29.618  1.00  0.00     0.023 A 
ATOM     83  C   UNL A   1      45.979  33.097  30.771  1.00  0.00     0.012 A 
ATOM     84  C   UNL A   1      45.130  34.078  28.713  1.00  0.00     0.148 A 
ATOM     85  C   UNL A   1      46.705  34.258  31.034  1.00  0.00     0.002 A 
ATOM     86  C   UNL A   1      45.890  35.216  28.959  1.00  0.00     0.091 A 
ATOM     87  F   UNL A   1      44.342  33.975  27.633  1.00  0.00    -0.205 F 
ATOM     88  C   UNL A   1      46.669  35.312  30.123  1.00  0.00     0.022 A 
BRANCH  86  89
ATOM     89  S   UNL A   1      45.970  36.585  27.798  1.00  0.00     0.127 S 
ATOM     90  O   UNL A   1      46.472  35.925  26.593  1.00  0.00    -0.237 OA
ATOM     91  O   UNL A   1      44.572  37.012  27.720  1.00  0.00    -0.237 OA
ATOM     92  O   UNL A   1      46.866  37.564  28.399  1.00  0.00    -0.744 OA
ENDBRANCH  86  89
ENDBRANCH  59  82
ENDBRANCH  33  34
ENDBRANCH  26  28
ENDBRANCH  25  26
ENDBRANCH   1  25
TORSDOF 17
ENDMDL
