MODEL 1
REMARK VINA RESULT:     -10.3      0.000      0.000
REMARK SMILES C[C@@H](C(=O)OCCOC(=O)c1ccc(-c2c3nc(c(-c4cccc(S(=O)(=O)[O-])c4F)c4ccc([nH]4)c(-c4cccc(S(=O)(=O)[O-])c4F)c4nc(c(-c5cccc(S(=O)(=O)[O-])c5F)c5ccc2[nH]5)C=C4)C=C3)cc1)c1cccc(C(=O)c2ccccc2)c1
REMARK SMILES IDX 6 1 5 2 3 3 4 4 2 5 1 6 74 7 75 8 87 9 76 10 78 11 77 12
REMARK SMILES IDX 79 13 80 14 81 15 82 16 86 17 83 18 85 19 84 20 7 21 8 22
REMARK SMILES IDX 9 23 10 24 11 25 12 26 73 27 13 28 72 29 14 30 15 31 16 32
REMARK SMILES IDX 66 33 17 34 71 35 65 36 67 37 18 38 70 39 64 40 63 41 19 43
REMARK SMILES IDX 51 44 31 45 50 46 32 47 35 48 49 49 68 50 33 51 34 52 48 54
REMARK SMILES IDX 69 55 36 56 20 57 21 58 29 59 22 60 24 61 30 62 23 63 25 64
REMARK SMILES IDX 26 65 27 66 28 67 52 68 53 69 61 70 54 71 56 72 62 73 55 74
REMARK SMILES IDX 57 75 58 76 59 77 60 78 37 79 38 80 46 81 39 82 41 83 47 84
REMARK SMILES IDX 40 85 42 86 43 87 44 88 45 89
REMARK H PARENT 67 42 35 53
REMARK Flexibility Score: inf
ROOT
ATOM      1  C   UNL A   1      42.803  20.004  26.227  1.00  0.00     0.274 C 
ENDROOT
BRANCH   1   2
ATOM      2  O   UNL A   1      43.388  20.563  25.032  1.00  0.00    -0.462 OA
BRANCH   2   3
ATOM      3  C   UNL A   1      43.620  21.905  25.024  1.00  0.00     0.313 C 
ATOM      4  O   UNL A   1      42.738  22.756  24.985  1.00  0.00    -0.252 OA
BRANCH   3   5
ATOM      5  C   UNL A   1      45.115  22.241  24.991  1.00  0.00     0.126 C 
ATOM      6  C   UNL A   1      46.017  21.027  24.745  1.00  0.00     0.025 C 
BRANCH   5   7
ATOM      7  C   UNL A   1      45.541  23.060  26.208  1.00  0.00    -0.033 A 
ATOM      8  C   UNL A   1      46.672  23.889  26.202  1.00  0.00     0.004 A 
ATOM      9  C   UNL A   1      44.793  22.963  27.398  1.00  0.00     0.016 A 
ATOM     10  C   UNL A   1      47.047  24.598  27.346  1.00  0.00     0.001 A 
ATOM     11  C   UNL A   1      45.168  23.665  28.554  1.00  0.00     0.023 A 
ATOM     12  C   UNL A   1      46.306  24.477  28.522  1.00  0.00     0.012 A 
BRANCH  11  13
ATOM     13  C   UNL A   1      44.386  23.615  29.822  1.00  0.00     0.193 C 
ATOM     14  O   UNL A   1      43.771  22.607  30.151  1.00  0.00    -0.289 OA
BRANCH  13  15
ATOM     15  C   UNL A   1      44.445  24.730  30.782  1.00  0.00     0.022 A 
ATOM     16  C   UNL A   1      43.815  25.927  30.430  1.00  0.00     0.012 A 
ATOM     17  C   UNL A   1      45.123  24.607  31.996  1.00  0.00     0.012 A 
ATOM     18  C   UNL A   1      43.822  26.997  31.323  1.00  0.00     0.001 A 
ATOM     19  C   UNL A   1      45.119  25.680  32.889  1.00  0.00     0.001 A 
ATOM     20  C   UNL A   1      44.465  26.868  32.556  1.00  0.00     0.000 A 
ENDBRANCH  13  15
ENDBRANCH  11  13
ENDBRANCH   5   7
ENDBRANCH   3   5
ENDBRANCH   2   3
ENDBRANCH   1   2
BRANCH   1  21
ATOM     21  C   UNL A   1      41.308  19.788  26.024  1.00  0.00     0.275 C 
BRANCH  21  22
ATOM     22  O   UNL A   1      40.589  20.577  26.985  1.00  0.00    -0.458 OA
BRANCH  22  23
ATOM     23  C   UNL A   1      39.652  21.415  26.492  1.00  0.00     0.338 C 
ATOM     24  O   UNL A   1      38.716  21.127  25.755  1.00  0.00    -0.246 OA
BRANCH  23  25
ATOM     25  C   UNL A   1      39.896  22.776  26.994  1.00  0.00     0.060 A 
ATOM     26  C   UNL A   1      39.260  23.863  26.395  1.00  0.00     0.016 A 
ATOM     27  C   UNL A   1      40.855  22.985  27.986  1.00  0.00     0.016 A 
ATOM     28  C   UNL A   1      39.660  25.159  26.718  1.00  0.00     0.010 A 
ATOM     29  C   UNL A   1      41.182  24.290  28.371  1.00  0.00     0.010 A 
ATOM     30  C   UNL A   1      40.630  25.398  27.705  1.00  0.00    -0.014 A 
BRANCH  30  31
ATOM     31  C   UNL A   1      41.103  26.786  27.999  1.00  0.00     0.031 A 
ATOM     32  C   UNL A   1      42.504  27.212  27.627  1.00  0.00     0.074 A 
ATOM     33  C   UNL A   1      40.291  27.682  28.594  1.00  0.00     0.049 A 
ATOM     34  N   UNL A   1      43.160  28.291  27.976  1.00  0.00    -0.248 NA
ATOM     35  C   UNL A   1      43.278  26.301  26.768  1.00  0.00     0.031 C 
ATOM     36  C   UNL A   1      38.907  27.434  28.998  1.00  0.00     0.029 A 
ATOM     37  N   UNL A   1      40.511  28.989  28.962  1.00  0.00    -0.354 N 
ATOM     38  C   UNL A   1      44.444  28.143  27.464  1.00  0.00     0.074 A 
ATOM     39  C   UNL A   1      44.472  26.880  26.758  1.00  0.00     0.031 C 
ATOM     40  C   UNL A   1      38.387  28.560  29.508  1.00  0.00     0.029 A 
ATOM     41  C   UNL A   1      39.422  29.586  29.555  1.00  0.00     0.049 A 
ATOM     42  H   UNL A   1      41.366  29.453  28.814  1.00  0.00     0.167 HD
ATOM     43  C   UNL A   1      45.502  28.982  27.563  1.00  0.00     0.034 A 
ATOM     44  C   UNL A   1      39.274  30.806  30.111  1.00  0.00     0.034 A 
ATOM     45  C   UNL A   1      45.451  30.290  28.164  1.00  0.00     0.049 A 
ATOM     46  C   UNL A   1      40.443  31.747  30.150  1.00  0.00     0.074 A 
ATOM     47  C   UNL A   1      46.471  31.217  28.291  1.00  0.00     0.029 A 
ATOM     48  N   UNL A   1      44.313  30.871  28.702  1.00  0.00    -0.354 N 
ATOM     49  N   UNL A   1      41.653  31.579  29.674  1.00  0.00    -0.248 NA
ATOM     50  C   UNL A   1      40.231  33.045  30.806  1.00  0.00     0.031 C 
ATOM     51  C   UNL A   1      45.946  32.366  28.895  1.00  0.00     0.029 A 
ATOM     52  C   UNL A   1      44.601  32.151  29.146  1.00  0.00     0.049 A 
ATOM     53  H   UNL A   1      43.431  30.438  28.759  1.00  0.00     0.167 HD
ATOM     54  C   UNL A   1      42.346  32.745  29.975  1.00  0.00     0.074 A 
ATOM     55  C   UNL A   1      41.409  33.631  30.636  1.00  0.00     0.031 C 
ATOM     56  C   UNL A   1      43.651  33.041  29.759  1.00  0.00     0.034 A 
BRANCH  43  57
ATOM     57  C   UNL A   1      46.813  28.537  26.974  1.00  0.00     0.023 A 
ATOM     58  C   UNL A   1      47.890  28.224  27.826  1.00  0.00     0.012 A 
ATOM     59  C   UNL A   1      46.954  28.350  25.583  1.00  0.00     0.148 A 
ATOM     60  C   UNL A   1      49.093  27.750  27.302  1.00  0.00     0.002 A 
ATOM     61  C   UNL A   1      48.143  27.843  25.073  1.00  0.00     0.091 A 
ATOM     62  F   UNL A   1      45.928  28.680  24.785  1.00  0.00    -0.205 F 
ATOM     63  C   UNL A   1      49.215  27.548  25.930  1.00  0.00     0.022 A 
BRANCH  61  64
ATOM     64  S   UNL A   1      48.354  27.481  23.325  1.00  0.00     0.127 S 
ATOM     65  O   UNL A   1      49.736  27.901  23.099  1.00  0.00    -0.237 OA
ATOM     66  O   UNL A   1      48.143  26.033  23.274  1.00  0.00    -0.237 OA
ATOM     67  O   UNL A   1      47.334  28.260  22.636  1.00  0.00    -0.744 OA
ENDBRANCH  61  64
ENDBRANCH  43  57
BRANCH  44  68
ATOM     68  C   UNL A   1      37.945  31.201  30.658  1.00  0.00     0.023 A 
ATOM     69  C   UNL A   1      37.665  30.977  32.019  1.00  0.00     0.012 A 
ATOM     70  C   UNL A   1      36.994  31.870  29.865  1.00  0.00     0.148 A 
ATOM     71  C   UNL A   1      36.460  31.407  32.576  1.00  0.00     0.002 A 
ATOM     72  C   UNL A   1      35.827  32.359  30.443  1.00  0.00     0.091 A 
ATOM     73  F   UNL A   1      37.255  32.046  28.560  1.00  0.00    -0.205 F 
ATOM     74  C   UNL A   1      35.550  32.116  31.794  1.00  0.00     0.022 A 
BRANCH  72  75
ATOM     75  S   UNL A   1      34.720  33.435  29.524  1.00  0.00     0.127 S 
ATOM     76  O   UNL A   1      34.149  32.520  28.541  1.00  0.00    -0.237 OA
ATOM     77  O   UNL A   1      33.787  33.889  30.556  1.00  0.00    -0.237 OA
ATOM     78  O   UNL A   1      35.578  34.493  29.002  1.00  0.00    -0.744 OA
ENDBRANCH  72  75
ENDBRANCH  44  68
BRANCH  56  79
ATOM     79  C   UNL A   1      44.153  34.368  30.256  1.00  0.00     0.023 A 
ATOM     80  C   UNL A   1      44.792  34.431  31.509  1.00  0.00     0.012 A 
ATOM     81  C   UNL A   1      44.056  35.531  29.468  1.00  0.00     0.148 A 
ATOM     82  C   UNL A   1      45.307  35.636  31.984  1.00  0.00     0.002 A 
ATOM     83  C   UNL A   1      44.601  36.723  29.934  1.00  0.00     0.091 A 
ATOM     84  F   UNL A   1      43.425  35.458  28.288  1.00  0.00    -0.205 F 
ATOM     85  C   UNL A   1      45.221  36.779  31.193  1.00  0.00     0.022 A 
BRANCH  83  86
ATOM     86  S   UNL A   1      44.592  38.224  28.944  1.00  0.00     0.127 S 
ATOM     87  O   UNL A   1      45.166  39.197  29.870  1.00  0.00    -0.237 OA
ATOM     88  O   UNL A   1      45.458  37.868  27.819  1.00  0.00    -0.237 OA
ATOM     89  O   UNL A   1      43.198  38.443  28.578  1.00  0.00    -0.744 OA
ENDBRANCH  83  86
ENDBRANCH  56  79
ENDBRANCH  30  31
ENDBRANCH  23  25
ENDBRANCH  22  23
ENDBRANCH  21  22
ENDBRANCH   1  21
TORSDOF 17
ENDMDL
MODEL 2
REMARK VINA RESULT:     -10.2      3.937     10.212
REMARK SMILES C[C@@H](C(=O)OCCOC(=O)c1ccc(-c2c3nc(c(-c4cccc(S(=O)(=O)[O-])c4F)c4ccc([nH]4)c(-c4cccc(S(=O)(=O)[O-])c4F)c4nc(c(-c5cccc(S(=O)(=O)[O-])c5F)c5ccc2[nH]5)C=C4)C=C3)cc1)c1cccc(C(=O)c2ccccc2)c1
REMARK SMILES IDX 6 1 5 2 3 3 4 4 2 5 1 6 74 7 75 8 87 9 76 10 78 11 77 12
REMARK SMILES IDX 79 13 80 14 81 15 82 16 86 17 83 18 85 19 84 20 7 21 8 22
REMARK SMILES IDX 9 23 10 24 11 25 12 26 73 27 13 28 72 29 14 30 15 31 16 32
REMARK SMILES IDX 66 33 17 34 71 35 65 36 67 37 18 38 70 39 64 40 63 41 19 43
REMARK SMILES IDX 51 44 31 45 50 46 32 47 35 48 49 49 68 50 33 51 34 52 48 54
REMARK SMILES IDX 69 55 36 56 20 57 21 58 29 59 22 60 24 61 30 62 23 63 25 64
REMARK SMILES IDX 26 65 27 66 28 67 52 68 53 69 61 70 54 71 56 72 62 73 55 74
REMARK SMILES IDX 57 75 58 76 59 77 60 78 37 79 38 80 46 81 39 82 41 83 47 84
REMARK SMILES IDX 40 85 42 86 43 87 44 88 45 89
REMARK H PARENT 67 42 35 53
REMARK Flexibility Score: inf
ROOT
ATOM      1  C   UNL A   1      35.316  21.723  26.100  1.00  0.00     0.274 C 
ENDROOT
BRANCH   1   2
ATOM      2  O   UNL A   1      34.099  21.064  26.509  1.00  0.00    -0.462 OA
BRANCH   2   3
ATOM      3  C   UNL A   1      32.976  21.830  26.587  1.00  0.00     0.313 C 
ATOM      4  O   UNL A   1      32.693  22.543  27.544  1.00  0.00    -0.252 OA
BRANCH   3   5
ATOM      5  C   UNL A   1      32.056  21.647  25.374  1.00  0.00     0.126 C 
ATOM      6  C   UNL A   1      32.252  20.314  24.645  1.00  0.00     0.025 C 
BRANCH   5   7
ATOM      7  C   UNL A   1      32.108  22.851  24.435  1.00  0.00    -0.033 A 
ATOM      8  C   UNL A   1      32.929  22.887  23.298  1.00  0.00     0.004 A 
ATOM      9  C   UNL A   1      31.330  23.988  24.730  1.00  0.00     0.016 A 
ATOM     10  C   UNL A   1      32.972  24.020  22.482  1.00  0.00     0.001 A 
ATOM     11  C   UNL A   1      31.375  25.133  23.921  1.00  0.00     0.023 A 
ATOM     12  C   UNL A   1      32.208  25.144  22.798  1.00  0.00     0.012 A 
BRANCH  11  13
ATOM     13  C   UNL A   1      30.543  26.343  24.180  1.00  0.00     0.193 C 
ATOM     14  O   UNL A   1      29.418  26.454  23.707  1.00  0.00    -0.289 OA
BRANCH  13  15
ATOM     15  C   UNL A   1      30.997  27.375  25.127  1.00  0.00     0.022 A 
ATOM     16  C   UNL A   1      31.227  28.661  24.629  1.00  0.00     0.012 A 
ATOM     17  C   UNL A   1      31.212  27.080  26.474  1.00  0.00     0.012 A 
ATOM     18  C   UNL A   1      31.628  29.674  25.497  1.00  0.00     0.001 A 
ATOM     19  C   UNL A   1      31.607  28.100  27.340  1.00  0.00     0.001 A 
ATOM     20  C   UNL A   1      31.807  29.395  26.854  1.00  0.00     0.000 A 
ENDBRANCH  13  15
ENDBRANCH  11  13
ENDBRANCH   5   7
ENDBRANCH   3   5
ENDBRANCH   2   3
ENDBRANCH   1   2
BRANCH   1  21
ATOM     21  C   UNL A   1      36.123  20.806  25.188  1.00  0.00     0.275 C 
BRANCH  21  22
ATOM     22  O   UNL A   1      37.370  21.446  24.871  1.00  0.00    -0.458 OA
BRANCH  22  23
ATOM     23  C   UNL A   1      38.439  21.071  25.605  1.00  0.00     0.338 C 
ATOM     24  O   UNL A   1      38.896  19.939  25.724  1.00  0.00    -0.246 OA
BRANCH  23  25
ATOM     25  C   UNL A   1      39.028  22.251  26.256  1.00  0.00     0.060 A 
ATOM     26  C   UNL A   1      38.510  23.520  26.001  1.00  0.00     0.016 A 
ATOM     27  C   UNL A   1      40.181  22.109  27.030  1.00  0.00     0.016 A 
ATOM     28  C   UNL A   1      39.203  24.649  26.434  1.00  0.00     0.010 A 
ATOM     29  C   UNL A   1      40.819  23.246  27.541  1.00  0.00     0.010 A 
ATOM     30  C   UNL A   1      40.371  24.536  27.206  1.00  0.00    -0.014 A 
BRANCH  30  31
ATOM     31  C   UNL A   1      41.146  25.748  27.610  1.00  0.00     0.031 A 
ATOM     32  C   UNL A   1      40.516  26.802  28.491  1.00  0.00     0.074 A 
ATOM     33  C   UNL A   1      42.419  25.924  27.202  1.00  0.00     0.049 A 
ATOM     34  N   UNL A   1      40.947  28.004  28.780  1.00  0.00    -0.248 NA
ATOM     35  C   UNL A   1      39.224  26.471  29.115  1.00  0.00     0.031 C 
ATOM     36  C   UNL A   1      43.176  24.993  26.364  1.00  0.00     0.029 A 
ATOM     37  N   UNL A   1      43.306  26.947  27.439  1.00  0.00    -0.354 N 
ATOM     38  C   UNL A   1      39.943  28.603  29.533  1.00  0.00     0.074 A 
ATOM     39  C   UNL A   1      38.888  27.623  29.679  1.00  0.00     0.031 C 
ATOM     40  C   UNL A   1      44.423  25.459  26.201  1.00  0.00     0.029 A 
ATOM     41  C   UNL A   1      44.532  26.765  26.841  1.00  0.00     0.049 A 
ATOM     42  H   UNL A   1      43.085  27.735  27.985  1.00  0.00     0.167 HD
ATOM     43  C   UNL A   1      39.904  29.849  30.062  1.00  0.00     0.034 A 
ATOM     44  C   UNL A   1      45.615  27.566  26.777  1.00  0.00     0.034 A 
ATOM     45  C   UNL A   1      40.996  30.786  30.018  1.00  0.00     0.049 A 
ATOM     46  C   UNL A   1      45.573  28.919  27.429  1.00  0.00     0.074 A 
ATOM     47  C   UNL A   1      41.051  32.066  30.546  1.00  0.00     0.029 A 
ATOM     48  N   UNL A   1      42.234  30.536  29.449  1.00  0.00    -0.354 N 
ATOM     49  N   UNL A   1      44.606  29.470  28.122  1.00  0.00    -0.248 NA
ATOM     50  C   UNL A   1      46.768  29.762  27.289  1.00  0.00     0.031 C 
ATOM     51  C   UNL A   1      42.329  32.584  30.307  1.00  0.00     0.029 A 
ATOM     52  C   UNL A   1      43.067  31.628  29.629  1.00  0.00     0.049 A 
ATOM     53  H   UNL A   1      42.485  29.704  28.987  1.00  0.00     0.167 HD
ATOM     54  C   UNL A   1      45.073  30.724  28.496  1.00  0.00     0.074 A 
ATOM     55  C   UNL A   1      46.427  30.835  27.991  1.00  0.00     0.031 C 
ATOM     56  C   UNL A   1      44.426  31.710  29.163  1.00  0.00     0.034 A 
BRANCH  43  57
ATOM     57  C   UNL A   1      38.650  30.272  30.776  1.00  0.00     0.023 A 
ATOM     58  C   UNL A   1      38.494  29.979  32.145  1.00  0.00     0.012 A 
ATOM     59  C   UNL A   1      37.662  31.029  30.114  1.00  0.00     0.148 A 
ATOM     60  C   UNL A   1      37.367  30.418  32.839  1.00  0.00     0.002 A 
ATOM     61  C   UNL A   1      36.559  31.494  30.822  1.00  0.00     0.091 A 
ATOM     62  F   UNL A   1      37.812  31.274  28.804  1.00  0.00    -0.205 F 
ATOM     63  C   UNL A   1      36.407  31.183  32.182  1.00  0.00     0.022 A 
BRANCH  61  64
ATOM     64  S   UNL A   1      35.316  32.551  30.067  1.00  0.00     0.127 S 
ATOM     65  O   UNL A   1      36.112  33.714  29.678  1.00  0.00    -0.237 OA
ATOM     66  O   UNL A   1      34.845  31.735  28.947  1.00  0.00    -0.237 OA
ATOM     67  O   UNL A   1      34.318  32.783  31.102  1.00  0.00    -0.744 OA
ENDBRANCH  61  64
ENDBRANCH  43  57
BRANCH  44  68
ATOM     68  C   UNL A   1      46.838  27.085  26.075  1.00  0.00     0.023 A 
ATOM     69  C   UNL A   1      47.018  27.389  24.713  1.00  0.00     0.012 A 
ATOM     70  C   UNL A   1      47.859  26.402  26.764  1.00  0.00     0.148 A 
ATOM     71  C   UNL A   1      48.189  27.019  24.051  1.00  0.00     0.002 A 
ATOM     72  C   UNL A   1      49.052  26.100  26.116  1.00  0.00     0.091 A 
ATOM     73  F   UNL A   1      47.662  26.085  28.053  1.00  0.00    -0.205 F 
ATOM     74  C   UNL A   1      49.214  26.393  24.756  1.00  0.00     0.022 A 
BRANCH  72  75
ATOM     75  S   UNL A   1      50.465  25.467  27.028  1.00  0.00     0.127 S 
ATOM     76  O   UNL A   1      51.442  25.250  25.966  1.00  0.00    -0.237 OA
ATOM     77  O   UNL A   1      50.779  26.570  27.937  1.00  0.00    -0.237 OA
ATOM     78  O   UNL A   1      49.968  24.273  27.703  1.00  0.00    -0.744 OA
ENDBRANCH  72  75
ENDBRANCH  44  68
BRANCH  56  79
ATOM     79  C   UNL A   1      45.162  33.004  29.374  1.00  0.00     0.023 A 
ATOM     80  C   UNL A   1      45.978  33.147  30.513  1.00  0.00     0.012 A 
ATOM     81  C   UNL A   1      45.103  34.045  28.429  1.00  0.00     0.148 A 
ATOM     82  C   UNL A   1      46.709  34.316  30.721  1.00  0.00     0.002 A 
ATOM     83  C   UNL A   1      45.859  35.196  28.626  1.00  0.00     0.091 A 
ATOM     84  F   UNL A   1      44.303  33.901  27.363  1.00  0.00    -0.205 F 
ATOM     85  C   UNL A   1      46.657  35.336  29.774  1.00  0.00     0.022 A 
BRANCH  83  86
ATOM     86  S   UNL A   1      45.901  36.526  27.417  1.00  0.00     0.127 S 
ATOM     87  O   UNL A   1      46.592  37.581  28.156  1.00  0.00    -0.237 OA
ATOM     88  O   UNL A   1      46.678  35.939  26.325  1.00  0.00    -0.237 OA
ATOM     89  O   UNL A   1      44.508  36.794  27.082  1.00  0.00    -0.744 OA
ENDBRANCH  83  86
ENDBRANCH  56  79
ENDBRANCH  30  31
ENDBRANCH  23  25
ENDBRANCH  22  23
ENDBRANCH  21  22
ENDBRANCH   1  21
TORSDOF 17
ENDMDL
MODEL 3
REMARK VINA RESULT:     -10.1      5.268      9.641
REMARK SMILES C[C@@H](C(=O)OCCOC(=O)c1ccc(-c2c3nc(c(-c4cccc(S(=O)(=O)[O-])c4F)c4ccc([nH]4)c(-c4cccc(S(=O)(=O)[O-])c4F)c4nc(c(-c5cccc(S(=O)(=O)[O-])c5F)c5ccc2[nH]5)C=C4)C=C3)cc1)c1cccc(C(=O)c2ccccc2)c1
REMARK SMILES IDX 6 1 5 2 3 3 4 4 2 5 1 6 74 7 75 8 87 9 76 10 78 11 77 12
REMARK SMILES IDX 79 13 80 14 81 15 82 16 86 17 83 18 85 19 84 20 7 21 8 22
REMARK SMILES IDX 9 23 10 24 11 25 12 26 73 27 13 28 72 29 14 30 15 31 16 32
REMARK SMILES IDX 66 33 17 34 71 35 65 36 67 37 18 38 70 39 64 40 63 41 19 43
REMARK SMILES IDX 51 44 31 45 50 46 32 47 35 48 49 49 68 50 33 51 34 52 48 54
REMARK SMILES IDX 69 55 36 56 20 57 21 58 29 59 22 60 24 61 30 62 23 63 25 64
REMARK SMILES IDX 26 65 27 66 28 67 52 68 53 69 61 70 54 71 56 72 62 73 55 74
REMARK SMILES IDX 57 75 58 76 59 77 60 78 37 79 38 80 46 81 39 82 41 83 47 84
REMARK SMILES IDX 40 85 42 86 43 87 44 88 45 89
REMARK H PARENT 67 42 35 53
REMARK Flexibility Score: inf
ROOT
ATOM      1  C   UNL A   1      31.748  28.284  25.411  1.00  0.00     0.274 C 
ENDROOT
BRANCH   1   2
ATOM      2  O   UNL A   1      32.744  27.705  24.542  1.00  0.00    -0.462 OA
BRANCH   2   3
ATOM      3  C   UNL A   1      33.208  26.467  24.870  1.00  0.00     0.313 C 
ATOM      4  O   UNL A   1      33.388  26.081  26.020  1.00  0.00    -0.252 OA
BRANCH   3   5
ATOM      5  C   UNL A   1      33.559  25.627  23.636  1.00  0.00     0.126 C 
ATOM      6  C   UNL A   1      32.427  25.537  22.607  1.00  0.00     0.025 C 
BRANCH   5   7
ATOM      7  C   UNL A   1      34.123  24.261  24.020  1.00  0.00    -0.033 A 
ATOM      8  C   UNL A   1      35.496  24.031  24.188  1.00  0.00     0.004 A 
ATOM      9  C   UNL A   1      33.241  23.174  24.183  1.00  0.00     0.016 A 
ATOM     10  C   UNL A   1      35.975  22.758  24.508  1.00  0.00     0.001 A 
ATOM     11  C   UNL A   1      33.716  21.890  24.495  1.00  0.00     0.023 A 
ATOM     12  C   UNL A   1      35.090  21.689  24.649  1.00  0.00     0.012 A 
BRANCH  11  13
ATOM     13  C   UNL A   1      32.814  20.723  24.708  1.00  0.00     0.193 C 
ATOM     14  O   UNL A   1      31.719  20.853  25.244  1.00  0.00    -0.289 OA
BRANCH  13  15
ATOM     15  C   UNL A   1      33.155  19.402  24.154  1.00  0.00     0.022 A 
ATOM     16  C   UNL A   1      32.390  18.925  23.086  1.00  0.00     0.012 A 
ATOM     17  C   UNL A   1      34.195  18.638  24.687  1.00  0.00     0.012 A 
ATOM     18  C   UNL A   1      32.699  17.694  22.513  1.00  0.00     0.001 A 
ATOM     19  C   UNL A   1      34.504  17.408  24.104  1.00  0.00     0.001 A 
ATOM     20  C   UNL A   1      33.763  16.942  23.016  1.00  0.00     0.000 A 
ENDBRANCH  13  15
ENDBRANCH  11  13
ENDBRANCH   5   7
ENDBRANCH   3   5
ENDBRANCH   2   3
ENDBRANCH   1   2
BRANCH   1  21
ATOM     21  C   UNL A   1      31.937  29.795  25.486  1.00  0.00     0.275 C 
BRANCH  21  22
ATOM     22  O   UNL A   1      32.114  30.175  26.860  1.00  0.00    -0.458 OA
BRANCH  22  23
ATOM     23  C   UNL A   1      32.769  31.334  27.081  1.00  0.00     0.338 C 
ATOM     24  O   UNL A   1      32.330  32.471  26.941  1.00  0.00    -0.246 OA
BRANCH  23  25
ATOM     25  C   UNL A   1      34.131  31.048  27.556  1.00  0.00     0.060 A 
ATOM     26  C   UNL A   1      34.516  29.735  27.821  1.00  0.00     0.016 A 
ATOM     27  C   UNL A   1      34.993  32.104  27.857  1.00  0.00     0.016 A 
ATOM     28  C   UNL A   1      35.718  29.487  28.481  1.00  0.00     0.010 A 
ATOM     29  C   UNL A   1      36.241  31.839  28.433  1.00  0.00     0.010 A 
ATOM     30  C   UNL A   1      36.600  30.532  28.804  1.00  0.00    -0.014 A 
BRANCH  30  31
ATOM     31  C   UNL A   1      37.856  30.268  29.571  1.00  0.00     0.031 A 
ATOM     32  C   UNL A   1      38.971  29.452  28.957  1.00  0.00     0.074 A 
ATOM     33  C   UNL A   1      38.022  30.754  30.818  1.00  0.00     0.049 A 
ATOM     34  N   UNL A   1      40.037  28.948  29.527  1.00  0.00    -0.248 NA
ATOM     35  C   UNL A   1      38.866  29.143  27.522  1.00  0.00     0.031 C 
ATOM     36  C   UNL A   1      37.050  31.573  31.543  1.00  0.00     0.029 A 
ATOM     37  N   UNL A   1      39.071  30.632  31.697  1.00  0.00    -0.354 N 
ATOM     38  C   UNL A   1      40.674  28.190  28.551  1.00  0.00     0.074 A 
ATOM     39  C   UNL A   1      39.888  28.317  27.342  1.00  0.00     0.031 C 
ATOM     40  C   UNL A   1      37.567  31.923  32.730  1.00  0.00     0.029 A 
ATOM     41  C   UNL A   1      38.865  31.279  32.895  1.00  0.00     0.049 A 
ATOM     42  H   UNL A   1      39.892  30.130  31.491  1.00  0.00     0.167 HD
ATOM     43  C   UNL A   1      41.811  27.461  28.647  1.00  0.00     0.034 A 
ATOM     44  C   UNL A   1      39.612  31.326  34.017  1.00  0.00     0.034 A 
ATOM     45  C   UNL A   1      42.658  27.423  29.810  1.00  0.00     0.049 A 
ATOM     46  C   UNL A   1      40.904  30.563  34.077  1.00  0.00     0.074 A 
ATOM     47  C   UNL A   1      43.841  26.726  29.989  1.00  0.00     0.029 A 
ATOM     48  N   UNL A   1      42.436  28.137  30.977  1.00  0.00    -0.354 N 
ATOM     49  N   UNL A   1      41.478  29.839  33.146  1.00  0.00    -0.248 NA
ATOM     50  C   UNL A   1      41.651  30.619  35.341  1.00  0.00     0.031 C 
ATOM     51  C   UNL A   1      44.342  27.030  31.260  1.00  0.00     0.029 A 
ATOM     52  C   UNL A   1      43.468  27.912  31.873  1.00  0.00     0.049 A 
ATOM     53  H   UNL A   1      41.659  28.718  31.144  1.00  0.00     0.167 HD
ATOM     54  C   UNL A   1      42.650  29.351  33.712  1.00  0.00     0.074 A 
ATOM     55  C   UNL A   1      42.727  29.897  35.053  1.00  0.00     0.031 C 
ATOM     56  C   UNL A   1      43.559  28.496  33.185  1.00  0.00     0.034 A 
BRANCH  43  57
ATOM     57  C   UNL A   1      42.242  26.666  27.444  1.00  0.00     0.023 A 
ATOM     58  C   UNL A   1      42.990  27.290  26.427  1.00  0.00     0.012 A 
ATOM     59  C   UNL A   1      41.976  25.284  27.359  1.00  0.00     0.148 A 
ATOM     60  C   UNL A   1      43.452  26.554  25.336  1.00  0.00     0.002 A 
ATOM     61  C   UNL A   1      42.470  24.551  26.287  1.00  0.00     0.091 A 
ATOM     62  F   UNL A   1      41.238  24.712  28.323  1.00  0.00    -0.205 F 
ATOM     63  C   UNL A   1      43.203  25.186  25.271  1.00  0.00     0.022 A 
BRANCH  61  64
ATOM     64  S   UNL A   1      42.259  22.770  26.169  1.00  0.00     0.127 S 
ATOM     65  O   UNL A   1      42.827  22.490  24.851  1.00  0.00    -0.237 OA
ATOM     66  O   UNL A   1      43.062  22.282  27.292  1.00  0.00    -0.237 OA
ATOM     67  O   UNL A   1      40.829  22.534  26.307  1.00  0.00    -0.744 OA
ENDBRANCH  61  64
ENDBRANCH  43  57
BRANCH  44  68
ATOM     68  C   UNL A   1      39.146  32.149  35.169  1.00  0.00     0.023 A 
ATOM     69  C   UNL A   1      38.305  31.569  36.137  1.00  0.00     0.012 A 
ATOM     70  C   UNL A   1      39.595  33.470  35.356  1.00  0.00     0.148 A 
ATOM     71  C   UNL A   1      37.918  32.292  37.266  1.00  0.00     0.002 A 
ATOM     72  C   UNL A   1      39.263  34.159  36.517  1.00  0.00     0.091 A 
ATOM     73  F   UNL A   1      40.367  34.026  34.409  1.00  0.00    -0.205 F 
ATOM     74  C   UNL A   1      38.413  33.578  37.467  1.00  0.00     0.022 A 
BRANCH  72  75
ATOM     75  S   UNL A   1      40.026  35.739  36.906  1.00  0.00     0.127 S 
ATOM     76  O   UNL A   1      39.407  36.070  38.186  1.00  0.00    -0.237 OA
ATOM     77  O   UNL A   1      41.447  35.398  36.980  1.00  0.00    -0.237 OA
ATOM     78  O   UNL A   1      39.686  36.602  35.781  1.00  0.00    -0.744 OA
ENDBRANCH  72  75
ENDBRANCH  44  68
BRANCH  56  79
ATOM     79  C   UNL A   1      44.710  28.081  34.059  1.00  0.00     0.023 A 
ATOM     80  C   UNL A   1      45.894  28.844  34.035  1.00  0.00     0.012 A 
ATOM     81  C   UNL A   1      44.605  26.990  34.942  1.00  0.00     0.148 A 
ATOM     82  C   UNL A   1      46.967  28.514  34.863  1.00  0.00     0.002 A 
ATOM     83  C   UNL A   1      45.667  26.686  35.787  1.00  0.00     0.091 A 
ATOM     84  F   UNL A   1      43.480  26.262  34.934  1.00  0.00    -0.205 F 
ATOM     85  C   UNL A   1      46.850  27.442  35.745  1.00  0.00     0.022 A 
BRANCH  83  86
ATOM     86  S   UNL A   1      45.569  25.365  37.002  1.00  0.00     0.127 S 
ATOM     87  O   UNL A   1      46.871  25.462  37.657  1.00  0.00    -0.237 OA
ATOM     88  O   UNL A   1      44.437  25.779  37.832  1.00  0.00    -0.237 OA
ATOM     89  O   UNL A   1      45.333  24.147  36.236  1.00  0.00    -0.744 OA
ENDBRANCH  83  86
ENDBRANCH  56  79
ENDBRANCH  30  31
ENDBRANCH  23  25
ENDBRANCH  22  23
ENDBRANCH  21  22
ENDBRANCH   1  21
TORSDOF 17
ENDMDL
