MODEL 1
REMARK VINA RESULT:     -11.7      0.000      0.000
REMARK SMILES CCc1cc2c(C)cc(=O)oc2cc1O[C@H](C)C(=O)OCCOC(=O)c1ccc(-c2c3nc(c(-c4cccc(S(=O)(=O)[O-])c4F)c4ccc([nH]4)c(-c4cccc(S(=O)(=O)[O-])c4F)c4nc(c(-c5cccc(S(=O)(=O)[O-])c5F)c5ccc2[nH]5)C=C4)C=C3)cc1
REMARK SMILES IDX 21 1 20 2 18 3 19 4 16 5 17 6 15 7 14 8 3 9 4 10 5 11 13 12
REMARK SMILES IDX 6 13 12 14 7 15 8 16 11 17 9 18 10 19 2 20 1 21 22 22 23 23
REMARK SMILES IDX 24 24 25 25 26 26 27 27 88 28 28 29 87 30 29 31 30 32 31 33
REMARK SMILES IDX 81 34 32 35 86 36 80 37 82 38 33 39 85 40 79 41 78 42 34 44
REMARK SMILES IDX 66 45 46 46 65 47 47 48 50 49 64 50 83 51 48 52 49 53 63 55
REMARK SMILES IDX 84 56 51 57 35 58 36 59 44 60 37 61 39 62 45 63 38 64 40 65
REMARK SMILES IDX 41 66 42 67 43 68 67 69 68 70 76 71 69 72 71 73 77 74 70 75
REMARK SMILES IDX 72 76 73 77 74 78 75 79 52 80 53 81 61 82 54 83 56 84 62 85
REMARK SMILES IDX 55 86 57 87 58 88 59 89 60 90
REMARK H PARENT 82 43 50 54
REMARK Flexibility Score: inf
ROOT
ATOM      1  C   UNL A   1      31.463  28.891  24.549  1.00  0.00     0.274 C 
ENDROOT
BRANCH   1   2
ATOM      2  O   UNL A   1      31.888  27.593  25.014  1.00  0.00    -0.459 OA
BRANCH   2   3
ATOM      3  C   UNL A   1      30.939  26.793  25.570  1.00  0.00     0.347 C 
ATOM      4  O   UNL A   1      30.694  26.737  26.771  1.00  0.00    -0.248 OA
BRANCH   3   5
ATOM      5  C   UNL A   1      30.209  25.917  24.525  1.00  0.00     0.279 C 
ATOM      6  C   UNL A   1      28.830  26.407  24.076  1.00  0.00     0.066 C 
BRANCH   5   7
ATOM      7  O   UNL A   1      30.963  25.441  23.410  1.00  0.00    -0.479 OA
BRANCH   7   8
ATOM      8  C   UNL A   1      31.826  24.409  23.613  1.00  0.00     0.127 A 
ATOM      9  C   UNL A   1      33.196  24.639  23.412  1.00  0.00    -0.005 A 
ATOM     10  C   UNL A   1      34.104  23.607  23.752  1.00  0.00     0.019 A 
ATOM     11  C   UNL A   1      33.673  22.366  24.241  1.00  0.00     0.021 A 
ATOM     12  C   UNL A   1      31.388  23.178  24.103  1.00  0.00     0.094 A 
ATOM     13  C   UNL A   1      34.577  21.280  24.640  1.00  0.00    -0.033 A 
ATOM     14  C   UNL A   1      32.305  22.170  24.376  1.00  0.00     0.142 A 
ATOM     15  C   UNL A   1      36.057  21.507  24.664  1.00  0.00     0.045 C 
ATOM     16  C   UNL A   1      34.037  20.108  25.007  1.00  0.00     0.098 A 
ATOM     17  O   UNL A   1      31.765  20.942  24.801  1.00  0.00    -0.423 OA
ATOM     18  C   UNL A   1      32.588  19.861  25.053  1.00  0.00     0.336 A 
ATOM     19  O   UNL A   1      32.151  18.751  25.336  1.00  0.00    -0.246 OA
BRANCH   9  20
ATOM     20  C   UNL A   1      33.804  25.933  22.897  1.00  0.00     0.036 C 
ATOM     21  C   UNL A   1      33.265  26.558  21.616  1.00  0.00     0.009 C 
ENDBRANCH   9  20
ENDBRANCH   7   8
ENDBRANCH   5   7
ENDBRANCH   3   5
ENDBRANCH   2   3
ENDBRANCH   1   2
BRANCH   1  22
ATOM     22  C   UNL A   1      31.595  29.924  25.669  1.00  0.00     0.275 C 
BRANCH  22  23
ATOM     23  O   UNL A   1      32.980  30.189  25.956  1.00  0.00    -0.458 OA
BRANCH  23  24
ATOM     24  C   UNL A   1      33.195  31.161  26.872  1.00  0.00     0.338 C 
ATOM     25  O   UNL A   1      32.424  32.036  27.225  1.00  0.00    -0.246 OA
BRANCH  24  26
ATOM     26  C   UNL A   1      34.481  30.915  27.534  1.00  0.00     0.060 A 
ATOM     27  C   UNL A   1      34.738  29.628  28.011  1.00  0.00     0.016 A 
ATOM     28  C   UNL A   1      35.392  31.948  27.744  1.00  0.00     0.016 A 
ATOM     29  C   UNL A   1      35.897  29.364  28.726  1.00  0.00     0.010 A 
ATOM     30  C   UNL A   1      36.572  31.677  28.442  1.00  0.00     0.010 A 
ATOM     31  C   UNL A   1      36.822  30.389  28.947  1.00  0.00    -0.014 A 
BRANCH  31  32
ATOM     32  C   UNL A   1      38.050  30.108  29.719  1.00  0.00     0.031 A 
ATOM     33  C   UNL A   1      39.077  29.164  29.172  1.00  0.00     0.074 A 
ATOM     34  C   UNL A   1      38.221  30.691  30.920  1.00  0.00     0.049 A 
ATOM     35  N   UNL A   1      40.166  28.714  29.737  1.00  0.00    -0.248 NA
ATOM     36  C   UNL A   1      38.845  28.652  27.812  1.00  0.00     0.031 C 
ATOM     37  C   UNL A   1      37.287  31.633  31.537  1.00  0.00     0.029 A 
ATOM     38  N   UNL A   1      39.224  30.555  31.844  1.00  0.00    -0.354 N 
ATOM     39  C   UNL A   1      40.727  27.831  28.825  1.00  0.00     0.074 A 
ATOM     40  C   UNL A   1      39.858  27.811  27.666  1.00  0.00     0.031 C 
ATOM     41  C   UNL A   1      37.747  31.970  32.752  1.00  0.00     0.029 A 
ATOM     42  C   UNL A   1      38.981  31.235  33.012  1.00  0.00     0.049 A 
ATOM     43  H   UNL A   1      40.037  30.023  31.686  1.00  0.00     0.167 HD
ATOM     44  C   UNL A   1      41.868  27.113  28.941  1.00  0.00     0.034 A 
ATOM     45  C   UNL A   1      39.657  31.236  34.177  1.00  0.00     0.034 A 
ATOM     46  C   UNL A   1      42.739  27.168  30.085  1.00  0.00     0.049 A 
ATOM     47  C   UNL A   1      40.912  30.418  34.287  1.00  0.00     0.074 A 
ATOM     48  C   UNL A   1      43.950  26.529  30.277  1.00  0.00     0.029 A 
ATOM     49  N   UNL A   1      42.485  27.900  31.236  1.00  0.00    -0.354 N 
ATOM     50  N   UNL A   1      41.490  29.669  33.379  1.00  0.00    -0.248 NA
ATOM     51  C   UNL A   1      41.621  30.458  35.574  1.00  0.00     0.031 C 
ATOM     52  C   UNL A   1      44.419  26.858  31.554  1.00  0.00     0.029 A 
ATOM     53  C   UNL A   1      43.507  27.714  32.152  1.00  0.00     0.049 A 
ATOM     54  H   UNL A   1      41.695  28.468  31.381  1.00  0.00     0.167 HD
ATOM     55  C   UNL A   1      42.636  29.160  33.975  1.00  0.00     0.074 A 
ATOM     56  C   UNL A   1      42.686  29.711  35.316  1.00  0.00     0.031 C 
ATOM     57  C   UNL A   1      43.554  28.300  33.469  1.00  0.00     0.034 A 
BRANCH  44  58
ATOM     58  C   UNL A   1      42.244  26.221  27.788  1.00  0.00     0.023 A 
ATOM     59  C   UNL A   1      43.050  26.727  26.748  1.00  0.00     0.012 A 
ATOM     60  C   UNL A   1      41.823  24.878  27.745  1.00  0.00     0.148 A 
ATOM     61  C   UNL A   1      43.401  25.920  25.666  1.00  0.00     0.002 A 
ATOM     62  C   UNL A   1      42.209  24.069  26.682  1.00  0.00     0.091 A 
ATOM     63  F   UNL A   1      41.031  24.422  28.727  1.00  0.00    -0.205 F 
ATOM     64  C   UNL A   1      42.990  24.590  25.638  1.00  0.00     0.022 A 
BRANCH  62  65
ATOM     65  S   UNL A   1      41.778  22.327  26.599  1.00  0.00     0.127 S 
ATOM     66  O   UNL A   1      42.375  21.815  27.831  1.00  0.00    -0.237 OA
ATOM     67  O   UNL A   1      40.314  22.367  26.603  1.00  0.00    -0.237 OA
ATOM     68  O   UNL A   1      42.363  21.834  25.360  1.00  0.00    -0.744 OA
ENDBRANCH  62  65
ENDBRANCH  44  58
BRANCH  45  69
ATOM     69  C   UNL A   1      39.156  32.060  35.311  1.00  0.00     0.023 A 
ATOM     70  C   UNL A   1      38.221  31.509  36.207  1.00  0.00     0.012 A 
ATOM     71  C   UNL A   1      39.659  33.355  35.549  1.00  0.00     0.148 A 
ATOM     72  C   UNL A   1      37.787  32.238  37.315  1.00  0.00     0.002 A 
ATOM     73  C   UNL A   1      39.265  34.054  36.684  1.00  0.00     0.091 A 
ATOM     74  F   UNL A   1      40.535  33.867  34.673  1.00  0.00    -0.205 F 
ATOM     75  C   UNL A   1      38.319  33.502  37.561  1.00  0.00     0.022 A 
BRANCH  73  76
ATOM     76  S   UNL A   1      39.999  35.625  37.153  1.00  0.00     0.127 S 
ATOM     77  O   UNL A   1      39.649  36.471  36.015  1.00  0.00    -0.237 OA
ATOM     78  O   UNL A   1      39.285  35.934  38.392  1.00  0.00    -0.237 OA
ATOM     79  O   UNL A   1      41.420  35.358  37.331  1.00  0.00    -0.744 OA
ENDBRANCH  73  76
ENDBRANCH  45  69
BRANCH  57  80
ATOM     80  C   UNL A   1      44.692  27.896  34.368  1.00  0.00     0.023 A 
ATOM     81  C   UNL A   1      45.889  28.639  34.346  1.00  0.00     0.012 A 
ATOM     82  C   UNL A   1      44.555  26.832  35.280  1.00  0.00     0.148 A 
ATOM     83  C   UNL A   1      46.943  28.312  35.199  1.00  0.00     0.002 A 
ATOM     84  C   UNL A   1      45.592  26.540  36.158  1.00  0.00     0.091 A 
ATOM     85  F   UNL A   1      43.416  26.124  35.271  1.00  0.00    -0.205 F 
ATOM     86  C   UNL A   1      46.790  27.272  36.112  1.00  0.00     0.022 A 
BRANCH  84  87
ATOM     87  S   UNL A   1      45.448  25.275  37.426  1.00  0.00     0.127 S 
ATOM     88  O   UNL A   1      44.243  25.700  38.137  1.00  0.00    -0.237 OA
ATOM     89  O   UNL A   1      45.291  24.054  36.634  1.00  0.00    -0.237 OA
ATOM     90  O   UNL A   1      46.684  25.338  38.194  1.00  0.00    -0.744 OA
ENDBRANCH  84  87
ENDBRANCH  57  80
ENDBRANCH  31  32
ENDBRANCH  24  26
ENDBRANCH  23  24
ENDBRANCH  22  23
ENDBRANCH   1  22
TORSDOF 17
ENDMDL
MODEL 2
REMARK VINA RESULT:     -11.4      2.204      3.895
REMARK SMILES CCc1cc2c(C)cc(=O)oc2cc1O[C@H](C)C(=O)OCCOC(=O)c1ccc(-c2c3nc(c(-c4cccc(S(=O)(=O)[O-])c4F)c4ccc([nH]4)c(-c4cccc(S(=O)(=O)[O-])c4F)c4nc(c(-c5cccc(S(=O)(=O)[O-])c5F)c5ccc2[nH]5)C=C4)C=C3)cc1
REMARK SMILES IDX 21 1 20 2 18 3 19 4 16 5 17 6 15 7 14 8 3 9 4 10 5 11 13 12
REMARK SMILES IDX 6 13 12 14 7 15 8 16 11 17 9 18 10 19 2 20 1 21 22 22 23 23
REMARK SMILES IDX 24 24 25 25 26 26 27 27 88 28 28 29 87 30 29 31 30 32 31 33
REMARK SMILES IDX 81 34 32 35 86 36 80 37 82 38 33 39 85 40 79 41 78 42 34 44
REMARK SMILES IDX 66 45 46 46 65 47 47 48 50 49 64 50 83 51 48 52 49 53 63 55
REMARK SMILES IDX 84 56 51 57 35 58 36 59 44 60 37 61 39 62 45 63 38 64 40 65
REMARK SMILES IDX 41 66 42 67 43 68 67 69 68 70 76 71 69 72 71 73 77 74 70 75
REMARK SMILES IDX 72 76 73 77 74 78 75 79 52 80 53 81 61 82 54 83 56 84 62 85
REMARK SMILES IDX 55 86 57 87 58 88 59 89 60 90
REMARK H PARENT 82 43 50 54
REMARK Flexibility Score: inf
ROOT
ATOM      1  C   UNL A   1      31.864  29.185  25.591  1.00  0.00     0.274 C 
ENDROOT
BRANCH   1   2
ATOM      2  O   UNL A   1      33.230  28.727  25.509  1.00  0.00    -0.459 OA
BRANCH   2   3
ATOM      3  C   UNL A   1      33.675  28.320  24.290  1.00  0.00     0.347 C 
ATOM      4  O   UNL A   1      33.999  29.076  23.380  1.00  0.00    -0.248 OA
BRANCH   3   5
ATOM      5  C   UNL A   1      33.699  26.779  24.148  1.00  0.00     0.279 C 
ATOM      6  C   UNL A   1      33.734  25.979  25.452  1.00  0.00     0.066 C 
BRANCH   5   7
ATOM      7  O   UNL A   1      32.801  26.182  23.212  1.00  0.00    -0.479 OA
BRANCH   7   8
ATOM      8  C   UNL A   1      31.553  26.711  23.091  1.00  0.00     0.127 A 
ATOM      9  C   UNL A   1      30.487  26.049  23.719  1.00  0.00    -0.005 A 
ATOM     10  C   UNL A   1      29.215  26.670  23.707  1.00  0.00     0.019 A 
ATOM     11  C   UNL A   1      28.988  27.893  23.060  1.00  0.00     0.021 A 
ATOM     12  C   UNL A   1      31.338  27.931  22.448  1.00  0.00     0.094 A 
ATOM     13  C   UNL A   1      27.697  28.592  23.050  1.00  0.00    -0.033 A 
ATOM     14  C   UNL A   1      30.064  28.484  22.412  1.00  0.00     0.142 A 
ATOM     15  C   UNL A   1      26.557  28.072  23.871  1.00  0.00     0.045 C 
ATOM     16  C   UNL A   1      27.587  29.710  22.319  1.00  0.00     0.098 A 
ATOM     17  O   UNL A   1      29.931  29.680  21.683  1.00  0.00    -0.423 OA
ATOM     18  C   UNL A   1      28.697  30.287  21.545  1.00  0.00     0.336 A 
ATOM     19  O   UNL A   1      28.523  31.277  20.844  1.00  0.00    -0.246 OA
BRANCH   9  20
ATOM     20  C   UNL A   1      30.588  24.727  24.462  1.00  0.00     0.036 C 
ATOM     21  C   UNL A   1      30.334  24.689  25.964  1.00  0.00     0.009 C 
ENDBRANCH   9  20
ENDBRANCH   7   8
ENDBRANCH   5   7
ENDBRANCH   3   5
ENDBRANCH   2   3
ENDBRANCH   1   2
BRANCH   1  22
ATOM     22  C   UNL A   1      31.799  30.532  26.312  1.00  0.00     0.275 C 
BRANCH  22  23
ATOM     23  O   UNL A   1      32.787  30.599  27.355  1.00  0.00    -0.458 OA
BRANCH  23  24
ATOM     24  C   UNL A   1      33.568  31.704  27.329  1.00  0.00     0.338 C 
ATOM     25  O   UNL A   1      33.243  32.838  27.022  1.00  0.00    -0.246 OA
BRANCH  24  26
ATOM     26  C   UNL A   1      34.878  31.375  27.900  1.00  0.00     0.060 A 
ATOM     27  C   UNL A   1      35.078  30.078  28.378  1.00  0.00     0.016 A 
ATOM     28  C   UNL A   1      35.873  32.342  28.026  1.00  0.00     0.016 A 
ATOM     29  C   UNL A   1      36.265  29.740  29.011  1.00  0.00     0.010 A 
ATOM     30  C   UNL A   1      37.078  31.996  28.641  1.00  0.00     0.010 A 
ATOM     31  C   UNL A   1      37.274  30.698  29.148  1.00  0.00    -0.014 A 
BRANCH  31  32
ATOM     32  C   UNL A   1      38.533  30.340  29.833  1.00  0.00     0.031 A 
ATOM     33  C   UNL A   1      39.480  29.369  29.196  1.00  0.00     0.074 A 
ATOM     34  C   UNL A   1      38.803  30.876  31.037  1.00  0.00     0.049 A 
ATOM     35  N   UNL A   1      40.579  28.854  29.679  1.00  0.00    -0.248 NA
ATOM     36  C   UNL A   1      39.142  28.911  27.839  1.00  0.00     0.031 C 
ATOM     37  C   UNL A   1      37.953  31.839  31.739  1.00  0.00     0.029 A 
ATOM     38  N   UNL A   1      39.854  30.667  31.893  1.00  0.00    -0.354 N 
ATOM     39  C   UNL A   1      41.043  27.977  28.708  1.00  0.00     0.074 A 
ATOM     40  C   UNL A   1      40.105  28.031  27.606  1.00  0.00     0.031 C 
ATOM     41  C   UNL A   1      38.500  32.116  32.932  1.00  0.00     0.029 A 
ATOM     42  C   UNL A   1      39.713  31.320  33.093  1.00  0.00     0.049 A 
ATOM     43  H   UNL A   1      40.630  30.105  31.669  1.00  0.00     0.167 HD
ATOM     44  C   UNL A   1      42.155  27.206  28.732  1.00  0.00     0.034 A 
ATOM     45  C   UNL A   1      40.458  31.254  34.213  1.00  0.00     0.034 A 
ATOM     46  C   UNL A   1      43.095  27.186  29.820  1.00  0.00     0.049 A 
ATOM     47  C   UNL A   1      41.679  30.378  34.221  1.00  0.00     0.074 A 
ATOM     48  C   UNL A   1      44.285  26.489  29.919  1.00  0.00     0.029 A 
ATOM     49  N   UNL A   1      42.946  27.892  31.006  1.00  0.00    -0.354 N 
ATOM     50  N   UNL A   1      42.165  29.634  33.257  1.00  0.00    -0.248 NA
ATOM     51  C   UNL A   1      42.466  30.347  35.462  1.00  0.00     0.031 C 
ATOM     52  C   UNL A   1      44.846  26.756  31.173  1.00  0.00     0.029 A 
ATOM     53  C   UNL A   1      44.012  27.632  31.851  1.00  0.00     0.049 A 
ATOM     54  H   UNL A   1      42.193  28.489  31.216  1.00  0.00     0.167 HD
ATOM     55  C   UNL A   1      43.322  29.056  33.766  1.00  0.00     0.074 A 
ATOM     56  C   UNL A   1      43.478  29.562  35.116  1.00  0.00     0.031 C 
ATOM     57  C   UNL A   1      44.167  28.173  33.178  1.00  0.00     0.034 A 
BRANCH  44  58
ATOM     58  C   UNL A   1      42.419  26.335  27.533  1.00  0.00     0.023 A 
ATOM     59  C   UNL A   1      43.100  26.867  26.420  1.00  0.00     0.012 A 
ATOM     60  C   UNL A   1      42.015  24.986  27.515  1.00  0.00     0.148 A 
ATOM     61  C   UNL A   1      43.346  26.081  25.295  1.00  0.00     0.002 A 
ATOM     62  C   UNL A   1      42.297  24.197  26.405  1.00  0.00     0.091 A 
ATOM     63  F   UNL A   1      41.340  24.504  28.569  1.00  0.00    -0.205 F 
ATOM     64  C   UNL A   1      42.953  24.745  25.292  1.00  0.00     0.022 A 
BRANCH  62  65
ATOM     65  S   UNL A   1      41.885  22.449  26.343  1.00  0.00     0.127 S 
ATOM     66  O   UNL A   1      42.437  22.062  25.046  1.00  0.00    -0.237 OA
ATOM     67  O   UNL A   1      42.610  21.916  27.497  1.00  0.00    -0.237 OA
ATOM     68  O   UNL A   1      40.435  22.382  26.459  1.00  0.00    -0.744 OA
ENDBRANCH  62  65
ENDBRANCH  44  58
BRANCH  45  69
ATOM     69  C   UNL A   1      40.066  32.063  35.400  1.00  0.00     0.023 A 
ATOM     70  C   UNL A   1      40.576  33.366  35.548  1.00  0.00     0.012 A 
ATOM     71  C   UNL A   1      39.134  31.577  36.338  1.00  0.00     0.148 A 
ATOM     72  C   UNL A   1      40.173  34.168  36.616  1.00  0.00     0.002 A 
ATOM     73  C   UNL A   1      38.694  32.399  37.368  1.00  0.00     0.091 A 
ATOM     74  F   UNL A   1      38.675  30.326  36.187  1.00  0.00    -0.205 F 
ATOM     75  C   UNL A   1      39.223  33.690  37.517  1.00  0.00     0.022 A 
BRANCH  73  76
ATOM     76  S   UNL A   1      37.375  31.920  38.489  1.00  0.00     0.127 S 
ATOM     77  O   UNL A   1      37.991  32.150  39.793  1.00  0.00    -0.237 OA
ATOM     78  O   UNL A   1      36.317  32.866  38.132  1.00  0.00    -0.237 OA
ATOM     79  O   UNL A   1      37.070  30.532  38.168  1.00  0.00    -0.744 OA
ENDBRANCH  73  76
ENDBRANCH  45  69
BRANCH  57  80
ATOM     80  C   UNL A   1      45.337  27.691  33.993  1.00  0.00     0.023 A 
ATOM     81  C   UNL A   1      46.539  28.428  33.981  1.00  0.00     0.012 A 
ATOM     82  C   UNL A   1      45.229  26.557  34.820  1.00  0.00     0.148 A 
ATOM     83  C   UNL A   1      47.624  28.027  34.760  1.00  0.00     0.002 A 
ATOM     84  C   UNL A   1      46.300  26.189  35.627  1.00  0.00     0.091 A 
ATOM     85  F   UNL A   1      44.085  25.857  34.802  1.00  0.00    -0.205 F 
ATOM     86  C   UNL A   1      47.500  26.916  35.590  1.00  0.00     0.022 A 
BRANCH  84  87
ATOM     87  S   UNL A   1      46.197  24.825  36.792  1.00  0.00     0.127 S 
ATOM     88  O   UNL A   1      46.133  23.670  35.897  1.00  0.00    -0.237 OA
ATOM     89  O   UNL A   1      47.453  24.952  37.534  1.00  0.00    -0.237 OA
ATOM     90  O   UNL A   1      45.002  25.069  37.588  1.00  0.00    -0.744 OA
ENDBRANCH  84  87
ENDBRANCH  57  80
ENDBRANCH  31  32
ENDBRANCH  24  26
ENDBRANCH  23  24
ENDBRANCH  22  23
ENDBRANCH   1  22
TORSDOF 17
ENDMDL
MODEL 3
REMARK VINA RESULT:     -11.4      5.150     10.012
REMARK SMILES CCc1cc2c(C)cc(=O)oc2cc1O[C@H](C)C(=O)OCCOC(=O)c1ccc(-c2c3nc(c(-c4cccc(S(=O)(=O)[O-])c4F)c4ccc([nH]4)c(-c4cccc(S(=O)(=O)[O-])c4F)c4nc(c(-c5cccc(S(=O)(=O)[O-])c5F)c5ccc2[nH]5)C=C4)C=C3)cc1
REMARK SMILES IDX 21 1 20 2 18 3 19 4 16 5 17 6 15 7 14 8 3 9 4 10 5 11 13 12
REMARK SMILES IDX 6 13 12 14 7 15 8 16 11 17 9 18 10 19 2 20 1 21 22 22 23 23
REMARK SMILES IDX 24 24 25 25 26 26 27 27 88 28 28 29 87 30 29 31 30 32 31 33
REMARK SMILES IDX 81 34 32 35 86 36 80 37 82 38 33 39 85 40 79 41 78 42 34 44
REMARK SMILES IDX 66 45 46 46 65 47 47 48 50 49 64 50 83 51 48 52 49 53 63 55
REMARK SMILES IDX 84 56 51 57 35 58 36 59 44 60 37 61 39 62 45 63 38 64 40 65
REMARK SMILES IDX 41 66 42 67 43 68 67 69 68 70 76 71 69 72 71 73 77 74 70 75
REMARK SMILES IDX 72 76 73 77 74 78 75 79 52 80 53 81 61 82 54 83 56 84 62 85
REMARK SMILES IDX 55 86 57 87 58 88 59 89 60 90
REMARK H PARENT 82 43 50 54
REMARK Flexibility Score: inf
ROOT
ATOM      1  C   UNL A   1      35.958  21.219  25.651  1.00  0.00     0.274 C 
ENDROOT
BRANCH   1   2
ATOM      2  O   UNL A   1      34.967  21.494  24.640  1.00  0.00    -0.459 OA
BRANCH   2   3
ATOM      3  C   UNL A   1      33.979  20.574  24.474  1.00  0.00     0.347 C 
ATOM      4  O   UNL A   1      34.080  19.386  24.760  1.00  0.00    -0.248 OA
BRANCH   3   5
ATOM      5  C   UNL A   1      32.701  21.177  23.842  1.00  0.00     0.279 C 
ATOM      6  C   UNL A   1      32.108  20.414  22.655  1.00  0.00     0.066 C 
BRANCH   5   7
ATOM      7  O   UNL A   1      31.670  21.623  24.722  1.00  0.00    -0.479 OA
BRANCH   7   8
ATOM      8  C   UNL A   1      31.532  22.962  24.924  1.00  0.00     0.127 A 
ATOM      9  C   UNL A   1      31.884  23.485  26.177  1.00  0.00    -0.005 A 
ATOM     10  C   UNL A   1      31.869  24.891  26.343  1.00  0.00     0.019 A 
ATOM     11  C   UNL A   1      31.479  25.759  25.314  1.00  0.00     0.021 A 
ATOM     12  C   UNL A   1      31.146  23.818  23.892  1.00  0.00     0.094 A 
ATOM     13  C   UNL A   1      31.481  27.222  25.426  1.00  0.00    -0.033 A 
ATOM     14  C   UNL A   1      31.093  25.190  24.108  1.00  0.00     0.142 A 
ATOM     15  C   UNL A   1      32.043  27.879  26.649  1.00  0.00     0.045 C 
ATOM     16  C   UNL A   1      30.999  27.938  24.400  1.00  0.00     0.098 A 
ATOM     17  O   UNL A   1      30.627  25.967  23.031  1.00  0.00    -0.423 OA
ATOM     18  C   UNL A   1      30.490  27.336  23.158  1.00  0.00     0.336 A 
ATOM     19  O   UNL A   1      30.004  28.035  22.277  1.00  0.00    -0.246 OA
BRANCH   9  20
ATOM     20  C   UNL A   1      32.332  22.667  27.377  1.00  0.00     0.036 C 
ATOM     21  C   UNL A   1      33.783  22.744  27.839  1.00  0.00     0.009 C 
ENDBRANCH   9  20
ENDBRANCH   7   8
ENDBRANCH   5   7
ENDBRANCH   3   5
ENDBRANCH   2   3
ENDBRANCH   1   2
BRANCH   1  22
ATOM     22  C   UNL A   1      37.276  20.796  25.000  1.00  0.00     0.275 C 
BRANCH  22  23
ATOM     23  O   UNL A   1      38.290  21.795  25.210  1.00  0.00    -0.458 OA
BRANCH  23  24
ATOM     24  C   UNL A   1      39.232  21.466  26.124  1.00  0.00     0.338 C 
ATOM     25  O   UNL A   1      39.664  20.356  26.381  1.00  0.00    -0.246 OA
BRANCH  24  26
ATOM     26  C   UNL A   1      39.808  22.696  26.677  1.00  0.00     0.060 A 
ATOM     27  C   UNL A   1      39.415  23.914  26.119  1.00  0.00     0.016 A 
ATOM     28  C   UNL A   1      40.771  22.651  27.684  1.00  0.00     0.016 A 
ATOM     29  C   UNL A   1      39.997  25.100  26.542  1.00  0.00     0.010 A 
ATOM     30  C   UNL A   1      41.340  23.847  28.128  1.00  0.00     0.010 A 
ATOM     31  C   UNL A   1      40.966  25.073  27.549  1.00  0.00    -0.014 A 
BRANCH  31  32
ATOM     32  C   UNL A   1      41.595  26.336  27.990  1.00  0.00     0.031 A 
ATOM     33  C   UNL A   1      40.782  27.359  28.723  1.00  0.00     0.074 A 
ATOM     34  C   UNL A   1      42.890  26.561  27.706  1.00  0.00     0.049 A 
ATOM     35  N   UNL A   1      41.121  28.562  29.103  1.00  0.00    -0.248 NA
ATOM     36  C   UNL A   1      39.402  26.982  29.069  1.00  0.00     0.031 C 
ATOM     37  C   UNL A   1      43.772  25.625  27.007  1.00  0.00     0.029 A 
ATOM     38  N   UNL A   1      43.681  27.655  27.946  1.00  0.00    -0.354 N 
ATOM     39  C   UNL A   1      39.987  29.106  29.690  1.00  0.00     0.074 A 
ATOM     40  C   UNL A   1      38.949  28.099  29.619  1.00  0.00     0.031 C 
ATOM     41  C   UNL A   1      44.976  26.197  26.848  1.00  0.00     0.029 A 
ATOM     42  C   UNL A   1      44.935  27.550  27.395  1.00  0.00     0.049 A 
ATOM     43  H   UNL A   1      43.379  28.438  28.461  1.00  0.00     0.167 HD
ATOM     44  C   UNL A   1      39.831  30.330  30.247  1.00  0.00     0.034 A 
ATOM     45  C   UNL A   1      45.927  28.456  27.307  1.00  0.00     0.034 A 
ATOM     46  C   UNL A   1      40.881  31.309  30.340  1.00  0.00     0.049 A 
ATOM     47  C   UNL A   1      45.725  29.814  27.918  1.00  0.00     0.074 A 
ATOM     48  C   UNL A   1      40.847  32.555  30.939  1.00  0.00     0.029 A 
ATOM     49  N   UNL A   1      42.154  31.155  29.809  1.00  0.00    -0.354 N 
ATOM     50  N   UNL A   1      44.684  30.279  28.566  1.00  0.00    -0.248 NA
ATOM     51  C   UNL A   1      46.839  30.765  27.807  1.00  0.00     0.031 C 
ATOM     52  C   UNL A   1      42.093  33.163  30.753  1.00  0.00     0.029 A 
ATOM     53  C   UNL A   1      42.909  32.290  30.050  1.00  0.00     0.049 A 
ATOM     54  H   UNL A   1      42.473  30.357  29.331  1.00  0.00     0.167 HD
ATOM     55  C   UNL A   1      45.019  31.570  28.952  1.00  0.00     0.074 A 
ATOM     56  C   UNL A   1      46.374  31.803  28.490  1.00  0.00     0.031 C 
ATOM     57  C   UNL A   1      44.269  32.488  29.611  1.00  0.00     0.034 A 
BRANCH  44  58
ATOM     58  C   UNL A   1      38.478  30.665  30.814  1.00  0.00     0.023 A 
ATOM     59  C   UNL A   1      38.155  30.271  32.129  1.00  0.00     0.012 A 
ATOM     60  C   UNL A   1      37.536  31.389  30.059  1.00  0.00     0.148 A 
ATOM     61  C   UNL A   1      36.903  30.562  32.670  1.00  0.00     0.002 A 
ATOM     62  C   UNL A   1      36.304  31.709  30.619  1.00  0.00     0.091 A 
ATOM     63  F   UNL A   1      37.847  31.729  28.800  1.00  0.00    -0.205 F 
ATOM     64  C   UNL A   1      35.982  31.289  31.919  1.00  0.00     0.022 A 
BRANCH  62  65
ATOM     65  S   UNL A   1      35.083  32.698  29.746  1.00  0.00     0.127 S 
ATOM     66  O   UNL A   1      34.610  31.756  28.733  1.00  0.00    -0.237 OA
ATOM     67  O   UNL A   1      34.111  32.996  30.800  1.00  0.00    -0.237 OA
ATOM     68  O   UNL A   1      35.803  33.859  29.244  1.00  0.00    -0.744 OA
ENDBRANCH  62  65
ENDBRANCH  44  58
BRANCH  45  69
ATOM     69  C   UNL A   1      47.199  28.083  26.629  1.00  0.00     0.023 A 
ATOM     70  C   UNL A   1      48.287  27.635  27.399  1.00  0.00     0.012 A 
ATOM     71  C   UNL A   1      47.307  28.099  25.224  1.00  0.00     0.148 A 
ATOM     72  C   UNL A   1      49.467  27.217  26.782  1.00  0.00     0.002 A 
ATOM     73  C   UNL A   1      48.464  27.630  24.613  1.00  0.00     0.091 A 
ATOM     74  F   UNL A   1      46.264  28.547  24.511  1.00  0.00    -0.205 F 
ATOM     75  C   UNL A   1      49.550  27.202  25.391  1.00  0.00     0.022 A 
BRANCH  73  76
ATOM     76  S   UNL A   1      48.607  27.444  22.832  1.00  0.00     0.127 S 
ATOM     77  O   UNL A   1      48.479  25.998  22.670  1.00  0.00    -0.237 OA
ATOM     78  O   UNL A   1      47.463  28.222  22.355  1.00  0.00    -0.237 OA
ATOM     79  O   UNL A   1      49.903  28.008  22.480  1.00  0.00    -0.744 OA
ENDBRANCH  73  76
ENDBRANCH  45  69
BRANCH  57  80
ATOM     80  C   UNL A   1      44.894  33.833  29.869  1.00  0.00     0.023 A 
ATOM     81  C   UNL A   1      45.639  34.034  31.049  1.00  0.00     0.012 A 
ATOM     82  C   UNL A   1      44.804  34.870  28.922  1.00  0.00     0.148 A 
ATOM     83  C   UNL A   1      46.264  35.257  31.293  1.00  0.00     0.002 A 
ATOM     84  C   UNL A   1      45.467  36.071  29.151  1.00  0.00     0.091 A 
ATOM     85  F   UNL A   1      44.074  34.666  27.816  1.00  0.00    -0.205 F 
ATOM     86  C   UNL A   1      46.187  36.269  30.340  1.00  0.00     0.022 A 
BRANCH  84  87
ATOM     87  S   UNL A   1      45.496  37.397  27.938  1.00  0.00     0.127 S 
ATOM     88  O   UNL A   1      44.080  37.753  27.851  1.00  0.00    -0.237 OA
ATOM     89  O   UNL A   1      46.338  38.400  28.592  1.00  0.00    -0.237 OA
ATOM     90  O   UNL A   1      46.074  36.821  26.732  1.00  0.00    -0.744 OA
ENDBRANCH  84  87
ENDBRANCH  57  80
ENDBRANCH  31  32
ENDBRANCH  24  26
ENDBRANCH  23  24
ENDBRANCH  22  23
ENDBRANCH   1  22
TORSDOF 17
ENDMDL
