MODEL 1
REMARK VINA RESULT:     -12.3      0.000      0.000
REMARK SMILES O=C(OCCOC(=O)[C@@H](Cc1ccncc1)c1ccc(Cl)cc1)c1ccc(-c2c3nc(c(-c4cccc(S(=O)(=O)[O-])c4F)c4ccc([nH]4)c(-c4cccc(S(=O)(=O)[O-])c4F)c4nc(c(-c5cccc(S(=O)(=O)[O-])c5F)c5ccc2[nH]5)C=C4)C=C3)cc1
REMARK SMILES IDX 4 1 3 2 2 3 1 4 24 5 25 6 86 7 26 8 85 9 27 10 28 11 29 12
REMARK SMILES IDX 79 13 30 14 84 15 78 16 80 17 31 18 83 19 77 20 76 21 32 23
REMARK SMILES IDX 64 24 44 25 63 26 45 27 48 28 62 29 81 30 46 31 47 32 61 34
REMARK SMILES IDX 82 35 49 36 33 37 34 38 42 39 35 40 37 41 43 42 36 43 38 44
REMARK SMILES IDX 39 45 40 46 41 47 65 48 66 49 74 50 67 51 69 52 75 53 68 54
REMARK SMILES IDX 70 55 71 56 72 57 73 58 50 59 51 60 59 61 52 62 54 63 60 64
REMARK SMILES IDX 53 65 55 66 56 67 57 68 58 69 5 70 6 71 7 72 8 73 9 74 10 75
REMARK SMILES IDX 11 76 12 77 16 78 13 79 15 80 14 81 17 82 18 83 23 84 19 85
REMARK SMILES IDX 22 86 20 87 21 88
REMARK H PARENT 80 22 48 33
REMARK Flexibility Score: inf
ROOT
ATOM      1  C   UNL A   1      36.910  20.272  24.620  1.00  0.00     0.275 C 
ENDROOT
BRANCH   1   2
ATOM      2  O   UNL A   1      37.682  20.158  25.805  1.00  0.00    -0.458 OA
BRANCH   2   3
ATOM      3  C   UNL A   1      38.991  20.432  25.854  1.00  0.00     0.338 C 
ATOM      4  O   UNL A   1      39.808  19.517  25.762  1.00  0.00    -0.246 OA
BRANCH   3   5
ATOM      5  C   UNL A   1      39.536  21.800  26.095  1.00  0.00     0.060 A 
ATOM      6  C   UNL A   1      38.839  23.449  25.681  1.00  0.00     0.016 A 
ATOM      7  C   UNL A   1      40.861  21.696  27.346  1.00  0.00     0.016 A 
ATOM      8  C   UNL A   1      39.314  24.911  26.698  1.00  0.00     0.010 A 
ATOM      9  C   UNL A   1      41.409  23.136  28.209  1.00  0.00     0.010 A 
ATOM     10  C   UNL A   1      40.705  24.742  27.897  1.00  0.00    -0.014 A 
BRANCH  10  11
ATOM     11  C   UNL A   1      41.484  25.940  28.293  1.00  0.00     0.031 A 
ATOM     12  C   UNL A   1      42.801  26.248  27.622  1.00  0.00     0.074 A 
ATOM     13  C   UNL A   1      40.767  26.866  28.937  1.00  0.00     0.049 A 
ATOM     14  N   UNL A   1      43.392  27.409  27.512  1.00  0.00    -0.248 NA
ATOM     15  C   UNL A   1      43.517  25.173  26.908  1.00  0.00     0.031 C 
ATOM     16  C   UNL A   1      39.472  26.601  29.551  1.00  0.00     0.029 A 
ATOM     17  N   UNL A   1      40.953  28.204  29.097  1.00  0.00    -0.354 N 
ATOM     18  C   UNL A   1      44.544  27.182  26.766  1.00  0.00     0.074 A 
ATOM     19  C   UNL A   1      44.533  25.810  26.350  1.00  0.00     0.031 C 
ATOM     20  C   UNL A   1      38.905  27.762  29.886  1.00  0.00     0.029 A 
ATOM     21  C   UNL A   1      39.877  28.822  29.686  1.00  0.00     0.049 A 
ATOM     22  H   UNL A   1      41.770  28.678  28.820  1.00  0.00     0.167 HD
ATOM     23  C   UNL A   1      45.560  28.034  26.517  1.00  0.00     0.034 A 
ATOM     24  C   UNL A   1      39.731  30.089  30.108  1.00  0.00     0.034 A 
ATOM     25  C   UNL A   1      45.578  29.368  27.035  1.00  0.00     0.049 A 
ATOM     26  C   UNL A   1      40.915  30.978  29.914  1.00  0.00     0.074 A 
ATOM     27  C   UNL A   1      46.595  30.297  26.985  1.00  0.00     0.029 A 
ATOM     28  N   UNL A   1      44.540  29.930  27.763  1.00  0.00    -0.354 N 
ATOM     29  N   UNL A   1      42.009  30.740  29.226  1.00  0.00    -0.248 NA
ATOM     30  C   UNL A   1      40.884  32.274  30.591  1.00  0.00     0.031 C 
ATOM     31  C   UNL A   1      46.206  31.388  27.765  1.00  0.00     0.029 A 
ATOM     32  C   UNL A   1      44.911  31.174  28.221  1.00  0.00     0.049 A 
ATOM     33  H   UNL A   1      43.668  29.502  27.928  1.00  0.00     0.167 HD
ATOM     34  C   UNL A   1      42.821  31.841  29.425  1.00  0.00     0.074 A 
ATOM     35  C   UNL A   1      42.059  32.774  30.236  1.00  0.00     0.031 C 
ATOM     36  C   UNL A   1      44.095  32.053  29.017  1.00  0.00     0.034 A 
BRANCH  23  37
ATOM     37  C   UNL A   1      46.792  27.486  25.850  1.00  0.00     0.023 A 
ATOM     38  C   UNL A   1      46.997  27.590  24.462  1.00  0.00     0.012 A 
ATOM     39  C   UNL A   1      47.771  26.861  26.649  1.00  0.00     0.148 A 
ATOM     40  C   UNL A   1      48.161  27.078  23.882  1.00  0.00     0.002 A 
ATOM     41  C   UNL A   1      48.943  26.395  26.075  1.00  0.00     0.091 A 
ATOM     42  F   UNL A   1      47.527  26.729  27.961  1.00  0.00    -0.205 F 
ATOM     43  C   UNL A   1      49.139  26.494  24.688  1.00  0.00     0.022 A 
BRANCH  41  44
ATOM     44  S   UNL A   1      50.274  25.684  27.046  1.00  0.00     0.127 S 
ATOM     45  O   UNL A   1      51.313  25.499  26.033  1.00  0.00    -0.237 OA
ATOM     46  O   UNL A   1      50.545  26.750  28.010  1.00  0.00    -0.237 OA
ATOM     47  O   UNL A   1      49.748  24.454  27.619  1.00  0.00    -0.744 OA
ENDBRANCH  41  44
ENDBRANCH  23  37
BRANCH  24  48
ATOM     48  C   UNL A   1      38.527  30.487  30.888  1.00  0.00     0.023 A 
ATOM     49  C   UNL A   1      38.457  30.293  32.278  1.00  0.00     0.012 A 
ATOM     50  C   UNL A   1      37.443  31.115  30.237  1.00  0.00     0.148 A 
ATOM     51  C   UNL A   1      37.332  30.715  32.994  1.00  0.00     0.002 A 
ATOM     52  C   UNL A   1      36.387  31.635  30.968  1.00  0.00     0.091 A 
ATOM     53  F   UNL A   1      37.475  31.226  28.901  1.00  0.00    -0.205 F 
ATOM     54  C   UNL A   1      36.311  31.410  32.345  1.00  0.00     0.022 A 
BRANCH  52  55
ATOM     55  S   UNL A   1      35.187  32.728  30.201  1.00  0.00     0.127 S 
ATOM     56  O   UNL A   1      34.292  33.022  31.315  1.00  0.00    -0.237 OA
ATOM     57  O   UNL A   1      36.018  33.849  29.761  1.00  0.00    -0.237 OA
ATOM     58  O   UNL A   1      34.616  31.957  29.101  1.00  0.00    -0.744 OA
ENDBRANCH  52  55
ENDBRANCH  24  48
BRANCH  36  59
ATOM     59  C   UNL A   1      44.711  33.351  29.423  1.00  0.00     0.023 A 
ATOM     60  C   UNL A   1      45.494  33.428  30.590  1.00  0.00     0.012 A 
ATOM     61  C   UNL A   1      44.563  34.472  28.591  1.00  0.00     0.148 A 
ATOM     62  C   UNL A   1      46.099  34.631  30.941  1.00  0.00     0.002 A 
ATOM     63  C   UNL A   1      45.221  35.644  28.912  1.00  0.00     0.091 A 
ATOM     64  F   UNL A   1      43.797  34.357  27.496  1.00  0.00    -0.205 F 
ATOM     65  C   UNL A   1      45.974  35.733  30.095  1.00  0.00     0.022 A 
BRANCH  63  66
ATOM     66  S   UNL A   1      45.203  37.070  27.828  1.00  0.00     0.127 S 
ATOM     67  O   UNL A   1      46.122  37.975  28.516  1.00  0.00    -0.237 OA
ATOM     68  O   UNL A   1      45.715  36.508  26.579  1.00  0.00    -0.237 OA
ATOM     69  O   UNL A   1      43.819  37.521  27.771  1.00  0.00    -0.744 OA
ENDBRANCH  63  66
ENDBRANCH  36  59
ENDBRANCH  10  11
ENDBRANCH   3   5
ENDBRANCH   2   3
ENDBRANCH   1   2
BRANCH   1  70
ATOM     70  C   UNL A   1      36.091  21.572  24.619  1.00  0.00     0.274 C 
BRANCH  70  71
ATOM     71  O   UNL A   1      35.424  21.881  25.869  1.00  0.00    -0.462 OA
BRANCH  71  72
ATOM     72  C   UNL A   1      34.073  22.086  25.936  1.00  0.00     0.313 C 
ATOM     73  O   UNL A   1      33.528  22.636  26.884  1.00  0.00    -0.252 OA
BRANCH  72  74
ATOM     74  C   UNL A   1      33.333  21.646  24.611  1.00  0.00     0.133 C 
BRANCH  74  75
ATOM     75  C   UNL A   1      32.496  19.948  24.552  1.00  0.00     0.055 C 
BRANCH  75  76
ATOM     76  C   UNL A   1      33.218  17.918  24.528  1.00  0.00    -0.044 A 
ATOM     77  C   UNL A   1      32.445  16.602  24.971  1.00  0.00     0.024 A 
ATOM     78  C   UNL A   1      34.600  17.348  24.427  1.00  0.00     0.024 A 
ATOM     79  C   UNL A   1      32.936  15.356  25.375  1.00  0.00     0.111 A 
ATOM     80  C   UNL A   1      35.001  16.046  24.858  1.00  0.00     0.111 A 
ATOM     81  N   UNL A   1      34.227  15.077  25.377  1.00  0.00    -0.265 NA
ENDBRANCH  75  76
ENDBRANCH  74  75
BRANCH  74  82
ATOM     82  C   UNL A   1      32.724  22.862  23.858  1.00  0.00    -0.033 A 
ATOM     83  C   UNL A   1      31.408  23.287  24.123  1.00  0.00     0.006 A 
ATOM     84  C   UNL A   1      33.455  23.599  22.907  1.00  0.00     0.006 A 
ATOM     85  C   UNL A   1      30.890  24.453  23.534  1.00  0.00     0.021 A 
ATOM     86  C   UNL A   1      32.964  24.788  22.362  1.00  0.00     0.021 A 
ATOM     87  C   UNL A   1      31.683  25.215  22.681  1.00  0.00     0.041 A 
ATOM     88  Cl  UNL A   1      31.115  26.708  22.044  1.00  0.00    -0.084 Cl
ENDBRANCH  74  82
ENDBRANCH  72  74
ENDBRANCH  71  72
ENDBRANCH  70  71
ENDBRANCH   1  70
TORSDOF 17
ENDMDL
MODEL 2
REMARK VINA RESULT:     -12.0      1.722      2.219
REMARK SMILES O=C(OCCOC(=O)[C@@H](Cc1ccncc1)c1ccc(Cl)cc1)c1ccc(-c2c3nc(c(-c4cccc(S(=O)(=O)[O-])c4F)c4ccc([nH]4)c(-c4cccc(S(=O)(=O)[O-])c4F)c4nc(c(-c5cccc(S(=O)(=O)[O-])c5F)c5ccc2[nH]5)C=C4)C=C3)cc1
REMARK SMILES IDX 4 1 3 2 2 3 1 4 24 5 25 6 86 7 26 8 85 9 27 10 28 11 29 12
REMARK SMILES IDX 79 13 30 14 84 15 78 16 80 17 31 18 83 19 77 20 76 21 32 23
REMARK SMILES IDX 64 24 44 25 63 26 45 27 48 28 62 29 81 30 46 31 47 32 61 34
REMARK SMILES IDX 82 35 49 36 33 37 34 38 42 39 35 40 37 41 43 42 36 43 38 44
REMARK SMILES IDX 39 45 40 46 41 47 65 48 66 49 74 50 67 51 69 52 75 53 68 54
REMARK SMILES IDX 70 55 71 56 72 57 73 58 50 59 51 60 59 61 52 62 54 63 60 64
REMARK SMILES IDX 53 65 55 66 56 67 57 68 58 69 5 70 6 71 7 72 8 73 9 74 10 75
REMARK SMILES IDX 11 76 12 77 16 78 13 79 15 80 14 81 17 82 18 83 23 84 19 85
REMARK SMILES IDX 22 86 20 87 21 88
REMARK H PARENT 80 22 48 33
REMARK Flexibility Score: inf
ROOT
ATOM      1  C   UNL A   1      35.473  21.407  26.197  1.00  0.00     0.275 C 
ENDROOT
BRANCH   1   2
ATOM      2  O   UNL A   1      36.421  21.268  25.150  1.00  0.00    -0.458 OA
BRANCH   2   3
ATOM      3  C   UNL A   1      37.703  20.945  25.363  1.00  0.00     0.338 C 
ATOM      4  O   UNL A   1      38.119  19.844  25.010  1.00  0.00    -0.246 OA
BRANCH   3   5
ATOM      5  C   UNL A   1      38.664  21.829  26.086  1.00  0.00     0.060 A 
ATOM      6  C   UNL A   1      40.210  21.418  26.991  1.00  0.00     0.016 A 
ATOM      7  C   UNL A   1      38.382  23.556  25.568  1.00  0.00     0.016 A 
ATOM      8  C   UNL A   1      41.536  22.691  27.137  1.00  0.00     0.010 A 
ATOM      9  C   UNL A   1      39.606  24.798  25.850  1.00  0.00     0.010 A 
ATOM     10  C   UNL A   1      41.153  24.428  26.651  1.00  0.00    -0.014 A 
BRANCH  10  11
ATOM     11  C   UNL A   1      41.917  25.546  27.255  1.00  0.00     0.031 A 
ATOM     12  C   UNL A   1      43.274  25.923  26.710  1.00  0.00     0.074 A 
ATOM     13  C   UNL A   1      41.170  26.384  27.981  1.00  0.00     0.049 A 
ATOM     14  N   UNL A   1      43.879  27.080  26.798  1.00  0.00    -0.248 NA
ATOM     15  C   UNL A   1      44.022  24.948  25.894  1.00  0.00     0.031 C 
ATOM     16  C   UNL A   1      39.839  26.056  28.476  1.00  0.00     0.029 A 
ATOM     17  N   UNL A   1      41.357  27.684  28.337  1.00  0.00    -0.354 N 
ATOM     18  C   UNL A   1      45.072  26.940  26.095  1.00  0.00     0.074 A 
ATOM     19  C   UNL A   1      45.075  25.640  25.491  1.00  0.00     0.031 C 
ATOM     20  C   UNL A   1      39.263  27.168  28.937  1.00  0.00     0.029 A 
ATOM     21  C   UNL A   1      40.253  28.230  28.944  1.00  0.00     0.049 A 
ATOM     22  H   UNL A   1      42.193  28.179  28.176  1.00  0.00     0.167 HD
ATOM     23  C   UNL A   1      46.107  27.803  26.027  1.00  0.00     0.034 A 
ATOM     24  C   UNL A   1      40.092  29.428  29.531  1.00  0.00     0.034 A 
ATOM     25  C   UNL A   1      46.104  29.051  26.727  1.00  0.00     0.049 A 
ATOM     26  C   UNL A   1      41.292  30.316  29.531  1.00  0.00     0.074 A 
ATOM     27  C   UNL A   1      47.129  29.962  26.866  1.00  0.00     0.029 A 
ATOM     28  N   UNL A   1      45.029  29.521  27.467  1.00  0.00    -0.354 N 
ATOM     29  N   UNL A   1      42.422  30.160  28.881  1.00  0.00    -0.248 NA
ATOM     30  C   UNL A   1      41.231  31.505  30.381  1.00  0.00     0.031 C 
ATOM     31  C   UNL A   1      46.703  30.938  27.768  1.00  0.00     0.029 A 
ATOM     32  C   UNL A   1      45.382  30.683  28.115  1.00  0.00     0.049 A 
ATOM     33  H   UNL A   1      44.146  29.089  27.520  1.00  0.00     0.167 HD
ATOM     34  C   UNL A   1      43.230  31.209  29.279  1.00  0.00     0.074 A 
ATOM     35  C   UNL A   1      42.429  32.031  30.168  1.00  0.00     0.031 C 
ATOM     36  C   UNL A   1      44.527  31.456  28.978  1.00  0.00     0.034 A 
BRANCH  23  37
ATOM     37  C   UNL A   1      47.372  27.334  25.361  1.00  0.00     0.023 A 
ATOM     38  C   UNL A   1      48.317  26.537  26.034  1.00  0.00     0.012 A 
ATOM     39  C   UNL A   1      47.603  27.697  24.019  1.00  0.00     0.148 A 
ATOM     40  C   UNL A   1      49.474  26.112  25.378  1.00  0.00     0.002 A 
ATOM     41  C   UNL A   1      48.732  27.236  23.360  1.00  0.00     0.091 A 
ATOM     42  F   UNL A   1      46.713  28.499  23.418  1.00  0.00    -0.205 F 
ATOM     43  C   UNL A   1      49.675  26.448  24.038  1.00  0.00     0.022 A 
BRANCH  41  44
ATOM     44  S   UNL A   1      49.036  27.573  21.623  1.00  0.00     0.127 S 
ATOM     45  O   UNL A   1      48.797  29.015  21.556  1.00  0.00    -0.237 OA
ATOM     46  O   UNL A   1      50.438  27.180  21.482  1.00  0.00    -0.237 OA
ATOM     47  O   UNL A   1      48.089  26.758  20.877  1.00  0.00    -0.744 OA
ENDBRANCH  41  44
ENDBRANCH  23  37
BRANCH  24  48
ATOM     48  C   UNL A   1      38.847  29.732  30.289  1.00  0.00     0.023 A 
ATOM     49  C   UNL A   1      38.690  29.339  31.629  1.00  0.00     0.012 A 
ATOM     50  C   UNL A   1      37.812  30.470  29.674  1.00  0.00     0.148 A 
ATOM     51  C   UNL A   1      37.528  29.675  32.332  1.00  0.00     0.002 A 
ATOM     52  C   UNL A   1      36.719  30.899  30.410  1.00  0.00     0.091 A 
ATOM     53  F   UNL A   1      37.927  30.774  28.373  1.00  0.00    -0.205 F 
ATOM     54  C   UNL A   1      36.557  30.478  31.733  1.00  0.00     0.022 A 
BRANCH  52  55
ATOM     55  S   UNL A   1      35.580  32.116  29.743  1.00  0.00     0.127 S 
ATOM     56  O   UNL A   1      34.954  31.377  28.652  1.00  0.00    -0.237 OA
ATOM     57  O   UNL A   1      34.709  32.392  30.885  1.00  0.00    -0.237 OA
ATOM     58  O   UNL A   1      36.416  33.249  29.358  1.00  0.00    -0.744 OA
ENDBRANCH  52  55
ENDBRANCH  24  48
BRANCH  36  59
ATOM     59  C   UNL A   1      45.129  32.674  29.598  1.00  0.00     0.023 A 
ATOM     60  C   UNL A   1      45.840  32.576  30.807  1.00  0.00     0.012 A 
ATOM     61  C   UNL A   1      45.040  33.902  28.923  1.00  0.00     0.148 A 
ATOM     62  C   UNL A   1      46.433  33.708  31.358  1.00  0.00     0.002 A 
ATOM     63  C   UNL A   1      45.687  35.008  29.442  1.00  0.00     0.091 A 
ATOM     64  F   UNL A   1      44.341  33.954  27.780  1.00  0.00    -0.205 F 
ATOM     65  C   UNL A   1      46.368  34.918  30.669  1.00  0.00     0.022 A 
BRANCH  63  66
ATOM     66  S   UNL A   1      45.746  36.570  28.569  1.00  0.00     0.127 S 
ATOM     67  O   UNL A   1      46.376  36.181  27.310  1.00  0.00    -0.237 OA
ATOM     68  O   UNL A   1      44.328  36.914  28.468  1.00  0.00    -0.237 OA
ATOM     69  O   UNL A   1      46.534  37.472  29.401  1.00  0.00    -0.744 OA
ENDBRANCH  63  66
ENDBRANCH  36  59
ENDBRANCH  10  11
ENDBRANCH   3   5
ENDBRANCH   2   3
ENDBRANCH   1   2
BRANCH   1  70
ATOM     70  C   UNL A   1      34.893  22.830  26.231  1.00  0.00     0.274 C 
BRANCH  70  71
ATOM     71  O   UNL A   1      33.728  22.999  27.076  1.00  0.00    -0.462 OA
BRANCH  71  72
ATOM     72  C   UNL A   1      32.460  23.027  26.563  1.00  0.00     0.313 C 
ATOM     73  O   UNL A   1      31.474  23.295  27.236  1.00  0.00    -0.252 OA
BRANCH  72  74
ATOM     74  C   UNL A   1      32.441  22.794  25.000  1.00  0.00     0.133 C 
BRANCH  74  75
ATOM     75  C   UNL A   1      32.071  21.059  24.338  1.00  0.00     0.055 C 
BRANCH  75  76
ATOM     76  C   UNL A   1      32.880  19.100  24.727  1.00  0.00    -0.044 A 
ATOM     77  C   UNL A   1      33.736  18.186  23.749  1.00  0.00     0.024 A 
ATOM     78  C   UNL A   1      32.571  18.081  25.782  1.00  0.00     0.024 A 
ATOM     79  C   UNL A   1      33.937  16.801  23.748  1.00  0.00     0.111 A 
ATOM     80  C   UNL A   1      32.833  16.679  25.690  1.00  0.00     0.111 A 
ATOM     81  N   UNL A   1      33.442  16.019  24.690  1.00  0.00    -0.265 NA
ENDBRANCH  75  76
ENDBRANCH  74  75
BRANCH  74  82
ATOM     82  C   UNL A   1      31.961  24.059  24.234  1.00  0.00    -0.033 A 
ATOM     83  C   UNL A   1      30.612  24.461  24.283  1.00  0.00     0.006 A 
ATOM     84  C   UNL A   1      32.842  24.864  23.486  1.00  0.00     0.006 A 
ATOM     85  C   UNL A   1      30.192  25.665  23.691  1.00  0.00     0.021 A 
ATOM     86  C   UNL A   1      32.440  26.087  22.944  1.00  0.00     0.021 A 
ATOM     87  C   UNL A   1      31.116  26.487  23.052  1.00  0.00     0.041 A 
ATOM     88  Cl  UNL A   1      30.651  28.020  22.426  1.00  0.00    -0.084 Cl
ENDBRANCH  74  82
ENDBRANCH  72  74
ENDBRANCH  71  72
ENDBRANCH  70  71
ENDBRANCH   1  70
TORSDOF 17
ENDMDL
MODEL 3
REMARK VINA RESULT:     -11.9      2.686      4.113
REMARK SMILES O=C(OCCOC(=O)[C@@H](Cc1ccncc1)c1ccc(Cl)cc1)c1ccc(-c2c3nc(c(-c4cccc(S(=O)(=O)[O-])c4F)c4ccc([nH]4)c(-c4cccc(S(=O)(=O)[O-])c4F)c4nc(c(-c5cccc(S(=O)(=O)[O-])c5F)c5ccc2[nH]5)C=C4)C=C3)cc1
REMARK SMILES IDX 4 1 3 2 2 3 1 4 24 5 25 6 86 7 26 8 85 9 27 10 28 11 29 12
REMARK SMILES IDX 79 13 30 14 84 15 78 16 80 17 31 18 83 19 77 20 76 21 32 23
REMARK SMILES IDX 64 24 44 25 63 26 45 27 48 28 62 29 81 30 46 31 47 32 61 34
REMARK SMILES IDX 82 35 49 36 33 37 34 38 42 39 35 40 37 41 43 42 36 43 38 44
REMARK SMILES IDX 39 45 40 46 41 47 65 48 66 49 74 50 67 51 69 52 75 53 68 54
REMARK SMILES IDX 70 55 71 56 72 57 73 58 50 59 51 60 59 61 52 62 54 63 60 64
REMARK SMILES IDX 53 65 55 66 56 67 57 68 58 69 5 70 6 71 7 72 8 73 9 74 10 75
REMARK SMILES IDX 11 76 12 77 16 78 13 79 15 80 14 81 17 82 18 83 23 84 19 85
REMARK SMILES IDX 22 86 20 87 21 88
REMARK H PARENT 80 22 48 33
REMARK Flexibility Score: inf
ROOT
ATOM      1  C   UNL A   1      35.373  21.029  25.598  1.00  0.00     0.275 C 
ENDROOT
BRANCH   1   2
ATOM      2  O   UNL A   1      36.536  21.323  24.841  1.00  0.00    -0.458 OA
BRANCH   2   3
ATOM      3  C   UNL A   1      37.766  20.948  25.214  1.00  0.00     0.338 C 
ATOM      4  O   UNL A   1      38.139  19.795  25.010  1.00  0.00    -0.246 OA
BRANCH   3   5
ATOM      5  C   UNL A   1      38.710  21.841  25.950  1.00  0.00     0.060 A 
ATOM      6  C   UNL A   1      40.255  21.446  26.863  1.00  0.00     0.016 A 
ATOM      7  C   UNL A   1      38.408  23.567  25.439  1.00  0.00     0.016 A 
ATOM      8  C   UNL A   1      41.561  22.737  27.026  1.00  0.00     0.010 A 
ATOM      9  C   UNL A   1      39.611  24.824  25.736  1.00  0.00     0.010 A 
ATOM     10  C   UNL A   1      41.158  24.471  26.546  1.00  0.00    -0.014 A 
BRANCH  10  11
ATOM     11  C   UNL A   1      41.902  25.596  27.162  1.00  0.00     0.031 A 
ATOM     12  C   UNL A   1      43.251  26.005  26.619  1.00  0.00     0.074 A 
ATOM     13  C   UNL A   1      41.141  26.412  27.898  1.00  0.00     0.049 A 
ATOM     14  N   UNL A   1      43.834  27.171  26.720  1.00  0.00    -0.248 NA
ATOM     15  C   UNL A   1      44.016  25.053  25.792  1.00  0.00     0.031 C 
ATOM     16  C   UNL A   1      39.817  26.054  28.392  1.00  0.00     0.029 A 
ATOM     17  N   UNL A   1      41.304  27.711  28.269  1.00  0.00    -0.354 N 
ATOM     18  C   UNL A   1      45.028  27.062  26.014  1.00  0.00     0.074 A 
ATOM     19  C   UNL A   1      45.055  25.769  25.395  1.00  0.00     0.031 C 
ATOM     20  C   UNL A   1      39.221  27.150  28.866  1.00  0.00     0.029 A 
ATOM     21  C   UNL A   1      40.191  28.230  28.884  1.00  0.00     0.049 A 
ATOM     22  H   UNL A   1      42.130  28.223  28.113  1.00  0.00     0.167 HD
ATOM     23  C   UNL A   1      46.047  27.944  25.954  1.00  0.00     0.034 A 
ATOM     24  C   UNL A   1      40.009  29.418  29.484  1.00  0.00     0.034 A 
ATOM     25  C   UNL A   1      46.023  29.184  26.668  1.00  0.00     0.049 A 
ATOM     26  C   UNL A   1      41.193  30.328  29.493  1.00  0.00     0.074 A 
ATOM     27  C   UNL A   1      47.031  30.112  26.817  1.00  0.00     0.029 A 
ATOM     28  N   UNL A   1      44.941  29.626  27.415  1.00  0.00    -0.354 N 
ATOM     29  N   UNL A   1      42.324  30.200  28.840  1.00  0.00    -0.248 NA
ATOM     30  C   UNL A   1      41.111  31.506  30.357  1.00  0.00     0.031 C 
ATOM     31  C   UNL A   1      46.588  31.070  27.730  1.00  0.00     0.029 A 
ATOM     32  C   UNL A   1      45.273  30.787  28.076  1.00  0.00     0.049 A 
ATOM     33  H   UNL A   1      44.065  29.177  27.464  1.00  0.00     0.167 HD
ATOM     34  C   UNL A   1      43.113  31.259  29.249  1.00  0.00     0.074 A 
ATOM     35  C   UNL A   1      42.298  32.056  30.148  1.00  0.00     0.031 C 
ATOM     36  C   UNL A   1      44.405  31.534  28.949  1.00  0.00     0.034 A 
BRANCH  23  37
ATOM     37  C   UNL A   1      47.320  27.506  25.282  1.00  0.00     0.023 A 
ATOM     38  C   UNL A   1      48.327  26.809  25.975  1.00  0.00     0.012 A 
ATOM     39  C   UNL A   1      47.494  27.796  23.913  1.00  0.00     0.148 A 
ATOM     40  C   UNL A   1      49.490  26.409  25.311  1.00  0.00     0.002 A 
ATOM     41  C   UNL A   1      48.630  27.358  23.250  1.00  0.00     0.091 A 
ATOM     42  F   UNL A   1      46.544  28.506  23.290  1.00  0.00    -0.205 F 
ATOM     43  C   UNL A   1      49.635  26.670  23.948  1.00  0.00     0.022 A 
BRANCH  41  44
ATOM     44  S   UNL A   1      48.869  27.601  21.488  1.00  0.00     0.127 S 
ATOM     45  O   UNL A   1      49.426  28.953  21.448  1.00  0.00    -0.237 OA
ATOM     46  O   UNL A   1      49.821  26.539  21.164  1.00  0.00    -0.237 OA
ATOM     47  O   UNL A   1      47.556  27.459  20.876  1.00  0.00    -0.744 OA
ENDBRANCH  41  44
ENDBRANCH  23  37
BRANCH  24  48
ATOM     48  C   UNL A   1      38.760  29.690  30.248  1.00  0.00     0.023 A 
ATOM     49  C   UNL A   1      38.593  29.237  31.567  1.00  0.00     0.012 A 
ATOM     50  C   UNL A   1      37.730  30.458  29.661  1.00  0.00     0.148 A 
ATOM     51  C   UNL A   1      37.427  29.542  32.277  1.00  0.00     0.002 A 
ATOM     52  C   UNL A   1      36.634  30.855  30.408  1.00  0.00     0.091 A 
ATOM     53  F   UNL A   1      37.854  30.821  28.375  1.00  0.00    -0.205 F 
ATOM     54  C   UNL A   1      36.462  30.374  31.709  1.00  0.00     0.022 A 
BRANCH  52  55
ATOM     55  S   UNL A   1      35.502  32.105  29.790  1.00  0.00     0.127 S 
ATOM     56  O   UNL A   1      34.641  32.330  30.945  1.00  0.00    -0.237 OA
ATOM     57  O   UNL A   1      36.402  33.211  29.463  1.00  0.00    -0.237 OA
ATOM     58  O   UNL A   1      34.870  31.502  28.621  1.00  0.00    -0.744 OA
ENDBRANCH  52  55
ENDBRANCH  24  48
BRANCH  36  59
ATOM     59  C   UNL A   1      44.985  32.756  29.581  1.00  0.00     0.023 A 
ATOM     60  C   UNL A   1      45.653  32.665  30.816  1.00  0.00     0.012 A 
ATOM     61  C   UNL A   1      44.921  33.980  28.896  1.00  0.00     0.148 A 
ATOM     62  C   UNL A   1      46.226  33.800  31.380  1.00  0.00     0.002 A 
ATOM     63  C   UNL A   1      45.550  35.088  29.431  1.00  0.00     0.091 A 
ATOM     64  F   UNL A   1      44.263  34.024  27.728  1.00  0.00    -0.205 F 
ATOM     65  C   UNL A   1      46.186  35.007  30.681  1.00  0.00     0.022 A 
BRANCH  63  66
ATOM     66  S   UNL A   1      45.640  36.645  28.550  1.00  0.00     0.127 S 
ATOM     67  O   UNL A   1      44.226  36.976  28.390  1.00  0.00    -0.237 OA
ATOM     68  O   UNL A   1      46.365  37.488  29.499  1.00  0.00    -0.237 OA
ATOM     69  O   UNL A   1      46.355  36.370  27.310  1.00  0.00    -0.744 OA
ENDBRANCH  63  66
ENDBRANCH  36  59
ENDBRANCH  10  11
ENDBRANCH   3   5
ENDBRANCH   2   3
ENDBRANCH   1   2
BRANCH   1  70
ATOM     70  C   UNL A   1      35.128  22.101  26.672  1.00  0.00     0.274 C 
BRANCH  70  71
ATOM     71  O   UNL A   1      34.066  23.040  26.372  1.00  0.00    -0.462 OA
BRANCH  71  72
ATOM     72  C   UNL A   1      32.788  22.855  26.826  1.00  0.00     0.313 C 
ATOM     73  O   UNL A   1      32.507  22.772  28.013  1.00  0.00    -0.252 OA
BRANCH  72  74
ATOM     74  C   UNL A   1      31.727  22.886  25.655  1.00  0.00     0.133 C 
BRANCH  74  75
ATOM     75  C   UNL A   1      30.980  24.549  25.141  1.00  0.00     0.055 C 
BRANCH  75  76
ATOM     76  C   UNL A   1      31.602  26.602  25.347  1.00  0.00    -0.044 A 
ATOM     77  C   UNL A   1      32.133  27.333  26.654  1.00  0.00     0.024 A 
ATOM     78  C   UNL A   1      31.380  27.806  24.484  1.00  0.00     0.024 A 
ATOM     79  C   UNL A   1      32.159  28.693  26.983  1.00  0.00     0.111 A 
ATOM     80  C   UNL A   1      31.445  29.167  24.916  1.00  0.00     0.111 A 
ATOM     81  N   UNL A   1      31.763  29.628  26.138  1.00  0.00    -0.265 NA
ENDBRANCH  75  76
ENDBRANCH  74  75
BRANCH  74  82
ATOM     82  C   UNL A   1      31.995  21.773  24.603  1.00  0.00    -0.033 A 
ATOM     83  C   UNL A   1      32.146  20.430  24.999  1.00  0.00     0.006 A 
ATOM     84  C   UNL A   1      32.076  22.046  23.224  1.00  0.00     0.006 A 
ATOM     85  C   UNL A   1      32.272  19.403  24.048  1.00  0.00     0.021 A 
ATOM     86  C   UNL A   1      32.146  21.024  22.275  1.00  0.00     0.021 A 
ATOM     87  C   UNL A   1      32.239  19.703  22.689  1.00  0.00     0.041 A 
ATOM     88  Cl  UNL A   1      32.270  18.455  21.507  1.00  0.00    -0.084 Cl
ENDBRANCH  74  82
ENDBRANCH  72  74
ENDBRANCH  71  72
ENDBRANCH  70  71
ENDBRANCH   1  70
TORSDOF 17
ENDMDL
