MODEL 1
REMARK VINA RESULT:     -10.5      0.000      0.000
REMARK SMILES CC(C)[C@@H](CC(=O)OCCOC(=O)c1ccc(-c2c3nc(c(-c4cccc(S(=O)(=O)[O-])c4F)c4ccc([nH]4)c(-c4cccc(S(=O)(=O)[O-])c4F)c4nc(c(-c5cccc(S(=O)(=O)[O-])c5F)c5ccc2[nH]5)C=C4)C=C3)cc1)NC(=O)OCc1ccccc1
REMARK SMILES IDX 9 1 8 2 6 3 7 4 5 5 4 6 2 7 1 8 3 9 77 10 78 11 79 13 80 14
REMARK SMILES IDX 81 15 82 16 83 17 87 18 84 19 86 20 85 21 10 22 11 23 12 24
REMARK SMILES IDX 13 25 14 26 15 27 76 28 16 29 75 30 17 31 18 32 19 33 69 34
REMARK SMILES IDX 20 35 74 36 68 37 70 38 21 39 73 40 67 41 66 42 22 44 54 45
REMARK SMILES IDX 34 46 53 47 35 48 38 49 52 50 71 51 36 52 37 53 51 55 72 56
REMARK SMILES IDX 39 57 23 58 24 59 32 60 25 61 27 62 33 63 26 64 28 65 29 66
REMARK SMILES IDX 30 67 31 68 55 69 56 70 64 71 57 72 59 73 65 74 58 75 60 76
REMARK SMILES IDX 61 77 62 78 63 79 40 80 41 81 49 82 42 83 44 84 50 85 43 86
REMARK SMILES IDX 45 87 46 88 47 89 48 90
REMARK H PARENT 77 12 70 43 38 54
REMARK Flexibility Score: inf
ROOT
ATOM      1  C   UNL A   1      35.819  20.583  24.772  1.00  0.00     0.274 C 
ENDROOT
BRANCH   1   2
ATOM      2  O   UNL A   1      35.558  22.002  24.820  1.00  0.00    -0.462 OA
BRANCH   2   3
ATOM      3  C   UNL A   1      35.294  22.613  23.642  1.00  0.00     0.308 C 
ATOM      4  O   UNL A   1      36.147  22.894  22.805  1.00  0.00    -0.252 OA
BRANCH   3   5
ATOM      5  C   UNL A   1      33.841  22.987  23.438  1.00  0.00     0.148 C 
BRANCH   5   6
ATOM      6  C   UNL A   1      33.226  24.151  24.228  1.00  0.00     0.099 C 
BRANCH   6   7
ATOM      7  C   UNL A   1      34.071  25.454  24.273  1.00  0.00     0.006 C 
ATOM      8  C   UNL A   1      33.630  26.470  23.216  1.00  0.00     0.009 C 
ATOM      9  C   UNL A   1      34.006  26.108  25.660  1.00  0.00     0.009 C 
ENDBRANCH   6   7
BRANCH   6  10
ATOM     10  N   UNL A   1      32.824  23.754  25.576  1.00  0.00    -0.318 N 
ATOM     11  C   UNL A   1      31.628  23.971  26.192  1.00  0.00     0.407 C 
ATOM     12  H   UNL A   1      33.501  23.270  26.104  1.00  0.00     0.167 HD
ATOM     13  O   UNL A   1      31.498  23.829  27.409  1.00  0.00    -0.225 OA
BRANCH  11  14
ATOM     14  O   UNL A   1      30.647  24.373  25.352  1.00  0.00    -0.445 OA
BRANCH  14  15
ATOM     15  C   UNL A   1      29.970  25.575  25.750  1.00  0.00     0.270 C 
BRANCH  15  16
ATOM     16  C   UNL A   1      30.321  26.783  24.914  1.00  0.00    -0.011 A 
ATOM     17  C   UNL A   1      31.029  27.864  25.456  1.00  0.00     0.007 A 
ATOM     18  C   UNL A   1      29.889  26.857  23.580  1.00  0.00     0.007 A 
ATOM     19  C   UNL A   1      31.302  28.991  24.680  1.00  0.00     0.000 A 
ATOM     20  C   UNL A   1      30.160  27.987  22.806  1.00  0.00     0.000 A 
ATOM     21  C   UNL A   1      30.858  29.055  23.361  1.00  0.00     0.000 A 
ENDBRANCH  15  16
ENDBRANCH  14  15
ENDBRANCH  11  14
ENDBRANCH   6  10
ENDBRANCH   5   6
ENDBRANCH   3   5
ENDBRANCH   2   3
ENDBRANCH   1   2
BRANCH   1  22
ATOM     22  C   UNL A   1      37.301  20.282  25.000  1.00  0.00     0.275 C 
BRANCH  22  23
ATOM     23  O   UNL A   1      38.022  21.470  25.367  1.00  0.00    -0.458 OA
BRANCH  23  24
ATOM     24  C   UNL A   1      39.116  21.244  26.132  1.00  0.00     0.338 C 
ATOM     25  O   UNL A   1      39.662  20.168  26.316  1.00  0.00    -0.246 OA
BRANCH  24  26
ATOM     26  C   UNL A   1      39.666  22.519  26.608  1.00  0.00     0.060 A 
ATOM     27  C   UNL A   1      39.094  23.705  26.145  1.00  0.00     0.016 A 
ATOM     28  C   UNL A   1      40.793  22.549  27.425  1.00  0.00     0.016 A 
ATOM     29  C   UNL A   1      39.660  24.932  26.471  1.00  0.00     0.010 A 
ATOM     30  C   UNL A   1      41.336  23.787  27.788  1.00  0.00     0.010 A 
ATOM     31  C   UNL A   1      40.786  24.986  27.301  1.00  0.00    -0.014 A 
BRANCH  31  32
ATOM     32  C   UNL A   1      41.389  26.296  27.651  1.00  0.00     0.031 A 
ATOM     33  C   UNL A   1      42.817  26.592  27.285  1.00  0.00     0.074 A 
ATOM     34  C   UNL A   1      40.661  27.204  28.329  1.00  0.00     0.049 A 
ATOM     35  N   UNL A   1      43.542  27.640  27.578  1.00  0.00    -0.248 NA
ATOM     36  C   UNL A   1      43.526  25.575  26.491  1.00  0.00     0.031 C 
ATOM     37  C   UNL A   1      39.268  27.028  28.747  1.00  0.00     0.029 A 
ATOM     38  N   UNL A   1      41.001  28.441  28.818  1.00  0.00    -0.354 N 
ATOM     39  C   UNL A   1      44.796  27.399  27.033  1.00  0.00     0.074 A 
ATOM     40  C   UNL A   1      44.742  26.095  26.409  1.00  0.00     0.031 C 
ATOM     41  C   UNL A   1      38.882  28.102  29.453  1.00  0.00     0.029 A 
ATOM     42  C   UNL A   1      40.010  29.020  29.577  1.00  0.00     0.049 A 
ATOM     43  H   UNL A   1      41.868  28.872  28.642  1.00  0.00     0.167 HD
ATOM     44  C   UNL A   1      45.886  28.202  27.030  1.00  0.00     0.034 A 
ATOM     45  C   UNL A   1      40.019  30.141  30.324  1.00  0.00     0.034 A 
ATOM     46  C   UNL A   1      45.932  29.502  27.643  1.00  0.00     0.049 A 
ATOM     47  C   UNL A   1      41.264  30.985  30.355  1.00  0.00     0.074 A 
ATOM     48  C   UNL A   1      46.977  30.410  27.657  1.00  0.00     0.029 A 
ATOM     49  N   UNL A   1      44.898  30.073  28.369  1.00  0.00    -0.354 N 
ATOM     50  N   UNL A   1      42.400  30.804  29.727  1.00  0.00    -0.248 NA
ATOM     51  C   UNL A   1      41.219  32.205  31.175  1.00  0.00     0.031 C 
ATOM     52  C   UNL A   1      46.585  31.516  28.420  1.00  0.00     0.029 A 
ATOM     53  C   UNL A   1      45.285  31.311  28.854  1.00  0.00     0.049 A 
ATOM     54  H   UNL A   1      44.018  29.658  28.517  1.00  0.00     0.167 HD
ATOM     55  C   UNL A   1      43.193  31.900  30.046  1.00  0.00     0.074 A 
ATOM     56  C   UNL A   1      42.397  32.751  30.909  1.00  0.00     0.031 C 
ATOM     57  C   UNL A   1      44.466  32.171  29.671  1.00  0.00     0.034 A 
BRANCH  44  58
ATOM     58  C   UNL A   1      47.115  27.710  26.311  1.00  0.00     0.023 A 
ATOM     59  C   UNL A   1      48.089  26.979  27.020  1.00  0.00     0.012 A 
ATOM     60  C   UNL A   1      47.278  27.917  24.927  1.00  0.00     0.148 A 
ATOM     61  C   UNL A   1      49.225  26.493  26.374  1.00  0.00     0.002 A 
ATOM     62  C   UNL A   1      48.392  27.393  24.281  1.00  0.00     0.091 A 
ATOM     63  F   UNL A   1      46.349  28.627  24.273  1.00  0.00    -0.205 F 
ATOM     64  C   UNL A   1      49.371  26.692  25.004  1.00  0.00     0.022 A 
BRANCH  62  65
ATOM     65  S   UNL A   1      48.633  27.526  22.505  1.00  0.00     0.127 S 
ATOM     66  O   UNL A   1      48.644  26.120  22.103  1.00  0.00    -0.237 OA
ATOM     67  O   UNL A   1      47.443  28.269  22.089  1.00  0.00    -0.237 OA
ATOM     68  O   UNL A   1      49.890  28.239  22.323  1.00  0.00    -0.744 OA
ENDBRANCH  62  65
ENDBRANCH  44  58
BRANCH  45  69
ATOM     69  C   UNL A   1      38.804  30.535  31.091  1.00  0.00     0.023 A 
ATOM     70  C   UNL A   1      38.585  29.994  32.373  1.00  0.00     0.012 A 
ATOM     71  C   UNL A   1      37.879  31.462  30.570  1.00  0.00     0.148 A 
ATOM     72  C   UNL A   1      37.453  30.348  33.109  1.00  0.00     0.002 A 
ATOM     73  C   UNL A   1      36.786  31.854  31.332  1.00  0.00     0.091 A 
ATOM     74  F   UNL A   1      38.097  31.953  29.342  1.00  0.00    -0.205 F 
ATOM     75  C   UNL A   1      36.561  31.285  32.594  1.00  0.00     0.022 A 
BRANCH  73  76
ATOM     76  S   UNL A   1      35.657  33.147  30.804  1.00  0.00     0.127 S 
ATOM     77  O   UNL A   1      34.360  32.571  31.148  1.00  0.00    -0.237 OA
ATOM     78  O   UNL A   1      36.072  34.273  31.644  1.00  0.00    -0.237 OA
ATOM     79  O   UNL A   1      35.911  33.335  29.383  1.00  0.00    -0.744 OA
ENDBRANCH  73  76
ENDBRANCH  45  69
BRANCH  57  80
ATOM     80  C   UNL A   1      45.077  33.461  30.155  1.00  0.00     0.023 A 
ATOM     81  C   UNL A   1      45.837  33.475  31.341  1.00  0.00     0.012 A 
ATOM     82  C   UNL A   1      44.957  34.641  29.396  1.00  0.00     0.148 A 
ATOM     83  C   UNL A   1      46.442  34.652  31.781  1.00  0.00     0.002 A 
ATOM     84  C   UNL A   1      45.603  35.798  29.814  1.00  0.00     0.091 A 
ATOM     85  F   UNL A   1      44.212  34.612  28.281  1.00  0.00    -0.205 F 
ATOM     86  C   UNL A   1      46.336  35.809  31.012  1.00  0.00     0.022 A 
BRANCH  84  87
ATOM     87  S   UNL A   1      45.604  37.306  28.836  1.00  0.00     0.127 S 
ATOM     88  O   UNL A   1      44.228  37.771  29.005  1.00  0.00    -0.237 OA
ATOM     89  O   UNL A   1      46.611  38.118  29.520  1.00  0.00    -0.237 OA
ATOM     90  O   UNL A   1      45.967  36.907  27.484  1.00  0.00    -0.744 OA
ENDBRANCH  84  87
ENDBRANCH  57  80
ENDBRANCH  31  32
ENDBRANCH  24  26
ENDBRANCH  23  24
ENDBRANCH  22  23
ENDBRANCH   1  22
TORSDOF 20
ENDMDL
MODEL 2
REMARK VINA RESULT:     -10.3      4.842      9.470
REMARK SMILES CC(C)[C@@H](CC(=O)OCCOC(=O)c1ccc(-c2c3nc(c(-c4cccc(S(=O)(=O)[O-])c4F)c4ccc([nH]4)c(-c4cccc(S(=O)(=O)[O-])c4F)c4nc(c(-c5cccc(S(=O)(=O)[O-])c5F)c5ccc2[nH]5)C=C4)C=C3)cc1)NC(=O)OCc1ccccc1
REMARK SMILES IDX 9 1 8 2 6 3 7 4 5 5 4 6 2 7 1 8 3 9 77 10 78 11 79 13 80 14
REMARK SMILES IDX 81 15 82 16 83 17 87 18 84 19 86 20 85 21 10 22 11 23 12 24
REMARK SMILES IDX 13 25 14 26 15 27 76 28 16 29 75 30 17 31 18 32 19 33 69 34
REMARK SMILES IDX 20 35 74 36 68 37 70 38 21 39 73 40 67 41 66 42 22 44 54 45
REMARK SMILES IDX 34 46 53 47 35 48 38 49 52 50 71 51 36 52 37 53 51 55 72 56
REMARK SMILES IDX 39 57 23 58 24 59 32 60 25 61 27 62 33 63 26 64 28 65 29 66
REMARK SMILES IDX 30 67 31 68 55 69 56 70 64 71 57 72 59 73 65 74 58 75 60 76
REMARK SMILES IDX 61 77 62 78 63 79 40 80 41 81 49 82 42 83 44 84 50 85 43 86
REMARK SMILES IDX 45 87 46 88 47 89 48 90
REMARK H PARENT 77 12 70 43 38 54
REMARK Flexibility Score: inf
ROOT
ATOM      1  C   UNL A   1      31.734  29.050  26.368  1.00  0.00     0.274 C 
ENDROOT
BRANCH   1   2
ATOM      2  O   UNL A   1      32.496  27.837  26.196  1.00  0.00    -0.462 OA
BRANCH   2   3
ATOM      3  C   UNL A   1      31.819  26.670  26.306  1.00  0.00     0.308 C 
ATOM      4  O   UNL A   1      30.692  26.570  26.780  1.00  0.00    -0.252 OA
BRANCH   3   5
ATOM      5  C   UNL A   1      32.586  25.451  25.838  1.00  0.00     0.148 C 
BRANCH   5   6
ATOM      6  C   UNL A   1      32.635  25.098  24.344  1.00  0.00     0.099 C 
BRANCH   6   7
ATOM      7  C   UNL A   1      33.001  23.624  24.013  1.00  0.00     0.006 C 
ATOM      8  C   UNL A   1      34.096  23.522  22.949  1.00  0.00     0.009 C 
ATOM      9  C   UNL A   1      33.448  22.869  25.272  1.00  0.00     0.009 C 
ENDBRANCH   6   7
BRANCH   6  10
ATOM     10  N   UNL A   1      33.479  26.019  23.586  1.00  0.00    -0.318 N 
ATOM     11  C   UNL A   1      33.086  27.009  22.735  1.00  0.00     0.407 C 
ATOM     12  H   UNL A   1      34.451  25.911  23.703  1.00  0.00     0.167 HD
ATOM     13  O   UNL A   1      33.880  27.537  21.956  1.00  0.00    -0.225 OA
BRANCH  11  14
ATOM     14  O   UNL A   1      31.771  27.310  22.819  1.00  0.00    -0.445 OA
BRANCH  14  15
ATOM     15  C   UNL A   1      31.468  28.711  22.748  1.00  0.00     0.270 C 
BRANCH  15  16
ATOM     16  C   UNL A   1      30.002  29.032  22.920  1.00  0.00    -0.011 A 
ATOM     17  C   UNL A   1      29.044  28.018  23.046  1.00  0.00     0.007 A 
ATOM     18  C   UNL A   1      29.574  30.370  22.900  1.00  0.00     0.007 A 
ATOM     19  C   UNL A   1      27.689  28.335  23.156  1.00  0.00     0.000 A 
ATOM     20  C   UNL A   1      28.218  30.685  23.007  1.00  0.00     0.000 A 
ATOM     21  C   UNL A   1      27.278  29.666  23.126  1.00  0.00     0.000 A 
ENDBRANCH  15  16
ENDBRANCH  14  15
ENDBRANCH  11  14
ENDBRANCH   6  10
ENDBRANCH   5   6
ENDBRANCH   3   5
ENDBRANCH   2   3
ENDBRANCH   1   2
BRANCH   1  22
ATOM     22  C   UNL A   1      32.611  30.190  26.889  1.00  0.00     0.275 C 
BRANCH  22  23
ATOM     23  O   UNL A   1      33.918  29.715  27.253  1.00  0.00    -0.458 OA
BRANCH  23  24
ATOM     24  C   UNL A   1      34.751  30.675  27.716  1.00  0.00     0.338 C 
ATOM     25  O   UNL A   1      34.468  31.845  27.918  1.00  0.00    -0.246 OA
BRANCH  24  26
ATOM     26  C   UNL A   1      36.039  30.081  28.095  1.00  0.00     0.060 A 
ATOM     27  C   UNL A   1      36.157  29.500  29.359  1.00  0.00     0.016 A 
ATOM     28  C   UNL A   1      37.145  30.178  27.255  1.00  0.00     0.016 A 
ATOM     29  C   UNL A   1      37.389  29.037  29.806  1.00  0.00     0.010 A 
ATOM     30  C   UNL A   1      38.375  29.672  27.689  1.00  0.00     0.010 A 
ATOM     31  C   UNL A   1      38.512  29.114  28.974  1.00  0.00    -0.014 A 
BRANCH  31  32
ATOM     32  C   UNL A   1      39.827  28.618  29.450  1.00  0.00     0.031 A 
ATOM     33  C   UNL A   1      40.572  29.363  30.521  1.00  0.00     0.074 A 
ATOM     34  C   UNL A   1      40.363  27.515  28.893  1.00  0.00     0.049 A 
ATOM     35  N   UNL A   1      41.766  29.134  31.005  1.00  0.00    -0.248 NA
ATOM     36  C   UNL A   1      39.892  30.522  31.123  1.00  0.00     0.031 C 
ATOM     37  C   UNL A   1      39.738  26.711  27.839  1.00  0.00     0.029 A 
ATOM     38  N   UNL A   1      41.571  26.900  29.108  1.00  0.00    -0.354 N 
ATOM     39  C   UNL A   1      41.992  30.132  31.944  1.00  0.00     0.074 A 
ATOM     40  C   UNL A   1      40.822  30.983  31.948  1.00  0.00     0.031 C 
ATOM     41  C   UNL A   1      40.578  25.728  27.480  1.00  0.00     0.029 A 
ATOM     42  C   UNL A   1      41.816  25.858  28.242  1.00  0.00     0.049 A 
ATOM     43  H   UNL A   1      42.201  27.176  29.812  1.00  0.00     0.167 HD
ATOM     44  C   UNL A   1      43.067  30.309  32.749  1.00  0.00     0.034 A 
ATOM     45  C   UNL A   1      42.925  25.118  28.052  1.00  0.00     0.034 A 
ATOM     46  C   UNL A   1      44.224  29.455  32.749  1.00  0.00     0.049 A 
ATOM     47  C   UNL A   1      44.129  25.374  28.916  1.00  0.00     0.074 A 
ATOM     48  C   UNL A   1      45.346  29.526  33.556  1.00  0.00     0.029 A 
ATOM     49  N   UNL A   1      44.420  28.386  31.887  1.00  0.00    -0.354 N 
ATOM     50  N   UNL A   1      44.277  26.241  29.889  1.00  0.00    -0.248 NA
ATOM     51  C   UNL A   1      45.310  24.531  28.679  1.00  0.00     0.031 C 
ATOM     52  C   UNL A   1      46.234  28.520  33.160  1.00  0.00     0.029 A 
ATOM     53  C   UNL A   1      45.653  27.803  32.128  1.00  0.00     0.049 A 
ATOM     54  H   UNL A   1      43.777  28.087  31.204  1.00  0.00     0.167 HD
ATOM     55  C   UNL A   1      45.551  26.026  30.401  1.00  0.00     0.074 A 
ATOM     56  C   UNL A   1      46.126  24.933  29.643  1.00  0.00     0.031 C 
ATOM     57  C   UNL A   1      46.192  26.683  31.399  1.00  0.00     0.034 A 
BRANCH  44  58
ATOM     58  C   UNL A   1      43.028  31.456  33.725  1.00  0.00     0.023 A 
ATOM     59  C   UNL A   1      43.558  32.707  33.348  1.00  0.00     0.012 A 
ATOM     60  C   UNL A   1      42.417  31.315  34.987  1.00  0.00     0.148 A 
ATOM     61  C   UNL A   1      43.515  33.791  34.224  1.00  0.00     0.002 A 
ATOM     62  C   UNL A   1      42.340  32.412  35.838  1.00  0.00     0.091 A 
ATOM     63  F   UNL A   1      41.933  30.114  35.332  1.00  0.00    -0.205 F 
ATOM     64  C   UNL A   1      42.899  33.645  35.464  1.00  0.00     0.022 A 
BRANCH  62  65
ATOM     65  S   UNL A   1      41.497  32.349  37.423  1.00  0.00     0.127 S 
ATOM     66  O   UNL A   1      41.518  33.755  37.825  1.00  0.00    -0.237 OA
ATOM     67  O   UNL A   1      40.175  31.844  37.048  1.00  0.00    -0.237 OA
ATOM     68  O   UNL A   1      42.277  31.447  38.258  1.00  0.00    -0.744 OA
ENDBRANCH  62  65
ENDBRANCH  44  58
BRANCH  45  69
ATOM     69  C   UNL A   1      42.941  24.055  27.008  1.00  0.00     0.023 A 
ATOM     70  C   UNL A   1      43.639  24.272  25.804  1.00  0.00     0.012 A 
ATOM     71  C   UNL A   1      42.292  22.820  27.212  1.00  0.00     0.148 A 
ATOM     72  C   UNL A   1      43.667  23.291  24.812  1.00  0.00     0.002 A 
ATOM     73  C   UNL A   1      42.373  21.826  26.245  1.00  0.00     0.091 A 
ATOM     74  F   UNL A   1      41.620  22.638  28.358  1.00  0.00    -0.205 F 
ATOM     75  C   UNL A   1      43.044  22.066  25.037  1.00  0.00     0.022 A 
BRANCH  73  76
ATOM     76  S   UNL A   1      41.712  20.176  26.501  1.00  0.00     0.127 S 
ATOM     77  O   UNL A   1      42.275  19.448  25.366  1.00  0.00    -0.237 OA
ATOM     78  O   UNL A   1      42.282  19.821  27.803  1.00  0.00    -0.237 OA
ATOM     79  O   UNL A   1      40.264  20.327  26.503  1.00  0.00    -0.744 OA
ENDBRANCH  73  76
ENDBRANCH  45  69
BRANCH  57  80
ATOM     80  C   UNL A   1      47.578  26.216  31.763  1.00  0.00     0.023 A 
ATOM     81  C   UNL A   1      48.699  26.777  31.120  1.00  0.00     0.012 A 
ATOM     82  C   UNL A   1      47.771  25.275  32.793  1.00  0.00     0.148 A 
ATOM     83  C   UNL A   1      49.989  26.385  31.474  1.00  0.00     0.002 A 
ATOM     84  C   UNL A   1      49.060  24.925  33.175  1.00  0.00     0.091 A 
ATOM     85  F   UNL A   1      46.691  24.737  33.378  1.00  0.00    -0.205 F 
ATOM     86  C   UNL A   1      50.170  25.470  32.509  1.00  0.00     0.022 A 
BRANCH  84  87
ATOM     87  S   UNL A   1      49.390  23.832  34.562  1.00  0.00     0.127 S 
ATOM     88  O   UNL A   1      50.849  23.743  34.531  1.00  0.00    -0.237 OA
ATOM     89  O   UNL A   1      48.848  24.590  35.690  1.00  0.00    -0.237 OA
ATOM     90  O   UNL A   1      48.682  22.593  34.273  1.00  0.00    -0.744 OA
ENDBRANCH  84  87
ENDBRANCH  57  80
ENDBRANCH  31  32
ENDBRANCH  24  26
ENDBRANCH  23  24
ENDBRANCH  22  23
ENDBRANCH   1  22
TORSDOF 20
ENDMDL
MODEL 3
REMARK VINA RESULT:     -10.3      1.585      7.839
REMARK SMILES CC(C)[C@@H](CC(=O)OCCOC(=O)c1ccc(-c2c3nc(c(-c4cccc(S(=O)(=O)[O-])c4F)c4ccc([nH]4)c(-c4cccc(S(=O)(=O)[O-])c4F)c4nc(c(-c5cccc(S(=O)(=O)[O-])c5F)c5ccc2[nH]5)C=C4)C=C3)cc1)NC(=O)OCc1ccccc1
REMARK SMILES IDX 9 1 8 2 6 3 7 4 5 5 4 6 2 7 1 8 3 9 77 10 78 11 79 13 80 14
REMARK SMILES IDX 81 15 82 16 83 17 87 18 84 19 86 20 85 21 10 22 11 23 12 24
REMARK SMILES IDX 13 25 14 26 15 27 76 28 16 29 75 30 17 31 18 32 19 33 69 34
REMARK SMILES IDX 20 35 74 36 68 37 70 38 21 39 73 40 67 41 66 42 22 44 54 45
REMARK SMILES IDX 34 46 53 47 35 48 38 49 52 50 71 51 36 52 37 53 51 55 72 56
REMARK SMILES IDX 39 57 23 58 24 59 32 60 25 61 27 62 33 63 26 64 28 65 29 66
REMARK SMILES IDX 30 67 31 68 55 69 56 70 64 71 57 72 59 73 65 74 58 75 60 76
REMARK SMILES IDX 61 77 62 78 63 79 40 80 41 81 49 82 42 83 44 84 50 85 43 86
REMARK SMILES IDX 45 87 46 88 47 89 48 90
REMARK H PARENT 77 12 70 43 38 54
REMARK Flexibility Score: inf
ROOT
ATOM      1  C   UNL A   1      34.844  21.235  24.744  1.00  0.00     0.274 C 
ENDROOT
BRANCH   1   2
ATOM      2  O   UNL A   1      34.095  21.306  25.976  1.00  0.00    -0.462 OA
BRANCH   2   3
ATOM      3  C   UNL A   1      33.511  22.492  26.267  1.00  0.00     0.308 C 
ATOM      4  O   UNL A   1      32.532  22.618  26.995  1.00  0.00    -0.252 OA
BRANCH   3   5
ATOM      5  C   UNL A   1      34.132  23.686  25.572  1.00  0.00     0.148 C 
BRANCH   5   6
ATOM      6  C   UNL A   1      33.239  24.809  25.024  1.00  0.00     0.099 C 
BRANCH   6   7
ATOM      7  C   UNL A   1      33.987  26.041  24.445  1.00  0.00     0.006 C 
ATOM      8  C   UNL A   1      33.625  26.307  22.981  1.00  0.00     0.009 C 
ATOM      9  C   UNL A   1      33.701  27.301  25.273  1.00  0.00     0.009 C 
ENDBRANCH   6   7
BRANCH   6  10
ATOM     10  N   UNL A   1      32.226  25.230  25.989  1.00  0.00    -0.318 N 
ATOM     11  C   UNL A   1      30.993  25.756  25.735  1.00  0.00     0.407 C 
ATOM     12  H   UNL A   1      32.462  25.123  26.939  1.00  0.00     0.167 HD
ATOM     13  O   UNL A   1      30.342  26.317  26.616  1.00  0.00    -0.225 OA
BRANCH  11  14
ATOM     14  O   UNL A   1      30.599  25.623  24.448  1.00  0.00    -0.445 OA
BRANCH  14  15
ATOM     15  C   UNL A   1      29.313  26.188  24.152  1.00  0.00     0.270 C 
BRANCH  15  16
ATOM     16  C   UNL A   1      29.376  27.500  23.406  1.00  0.00    -0.011 A 
ATOM     17  C   UNL A   1      30.600  28.066  23.029  1.00  0.00     0.007 A 
ATOM     18  C   UNL A   1      28.191  28.200  23.126  1.00  0.00     0.007 A 
ATOM     19  C   UNL A   1      30.639  29.302  22.382  1.00  0.00     0.000 A 
ATOM     20  C   UNL A   1      28.231  29.438  22.482  1.00  0.00     0.000 A 
ATOM     21  C   UNL A   1      29.457  29.990  22.120  1.00  0.00     0.000 A 
ENDBRANCH  15  16
ENDBRANCH  14  15
ENDBRANCH  11  14
ENDBRANCH   6  10
ENDBRANCH   5   6
ENDBRANCH   3   5
ENDBRANCH   2   3
ENDBRANCH   1   2
BRANCH   1  22
ATOM     22  C   UNL A   1      36.242  20.660  24.974  1.00  0.00     0.275 C 
BRANCH  22  23
ATOM     23  O   UNL A   1      37.022  21.515  25.827  1.00  0.00    -0.458 OA
BRANCH  23  24
ATOM     24  C   UNL A   1      38.343  21.222  25.853  1.00  0.00     0.338 C 
ATOM     25  O   UNL A   1      38.857  20.164  25.529  1.00  0.00    -0.246 OA
BRANCH  24  26
ATOM     26  C   UNL A   1      39.115  22.424  26.190  1.00  0.00     0.060 A 
ATOM     27  C   UNL A   1      40.310  22.270  26.895  1.00  0.00     0.016 A 
ATOM     28  C   UNL A   1      38.624  23.693  25.899  1.00  0.00     0.016 A 
ATOM     29  C   UNL A   1      41.010  23.385  27.342  1.00  0.00     0.010 A 
ATOM     30  C   UNL A   1      39.352  24.815  26.312  1.00  0.00     0.010 A 
ATOM     31  C   UNL A   1      40.540  24.671  27.051  1.00  0.00    -0.014 A 
BRANCH  31  32
ATOM     32  C   UNL A   1      41.288  25.862  27.526  1.00  0.00     0.031 A 
ATOM     33  C   UNL A   1      40.583  26.932  28.311  1.00  0.00     0.074 A 
ATOM     34  C   UNL A   1      42.594  25.993  27.221  1.00  0.00     0.049 A 
ATOM     35  N   UNL A   1      41.045  28.080  28.737  1.00  0.00    -0.248 NA
ATOM     36  C   UNL A   1      39.174  26.686  28.657  1.00  0.00     0.031 C 
ATOM     37  C   UNL A   1      43.384  25.024  26.458  1.00  0.00     0.029 A 
ATOM     38  N   UNL A   1      43.477  27.010  27.482  1.00  0.00    -0.354 N 
ATOM     39  C   UNL A   1      39.980  28.705  29.373  1.00  0.00     0.074 A 
ATOM     40  C   UNL A   1      38.841  27.819  29.260  1.00  0.00     0.031 C 
ATOM     41  C   UNL A   1      44.625  25.506  26.288  1.00  0.00     0.029 A 
ATOM     42  C   UNL A   1      44.706  26.833  26.888  1.00  0.00     0.049 A 
ATOM     43  H   UNL A   1      43.254  27.790  28.040  1.00  0.00     0.167 HD
ATOM     44  C   UNL A   1      39.960  29.896  30.017  1.00  0.00     0.034 A 
ATOM     45  C   UNL A   1      45.764  27.662  26.799  1.00  0.00     0.034 A 
ATOM     46  C   UNL A   1      41.097  30.768  30.135  1.00  0.00     0.049 A 
ATOM     47  C   UNL A   1      45.695  29.007  27.469  1.00  0.00     0.074 A 
ATOM     48  C   UNL A   1      41.188  31.977  30.803  1.00  0.00     0.029 A 
ATOM     49  N   UNL A   1      42.335  30.539  29.555  1.00  0.00    -0.354 N 
ATOM     50  N   UNL A   1      44.722  29.527  28.177  1.00  0.00    -0.248 NA
ATOM     51  C   UNL A   1      46.880  29.869  27.353  1.00  0.00     0.031 C 
ATOM     52  C   UNL A   1      42.472  32.494  30.600  1.00  0.00     0.029 A 
ATOM     53  C   UNL A   1      43.191  31.592  29.831  1.00  0.00     0.049 A 
ATOM     54  H   UNL A   1      42.571  29.744  29.025  1.00  0.00     0.167 HD
ATOM     55  C   UNL A   1      45.187  30.760  28.620  1.00  0.00     0.074 A 
ATOM     56  C   UNL A   1      46.539  30.899  28.115  1.00  0.00     0.031 C 
ATOM     57  C   UNL A   1      44.551  31.696  29.365  1.00  0.00     0.034 A 
BRANCH  44  58
ATOM     58  C   UNL A   1      38.670  30.313  30.673  1.00  0.00     0.023 A 
ATOM     59  C   UNL A   1      38.432  29.968  32.019  1.00  0.00     0.012 A 
ATOM     60  C   UNL A   1      37.722  31.094  29.982  1.00  0.00     0.148 A 
ATOM     61  C   UNL A   1      37.256  30.360  32.657  1.00  0.00     0.002 A 
ATOM     62  C   UNL A   1      36.572  31.517  30.638  1.00  0.00     0.091 A 
ATOM     63  F   UNL A   1      37.960  31.399  28.699  1.00  0.00    -0.205 F 
ATOM     64  C   UNL A   1      36.332  31.141  31.969  1.00  0.00     0.022 A 
BRANCH  62  65
ATOM     65  S   UNL A   1      35.358  32.593  29.865  1.00  0.00     0.127 S 
ATOM     66  O   UNL A   1      34.403  32.792  30.955  1.00  0.00    -0.237 OA
ATOM     67  O   UNL A   1      36.159  33.773  29.535  1.00  0.00    -0.237 OA
ATOM     68  O   UNL A   1      34.849  31.862  28.713  1.00  0.00    -0.744 OA
ENDBRANCH  62  65
ENDBRANCH  44  58
BRANCH  45  69
ATOM     69  C   UNL A   1      46.983  27.235  26.057  1.00  0.00     0.023 A 
ATOM     70  C   UNL A   1      47.084  27.493  24.676  1.00  0.00     0.012 A 
ATOM     71  C   UNL A   1      48.056  26.601  26.717  1.00  0.00     0.148 A 
ATOM     72  C   UNL A   1      48.216  27.101  23.961  1.00  0.00     0.002 A 
ATOM     73  C   UNL A   1      49.204  26.266  26.010  1.00  0.00     0.091 A 
ATOM     74  F   UNL A   1      47.935  26.350  28.028  1.00  0.00    -0.205 F 
ATOM     75  C   UNL A   1      49.279  26.499  24.629  1.00  0.00     0.022 A 
BRANCH  73  76
ATOM     76  S   UNL A   1      50.670  25.606  26.810  1.00  0.00     0.127 S 
ATOM     77  O   UNL A   1      50.133  24.437  27.502  1.00  0.00    -0.237 OA
ATOM     78  O   UNL A   1      51.530  25.302  25.664  1.00  0.00    -0.237 OA
ATOM     79  O   UNL A   1      51.167  26.675  27.665  1.00  0.00    -0.744 OA
ENDBRANCH  73  76
ENDBRANCH  45  69
BRANCH  57  80
ATOM     80  C   UNL A   1      45.316  32.945  29.718  1.00  0.00     0.023 A 
ATOM     81  C   UNL A   1      46.118  32.972  30.877  1.00  0.00     0.012 A 
ATOM     82  C   UNL A   1      45.297  34.064  28.864  1.00  0.00     0.148 A 
ATOM     83  C   UNL A   1      46.863  34.107  31.196  1.00  0.00     0.002 A 
ATOM     84  C   UNL A   1      46.081  35.172  29.161  1.00  0.00     0.091 A 
ATOM     85  F   UNL A   1      44.512  34.026  27.777  1.00  0.00    -0.205 F 
ATOM     86  C   UNL A   1      46.855  35.200  30.333  1.00  0.00     0.022 A 
BRANCH  84  87
ATOM     87  S   UNL A   1      46.210  36.584  28.057  1.00  0.00     0.127 S 
ATOM     88  O   UNL A   1      46.732  37.615  28.953  1.00  0.00    -0.237 OA
ATOM     89  O   UNL A   1      47.163  36.107  27.054  1.00  0.00    -0.237 OA
ATOM     90  O   UNL A   1      44.866  36.820  27.549  1.00  0.00    -0.744 OA
ENDBRANCH  84  87
ENDBRANCH  57  80
ENDBRANCH  31  32
ENDBRANCH  24  26
ENDBRANCH  23  24
ENDBRANCH  22  23
ENDBRANCH   1  22
TORSDOF 20
ENDMDL
