MODEL 1
REMARK VINA RESULT:     -11.4      0.000      0.000
REMARK SMILES CN(C)C(=O)CCNC(=O)NC[C@H]1CC[C@@H](C(=O)OCCOC(=O)c2ccc(-c3c4nc(c(-c5cccc(S(=O)(=O)[O-])c5F)c5ccc([nH]5)c(-c5cccc(S(=O)(=O)[O-])c5F)c5nc(c(-c6cccc(S(=O)(=O)[O-])c6F)c6ccc3[nH]6)C=C5)C=C4)cc2)CC1
REMARK SMILES IDX 20 1 19 2 17 3 18 4 16 5 13 6 14 7 89 8 15 9 88 10 12 11
REMARK SMILES IDX 11 12 8 13 9 14 10 16 7 18 6 19 4 20 1 21 2 22 3 23 5 24
REMARK SMILES IDX 21 25 22 26 23 27 24 28 25 29 26 30 87 31 27 32 86 33 28 34
REMARK SMILES IDX 29 35 30 36 80 37 31 38 85 39 79 40 81 41 32 42 84 43 78 44
REMARK SMILES IDX 77 45 33 47 65 48 45 49 64 50 46 51 49 52 63 53 82 54 47 55
REMARK SMILES IDX 48 56 62 58 83 59 50 60 34 61 35 62 43 63 36 64 38 65 44 66
REMARK SMILES IDX 37 67 39 68 40 69 41 70 42 71 66 72 67 73 75 74 68 75 70 76
REMARK SMILES IDX 76 77 69 78 71 79 72 80 73 81 74 82 51 83 52 84 60 85 53 86
REMARK SMILES IDX 55 87 61 88 54 89 56 90 57 91 58 92 59 93
REMARK H PARENT 8 15 11 17 81 46 49 57
REMARK Flexibility Score: inf
ROOT
ATOM      1  C   UNL A   1      31.574  31.603  27.122  1.00  0.00     0.274 C 
ENDROOT
BRANCH   1   2
ATOM      2  O   UNL A   1      31.557  30.840  25.900  1.00  0.00    -0.462 OA
BRANCH   2   3
ATOM      3  C   UNL A   1      32.530  29.907  25.737  1.00  0.00     0.309 C 
ATOM      4  O   UNL A   1      33.134  29.708  24.691  1.00  0.00    -0.252 OA
BRANCH   3   5
ATOM      5  C   UNL A   1      32.740  29.045  26.982  1.00  0.00     0.099 C 
ATOM      6  C   UNL A   1      32.726  26.215  26.042  1.00  0.00     0.008 C 
ATOM      7  C   UNL A   1      33.907  27.171  25.796  1.00  0.00     0.006 C 
ATOM      8  C   UNL A   1      31.415  26.911  26.447  1.00  0.00     0.006 C 
ATOM      9  C   UNL A   1      34.034  28.254  26.855  1.00  0.00     0.015 C 
ATOM     10  C   UNL A   1      31.586  28.116  27.368  1.00  0.00     0.015 C 
BRANCH   6  11
ATOM     11  C   UNL A   1      32.462  25.352  24.791  1.00  0.00     0.121 C 
BRANCH  11  12
ATOM     12  N   UNL A   1      33.126  25.857  23.605  1.00  0.00    -0.338 N 
ATOM     13  N   UNL A   1      31.376  26.306  22.099  1.00  0.00    -0.338 N 
ATOM     14  C   UNL A   1      32.671  26.088  22.366  1.00  0.00     0.314 C 
ATOM     15  H   UNL A   1      31.130  26.168  21.156  1.00  0.00     0.165 HD
ATOM     16  O   UNL A   1      33.482  26.130  21.439  1.00  0.00    -0.249 OA
ATOM     17  H   UNL A   1      34.079  26.067  23.732  1.00  0.00     0.165 HD
BRANCH  13  18
ATOM     18  C   UNL A   1      30.270  26.712  22.948  1.00  0.00     0.127 C 
BRANCH  18  19
ATOM     19  C   UNL A   1      30.373  28.164  23.403  1.00  0.00     0.121 C 
BRANCH  19  20
ATOM     20  C   UNL A   1      29.838  29.077  22.318  1.00  0.00     0.223 C 
ATOM     21  C   UNL A   1      28.054  30.445  21.391  1.00  0.00     0.146 C 
ATOM     22  N   UNL A   1      28.492  29.399  22.298  1.00  0.00    -0.349 N 
ATOM     23  C   UNL A   1      27.438  28.747  23.064  1.00  0.00     0.146 C 
ATOM     24  O   UNL A   1      30.635  29.568  21.512  1.00  0.00    -0.275 OA
ENDBRANCH  19  20
ENDBRANCH  18  19
ENDBRANCH  13  18
ENDBRANCH  11  12
ENDBRANCH   6  11
ENDBRANCH   3   5
ENDBRANCH   2   3
ENDBRANCH   1   2
BRANCH   1  25
ATOM     25  C   UNL A   1      31.760  33.094  26.837  1.00  0.00     0.275 C 
BRANCH  25  26
ATOM     26  O   UNL A   1      33.149  33.459  26.894  1.00  0.00    -0.458 OA
BRANCH  26  27
ATOM     27  C   UNL A   1      33.559  33.957  28.082  1.00  0.00     0.338 C 
ATOM     28  O   UNL A   1      32.982  34.784  28.776  1.00  0.00    -0.246 OA
BRANCH  27  29
ATOM     29  C   UNL A   1      34.752  33.227  28.529  1.00  0.00     0.060 A 
ATOM     30  C   UNL A   1      34.571  31.949  29.062  1.00  0.00     0.016 A 
ATOM     31  C   UNL A   1      36.019  33.809  28.488  1.00  0.00     0.016 A 
ATOM     32  C   UNL A   1      35.656  31.239  29.562  1.00  0.00     0.010 A 
ATOM     33  C   UNL A   1      37.109  33.099  29.000  1.00  0.00     0.010 A 
ATOM     34  C   UNL A   1      36.928  31.819  29.554  1.00  0.00    -0.014 A 
BRANCH  34  35
ATOM     35  C   UNL A   1      38.050  31.114  30.213  1.00  0.00     0.031 A 
ATOM     36  C   UNL A   1      38.400  31.454  31.633  1.00  0.00     0.074 A 
ATOM     37  C   UNL A   1      38.730  30.161  29.549  1.00  0.00     0.049 A 
ATOM     38  N   UNL A   1      39.368  30.993  32.378  1.00  0.00    -0.248 NA
ATOM     39  C   UNL A   1      37.543  32.448  32.303  1.00  0.00     0.031 C 
ATOM     40  C   UNL A   1      38.458  29.731  28.178  1.00  0.00     0.029 A 
ATOM     41  N   UNL A   1      39.796  29.392  29.938  1.00  0.00    -0.354 N 
ATOM     42  C   UNL A   1      39.267  31.666  33.588  1.00  0.00     0.074 A 
ATOM     43  C   UNL A   1      38.141  32.569  33.479  1.00  0.00     0.031 C 
ATOM     44  C   UNL A   1      39.344  28.782  27.834  1.00  0.00     0.029 A 
ATOM     45  C   UNL A   1      40.263  28.562  28.948  1.00  0.00     0.049 A 
ATOM     46  H   UNL A   1      40.190  29.431  30.840  1.00  0.00     0.167 HD
ATOM     47  C   UNL A   1      40.035  31.535  34.695  1.00  0.00     0.034 A 
ATOM     48  C   UNL A   1      41.325  27.733  28.937  1.00  0.00     0.034 A 
ATOM     49  C   UNL A   1      41.127  30.607  34.809  1.00  0.00     0.049 A 
ATOM     50  C   UNL A   1      42.167  27.612  30.179  1.00  0.00     0.074 A 
ATOM     51  C   UNL A   1      41.951  30.376  35.897  1.00  0.00     0.029 A 
ATOM     52  N   UNL A   1      41.548  29.754  33.801  1.00  0.00    -0.354 N 
ATOM     53  N   UNL A   1      42.010  28.195  31.344  1.00  0.00    -0.248 NA
ATOM     54  C   UNL A   1      43.319  26.701  30.114  1.00  0.00     0.031 C 
ATOM     55  C   UNL A   1      42.876  29.388  35.541  1.00  0.00     0.029 A 
ATOM     56  C   UNL A   1      42.620  28.996  34.237  1.00  0.00     0.049 A 
ATOM     57  H   UNL A   1      41.143  29.696  32.905  1.00  0.00     0.167 HD
ATOM     58  C   UNL A   1      43.022  27.700  32.158  1.00  0.00     0.074 A 
ATOM     59  C   UNL A   1      43.774  26.753  31.359  1.00  0.00     0.031 C 
ATOM     60  C   UNL A   1      43.317  28.016  33.443  1.00  0.00     0.034 A 
BRANCH  47  61
ATOM     61  C   UNL A   1      39.697  32.397  35.880  1.00  0.00     0.023 A 
ATOM     62  C   UNL A   1      40.331  33.647  36.033  1.00  0.00     0.012 A 
ATOM     63  C   UNL A   1      38.730  31.991  36.819  1.00  0.00     0.148 A 
ATOM     64  C   UNL A   1      40.028  34.466  37.120  1.00  0.00     0.002 A 
ATOM     65  C   UNL A   1      38.407  32.830  37.881  1.00  0.00     0.091 A 
ATOM     66  F   UNL A   1      38.161  30.786  36.673  1.00  0.00    -0.205 F 
ATOM     67  C   UNL A   1      39.061  34.063  38.037  1.00  0.00     0.022 A 
BRANCH  65  68
ATOM     68  S   UNL A   1      37.128  32.419  39.073  1.00  0.00     0.127 S 
ATOM     69  O   UNL A   1      37.445  33.329  40.172  1.00  0.00    -0.237 OA
ATOM     70  O   UNL A   1      35.904  32.750  38.343  1.00  0.00    -0.237 OA
ATOM     71  O   UNL A   1      37.293  31.001  39.360  1.00  0.00    -0.744 OA
ENDBRANCH  65  68
ENDBRANCH  47  61
BRANCH  48  72
ATOM     72  C   UNL A   1      41.620  26.918  27.725  1.00  0.00     0.023 A 
ATOM     73  C   UNL A   1      42.223  27.532  26.609  1.00  0.00     0.012 A 
ATOM     74  C   UNL A   1      41.339  25.539  27.679  1.00  0.00     0.148 A 
ATOM     75  C   UNL A   1      42.520  26.792  25.465  1.00  0.00     0.002 A 
ATOM     76  C   UNL A   1      41.686  24.797  26.555  1.00  0.00     0.091 A 
ATOM     77  F   UNL A   1      40.742  24.975  28.740  1.00  0.00    -0.205 F 
ATOM     78  C   UNL A   1      42.263  25.424  25.441  1.00  0.00     0.022 A 
BRANCH  76  79
ATOM     79  S   UNL A   1      41.506  23.010  26.498  1.00  0.00     0.127 S 
ATOM     80  O   UNL A   1      42.220  22.676  25.269  1.00  0.00    -0.237 OA
ATOM     81  O   UNL A   1      42.175  22.594  27.732  1.00  0.00    -0.237 OA
ATOM     82  O   UNL A   1      40.069  22.765  26.487  1.00  0.00    -0.744 OA
ENDBRANCH  76  79
ENDBRANCH  48  72
BRANCH  60  83
ATOM     83  C   UNL A   1      44.486  27.313  34.080  1.00  0.00     0.023 A 
ATOM     84  C   UNL A   1      45.774  27.873  33.976  1.00  0.00     0.012 A 
ATOM     85  C   UNL A   1      44.299  26.143  34.842  1.00  0.00     0.148 A 
ATOM     86  C   UNL A   1      46.864  27.264  34.598  1.00  0.00     0.002 A 
ATOM     87  C   UNL A   1      45.382  25.565  35.493  1.00  0.00     0.091 A 
ATOM     88  F   UNL A   1      43.069  25.611  34.911  1.00  0.00    -0.205 F 
ATOM     89  C   UNL A   1      46.666  26.118  35.365  1.00  0.00     0.022 A 
BRANCH  87  90
ATOM     90  S   UNL A   1      45.195  24.142  36.574  1.00  0.00     0.127 S 
ATOM     91  O   UNL A   1      46.581  23.855  36.936  1.00  0.00    -0.237 OA
ATOM     92  O   UNL A   1      44.378  24.679  37.664  1.00  0.00    -0.237 OA
ATOM     93  O   UNL A   1      44.528  23.124  35.772  1.00  0.00    -0.744 OA
ENDBRANCH  87  90
ENDBRANCH  60  83
ENDBRANCH  34  35
ENDBRANCH  27  29
ENDBRANCH  26  27
ENDBRANCH  25  26
ENDBRANCH   1  25
TORSDOF 19
ENDMDL
MODEL 2
REMARK VINA RESULT:     -11.2      5.375     10.521
REMARK SMILES CN(C)C(=O)CCNC(=O)NC[C@H]1CC[C@@H](C(=O)OCCOC(=O)c2ccc(-c3c4nc(c(-c5cccc(S(=O)(=O)[O-])c5F)c5ccc([nH]5)c(-c5cccc(S(=O)(=O)[O-])c5F)c5nc(c(-c6cccc(S(=O)(=O)[O-])c6F)c6ccc3[nH]6)C=C5)C=C4)cc2)CC1
REMARK SMILES IDX 20 1 19 2 17 3 18 4 16 5 13 6 14 7 89 8 15 9 88 10 12 11
REMARK SMILES IDX 11 12 8 13 9 14 10 16 7 18 6 19 4 20 1 21 2 22 3 23 5 24
REMARK SMILES IDX 21 25 22 26 23 27 24 28 25 29 26 30 87 31 27 32 86 33 28 34
REMARK SMILES IDX 29 35 30 36 80 37 31 38 85 39 79 40 81 41 32 42 84 43 78 44
REMARK SMILES IDX 77 45 33 47 65 48 45 49 64 50 46 51 49 52 63 53 82 54 47 55
REMARK SMILES IDX 48 56 62 58 83 59 50 60 34 61 35 62 43 63 36 64 38 65 44 66
REMARK SMILES IDX 37 67 39 68 40 69 41 70 42 71 66 72 67 73 75 74 68 75 70 76
REMARK SMILES IDX 76 77 69 78 71 79 72 80 73 81 74 82 51 83 52 84 60 85 53 86
REMARK SMILES IDX 55 87 61 88 54 89 56 90 57 91 58 92 59 93
REMARK H PARENT 8 15 11 17 81 46 49 57
REMARK Flexibility Score: inf
ROOT
ATOM      1  C   UNL A   1      36.431  19.739  24.951  1.00  0.00     0.274 C 
ENDROOT
BRANCH   1   2
ATOM      2  O   UNL A   1      35.807  20.931  25.467  1.00  0.00    -0.462 OA
BRANCH   2   3
ATOM      3  C   UNL A   1      34.782  21.456  24.747  1.00  0.00     0.309 C 
ATOM      4  O   UNL A   1      33.631  21.042  24.774  1.00  0.00    -0.252 OA
BRANCH   3   5
ATOM      5  C   UNL A   1      35.230  22.577  23.809  1.00  0.00     0.099 C 
ATOM      6  C   UNL A   1      33.982  25.077  24.851  1.00  0.00     0.008 C 
ATOM      7  C   UNL A   1      35.175  24.389  25.539  1.00  0.00     0.006 C 
ATOM      8  C   UNL A   1      33.235  24.195  23.836  1.00  0.00     0.006 C 
ATOM      9  C   UNL A   1      36.050  23.602  24.578  1.00  0.00     0.015 C 
ATOM     10  C   UNL A   1      34.127  23.274  23.008  1.00  0.00     0.015 C 
BRANCH   6  11
ATOM     11  C   UNL A   1      32.974  25.584  25.903  1.00  0.00     0.121 C 
BRANCH  11  12
ATOM     12  N   UNL A   1      32.089  24.542  26.387  1.00  0.00    -0.338 N 
ATOM     13  N   UNL A   1      29.952  25.198  25.655  1.00  0.00    -0.338 N 
ATOM     14  C   UNL A   1      30.753  24.473  26.449  1.00  0.00     0.314 C 
ATOM     15  H   UNL A   1      29.029  25.286  25.986  1.00  0.00     0.165 HD
ATOM     16  O   UNL A   1      30.240  23.687  27.247  1.00  0.00    -0.249 OA
ATOM     17  H   UNL A   1      32.552  23.745  26.732  1.00  0.00     0.165 HD
BRANCH  13  18
ATOM     18  C   UNL A   1      30.201  25.878  24.396  1.00  0.00     0.127 C 
BRANCH  18  19
ATOM     19  C   UNL A   1      29.011  26.709  23.926  1.00  0.00     0.121 C 
BRANCH  19  20
ATOM     20  C   UNL A   1      29.491  27.803  22.995  1.00  0.00     0.223 C 
ATOM     21  C   UNL A   1      29.263  30.035  22.054  1.00  0.00     0.146 C 
ATOM     22  N   UNL A   1      28.687  28.908  22.766  1.00  0.00    -0.349 N 
ATOM     23  C   UNL A   1      27.280  29.038  23.121  1.00  0.00     0.146 C 
ATOM     24  O   UNL A   1      30.623  27.714  22.510  1.00  0.00    -0.275 OA
ENDBRANCH  19  20
ENDBRANCH  18  19
ENDBRANCH  13  18
ENDBRANCH  11  12
ENDBRANCH   6  11
ENDBRANCH   3   5
ENDBRANCH   2   3
ENDBRANCH   1   2
BRANCH   1  25
ATOM     25  C   UNL A   1      37.956  19.854  24.991  1.00  0.00     0.275 C 
BRANCH  25  26
ATOM     26  O   UNL A   1      38.364  21.003  25.752  1.00  0.00    -0.458 OA
BRANCH  26  27
ATOM     27  C   UNL A   1      39.577  20.896  26.338  1.00  0.00     0.338 C 
ATOM     28  O   UNL A   1      40.291  19.903  26.386  1.00  0.00    -0.246 OA
BRANCH  27  29
ATOM     29  C   UNL A   1      40.019  22.223  26.788  1.00  0.00     0.060 A 
ATOM     30  C   UNL A   1      39.376  23.340  26.248  1.00  0.00     0.016 A 
ATOM     31  C   UNL A   1      41.086  22.374  27.673  1.00  0.00     0.016 A 
ATOM     32  C   UNL A   1      39.796  24.620  26.586  1.00  0.00     0.010 A 
ATOM     33  C   UNL A   1      41.515  23.662  28.005  1.00  0.00     0.010 A 
ATOM     34  C   UNL A   1      40.883  24.789  27.450  1.00  0.00    -0.014 A 
BRANCH  34  35
ATOM     35  C   UNL A   1      41.410  26.150  27.695  1.00  0.00     0.031 A 
ATOM     36  C   UNL A   1      42.744  26.535  27.126  1.00  0.00     0.074 A 
ATOM     37  C   UNL A   1      40.684  27.037  28.400  1.00  0.00     0.049 A 
ATOM     38  N   UNL A   1      43.408  27.652  27.258  1.00  0.00    -0.248 NA
ATOM     39  C   UNL A   1      43.423  25.525  26.296  1.00  0.00     0.031 C 
ATOM     40  C   UNL A   1      39.363  26.779  28.974  1.00  0.00     0.029 A 
ATOM     41  N   UNL A   1      40.962  28.330  28.761  1.00  0.00    -0.354 N 
ATOM     42  C   UNL A   1      44.598  27.470  26.567  1.00  0.00     0.074 A 
ATOM     43  C   UNL A   1      44.567  26.132  26.014  1.00  0.00     0.031 C 
ATOM     44  C   UNL A   1      38.951  27.877  29.629  1.00  0.00     0.029 A 
ATOM     45  C   UNL A   1      39.989  28.902  29.546  1.00  0.00     0.049 A 
ATOM     46  H   UNL A   1      41.780  28.804  28.485  1.00  0.00     0.167 HD
ATOM     47  C   UNL A   1      45.619  28.342  26.397  1.00  0.00     0.034 A 
ATOM     48  C   UNL A   1      39.952  30.108  30.144  1.00  0.00     0.034 A 
ATOM     49  C   UNL A   1      45.625  29.682  26.916  1.00  0.00     0.049 A 
ATOM     50  C   UNL A   1      41.105  31.056  29.945  1.00  0.00     0.074 A 
ATOM     51  C   UNL A   1      46.598  30.655  26.777  1.00  0.00     0.029 A 
ATOM     52  N   UNL A   1      44.606  30.241  27.673  1.00  0.00    -0.354 N 
ATOM     53  N   UNL A   1      42.187  30.899  29.221  1.00  0.00    -0.248 NA
ATOM     54  C   UNL A   1      41.021  32.356  30.626  1.00  0.00     0.031 C 
ATOM     55  C   UNL A   1      46.170  31.801  27.458  1.00  0.00     0.029 A 
ATOM     56  C   UNL A   1      44.927  31.544  28.011  1.00  0.00     0.049 A 
ATOM     57  H   UNL A   1      43.777  29.778  27.932  1.00  0.00     0.167 HD
ATOM     58  C   UNL A   1      42.897  32.088  29.333  1.00  0.00     0.074 A 
ATOM     59  C   UNL A   1      42.112  32.964  30.179  1.00  0.00     0.031 C 
ATOM     60  C   UNL A   1      44.101  32.419  28.804  1.00  0.00     0.034 A 
BRANCH  47  61
ATOM     61  C   UNL A   1      46.801  27.877  25.591  1.00  0.00     0.023 A 
ATOM     62  C   UNL A   1      46.802  28.058  24.193  1.00  0.00     0.012 A 
ATOM     63  C   UNL A   1      47.921  27.297  26.216  1.00  0.00     0.148 A 
ATOM     64  C   UNL A   1      47.890  27.641  23.426  1.00  0.00     0.002 A 
ATOM     65  C   UNL A   1      49.016  26.916  25.448  1.00  0.00     0.091 A 
ATOM     66  F   UNL A   1      47.887  27.105  27.542  1.00  0.00    -0.205 F 
ATOM     67  C   UNL A   1      48.999  27.080  24.053  1.00  0.00     0.022 A 
BRANCH  65  68
ATOM     68  S   UNL A   1      50.514  26.245  26.179  1.00  0.00     0.127 S 
ATOM     69  O   UNL A   1      51.356  26.050  25.001  1.00  0.00    -0.237 OA
ATOM     70  O   UNL A   1      50.944  27.330  27.062  1.00  0.00    -0.237 OA
ATOM     71  O   UNL A   1      50.107  25.031  26.873  1.00  0.00    -0.744 OA
ENDBRANCH  65  68
ENDBRANCH  47  61
BRANCH  48  72
ATOM     72  C   UNL A   1      38.761  30.503  30.947  1.00  0.00     0.023 A 
ATOM     73  C   UNL A   1      38.730  30.215  32.326  1.00  0.00     0.012 A 
ATOM     74  C   UNL A   1      37.676  31.187  30.365  1.00  0.00     0.148 A 
ATOM     75  C   UNL A   1      37.632  30.582  33.104  1.00  0.00     0.002 A 
ATOM     76  C   UNL A   1      36.608  31.597  31.157  1.00  0.00     0.091 A 
ATOM     77  F   UNL A   1      37.710  31.430  29.046  1.00  0.00    -0.205 F 
ATOM     78  C   UNL A   1      36.578  31.282  32.524  1.00  0.00     0.022 A 
BRANCH  76  79
ATOM     79  S   UNL A   1      35.275  32.613  30.512  1.00  0.00     0.127 S 
ATOM     80  O   UNL A   1      34.402  32.738  31.675  1.00  0.00    -0.237 OA
ATOM     81  O   UNL A   1      35.979  33.841  30.136  1.00  0.00    -0.237 OA
ATOM     82  O   UNL A   1      34.731  31.869  29.383  1.00  0.00    -0.744 OA
ENDBRANCH  76  79
ENDBRANCH  48  72
BRANCH  60  83
ATOM     83  C   UNL A   1      44.634  33.796  29.099  1.00  0.00     0.023 A 
ATOM     84  C   UNL A   1      45.542  33.977  30.159  1.00  0.00     0.012 A 
ATOM     85  C   UNL A   1      44.295  34.892  28.281  1.00  0.00     0.148 A 
ATOM     86  C   UNL A   1      46.085  35.235  30.420  1.00  0.00     0.002 A 
ATOM     87  C   UNL A   1      44.872  36.134  28.521  1.00  0.00     0.091 A 
ATOM     88  F   UNL A   1      43.411  34.705  27.290  1.00  0.00    -0.205 F 
ATOM     89  C   UNL A   1      45.759  36.309  29.595  1.00  0.00     0.022 A 
BRANCH  87  90
ATOM     90  S   UNL A   1      44.575  37.544  27.449  1.00  0.00     0.127 S 
ATOM     91  O   UNL A   1      43.296  37.191  26.837  1.00  0.00    -0.237 OA
ATOM     92  O   UNL A   1      44.509  38.656  28.400  1.00  0.00    -0.237 OA
ATOM     93  O   UNL A   1      45.715  37.599  26.543  1.00  0.00    -0.744 OA
ENDBRANCH  87  90
ENDBRANCH  60  83
ENDBRANCH  34  35
ENDBRANCH  27  29
ENDBRANCH  26  27
ENDBRANCH  25  26
ENDBRANCH   1  25
TORSDOF 19
ENDMDL
MODEL 3
REMARK VINA RESULT:     -11.2      5.371      8.147
REMARK SMILES CN(C)C(=O)CCNC(=O)NC[C@H]1CC[C@@H](C(=O)OCCOC(=O)c2ccc(-c3c4nc(c(-c5cccc(S(=O)(=O)[O-])c5F)c5ccc([nH]5)c(-c5cccc(S(=O)(=O)[O-])c5F)c5nc(c(-c6cccc(S(=O)(=O)[O-])c6F)c6ccc3[nH]6)C=C5)C=C4)cc2)CC1
REMARK SMILES IDX 20 1 19 2 17 3 18 4 16 5 13 6 14 7 89 8 15 9 88 10 12 11
REMARK SMILES IDX 11 12 8 13 9 14 10 16 7 18 6 19 4 20 1 21 2 22 3 23 5 24
REMARK SMILES IDX 21 25 22 26 23 27 24 28 25 29 26 30 87 31 27 32 86 33 28 34
REMARK SMILES IDX 29 35 30 36 80 37 31 38 85 39 79 40 81 41 32 42 84 43 78 44
REMARK SMILES IDX 77 45 33 47 65 48 45 49 64 50 46 51 49 52 63 53 82 54 47 55
REMARK SMILES IDX 48 56 62 58 83 59 50 60 34 61 35 62 43 63 36 64 38 65 44 66
REMARK SMILES IDX 37 67 39 68 40 69 41 70 42 71 66 72 67 73 75 74 68 75 70 76
REMARK SMILES IDX 76 77 69 78 71 79 72 80 73 81 74 82 51 83 52 84 60 85 53 86
REMARK SMILES IDX 55 87 61 88 54 89 56 90 57 91 58 92 59 93
REMARK H PARENT 8 15 11 17 81 46 49 57
REMARK Flexibility Score: inf
ROOT
ATOM      1  C   UNL A   1      35.473  20.356  25.004  1.00  0.00     0.274 C 
ENDROOT
BRANCH   1   2
ATOM      2  O   UNL A   1      34.496  21.408  25.117  1.00  0.00    -0.462 OA
BRANCH   2   3
ATOM      3  C   UNL A   1      34.166  21.818  26.369  1.00  0.00     0.309 C 
ATOM      4  O   UNL A   1      33.710  21.089  27.240  1.00  0.00    -0.252 OA
BRANCH   3   5
ATOM      5  C   UNL A   1      34.334  23.325  26.564  1.00  0.00     0.099 C 
ATOM      6  C   UNL A   1      32.747  24.621  24.398  1.00  0.00     0.008 C 
ATOM      7  C   UNL A   1      32.098  23.950  25.621  1.00  0.00     0.006 C 
ATOM      8  C   UNL A   1      34.219  24.241  24.167  1.00  0.00     0.006 C 
ATOM      9  C   UNL A   1      32.985  23.965  26.856  1.00  0.00     0.015 C 
ATOM     10  C   UNL A   1      35.047  24.080  25.440  1.00  0.00     0.015 C 
BRANCH   6  11
ATOM     11  C   UNL A   1      31.946  24.298  23.119  1.00  0.00     0.121 C 
BRANCH  11  12
ATOM     12  N   UNL A   1      32.651  24.655  21.904  1.00  0.00    -0.338 N 
ATOM     13  N   UNL A   1      31.741  26.735  21.287  1.00  0.00    -0.338 N 
ATOM     14  C   UNL A   1      32.426  25.619  21.001  1.00  0.00     0.314 C 
ATOM     15  H   UNL A   1      31.394  27.209  20.497  1.00  0.00     0.165 HD
ATOM     16  O   UNL A   1      32.896  25.487  19.869  1.00  0.00    -0.249 OA
ATOM     17  H   UNL A   1      33.432  24.091  21.707  1.00  0.00     0.165 HD
BRANCH  13  18
ATOM     18  C   UNL A   1      31.418  27.371  22.552  1.00  0.00     0.127 C 
BRANCH  18  19
ATOM     19  C   UNL A   1      29.929  27.663  22.705  1.00  0.00     0.121 C 
BRANCH  19  20
ATOM     20  C   UNL A   1      29.640  29.083  22.260  1.00  0.00     0.223 C 
ATOM     21  C   UNL A   1      28.277  31.096  22.354  1.00  0.00     0.146 C 
ATOM     22  N   UNL A   1      28.433  29.673  22.597  1.00  0.00    -0.349 N 
ATOM     23  C   UNL A   1      27.259  28.992  23.127  1.00  0.00     0.146 C 
ATOM     24  O   UNL A   1      30.521  29.706  21.661  1.00  0.00    -0.275 OA
ENDBRANCH  19  20
ENDBRANCH  18  19
ENDBRANCH  13  18
ENDBRANCH  11  12
ENDBRANCH   6  11
ENDBRANCH   3   5
ENDBRANCH   2   3
ENDBRANCH   1   2
BRANCH   1  25
ATOM     25  C   UNL A   1      36.874  20.928  24.777  1.00  0.00     0.275 C 
BRANCH  25  26
ATOM     26  O   UNL A   1      37.452  21.377  26.014  1.00  0.00    -0.458 OA
BRANCH  26  27
ATOM     27  C   UNL A   1      38.785  21.186  26.122  1.00  0.00     0.338 C 
ATOM     28  O   UNL A   1      39.427  20.213  25.748  1.00  0.00    -0.246 OA
BRANCH  27  29
ATOM     29  C   UNL A   1      39.414  22.418  26.617  1.00  0.00     0.060 A 
ATOM     30  C   UNL A   1      38.917  23.636  26.148  1.00  0.00     0.016 A 
ATOM     31  C   UNL A   1      40.513  22.379  27.476  1.00  0.00     0.016 A 
ATOM     32  C   UNL A   1      39.516  24.830  26.531  1.00  0.00     0.010 A 
ATOM     33  C   UNL A   1      41.121  23.580  27.853  1.00  0.00     0.010 A 
ATOM     34  C   UNL A   1      40.636  24.808  27.369  1.00  0.00    -0.014 A 
BRANCH  34  35
ATOM     35  C   UNL A   1      41.349  26.072  27.658  1.00  0.00     0.031 A 
ATOM     36  C   UNL A   1      40.654  27.145  28.444  1.00  0.00     0.074 A 
ATOM     37  C   UNL A   1      42.616  26.241  27.239  1.00  0.00     0.049 A 
ATOM     38  N   UNL A   1      41.076  28.338  28.766  1.00  0.00    -0.248 NA
ATOM     39  C   UNL A   1      39.300  26.833  28.933  1.00  0.00     0.031 C 
ATOM     40  C   UNL A   1      43.397  25.254  26.493  1.00  0.00     0.029 A 
ATOM     41  N   UNL A   1      43.464  27.311  27.373  1.00  0.00    -0.354 N 
ATOM     42  C   UNL A   1      40.031  28.936  29.457  1.00  0.00     0.074 A 
ATOM     43  C   UNL A   1      38.951  27.973  29.510  1.00  0.00     0.031 C 
ATOM     44  C   UNL A   1      44.607  25.770  26.222  1.00  0.00     0.029 A 
ATOM     45  C   UNL A   1      44.675  27.131  26.748  1.00  0.00     0.049 A 
ATOM     46  H   UNL A   1      43.228  28.128  27.868  1.00  0.00     0.167 HD
ATOM     47  C   UNL A   1      39.980  30.171  30.010  1.00  0.00     0.034 A 
ATOM     48  C   UNL A   1      45.712  27.979  26.601  1.00  0.00     0.034 A 
ATOM     49  C   UNL A   1      41.071  31.106  29.988  1.00  0.00     0.049 A 
ATOM     50  C   UNL A   1      45.625  29.349  27.219  1.00  0.00     0.074 A 
ATOM     51  C   UNL A   1      41.131  32.372  30.542  1.00  0.00     0.029 A 
ATOM     52  N   UNL A   1      42.296  30.877  29.381  1.00  0.00    -0.354 N 
ATOM     53  N   UNL A   1      44.661  29.870  27.941  1.00  0.00    -0.248 NA
ATOM     54  C   UNL A   1      46.778  30.240  27.024  1.00  0.00     0.031 C 
ATOM     55  C   UNL A   1      42.392  32.912  30.262  1.00  0.00     0.029 A 
ATOM     56  C   UNL A   1      43.119  31.977  29.543  1.00  0.00     0.049 A 
ATOM     57  H   UNL A   1      42.544  30.052  28.903  1.00  0.00     0.167 HD
ATOM     58  C   UNL A   1      45.103  31.135  28.310  1.00  0.00     0.074 A 
ATOM     59  C   UNL A   1      46.430  31.293  27.751  1.00  0.00     0.031 C 
ATOM     60  C   UNL A   1      44.461  32.089  29.029  1.00  0.00     0.034 A 
BRANCH  47  61
ATOM     61  C   UNL A   1      38.708  30.564  30.711  1.00  0.00     0.023 A 
ATOM     62  C   UNL A   1      38.536  30.239  32.071  1.00  0.00     0.012 A 
ATOM     63  C   UNL A   1      37.703  31.285  30.038  1.00  0.00     0.148 A 
ATOM     64  C   UNL A   1      37.369  30.600  32.743  1.00  0.00     0.002 A 
ATOM     65  C   UNL A   1      36.558  31.672  30.724  1.00  0.00     0.091 A 
ATOM     66  F   UNL A   1      37.873  31.558  28.736  1.00  0.00    -0.205 F 
ATOM     67  C   UNL A   1      36.385  31.324  32.074  1.00  0.00     0.022 A 
BRANCH  65  68
ATOM     68  S   UNL A   1      35.269  32.662  29.959  1.00  0.00     0.127 S 
ATOM     69  O   UNL A   1      36.022  33.829  29.506  1.00  0.00    -0.237 OA
ATOM     70  O   UNL A   1      34.800  31.786  28.884  1.00  0.00    -0.237 OA
ATOM     71  O   UNL A   1      34.286  32.911  31.004  1.00  0.00    -0.744 OA
ENDBRANCH  65  68
ENDBRANCH  47  61
BRANCH  48  72
ATOM     72  C   UNL A   1      46.937  27.536  25.879  1.00  0.00     0.023 A 
ATOM     73  C   UNL A   1      47.073  27.825  24.507  1.00  0.00     0.012 A 
ATOM     74  C   UNL A   1      47.980  26.862  26.544  1.00  0.00     0.148 A 
ATOM     75  C   UNL A   1      48.214  27.432  23.807  1.00  0.00     0.002 A 
ATOM     76  C   UNL A   1      49.137  26.520  25.852  1.00  0.00     0.091 A 
ATOM     77  F   UNL A   1      47.823  26.573  27.844  1.00  0.00    -0.205 F 
ATOM     78  C   UNL A   1      49.250  26.791  24.480  1.00  0.00     0.022 A 
BRANCH  76  79
ATOM     79  S   UNL A   1      50.567  25.809  26.676  1.00  0.00     0.127 S 
ATOM     80  O   UNL A   1      50.007  24.589  27.249  1.00  0.00    -0.237 OA
ATOM     81  O   UNL A   1      51.491  25.598  25.560  1.00  0.00    -0.237 OA
ATOM     82  O   UNL A   1      51.007  26.819  27.630  1.00  0.00    -0.744 OA
ENDBRANCH  76  79
ENDBRANCH  48  72
BRANCH  60  83
ATOM     83  C   UNL A   1      45.193  33.381  29.277  1.00  0.00     0.023 A 
ATOM     84  C   UNL A   1      45.996  33.515  30.426  1.00  0.00     0.012 A 
ATOM     85  C   UNL A   1      45.145  34.431  28.339  1.00  0.00     0.148 A 
ATOM     86  C   UNL A   1      46.720  34.685  30.652  1.00  0.00     0.002 A 
ATOM     87  C   UNL A   1      45.903  35.577  28.550  1.00  0.00     0.091 A 
ATOM     88  F   UNL A   1      44.357  34.295  27.262  1.00  0.00    -0.205 F 
ATOM     89  C   UNL A   1      46.682  35.710  29.709  1.00  0.00     0.022 A 
BRANCH  87  90
ATOM     90  S   UNL A   1      45.979  36.903  27.339  1.00  0.00     0.127 S 
ATOM     91  O   UNL A   1      46.917  37.830  27.969  1.00  0.00    -0.237 OA
ATOM     92  O   UNL A   1      46.500  36.219  26.154  1.00  0.00    -0.237 OA
ATOM     93  O   UNL A   1      44.612  37.387  27.198  1.00  0.00    -0.744 OA
ENDBRANCH  87  90
ENDBRANCH  60  83
ENDBRANCH  34  35
ENDBRANCH  27  29
ENDBRANCH  26  27
ENDBRANCH  25  26
ENDBRANCH   1  25
TORSDOF 19
ENDMDL
