MODEL 1
REMARK VINA RESULT:     -12.7      0.000      0.000
REMARK SMILES CC(C)C(=O)Nc1ccc2c([C@H](C(=O)OCCOC(=O)c3ccc(-c4c5nc(c(-c6cccc(S(=O)(=O)[O-])c6F)c6ccc([nH]6)c(-c6cccc(S(=O)(=O)[O-])c6F)c6nc(c(-c7cccc(S(=O)(=O)[O-])c7F)c7ccc4[nH]7)C=C6)C=C5)cc3)[NH+]3CC[NH+](CC(=O)N(C)C)CC3)c[nH]c2c1
REMARK SMILES IDX 16 1 15 2 13 3 14 4 12 5 11 6 7 7 8 8 99 9 9 10 98 11 10 12
REMARK SMILES IDX 97 13 96 14 6 16 4 17 5 18 2 20 1 21 3 22 84 23 85 24 95 25
REMARK SMILES IDX 86 27 94 28 87 29 88 31 89 32 90 33 91 34 92 35 93 36 17 37
REMARK SMILES IDX 18 38 19 39 20 40 21 41 22 42 83 43 23 44 82 45 24 46 25 47
REMARK SMILES IDX 26 48 76 49 27 50 81 51 75 52 77 53 28 54 80 55 74 56 73 57
REMARK SMILES IDX 29 59 61 60 41 61 60 62 42 63 45 64 59 65 78 66 43 67 44 68
REMARK SMILES IDX 58 70 79 71 46 72 30 73 31 74 39 75 32 76 34 77 40 78 33 79
REMARK SMILES IDX 35 80 36 81 37 82 38 83 62 84 63 85 71 86 64 87 66 88 72 89
REMARK SMILES IDX 65 90 67 91 68 92 69 93 70 94 47 95 48 96 56 97 49 98 51 99
REMARK SMILES IDX 57 100 50 101 52 102 53 103 54 104 55 105
REMARK H PARENT 97 15 6 19 84 26 87 30 77 58 45 69
REMARK Flexibility Score: inf
ROOT
ATOM      1  C   UNL A   1      36.896  22.547  24.005  1.00  0.00     0.274 C 
ENDROOT
BRANCH   1   2
ATOM      2  O   UNL A   1      35.490  22.631  24.303  1.00  0.00    -0.457 OA
BRANCH   2   3
ATOM      3  C   UNL A   1      35.124  23.705  25.049  1.00  0.00     0.370 C 
ATOM      4  O   UNL A   1      35.942  24.351  25.706  1.00  0.00    -0.245 OA
BRANCH   3   5
ATOM      5  C   UNL A   1      33.610  24.031  25.049  1.00  0.00     0.328 C 
BRANCH   5   6
ATOM      6  C   UNL A   1      33.231  25.074  23.991  1.00  0.00     0.046 A 
ATOM      7  C   UNL A   1      30.877  28.556  24.035  1.00  0.00     0.043 A 
ATOM      8  C   UNL A   1      30.637  27.661  25.066  1.00  0.00     0.027 A 
ATOM      9  C   UNL A   1      31.631  28.168  22.922  1.00  0.00     0.052 A 
ATOM     10  C   UNL A   1      31.365  26.481  25.166  1.00  0.00     0.013 A 
ATOM     11  C   UNL A   1      32.331  26.954  23.020  1.00  0.00     0.048 A 
ATOM     12  C   UNL A   1      32.279  26.144  24.153  1.00  0.00     0.009 A 
ATOM     13  N   UNL A   1      33.175  26.336  22.132  1.00  0.00    -0.361 N 
ATOM     14  C   UNL A   1      33.730  25.221  22.706  1.00  0.00     0.094 A 
ATOM     15  H   UNL A   1      33.356  26.646  21.215  1.00  0.00     0.166 HD
BRANCH   7  16
ATOM     16  N   UNL A   1      30.389  29.864  24.101  1.00  0.00    -0.326 N 
ATOM     17  C   UNL A   1      29.419  30.465  23.346  1.00  0.00     0.226 C 
ATOM     18  O   UNL A   1      29.260  31.685  23.489  1.00  0.00    -0.274 OA
ATOM     19  H   UNL A   1      30.804  30.434  24.788  1.00  0.00     0.169 HD
BRANCH  17  20
ATOM     20  C   UNL A   1      28.449  29.691  22.428  1.00  0.00     0.072 C 
ATOM     21  C   UNL A   1      27.275  29.015  23.127  1.00  0.00     0.018 C 
ATOM     22  C   UNL A   1      28.032  30.444  21.164  1.00  0.00     0.018 C 
ENDBRANCH  17  20
ENDBRANCH   7  16
ENDBRANCH   5   6
BRANCH   5  23
ATOM     23  N   UNL A   1      32.619  22.927  25.092  1.00  0.00    -0.310 N 
ATOM     24  C   UNL A   1      32.013  22.481  23.845  1.00  0.00     0.325 C 
ATOM     25  C   UNL A   1      32.862  21.805  25.996  1.00  0.00     0.325 C 
ATOM     26  H   UNL A   1      31.903  23.493  25.547  1.00  0.00     0.349 HD
ATOM     27  C   UNL A   1      32.807  21.378  23.171  1.00  0.00     0.325 C 
ATOM     28  C   UNL A   1      33.366  20.466  25.381  1.00  0.00     0.325 C 
ATOM     29  N   UNL A   1      33.102  20.195  23.973  1.00  0.00    -0.318 N 
ATOM     30  H   UNL A   1      34.023  19.869  23.681  1.00  0.00     0.348 HD
BRANCH  29  31
ATOM     31  C   UNL A   1      32.249  19.046  23.643  1.00  0.00     0.364 C 
BRANCH  31  32
ATOM     32  C   UNL A   1      33.016  17.717  23.672  1.00  0.00     0.277 C 
ATOM     33  O   UNL A   1      33.641  17.349  22.671  1.00  0.00    -0.268 OA
ATOM     34  N   UNL A   1      32.906  16.904  24.786  1.00  0.00    -0.344 N 
ATOM     35  C   UNL A   1      32.529  17.351  26.112  1.00  0.00     0.146 C 
ATOM     36  C   UNL A   1      33.327  15.520  24.660  1.00  0.00     0.146 C 
ENDBRANCH  31  32
ENDBRANCH  29  31
ENDBRANCH   5  23
ENDBRANCH   3   5
ENDBRANCH   2   3
ENDBRANCH   1   2
BRANCH   1  37
ATOM     37  C   UNL A   1      37.557  21.397  24.779  1.00  0.00     0.275 C 
BRANCH  37  38
ATOM     38  O   UNL A   1      37.986  21.751  26.105  1.00  0.00    -0.458 OA
BRANCH  38  39
ATOM     39  C   UNL A   1      39.318  21.721  26.343  1.00  0.00     0.338 C 
ATOM     40  O   UNL A   1      40.025  20.731  26.394  1.00  0.00    -0.246 OA
BRANCH  39  41
ATOM     41  C   UNL A   1      39.722  23.078  26.763  1.00  0.00     0.060 A 
ATOM     42  C   UNL A   1      40.794  23.168  27.642  1.00  0.00     0.016 A 
ATOM     43  C   UNL A   1      39.010  24.228  26.409  1.00  0.00     0.016 A 
ATOM     44  C   UNL A   1      41.073  24.390  28.256  1.00  0.00     0.010 A 
ATOM     45  C   UNL A   1      39.403  25.482  26.915  1.00  0.00     0.010 A 
ATOM     46  C   UNL A   1      40.443  25.586  27.854  1.00  0.00    -0.014 A 
BRANCH  46  47
ATOM     47  C   UNL A   1      40.987  26.902  28.334  1.00  0.00     0.031 A 
ATOM     48  C   UNL A   1      40.137  27.974  28.980  1.00  0.00     0.074 A 
ATOM     49  C   UNL A   1      42.308  27.143  28.173  1.00  0.00     0.049 A 
ATOM     50  N   UNL A   1      40.460  29.214  29.269  1.00  0.00    -0.248 NA
ATOM     51  C   UNL A   1      38.757  27.629  29.344  1.00  0.00     0.031 C 
ATOM     52  C   UNL A   1      43.263  26.216  27.560  1.00  0.00     0.029 A 
ATOM     53  N   UNL A   1      43.086  28.227  28.510  1.00  0.00    -0.354 N 
ATOM     54  C   UNL A   1      39.317  29.806  29.799  1.00  0.00     0.074 A 
ATOM     55  C   UNL A   1      38.291  28.784  29.808  1.00  0.00     0.031 C 
ATOM     56  C   UNL A   1      44.496  26.717  27.649  1.00  0.00     0.029 A 
ATOM     57  C   UNL A   1      44.405  28.081  28.143  1.00  0.00     0.049 A 
ATOM     58  H   UNL A   1      42.736  29.025  28.967  1.00  0.00     0.167 HD
ATOM     59  C   UNL A   1      39.141  31.079  30.238  1.00  0.00     0.034 A 
ATOM     60  C   UNL A   1      45.429  28.953  28.103  1.00  0.00     0.034 A 
ATOM     61  C   UNL A   1      40.179  32.081  30.279  1.00  0.00     0.049 A 
ATOM     62  C   UNL A   1      45.196  30.363  28.530  1.00  0.00     0.074 A 
ATOM     63  C   UNL A   1      40.093  33.392  30.722  1.00  0.00     0.029 A 
ATOM     64  N   UNL A   1      41.491  31.890  29.871  1.00  0.00    -0.354 N 
ATOM     65  N   UNL A   1      44.107  30.902  29.018  1.00  0.00    -0.248 NA
ATOM     66  C   UNL A   1      46.325  31.290  28.394  1.00  0.00     0.031 C 
ATOM     67  C   UNL A   1      41.346  33.998  30.561  1.00  0.00     0.029 A 
ATOM     68  C   UNL A   1      42.218  33.060  30.037  1.00  0.00     0.049 A 
ATOM     69  H   UNL A   1      41.853  31.046  29.516  1.00  0.00     0.167 HD
ATOM     70  C   UNL A   1      44.414  32.233  29.245  1.00  0.00     0.074 A 
ATOM     71  C   UNL A   1      45.805  32.411  28.877  1.00  0.00     0.031 C 
ATOM     72  C   UNL A   1      43.606  33.224  29.693  1.00  0.00     0.034 A 
BRANCH  59  73
ATOM     73  C   UNL A   1      37.776  31.487  30.739  1.00  0.00     0.023 A 
ATOM     74  C   UNL A   1      37.447  31.310  32.096  1.00  0.00     0.012 A 
ATOM     75  C   UNL A   1      36.870  32.163  29.894  1.00  0.00     0.148 A 
ATOM     76  C   UNL A   1      36.237  31.787  32.604  1.00  0.00     0.002 A 
ATOM     77  C   UNL A   1      35.679  32.664  30.413  1.00  0.00     0.091 A 
ATOM     78  F   UNL A   1      37.191  32.311  28.601  1.00  0.00    -0.205 F 
ATOM     79  C   UNL A   1      35.360  32.473  31.766  1.00  0.00     0.022 A 
BRANCH  77  80
ATOM     80  S   UNL A   1      34.520  33.620  29.426  1.00  0.00     0.127 S 
ATOM     81  O   UNL A   1      33.654  34.190  30.458  1.00  0.00    -0.237 OA
ATOM     82  O   UNL A   1      35.395  34.589  28.766  1.00  0.00    -0.237 OA
ATOM     83  O   UNL A   1      33.882  32.670  28.527  1.00  0.00    -0.744 OA
ENDBRANCH  77  80
ENDBRANCH  59  73
BRANCH  60  84
ATOM     84  C   UNL A   1      46.744  28.492  27.573  1.00  0.00     0.023 A 
ATOM     85  C   UNL A   1      47.767  28.123  28.464  1.00  0.00     0.012 A 
ATOM     86  C   UNL A   1      46.926  28.279  26.190  1.00  0.00     0.148 A 
ATOM     87  C   UNL A   1      48.941  27.537  27.986  1.00  0.00     0.002 A 
ATOM     88  C   UNL A   1      48.054  27.611  25.734  1.00  0.00     0.091 A 
ATOM     89  F   UNL A   1      45.957  28.672  25.349  1.00  0.00    -0.205 F 
ATOM     90  C   UNL A   1      49.073  27.255  26.627  1.00  0.00     0.022 A 
BRANCH  88  91
ATOM     91  S   UNL A   1      48.159  27.011  24.042  1.00  0.00     0.127 S 
ATOM     92  O   UNL A   1      47.147  25.959  24.030  1.00  0.00    -0.237 OA
ATOM     93  O   UNL A   1      47.817  28.205  23.266  1.00  0.00    -0.237 OA
ATOM     94  O   UNL A   1      49.541  26.579  23.879  1.00  0.00    -0.744 OA
ENDBRANCH  88  91
ENDBRANCH  60  84
BRANCH  72  95
ATOM     95  C   UNL A   1      44.219  34.591  29.813  1.00  0.00     0.023 A 
ATOM     96  C   UNL A   1      44.839  34.968  31.020  1.00  0.00     0.012 A 
ATOM     97  C   UNL A   1      44.192  35.496  28.734  1.00  0.00     0.148 A 
ATOM     98  C   UNL A   1      45.393  36.238  31.165  1.00  0.00     0.002 A 
ATOM     99  C   UNL A   1      44.780  36.747  28.873  1.00  0.00     0.091 A 
ATOM    100  F   UNL A   1      43.573  35.127  27.604  1.00  0.00    -0.205 F 
ATOM    101  C   UNL A   1      45.371  37.125  30.090  1.00  0.00     0.022 A 
BRANCH  99 102
ATOM    102  S   UNL A   1      44.858  37.922  27.517  1.00  0.00     0.127 S 
ATOM    103  O   UNL A   1      43.492  37.871  27.001  1.00  0.00    -0.237 OA
ATOM    104  O   UNL A   1      45.206  39.168  28.200  1.00  0.00    -0.237 OA
ATOM    105  O   UNL A   1      45.891  37.422  26.619  1.00  0.00    -0.744 OA
ENDBRANCH  99 102
ENDBRANCH  72  95
ENDBRANCH  46  47
ENDBRANCH  39  41
ENDBRANCH  38  39
ENDBRANCH  37  38
ENDBRANCH   1  37
TORSDOF 20
ENDMDL
MODEL 2
REMARK VINA RESULT:     -12.2      4.740      9.261
REMARK SMILES CC(C)C(=O)Nc1ccc2c([C@H](C(=O)OCCOC(=O)c3ccc(-c4c5nc(c(-c6cccc(S(=O)(=O)[O-])c6F)c6ccc([nH]6)c(-c6cccc(S(=O)(=O)[O-])c6F)c6nc(c(-c7cccc(S(=O)(=O)[O-])c7F)c7ccc4[nH]7)C=C6)C=C5)cc3)[NH+]3CC[NH+](CC(=O)N(C)C)CC3)c[nH]c2c1
REMARK SMILES IDX 16 1 15 2 13 3 14 4 12 5 11 6 7 7 8 8 99 9 9 10 98 11 10 12
REMARK SMILES IDX 97 13 96 14 6 16 4 17 5 18 2 20 1 21 3 22 84 23 85 24 95 25
REMARK SMILES IDX 86 27 94 28 87 29 88 31 89 32 90 33 91 34 92 35 93 36 17 37
REMARK SMILES IDX 18 38 19 39 20 40 21 41 22 42 83 43 23 44 82 45 24 46 25 47
REMARK SMILES IDX 26 48 76 49 27 50 81 51 75 52 77 53 28 54 80 55 74 56 73 57
REMARK SMILES IDX 29 59 61 60 41 61 60 62 42 63 45 64 59 65 78 66 43 67 44 68
REMARK SMILES IDX 58 70 79 71 46 72 30 73 31 74 39 75 32 76 34 77 40 78 33 79
REMARK SMILES IDX 35 80 36 81 37 82 38 83 62 84 63 85 71 86 64 87 66 88 72 89
REMARK SMILES IDX 65 90 67 91 68 92 69 93 70 94 47 95 48 96 56 97 49 98 51 99
REMARK SMILES IDX 57 100 50 101 52 102 53 103 54 104 55 105
REMARK H PARENT 97 15 6 19 84 26 87 30 77 58 45 69
REMARK Flexibility Score: inf
ROOT
ATOM      1  C   UNL A   1      31.789  29.062  27.594  1.00  0.00     0.274 C 
ENDROOT
BRANCH   1   2
ATOM      2  O   UNL A   1      32.412  27.807  27.261  1.00  0.00    -0.457 OA
BRANCH   2   3
ATOM      3  C   UNL A   1      31.628  26.940  26.570  1.00  0.00     0.370 C 
ATOM      4  O   UNL A   1      30.504  26.623  26.963  1.00  0.00    -0.245 OA
BRANCH   3   5
ATOM      5  C   UNL A   1      32.260  26.350  25.285  1.00  0.00     0.328 C 
BRANCH   5   6
ATOM      6  C   UNL A   1      32.522  27.416  24.214  1.00  0.00     0.046 A 
ATOM      7  C   UNL A   1      30.045  29.699  21.700  1.00  0.00     0.043 A 
ATOM      8  C   UNL A   1      29.468  28.552  22.222  1.00  0.00     0.027 A 
ATOM      9  C   UNL A   1      31.428  29.895  21.777  1.00  0.00     0.052 A 
ATOM     10  C   UNL A   1      30.184  27.725  23.081  1.00  0.00     0.013 A 
ATOM     11  C   UNL A   1      32.147  29.028  22.617  1.00  0.00     0.048 A 
ATOM     12  C   UNL A   1      31.540  27.999  23.335  1.00  0.00     0.009 A 
ATOM     13  N   UNL A   1      33.483  28.992  22.932  1.00  0.00    -0.361 N 
ATOM     14  C   UNL A   1      33.716  28.045  23.896  1.00  0.00     0.094 A 
ATOM     15  H   UNL A   1      34.174  29.564  22.525  1.00  0.00     0.166 HD
BRANCH   7  16
ATOM     16  N   UNL A   1      29.253  30.686  21.106  1.00  0.00    -0.326 N 
ATOM     17  C   UNL A   1      28.534  31.690  21.697  1.00  0.00     0.226 C 
ATOM     18  O   UNL A   1      27.785  32.357  20.971  1.00  0.00    -0.274 OA
ATOM     19  H   UNL A   1      29.206  30.655  20.124  1.00  0.00     0.169 HD
BRANCH  17  20
ATOM     20  C   UNL A   1      28.696  32.100  23.176  1.00  0.00     0.072 C 
ATOM     21  C   UNL A   1      29.074  33.557  23.420  1.00  0.00     0.018 C 
ATOM     22  C   UNL A   1      27.574  31.619  24.096  1.00  0.00     0.018 C 
ENDBRANCH  17  20
ENDBRANCH   7  16
ENDBRANCH   5   6
BRANCH   5  23
ATOM     23  N   UNL A   1      33.399  25.406  25.391  1.00  0.00    -0.310 N 
ATOM     24  C   UNL A   1      33.370  24.388  26.432  1.00  0.00     0.325 C 
ATOM     25  C   UNL A   1      33.997  24.891  24.161  1.00  0.00     0.325 C 
ATOM     26  H   UNL A   1      34.047  26.116  25.732  1.00  0.00     0.349 HD
ATOM     27  C   UNL A   1      32.702  23.105  25.977  1.00  0.00     0.325 C 
ATOM     28  C   UNL A   1      33.662  23.430  23.740  1.00  0.00     0.325 C 
ATOM     29  N   UNL A   1      33.223  22.487  24.762  1.00  0.00    -0.318 N 
ATOM     30  H   UNL A   1      32.425  22.068  24.285  1.00  0.00     0.348 HD
BRANCH  29  31
ATOM     31  C   UNL A   1      34.072  21.318  25.027  1.00  0.00     0.364 C 
BRANCH  31  32
ATOM     32  C   UNL A   1      33.258  20.080  25.428  1.00  0.00     0.277 C 
ATOM     33  O   UNL A   1      33.176  19.761  26.619  1.00  0.00    -0.268 OA
ATOM     34  N   UNL A   1      32.717  19.282  24.435  1.00  0.00    -0.344 N 
ATOM     35  C   UNL A   1      32.432  19.714  23.081  1.00  0.00     0.146 C 
ATOM     36  C   UNL A   1      32.273  17.950  24.802  1.00  0.00     0.146 C 
ENDBRANCH  31  32
ENDBRANCH  29  31
ENDBRANCH   5  23
ENDBRANCH   3   5
ENDBRANCH   2   3
ENDBRANCH   1   2
BRANCH   1  37
ATOM     37  C   UNL A   1      32.061  30.117  26.511  1.00  0.00     0.275 C 
BRANCH  37  38
ATOM     38  O   UNL A   1      33.430  30.551  26.443  1.00  0.00    -0.458 OA
BRANCH  38  39
ATOM     39  C   UNL A   1      33.842  31.421  27.394  1.00  0.00     0.338 C 
ATOM     40  O   UNL A   1      33.379  32.526  27.618  1.00  0.00    -0.246 OA
BRANCH  39  41
ATOM     41  C   UNL A   1      35.101  30.897  27.958  1.00  0.00     0.060 A 
ATOM     42  C   UNL A   1      36.035  31.834  28.383  1.00  0.00     0.016 A 
ATOM     43  C   UNL A   1      35.422  29.536  27.968  1.00  0.00     0.016 A 
ATOM     44  C   UNL A   1      37.326  31.413  28.703  1.00  0.00     0.010 A 
ATOM     45  C   UNL A   1      36.678  29.114  28.445  1.00  0.00     0.010 A 
ATOM     46  C   UNL A   1      37.658  30.048  28.819  1.00  0.00    -0.014 A 
BRANCH  46  47
ATOM     47  C   UNL A   1      38.966  29.658  29.448  1.00  0.00     0.031 A 
ATOM     48  C   UNL A   1      39.912  28.639  28.853  1.00  0.00     0.074 A 
ATOM     49  C   UNL A   1      39.312  30.246  30.616  1.00  0.00     0.049 A 
ATOM     50  N   UNL A   1      40.977  28.092  29.394  1.00  0.00    -0.248 NA
ATOM     51  C   UNL A   1      39.637  28.162  27.490  1.00  0.00     0.031 C 
ATOM     52  C   UNL A   1      38.507  31.243  31.326  1.00  0.00     0.029 A 
ATOM     53  N   UNL A   1      40.424  30.107  31.414  1.00  0.00    -0.354 N 
ATOM     54  C   UNL A   1      41.467  27.179  28.464  1.00  0.00     0.074 A 
ATOM     55  C   UNL A   1      40.591  27.254  27.313  1.00  0.00     0.031 C 
ATOM     56  C   UNL A   1      39.179  31.692  32.387  1.00  0.00     0.029 A 
ATOM     57  C   UNL A   1      40.376  30.883  32.550  1.00  0.00     0.049 A 
ATOM     58  H   UNL A   1      41.178  29.513  31.195  1.00  0.00     0.167 HD
ATOM     59  C   UNL A   1      42.545  26.360  28.561  1.00  0.00     0.034 A 
ATOM     60  C   UNL A   1      41.134  30.899  33.662  1.00  0.00     0.034 A 
ATOM     61  C   UNL A   1      43.448  26.325  29.687  1.00  0.00     0.049 A 
ATOM     62  C   UNL A   1      42.275  29.945  33.773  1.00  0.00     0.074 A 
ATOM     63  C   UNL A   1      44.575  25.536  29.863  1.00  0.00     0.029 A 
ATOM     64  N   UNL A   1      43.339  27.112  30.823  1.00  0.00    -0.354 N 
ATOM     65  N   UNL A   1      42.713  29.085  32.887  1.00  0.00    -0.248 NA
ATOM     66  C   UNL A   1      43.021  29.951  35.036  1.00  0.00     0.031 C 
ATOM     67  C   UNL A   1      45.132  25.831  31.114  1.00  0.00     0.029 A 
ATOM     68  C   UNL A   1      44.365  26.817  31.709  1.00  0.00     0.049 A 
ATOM     69  H   UNL A   1      42.635  27.783  30.978  1.00  0.00     0.167 HD
ATOM     70  C   UNL A   1      43.786  28.443  33.485  1.00  0.00     0.074 A 
ATOM     71  C   UNL A   1      43.955  29.040  34.795  1.00  0.00     0.031 C 
ATOM     72  C   UNL A   1      44.544  27.431  32.999  1.00  0.00     0.034 A 
BRANCH  59  73
ATOM     73  C   UNL A   1      42.846  25.425  27.414  1.00  0.00     0.023 A 
ATOM     74  C   UNL A   1      43.786  25.800  26.434  1.00  0.00     0.012 A 
ATOM     75  C   UNL A   1      42.295  24.126  27.378  1.00  0.00     0.148 A 
ATOM     76  C   UNL A   1      44.165  24.904  25.432  1.00  0.00     0.002 A 
ATOM     77  C   UNL A   1      42.701  23.228  26.395  1.00  0.00     0.091 A 
ATOM     78  F   UNL A   1      41.391  23.789  28.308  1.00  0.00    -0.205 F 
ATOM     79  C   UNL A   1      43.632  23.616  25.419  1.00  0.00     0.022 A 
BRANCH  77  80
ATOM     80  S   UNL A   1      42.121  21.527  26.339  1.00  0.00     0.127 S 
ATOM     81  O   UNL A   1      40.714  21.706  25.982  1.00  0.00    -0.237 OA
ATOM     82  O   UNL A   1      42.947  20.948  25.279  1.00  0.00    -0.237 OA
ATOM     83  O   UNL A   1      42.366  20.978  27.665  1.00  0.00    -0.744 OA
ENDBRANCH  77  80
ENDBRANCH  59  73
BRANCH  60  84
ATOM     84  C   UNL A   1      40.766  31.829  34.768  1.00  0.00     0.023 A 
ATOM     85  C   UNL A   1      41.229  33.156  34.750  1.00  0.00     0.012 A 
ATOM     86  C   UNL A   1      39.838  31.437  35.757  1.00  0.00     0.148 A 
ATOM     87  C   UNL A   1      40.762  34.078  35.688  1.00  0.00     0.002 A 
ATOM     88  C   UNL A   1      39.310  32.382  36.624  1.00  0.00     0.091 A 
ATOM     89  F   UNL A   1      39.436  30.157  35.785  1.00  0.00    -0.205 F 
ATOM     90  C   UNL A   1      39.783  33.700  36.605  1.00  0.00     0.022 A 
BRANCH  88  91
ATOM     91  S   UNL A   1      37.882  32.006  37.651  1.00  0.00     0.127 S 
ATOM     92  O   UNL A   1      37.565  30.642  37.242  1.00  0.00    -0.237 OA
ATOM     93  O   UNL A   1      38.428  32.135  39.003  1.00  0.00    -0.237 OA
ATOM     94  O   UNL A   1      36.896  33.026  37.315  1.00  0.00    -0.744 OA
ENDBRANCH  88  91
ENDBRANCH  60  84
BRANCH  72  95
ATOM     95  C   UNL A   1      45.631  26.912  33.897  1.00  0.00     0.023 A 
ATOM     96  C   UNL A   1      46.914  27.490  33.834  1.00  0.00     0.012 A 
ATOM     97  C   UNL A   1      45.384  25.866  34.807  1.00  0.00     0.148 A 
ATOM     98  C   UNL A   1      47.947  27.010  34.638  1.00  0.00     0.002 A 
ATOM     99  C   UNL A   1      46.408  25.419  35.633  1.00  0.00     0.091 A 
ATOM    100  F   UNL A   1      44.164  25.312  34.830  1.00  0.00    -0.205 F 
ATOM    101  C   UNL A   1      47.692  25.982  35.543  1.00  0.00     0.022 A 
BRANCH  99 102
ATOM    102  S   UNL A   1      46.148  24.147  36.874  1.00  0.00     0.127 S 
ATOM    103  O   UNL A   1      45.078  24.732  37.680  1.00  0.00    -0.237 OA
ATOM    104  O   UNL A   1      45.744  22.997  36.065  1.00  0.00    -0.237 OA
ATOM    105  O   UNL A   1      47.429  23.985  37.549  1.00  0.00    -0.744 OA
ENDBRANCH  99 102
ENDBRANCH  72  95
ENDBRANCH  46  47
ENDBRANCH  39  41
ENDBRANCH  38  39
ENDBRANCH  37  38
ENDBRANCH   1  37
TORSDOF 20
ENDMDL
MODEL 3
REMARK VINA RESULT:     -12.0      4.273      6.059
REMARK SMILES CC(C)C(=O)Nc1ccc2c([C@H](C(=O)OCCOC(=O)c3ccc(-c4c5nc(c(-c6cccc(S(=O)(=O)[O-])c6F)c6ccc([nH]6)c(-c6cccc(S(=O)(=O)[O-])c6F)c6nc(c(-c7cccc(S(=O)(=O)[O-])c7F)c7ccc4[nH]7)C=C6)C=C5)cc3)[NH+]3CC[NH+](CC(=O)N(C)C)CC3)c[nH]c2c1
REMARK SMILES IDX 16 1 15 2 13 3 14 4 12 5 11 6 7 7 8 8 99 9 9 10 98 11 10 12
REMARK SMILES IDX 97 13 96 14 6 16 4 17 5 18 2 20 1 21 3 22 84 23 85 24 95 25
REMARK SMILES IDX 86 27 94 28 87 29 88 31 89 32 90 33 91 34 92 35 93 36 17 37
REMARK SMILES IDX 18 38 19 39 20 40 21 41 22 42 83 43 23 44 82 45 24 46 25 47
REMARK SMILES IDX 26 48 76 49 27 50 81 51 75 52 77 53 28 54 80 55 74 56 73 57
REMARK SMILES IDX 29 59 61 60 41 61 60 62 42 63 45 64 59 65 78 66 43 67 44 68
REMARK SMILES IDX 58 70 79 71 46 72 30 73 31 74 39 75 32 76 34 77 40 78 33 79
REMARK SMILES IDX 35 80 36 81 37 82 38 83 62 84 63 85 71 86 64 87 66 88 72 89
REMARK SMILES IDX 65 90 67 91 68 92 69 93 70 94 47 95 48 96 56 97 49 98 51 99
REMARK SMILES IDX 57 100 50 101 52 102 53 103 54 104 55 105
REMARK H PARENT 97 15 6 19 84 26 87 30 77 58 45 69
REMARK Flexibility Score: inf
ROOT
ATOM      1  C   UNL A   1      32.169  27.461  26.926  1.00  0.00     0.274 C 
ENDROOT
BRANCH   1   2
ATOM      2  O   UNL A   1      32.790  26.356  26.244  1.00  0.00    -0.457 OA
BRANCH   2   3
ATOM      3  C   UNL A   1      31.999  25.265  26.077  1.00  0.00     0.370 C 
ATOM      4  O   UNL A   1      31.475  24.688  27.032  1.00  0.00    -0.245 OA
BRANCH   3   5
ATOM      5  C   UNL A   1      31.838  24.775  24.617  1.00  0.00     0.328 C 
BRANCH   5   6
ATOM      6  C   UNL A   1      31.577  25.924  23.636  1.00  0.00     0.046 A 
ATOM      7  C   UNL A   1      28.374  28.578  23.032  1.00  0.00     0.043 A 
ATOM      8  C   UNL A   1      28.065  27.420  23.728  1.00  0.00     0.027 A 
ATOM      9  C   UNL A   1      29.585  28.687  22.341  1.00  0.00     0.052 A 
ATOM     10  C   UNL A   1      29.046  26.474  24.004  1.00  0.00     0.013 A 
ATOM     11  C   UNL A   1      30.554  27.703  22.597  1.00  0.00     0.048 A 
ATOM     12  C   UNL A   1      30.339  26.645  23.478  1.00  0.00     0.009 A 
ATOM     13  N   UNL A   1      31.833  27.562  22.118  1.00  0.00    -0.361 N 
ATOM     14  C   UNL A   1      32.458  26.513  22.742  1.00  0.00     0.094 A 
ATOM     15  H   UNL A   1      32.242  28.130  21.425  1.00  0.00     0.166 HD
BRANCH   7  16
ATOM     16  N   UNL A   1      27.491  29.662  23.028  1.00  0.00    -0.326 N 
ATOM     17  C   UNL A   1      27.736  30.980  23.305  1.00  0.00     0.226 C 
ATOM     18  O   UNL A   1      26.759  31.737  23.382  1.00  0.00    -0.274 OA
ATOM     19  H   UNL A   1      26.561  29.446  22.791  1.00  0.00     0.169 HD
BRANCH  17  20
ATOM     20  C   UNL A   1      29.153  31.581  23.409  1.00  0.00     0.072 C 
ATOM     21  C   UNL A   1      29.308  33.003  22.882  1.00  0.00     0.018 C 
ATOM     22  C   UNL A   1      29.834  31.375  24.762  1.00  0.00     0.018 C 
ENDBRANCH  17  20
ENDBRANCH   7  16
ENDBRANCH   5   6
BRANCH   5  23
ATOM     23  N   UNL A   1      32.805  23.801  24.056  1.00  0.00    -0.310 N 
ATOM     24  C   UNL A   1      33.711  23.112  24.964  1.00  0.00     0.325 C 
ATOM     25  C   UNL A   1      32.364  22.921  22.976  1.00  0.00     0.325 C 
ATOM     26  H   UNL A   1      33.374  24.518  23.607  1.00  0.00     0.349 HD
ATOM     27  C   UNL A   1      33.131  21.815  25.498  1.00  0.00     0.325 C 
ATOM     28  C   UNL A   1      32.054  21.434  23.324  1.00  0.00     0.325 C 
ATOM     29  N   UNL A   1      32.666  20.847  24.510  1.00  0.00    -0.318 N 
ATOM     30  H   UNL A   1      31.854  20.385  24.917  1.00  0.00     0.348 HD
BRANCH  29  31
ATOM     31  C   UNL A   1      33.595  19.726  24.319  1.00  0.00     0.364 C 
BRANCH  31  32
ATOM     32  C   UNL A   1      33.072  18.419  24.932  1.00  0.00     0.277 C 
ATOM     33  O   UNL A   1      32.373  18.457  25.951  1.00  0.00    -0.268 OA
ATOM     34  N   UNL A   1      33.483  17.214  24.391  1.00  0.00    -0.344 N 
ATOM     35  C   UNL A   1      33.976  17.030  23.041  1.00  0.00     0.146 C 
ATOM     36  C   UNL A   1      33.283  16.012  25.181  1.00  0.00     0.146 C 
ENDBRANCH  31  32
ENDBRANCH  29  31
ENDBRANCH   5  23
ENDBRANCH   3   5
ENDBRANCH   2   3
ENDBRANCH   1   2
BRANCH   1  37
ATOM     37  C   UNL A   1      32.109  28.703  26.025  1.00  0.00     0.275 C 
BRANCH  37  38
ATOM     38  O   UNL A   1      33.294  29.517  26.065  1.00  0.00    -0.458 OA
BRANCH  38  39
ATOM     39  C   UNL A   1      33.296  30.548  26.942  1.00  0.00     0.338 C 
ATOM     40  O   UNL A   1      32.439  31.407  27.055  1.00  0.00    -0.246 OA
BRANCH  39  41
ATOM     41  C   UNL A   1      34.628  30.586  27.577  1.00  0.00     0.060 A 
ATOM     42  C   UNL A   1      35.105  29.392  28.103  1.00  0.00     0.016 A 
ATOM     43  C   UNL A   1      35.349  31.770  27.763  1.00  0.00     0.016 A 
ATOM     44  C   UNL A   1      36.238  29.409  28.915  1.00  0.00     0.010 A 
ATOM     45  C   UNL A   1      36.576  31.743  28.454  1.00  0.00     0.010 A 
ATOM     46  C   UNL A   1      37.043  30.559  29.047  1.00  0.00    -0.014 A 
BRANCH  46  47
ATOM     47  C   UNL A   1      38.398  30.441  29.688  1.00  0.00     0.031 A 
ATOM     48  C   UNL A   1      38.800  31.184  30.942  1.00  0.00     0.074 A 
ATOM     49  C   UNL A   1      39.310  29.630  29.105  1.00  0.00     0.049 A 
ATOM     50  N   UNL A   1      39.992  31.300  31.481  1.00  0.00    -0.248 NA
ATOM     51  C   UNL A   1      37.750  31.893  31.686  1.00  0.00     0.031 C 
ATOM     52  C   UNL A   1      39.084  28.849  27.885  1.00  0.00     0.029 A 
ATOM     53  N   UNL A   1      40.604  29.315  29.449  1.00  0.00    -0.354 N 
ATOM     54  C   UNL A   1      39.844  32.128  32.591  1.00  0.00     0.074 A 
ATOM     55  C   UNL A   1      38.440  32.476  32.660  1.00  0.00     0.031 C 
ATOM     56  C   UNL A   1      40.146  28.082  27.638  1.00  0.00     0.029 A 
ATOM     57  C   UNL A   1      41.207  28.453  28.560  1.00  0.00     0.049 A 
ATOM     58  H   UNL A   1      41.054  29.669  30.250  1.00  0.00     0.167 HD
ATOM     59  C   UNL A   1      40.788  32.554  33.468  1.00  0.00     0.034 A 
ATOM     60  C   UNL A   1      42.486  28.061  28.414  1.00  0.00     0.034 A 
ATOM     61  C   UNL A   1      42.178  32.163  33.429  1.00  0.00     0.049 A 
ATOM     62  C   UNL A   1      43.518  28.593  29.351  1.00  0.00     0.074 A 
ATOM     63  C   UNL A   1      43.201  32.535  34.288  1.00  0.00     0.029 A 
ATOM     64  N   UNL A   1      42.742  31.310  32.493  1.00  0.00    -0.354 N 
ATOM     65  N   UNL A   1      43.356  29.380  30.385  1.00  0.00    -0.248 NA
ATOM     66  C   UNL A   1      44.907  28.195  29.100  1.00  0.00     0.031 C 
ATOM     67  C   UNL A   1      44.386  31.925  33.857  1.00  0.00     0.029 A 
ATOM     68  C   UNL A   1      44.098  31.157  32.742  1.00  0.00     0.049 A 
ATOM     69  H   UNL A   1      42.250  30.876  31.758  1.00  0.00     0.167 HD
ATOM     70  C   UNL A   1      44.624  29.577  30.909  1.00  0.00     0.074 A 
ATOM     71  C   UNL A   1      45.538  28.795  30.100  1.00  0.00     0.031 C 
ATOM     72  C   UNL A   1      44.997  30.358  31.951  1.00  0.00     0.034 A 
BRANCH  59  73
ATOM     73  C   UNL A   1      40.372  33.488  34.579  1.00  0.00     0.023 A 
ATOM     74  C   UNL A   1      40.441  34.881  34.384  1.00  0.00     0.012 A 
ATOM     75  C   UNL A   1      39.793  32.987  35.765  1.00  0.00     0.148 A 
ATOM     76  C   UNL A   1      39.952  35.761  35.353  1.00  0.00     0.002 A 
ATOM     77  C   UNL A   1      39.279  33.868  36.712  1.00  0.00     0.091 A 
ATOM     78  F   UNL A   1      39.748  31.659  35.942  1.00  0.00    -0.205 F 
ATOM     79  C   UNL A   1      39.361  35.255  36.509  1.00  0.00     0.022 A 
BRANCH  77  80
ATOM     80  S   UNL A   1      38.439  33.309  38.199  1.00  0.00     0.127 S 
ATOM     81  O   UNL A   1      38.348  34.547  38.971  1.00  0.00    -0.237 OA
ATOM     82  O   UNL A   1      37.161  32.825  37.675  1.00  0.00    -0.237 OA
ATOM     83  O   UNL A   1      39.288  32.274  38.772  1.00  0.00    -0.744 OA
ENDBRANCH  77  80
ENDBRANCH  59  73
BRANCH  60  84
ATOM     84  C   UNL A   1      42.834  27.158  27.280  1.00  0.00     0.023 A 
ATOM     85  C   UNL A   1      43.268  27.702  26.059  1.00  0.00     0.012 A 
ATOM     86  C   UNL A   1      42.876  25.759  27.463  1.00  0.00     0.148 A 
ATOM     87  C   UNL A   1      43.750  26.870  25.047  1.00  0.00     0.002 A 
ATOM     88  C   UNL A   1      43.444  24.950  26.490  1.00  0.00     0.091 A 
ATOM     89  F   UNL A   1      42.423  25.252  28.619  1.00  0.00    -0.205 F 
ATOM     90  C   UNL A   1      43.866  25.500  25.272  1.00  0.00     0.022 A 
BRANCH  88  91
ATOM     91  S   UNL A   1      43.838  23.228  26.826  1.00  0.00     0.127 S 
ATOM     92  O   UNL A   1      44.698  23.336  28.000  1.00  0.00    -0.237 OA
ATOM     93  O   UNL A   1      42.517  22.650  27.080  1.00  0.00    -0.237 OA
ATOM     94  O   UNL A   1      44.470  22.739  25.607  1.00  0.00    -0.744 OA
ENDBRANCH  88  91
ENDBRANCH  60  84
BRANCH  72  95
ATOM     95  C   UNL A   1      46.464  30.396  32.274  1.00  0.00     0.023 A 
ATOM     96  C   UNL A   1      47.276  31.389  31.690  1.00  0.00     0.012 A 
ATOM     97  C   UNL A   1      47.037  29.462  33.158  1.00  0.00     0.148 A 
ATOM     98  C   UNL A   1      48.644  31.429  31.954  1.00  0.00     0.002 A 
ATOM     99  C   UNL A   1      48.395  29.533  33.446  1.00  0.00     0.091 A 
ATOM    100  F   UNL A   1      46.252  28.509  33.681  1.00  0.00    -0.205 F 
ATOM    101  C   UNL A   1      49.202  30.508  32.837  1.00  0.00     0.022 A 
BRANCH  99 102
ATOM    102  S   UNL A   1      49.180  28.429  34.626  1.00  0.00     0.127 S 
ATOM    103  O   UNL A   1      50.597  28.675  34.365  1.00  0.00    -0.237 OA
ATOM    104  O   UNL A   1      48.698  28.944  35.907  1.00  0.00    -0.237 OA
ATOM    105  O   UNL A   1      48.701  27.093  34.298  1.00  0.00    -0.744 OA
ENDBRANCH  99 102
ENDBRANCH  72  95
ENDBRANCH  46  47
ENDBRANCH  39  41
ENDBRANCH  38  39
ENDBRANCH  37  38
ENDBRANCH   1  37
TORSDOF 20
ENDMDL
