MODEL 1
REMARK VINA RESULT:     -11.5      0.000      0.000
REMARK SMILES CC(C)OC(=O)c1c(NC(=O)[C@H]2[C@@H](C(=O)OCCOC(=O)c3ccc(-c4c5nc(c(-c6cccc(S(=O)(=O)[O-])c6F)c6ccc([nH]6)c(-c6cccc(S(=O)(=O)[O-])c6F)c6nc(c(-c7cccc(S(=O)(=O)[O-])c7F)c7ccc4[nH]7)C=C6)C=C5)cc3)[C@@H]3C=C[C@H]2CC3)sc2c1CCC2
REMARK SMILES IDX 17 1 16 2 14 3 15 4 13 5 12 6 88 7 85 8 87 9 89 10 86 11
REMARK SMILES IDX 90 12 10 13 9 14 11 16 8 17 7 18 93 19 91 20 92 21 94 22
REMARK SMILES IDX 96 23 95 24 5 25 6 26 4 27 2 28 1 29 3 30 18 31 19 32 20 33
REMARK SMILES IDX 21 34 22 35 23 36 84 37 24 38 83 39 25 40 26 41 27 42 77 43
REMARK SMILES IDX 28 44 82 45 76 46 78 47 29 48 81 49 75 50 74 51 30 53 62 54
REMARK SMILES IDX 42 55 61 56 43 57 46 58 60 59 79 60 44 61 45 62 59 64 80 65
REMARK SMILES IDX 47 66 31 67 32 68 40 69 33 70 35 71 41 72 34 73 36 74 37 75
REMARK SMILES IDX 38 76 39 77 63 78 64 79 72 80 65 81 67 82 73 83 66 84 68 85
REMARK SMILES IDX 69 86 70 87 71 88 48 89 49 90 57 91 50 92 52 93 58 94 51 95
REMARK SMILES IDX 53 96 54 97 55 98 56 99
REMARK H PARENT 9 15 78 52 46 63
REMARK Flexibility Score: inf
ROOT
ATOM      1  C   UNL A   1      37.629  21.931  25.173  1.00  0.00     0.274 C 
ENDROOT
BRANCH   1   2
ATOM      2  O   UNL A   1      36.306  22.109  25.740  1.00  0.00    -0.462 OA
BRANCH   2   3
ATOM      3  C   UNL A   1      35.535  23.016  25.082  1.00  0.00     0.310 C 
ATOM      4  O   UNL A   1      35.945  24.140  24.821  1.00  0.00    -0.252 OA
BRANCH   3   5
ATOM      5  C   UNL A   1      34.251  22.475  24.491  1.00  0.00     0.119 C 
ATOM      6  C   UNL A   1      33.049  23.448  24.589  1.00  0.00     0.100 C 
ATOM      7  C   UNL A   1      31.755  22.657  24.194  1.00  0.00     0.025 C 
ATOM      8  C   UNL A   1      33.735  20.993  24.573  1.00  0.00     0.026 C 
ATOM      9  C   UNL A   1      32.035  21.705  23.020  1.00  0.00    -0.027 C 
ATOM     10  C   UNL A   1      31.408  21.742  25.380  1.00  0.00     0.009 C 
ATOM     11  C   UNL A   1      33.034  20.821  23.222  1.00  0.00    -0.027 C 
ATOM     12  C   UNL A   1      32.520  20.673  25.510  1.00  0.00     0.009 C 
BRANCH   6  13
ATOM     13  C   UNL A   1      32.757  24.489  25.726  1.00  0.00     0.229 C 
ATOM     14  N   UNL A   1      31.991  25.623  25.729  1.00  0.00    -0.317 N 
ATOM     15  H   UNL A   1      31.852  26.006  26.625  1.00  0.00     0.170 HD
ATOM     16  O   UNL A   1      33.255  24.213  26.835  1.00  0.00    -0.274 OA
BRANCH  14  17
ATOM     17  C   UNL A   1      31.377  26.335  24.719  1.00  0.00     0.110 A 
ATOM     18  C   UNL A   1      31.828  27.455  24.008  1.00  0.00     0.098 A 
ATOM     19  C   UNL A   1      30.700  28.059  23.354  1.00  0.00    -0.017 A 
ATOM     20  S   UNL A   1      29.873  25.813  24.142  1.00  0.00    -0.122 S 
ATOM     21  C   UNL A   1      29.565  27.317  23.514  1.00  0.00     0.011 A 
ATOM     22  C   UNL A   1      30.382  29.334  22.658  1.00  0.00     0.038 C 
ATOM     23  C   UNL A   1      28.307  27.982  23.124  1.00  0.00     0.047 C 
ATOM     24  C   UNL A   1      28.820  29.410  22.772  1.00  0.00     0.010 C 
BRANCH  18  25
ATOM     25  C   UNL A   1      33.188  27.975  24.126  1.00  0.00     0.341 C 
ATOM     26  O   UNL A   1      34.170  27.293  23.911  1.00  0.00    -0.246 OA
BRANCH  25  27
ATOM     27  O   UNL A   1      33.198  29.313  24.409  1.00  0.00    -0.459 OA
BRANCH  27  28
ATOM     28  C   UNL A   1      33.205  29.757  25.783  1.00  0.00     0.170 C 
ATOM     29  C   UNL A   1      31.905  30.399  26.250  1.00  0.00     0.052 C 
ATOM     30  C   UNL A   1      33.683  28.633  26.694  1.00  0.00     0.052 C 
ENDBRANCH  27  28
ENDBRANCH  25  27
ENDBRANCH  18  25
ENDBRANCH  14  17
ENDBRANCH   6  13
ENDBRANCH   3   5
ENDBRANCH   2   3
ENDBRANCH   1   2
BRANCH   1  31
ATOM     31  C   UNL A   1      38.834  21.872  26.124  1.00  0.00     0.275 C 
BRANCH  31  32
ATOM     32  O   UNL A   1      39.183  23.132  26.698  1.00  0.00    -0.458 OA
BRANCH  32  33
ATOM     33  C   UNL A   1      40.343  23.106  27.400  1.00  0.00     0.338 C 
ATOM     34  O   UNL A   1      40.788  22.141  28.003  1.00  0.00    -0.246 OA
BRANCH  33  35
ATOM     35  C   UNL A   1      40.967  24.439  27.441  1.00  0.00     0.060 A 
ATOM     36  C   UNL A   1      41.724  24.712  28.580  1.00  0.00     0.016 A 
ATOM     37  C   UNL A   1      40.617  25.455  26.541  1.00  0.00     0.016 A 
ATOM     38  C   UNL A   1      41.900  26.025  28.954  1.00  0.00     0.010 A 
ATOM     39  C   UNL A   1      40.832  26.776  26.899  1.00  0.00     0.010 A 
ATOM     40  C   UNL A   1      41.357  27.044  28.161  1.00  0.00    -0.014 A 
BRANCH  40  41
ATOM     41  C   UNL A   1      41.277  28.358  28.780  1.00  0.00     0.031 A 
ATOM     42  C   UNL A   1      42.273  29.348  28.310  1.00  0.00     0.074 A 
ATOM     43  C   UNL A   1      40.400  28.655  29.760  1.00  0.00     0.049 A 
ATOM     44  N   UNL A   1      43.242  29.877  28.984  1.00  0.00    -0.248 NA
ATOM     45  C   UNL A   1      42.250  29.699  26.886  1.00  0.00     0.031 C 
ATOM     46  C   UNL A   1      39.217  27.897  30.177  1.00  0.00     0.029 A 
ATOM     47  N   UNL A   1      40.324  29.790  30.511  1.00  0.00    -0.354 N 
ATOM     48  C   UNL A   1      43.839  30.785  28.117  1.00  0.00     0.074 A 
ATOM     49  C   UNL A   1      43.284  30.535  26.809  1.00  0.00     0.031 C 
ATOM     50  C   UNL A   1      38.407  28.709  30.892  1.00  0.00     0.029 A 
ATOM     51  C   UNL A   1      39.081  29.979  31.095  1.00  0.00     0.049 A 
ATOM     52  H   UNL A   1      41.077  30.414  30.627  1.00  0.00     0.167 HD
ATOM     53  C   UNL A   1      44.599  31.819  28.563  1.00  0.00     0.034 A 
ATOM     54  C   UNL A   1      38.607  31.134  31.614  1.00  0.00     0.034 A 
ATOM     55  C   UNL A   1      45.041  31.646  29.917  1.00  0.00     0.049 A 
ATOM     56  C   UNL A   1      39.764  32.000  31.934  1.00  0.00     0.074 A 
ATOM     57  C   UNL A   1      45.808  30.716  30.587  1.00  0.00     0.029 A 
ATOM     58  N   UNL A   1      44.413  32.387  30.887  1.00  0.00    -0.354 N 
ATOM     59  N   UNL A   1      40.612  31.757  32.895  1.00  0.00    -0.248 NA
ATOM     60  C   UNL A   1      40.205  32.967  30.942  1.00  0.00     0.031 C 
ATOM     61  C   UNL A   1      45.256  30.652  31.899  1.00  0.00     0.029 A 
ATOM     62  C   UNL A   1      44.192  31.555  31.951  1.00  0.00     0.049 A 
ATOM     63  H   UNL A   1      44.167  33.339  30.829  1.00  0.00     0.167 HD
ATOM     64  C   UNL A   1      41.835  32.194  32.402  1.00  0.00     0.074 A 
ATOM     65  C   UNL A   1      41.500  33.044  31.263  1.00  0.00     0.031 C 
ATOM     66  C   UNL A   1      43.006  31.598  32.779  1.00  0.00     0.034 A 
BRANCH  53  67
ATOM     67  C   UNL A   1      44.678  33.150  27.867  1.00  0.00     0.023 A 
ATOM     68  C   UNL A   1      45.892  33.505  27.244  1.00  0.00     0.012 A 
ATOM     69  C   UNL A   1      43.707  34.167  28.025  1.00  0.00     0.148 A 
ATOM     70  C   UNL A   1      46.135  34.815  26.817  1.00  0.00     0.002 A 
ATOM     71  C   UNL A   1      43.921  35.443  27.522  1.00  0.00     0.091 A 
ATOM     72  F   UNL A   1      42.627  33.947  28.782  1.00  0.00    -0.205 F 
ATOM     73  C   UNL A   1      45.144  35.781  26.942  1.00  0.00     0.022 A 
BRANCH  71  74
ATOM     74  S   UNL A   1      42.636  36.693  27.608  1.00  0.00     0.127 S 
ATOM     75  O   UNL A   1      43.096  37.659  26.617  1.00  0.00    -0.237 OA
ATOM     76  O   UNL A   1      41.444  35.934  27.227  1.00  0.00    -0.237 OA
ATOM     77  O   UNL A   1      42.636  37.136  28.998  1.00  0.00    -0.744 OA
ENDBRANCH  71  74
ENDBRANCH  53  67
BRANCH  54  78
ATOM     78  C   UNL A   1      37.215  31.634  31.612  1.00  0.00     0.023 A 
ATOM     79  C   UNL A   1      36.568  31.901  32.833  1.00  0.00     0.012 A 
ATOM     80  C   UNL A   1      36.602  32.085  30.419  1.00  0.00     0.148 A 
ATOM     81  C   UNL A   1      35.362  32.612  32.867  1.00  0.00     0.002 A 
ATOM     82  C   UNL A   1      35.396  32.775  30.456  1.00  0.00     0.091 A 
ATOM     83  F   UNL A   1      37.247  31.924  29.256  1.00  0.00    -0.205 F 
ATOM     84  C   UNL A   1      34.777  33.051  31.681  1.00  0.00     0.022 A 
BRANCH  82  85
ATOM     85  S   UNL A   1      34.591  33.364  28.960  1.00  0.00     0.127 S 
ATOM     86  O   UNL A   1      34.354  32.117  28.230  1.00  0.00    -0.237 OA
ATOM     87  O   UNL A   1      33.389  34.000  29.490  1.00  0.00    -0.237 OA
ATOM     88  O   UNL A   1      35.551  34.253  28.317  1.00  0.00    -0.744 OA
ENDBRANCH  82  85
ENDBRANCH  54  78
BRANCH  66  89
ATOM     89  C   UNL A   1      42.977  30.648  33.952  1.00  0.00     0.023 A 
ATOM     90  C   UNL A   1      43.244  31.089  35.265  1.00  0.00     0.012 A 
ATOM     91  C   UNL A   1      42.500  29.338  33.762  1.00  0.00     0.148 A 
ATOM     92  C   UNL A   1      43.074  30.237  36.358  1.00  0.00     0.002 A 
ATOM     93  C   UNL A   1      42.288  28.507  34.857  1.00  0.00     0.091 A 
ATOM     94  F   UNL A   1      42.236  28.931  32.510  1.00  0.00    -0.205 F 
ATOM     95  C   UNL A   1      42.584  28.950  36.156  1.00  0.00     0.022 A 
BRANCH  93  96
ATOM     96  S   UNL A   1      41.533  26.888  34.677  1.00  0.00     0.127 S 
ATOM     97  O   UNL A   1      42.629  26.097  34.121  1.00  0.00    -0.237 OA
ATOM     98  O   UNL A   1      41.173  26.547  36.056  1.00  0.00    -0.237 OA
ATOM     99  O   UNL A   1      40.385  27.081  33.799  1.00  0.00    -0.744 OA
ENDBRANCH  93  96
ENDBRANCH  66  89
ENDBRANCH  40  41
ENDBRANCH  33  35
ENDBRANCH  32  33
ENDBRANCH  31  32
ENDBRANCH   1  31
TORSDOF 19
ENDMDL
MODEL 2
REMARK VINA RESULT:     -11.3      1.237      2.083
REMARK SMILES CC(C)OC(=O)c1c(NC(=O)[C@H]2[C@@H](C(=O)OCCOC(=O)c3ccc(-c4c5nc(c(-c6cccc(S(=O)(=O)[O-])c6F)c6ccc([nH]6)c(-c6cccc(S(=O)(=O)[O-])c6F)c6nc(c(-c7cccc(S(=O)(=O)[O-])c7F)c7ccc4[nH]7)C=C6)C=C5)cc3)[C@@H]3C=C[C@H]2CC3)sc2c1CCC2
REMARK SMILES IDX 17 1 16 2 14 3 15 4 13 5 12 6 88 7 85 8 87 9 89 10 86 11
REMARK SMILES IDX 90 12 10 13 9 14 11 16 8 17 7 18 93 19 91 20 92 21 94 22
REMARK SMILES IDX 96 23 95 24 5 25 6 26 4 27 2 28 1 29 3 30 18 31 19 32 20 33
REMARK SMILES IDX 21 34 22 35 23 36 84 37 24 38 83 39 25 40 26 41 27 42 77 43
REMARK SMILES IDX 28 44 82 45 76 46 78 47 29 48 81 49 75 50 74 51 30 53 62 54
REMARK SMILES IDX 42 55 61 56 43 57 46 58 60 59 79 60 44 61 45 62 59 64 80 65
REMARK SMILES IDX 47 66 31 67 32 68 40 69 33 70 35 71 41 72 34 73 36 74 37 75
REMARK SMILES IDX 38 76 39 77 63 78 64 79 72 80 65 81 67 82 73 83 66 84 68 85
REMARK SMILES IDX 69 86 70 87 71 88 48 89 49 90 57 91 50 92 52 93 58 94 51 95
REMARK SMILES IDX 53 96 54 97 55 98 56 99
REMARK H PARENT 9 15 78 52 46 63
REMARK Flexibility Score: inf
ROOT
ATOM      1  C   UNL A   1      38.065  22.201  25.309  1.00  0.00     0.274 C 
ENDROOT
BRANCH   1   2
ATOM      2  O   UNL A   1      36.975  23.157  25.245  1.00  0.00    -0.462 OA
BRANCH   2   3
ATOM      3  C   UNL A   1      36.138  22.976  24.187  1.00  0.00     0.310 C 
ATOM      4  O   UNL A   1      36.465  23.284  23.048  1.00  0.00    -0.252 OA
BRANCH   3   5
ATOM      5  C   UNL A   1      34.894  22.161  24.471  1.00  0.00     0.119 C 
ATOM      6  C   UNL A   1      33.797  22.279  23.383  1.00  0.00     0.100 C 
ATOM      7  C   UNL A   1      32.493  21.614  23.940  1.00  0.00     0.025 C 
ATOM      8  C   UNL A   1      34.221  21.941  25.873  1.00  0.00     0.026 C 
ATOM      9  C   UNL A   1      32.825  20.340  24.734  1.00  0.00    -0.027 C 
ATOM     10  C   UNL A   1      31.898  22.586  24.971  1.00  0.00     0.009 C 
ATOM     11  C   UNL A   1      33.692  20.508  25.754  1.00  0.00    -0.027 C 
ATOM     12  C   UNL A   1      32.865  22.667  26.177  1.00  0.00     0.009 C 
BRANCH   6  13
ATOM     13  C   UNL A   1      33.468  23.529  22.495  1.00  0.00     0.229 C 
ATOM     14  N   UNL A   1      33.218  24.831  22.837  1.00  0.00    -0.317 N 
ATOM     15  H   UNL A   1      33.199  25.447  22.069  1.00  0.00     0.170 HD
ATOM     16  O   UNL A   1      33.494  23.327  21.266  1.00  0.00    -0.274 OA
BRANCH  14  17
ATOM     17  C   UNL A   1      32.988  25.449  24.049  1.00  0.00     0.110 A 
ATOM     18  C   UNL A   1      31.790  25.921  24.602  1.00  0.00     0.098 A 
ATOM     19  C   UNL A   1      32.112  26.818  25.677  1.00  0.00    -0.017 A 
ATOM     20  S   UNL A   1      34.278  25.654  25.127  1.00  0.00    -0.122 S 
ATOM     21  C   UNL A   1      33.455  26.856  25.920  1.00  0.00     0.011 A 
ATOM     22  C   UNL A   1      31.413  27.822  26.523  1.00  0.00     0.038 C 
ATOM     23  C   UNL A   1      33.914  27.943  26.807  1.00  0.00     0.047 C 
ATOM     24  C   UNL A   1      32.588  28.730  27.025  1.00  0.00     0.010 C 
BRANCH  18  25
ATOM     25  C   UNL A   1      30.483  25.663  24.003  1.00  0.00     0.341 C 
ATOM     26  O   UNL A   1      30.236  24.646  23.385  1.00  0.00    -0.246 OA
BRANCH  25  27
ATOM     27  O   UNL A   1      29.582  26.647  24.304  1.00  0.00    -0.459 OA
BRANCH  27  28
ATOM     28  C   UNL A   1      29.524  27.842  23.495  1.00  0.00     0.170 C 
ATOM     29  C   UNL A   1      30.480  27.852  22.309  1.00  0.00     0.052 C 
ATOM     30  C   UNL A   1      28.081  28.143  23.110  1.00  0.00     0.052 C 
ENDBRANCH  27  28
ENDBRANCH  25  27
ENDBRANCH  18  25
ENDBRANCH  14  17
ENDBRANCH   6  13
ENDBRANCH   3   5
ENDBRANCH   2   3
ENDBRANCH   1   2
BRANCH   1  31
ATOM     31  C   UNL A   1      38.970  22.202  26.551  1.00  0.00     0.275 C 
BRANCH  31  32
ATOM     32  O   UNL A   1      40.280  22.720  26.314  1.00  0.00    -0.458 OA
BRANCH  32  33
ATOM     33  C   UNL A   1      40.975  22.976  27.449  1.00  0.00     0.338 C 
ATOM     34  O   UNL A   1      41.088  22.217  28.401  1.00  0.00    -0.246 OA
BRANCH  33  35
ATOM     35  C   UNL A   1      41.502  24.350  27.449  1.00  0.00     0.060 A 
ATOM     36  C   UNL A   1      42.246  24.708  28.574  1.00  0.00     0.016 A 
ATOM     37  C   UNL A   1      41.073  25.314  26.526  1.00  0.00     0.016 A 
ATOM     38  C   UNL A   1      42.330  26.040  28.910  1.00  0.00     0.010 A 
ATOM     39  C   UNL A   1      41.195  26.656  26.846  1.00  0.00     0.010 A 
ATOM     40  C   UNL A   1      41.709  26.995  28.096  1.00  0.00    -0.014 A 
BRANCH  40  41
ATOM     41  C   UNL A   1      41.540  28.317  28.680  1.00  0.00     0.031 A 
ATOM     42  C   UNL A   1      42.532  29.333  28.262  1.00  0.00     0.074 A 
ATOM     43  C   UNL A   1      40.585  28.600  29.589  1.00  0.00     0.049 A 
ATOM     44  N   UNL A   1      43.431  29.909  28.992  1.00  0.00    -0.248 NA
ATOM     45  C   UNL A   1      42.599  29.657  26.833  1.00  0.00     0.031 C 
ATOM     46  C   UNL A   1      39.402  27.808  29.936  1.00  0.00     0.029 A 
ATOM     47  N   UNL A   1      40.416  29.745  30.310  1.00  0.00    -0.354 N 
ATOM     48  C   UNL A   1      44.057  30.822  28.151  1.00  0.00     0.074 A 
ATOM     49  C   UNL A   1      43.607  30.529  26.812  1.00  0.00     0.031 C 
ATOM     50  C   UNL A   1      38.516  28.603  30.575  1.00  0.00     0.029 A 
ATOM     51  C   UNL A   1      39.129  29.900  30.800  1.00  0.00     0.049 A 
ATOM     52  H   UNL A   1      41.137  30.398  30.466  1.00  0.00     0.167 HD
ATOM     53  C   UNL A   1      44.747  31.891  28.628  1.00  0.00     0.034 A 
ATOM     54  C   UNL A   1      38.579  31.046  31.259  1.00  0.00     0.034 A 
ATOM     55  C   UNL A   1      45.096  31.759  30.013  1.00  0.00     0.049 A 
ATOM     56  C   UNL A   1      39.679  31.959  31.643  1.00  0.00     0.074 A 
ATOM     57  C   UNL A   1      45.846  30.869  30.755  1.00  0.00     0.029 A 
ATOM     58  N   UNL A   1      44.375  32.494  30.921  1.00  0.00    -0.354 N 
ATOM     59  N   UNL A   1      40.464  31.764  32.667  1.00  0.00    -0.248 NA
ATOM     60  C   UNL A   1      40.157  32.923  30.665  1.00  0.00     0.031 C 
ATOM     61  C   UNL A   1      45.204  30.809  32.026  1.00  0.00     0.029 A 
ATOM     62  C   UNL A   1      44.107  31.674  31.983  1.00  0.00     0.049 A 
ATOM     63  H   UNL A   1      44.102  33.435  30.825  1.00  0.00     0.167 HD
ATOM     64  C   UNL A   1      41.703  32.236  32.253  1.00  0.00     0.074 A 
ATOM     65  C   UNL A   1      41.421  33.052  31.076  1.00  0.00     0.031 C 
ATOM     66  C   UNL A   1      42.864  31.690  32.724  1.00  0.00     0.034 A 
BRANCH  53  67
ATOM     67  C   UNL A   1      44.829  33.211  27.912  1.00  0.00     0.023 A 
ATOM     68  C   UNL A   1      46.063  33.581  27.336  1.00  0.00     0.012 A 
ATOM     69  C   UNL A   1      43.832  34.209  28.008  1.00  0.00     0.148 A 
ATOM     70  C   UNL A   1      46.298  34.888  26.897  1.00  0.00     0.002 A 
ATOM     71  C   UNL A   1      44.042  35.481  27.492  1.00  0.00     0.091 A 
ATOM     72  F   UNL A   1      42.724  33.979  28.721  1.00  0.00    -0.205 F 
ATOM     73  C   UNL A   1      45.282  35.835  26.960  1.00  0.00     0.022 A 
BRANCH  71  74
ATOM     74  S   UNL A   1      42.728  36.704  27.498  1.00  0.00     0.127 S 
ATOM     75  O   UNL A   1      41.609  35.938  26.963  1.00  0.00    -0.237 OA
ATOM     76  O   UNL A   1      42.628  37.039  28.920  1.00  0.00    -0.237 OA
ATOM     77  O   UNL A   1      43.227  37.794  26.668  1.00  0.00    -0.744 OA
ENDBRANCH  71  74
ENDBRANCH  53  67
BRANCH  54  78
ATOM     78  C   UNL A   1      37.174  31.496  31.148  1.00  0.00     0.023 A 
ATOM     79  C   UNL A   1      36.449  31.814  32.312  1.00  0.00     0.012 A 
ATOM     80  C   UNL A   1      36.617  31.851  29.897  1.00  0.00     0.148 A 
ATOM     81  C   UNL A   1      35.222  32.483  32.234  1.00  0.00     0.002 A 
ATOM     82  C   UNL A   1      35.389  32.499  29.823  1.00  0.00     0.091 A 
ATOM     83  F   UNL A   1      37.333  31.641  28.784  1.00  0.00    -0.205 F 
ATOM     84  C   UNL A   1      34.693  32.827  30.992  1.00  0.00     0.022 A 
BRANCH  82  85
ATOM     85  S   UNL A   1      34.654  32.965  28.250  1.00  0.00     0.127 S 
ATOM     86  O   UNL A   1      34.350  31.662  27.656  1.00  0.00    -0.237 OA
ATOM     87  O   UNL A   1      33.486  33.732  28.675  1.00  0.00    -0.237 OA
ATOM     88  O   UNL A   1      35.682  33.714  27.539  1.00  0.00    -0.744 OA
ENDBRANCH  82  85
ENDBRANCH  54  78
BRANCH  66  89
ATOM     89  C   UNL A   1      42.785  30.760  33.911  1.00  0.00     0.023 A 
ATOM     90  C   UNL A   1      42.892  31.242  35.233  1.00  0.00     0.012 A 
ATOM     91  C   UNL A   1      42.416  29.418  33.708  1.00  0.00     0.148 A 
ATOM     92  C   UNL A   1      42.674  30.399  36.325  1.00  0.00     0.002 A 
ATOM     93  C   UNL A   1      42.153  28.594  34.797  1.00  0.00     0.091 A 
ATOM     94  F   UNL A   1      42.302  28.972  32.447  1.00  0.00    -0.205 F 
ATOM     95  C   UNL A   1      42.292  29.078  36.108  1.00  0.00     0.022 A 
BRANCH  93  96
ATOM     96  S   UNL A   1      41.528  26.924  34.585  1.00  0.00     0.127 S 
ATOM     97  O   UNL A   1      42.678  26.237  34.000  1.00  0.00    -0.237 OA
ATOM     98  O   UNL A   1      41.212  26.524  35.958  1.00  0.00    -0.237 OA
ATOM     99  O   UNL A   1      40.359  27.045  33.723  1.00  0.00    -0.744 OA
ENDBRANCH  93  96
ENDBRANCH  66  89
ENDBRANCH  40  41
ENDBRANCH  33  35
ENDBRANCH  32  33
ENDBRANCH  31  32
ENDBRANCH   1  31
TORSDOF 19
ENDMDL
MODEL 3
REMARK VINA RESULT:     -10.9      4.619      7.461
REMARK SMILES CC(C)OC(=O)c1c(NC(=O)[C@H]2[C@@H](C(=O)OCCOC(=O)c3ccc(-c4c5nc(c(-c6cccc(S(=O)(=O)[O-])c6F)c6ccc([nH]6)c(-c6cccc(S(=O)(=O)[O-])c6F)c6nc(c(-c7cccc(S(=O)(=O)[O-])c7F)c7ccc4[nH]7)C=C6)C=C5)cc3)[C@@H]3C=C[C@H]2CC3)sc2c1CCC2
REMARK SMILES IDX 17 1 16 2 14 3 15 4 13 5 12 6 88 7 85 8 87 9 89 10 86 11
REMARK SMILES IDX 90 12 10 13 9 14 11 16 8 17 7 18 93 19 91 20 92 21 94 22
REMARK SMILES IDX 96 23 95 24 5 25 6 26 4 27 2 28 1 29 3 30 18 31 19 32 20 33
REMARK SMILES IDX 21 34 22 35 23 36 84 37 24 38 83 39 25 40 26 41 27 42 77 43
REMARK SMILES IDX 28 44 82 45 76 46 78 47 29 48 81 49 75 50 74 51 30 53 62 54
REMARK SMILES IDX 42 55 61 56 43 57 46 58 60 59 79 60 44 61 45 62 59 64 80 65
REMARK SMILES IDX 47 66 31 67 32 68 40 69 33 70 35 71 41 72 34 73 36 74 37 75
REMARK SMILES IDX 38 76 39 77 63 78 64 79 72 80 65 81 67 82 73 83 66 84 68 85
REMARK SMILES IDX 69 86 70 87 71 88 48 89 49 90 57 91 50 92 52 93 58 94 51 95
REMARK SMILES IDX 53 96 54 97 55 98 56 99
REMARK H PARENT 9 15 78 52 46 63
REMARK Flexibility Score: inf
ROOT
ATOM      1  C   UNL A   1      40.020  20.537  26.103  1.00  0.00     0.274 C 
ENDROOT
BRANCH   1   2
ATOM      2  O   UNL A   1      41.396  20.651  25.654  1.00  0.00    -0.462 OA
BRANCH   2   3
ATOM      3  C   UNL A   1      42.312  20.190  26.548  1.00  0.00     0.310 C 
ATOM      4  O   UNL A   1      41.984  19.798  27.661  1.00  0.00    -0.252 OA
BRANCH   3   5
ATOM      5  C   UNL A   1      43.707  19.972  26.000  1.00  0.00     0.119 C 
ATOM      6  C   UNL A   1      44.452  21.278  25.627  1.00  0.00     0.100 C 
ATOM      7  C   UNL A   1      45.745  20.885  24.835  1.00  0.00     0.025 C 
ATOM      8  C   UNL A   1      44.164  18.814  25.042  1.00  0.00     0.026 C 
ATOM      9  C   UNL A   1      46.396  19.630  25.441  1.00  0.00    -0.027 C 
ATOM     10  C   UNL A   1      45.298  20.465  23.425  1.00  0.00     0.009 C 
ATOM     11  C   UNL A   1      45.595  18.548  25.520  1.00  0.00    -0.027 C 
ATOM     12  C   UNL A   1      44.477  19.158  23.545  1.00  0.00     0.009 C 
BRANCH   6  13
ATOM     13  C   UNL A   1      43.827  22.607  25.077  1.00  0.00     0.229 C 
ATOM     14  N   UNL A   1      43.609  23.814  25.684  1.00  0.00    -0.317 N 
ATOM     15  H   UNL A   1      43.348  24.531  25.062  1.00  0.00     0.170 HD
ATOM     16  O   UNL A   1      43.529  22.590  23.867  1.00  0.00    -0.274 OA
BRANCH  14  17
ATOM     17  C   UNL A   1      43.684  24.222  27.000  1.00  0.00     0.110 A 
ATOM     18  C   UNL A   1      44.241  25.386  27.549  1.00  0.00     0.098 A 
ATOM     19  C   UNL A   1      44.426  25.176  28.958  1.00  0.00    -0.017 A 
ATOM     20  S   UNL A   1      42.965  23.268  28.200  1.00  0.00    -0.122 S 
ATOM     21  C   UNL A   1      43.908  23.980  29.365  1.00  0.00     0.011 A 
ATOM     22  C   UNL A   1      45.139  25.833  30.086  1.00  0.00     0.038 C 
ATOM     23  C   UNL A   1      44.288  23.548  30.724  1.00  0.00     0.047 C 
ATOM     24  C   UNL A   1      45.296  24.666  31.122  1.00  0.00     0.010 C 
BRANCH  18  25
ATOM     25  C   UNL A   1      44.716  26.500  26.732  1.00  0.00     0.341 C 
ATOM     26  O   UNL A   1      44.341  26.679  25.590  1.00  0.00    -0.246 OA
BRANCH  25  27
ATOM     27  O   UNL A   1      45.537  27.335  27.438  1.00  0.00    -0.459 OA
BRANCH  27  28
ATOM     28  C   UNL A   1      46.891  27.561  26.988  1.00  0.00     0.170 C 
ATOM     29  C   UNL A   1      47.248  29.025  26.760  1.00  0.00     0.052 C 
ATOM     30  C   UNL A   1      47.873  26.836  27.900  1.00  0.00     0.052 C 
ENDBRANCH  27  28
ENDBRANCH  25  27
ENDBRANCH  18  25
ENDBRANCH  14  17
ENDBRANCH   6  13
ENDBRANCH   3   5
ENDBRANCH   2   3
ENDBRANCH   1   2
BRANCH   1  31
ATOM     31  C   UNL A   1      39.159  21.808  26.157  1.00  0.00     0.275 C 
BRANCH  31  32
ATOM     32  O   UNL A   1      39.912  23.022  26.128  1.00  0.00    -0.458 OA
BRANCH  32  33
ATOM     33  C   UNL A   1      39.284  24.064  26.724  1.00  0.00     0.338 C 
ATOM     34  O   UNL A   1      38.077  24.167  26.892  1.00  0.00    -0.246 OA
BRANCH  33  35
ATOM     35  C   UNL A   1      40.237  25.135  27.061  1.00  0.00     0.060 A 
ATOM     36  C   UNL A   1      40.426  25.363  28.424  1.00  0.00     0.016 A 
ATOM     37  C   UNL A   1      40.715  26.037  26.101  1.00  0.00     0.016 A 
ATOM     38  C   UNL A   1      40.852  26.607  28.830  1.00  0.00     0.010 A 
ATOM     39  C   UNL A   1      41.183  27.274  26.512  1.00  0.00     0.010 A 
ATOM     40  C   UNL A   1      41.124  27.588  27.868  1.00  0.00    -0.014 A 
BRANCH  40  41
ATOM     41  C   UNL A   1      41.229  28.952  28.362  1.00  0.00     0.031 A 
ATOM     42  C   UNL A   1      42.438  29.695  27.940  1.00  0.00     0.074 A 
ATOM     43  C   UNL A   1      40.325  29.501  29.198  1.00  0.00     0.049 A 
ATOM     44  N   UNL A   1      43.412  30.110  28.682  1.00  0.00    -0.248 NA
ATOM     45  C   UNL A   1      42.634  29.895  26.500  1.00  0.00     0.031 C 
ATOM     46  C   UNL A   1      38.982  29.013  29.526  1.00  0.00     0.029 A 
ATOM     47  N   UNL A   1      40.385  30.703  29.839  1.00  0.00    -0.354 N 
ATOM     48  C   UNL A   1      44.259  30.802  27.825  1.00  0.00     0.074 A 
ATOM     49  C   UNL A   1      43.810  30.521  26.482  1.00  0.00     0.031 C 
ATOM     50  C   UNL A   1      38.269  30.025  30.066  1.00  0.00     0.029 A 
ATOM     51  C   UNL A   1      39.145  31.170  30.246  1.00  0.00     0.049 A 
ATOM     52  H   UNL A   1      41.226  31.191  29.995  1.00  0.00     0.167 HD
ATOM     53  C   UNL A   1      45.149  31.725  28.274  1.00  0.00     0.034 A 
ATOM     54  C   UNL A   1      38.845  32.438  30.605  1.00  0.00     0.034 A 
ATOM     55  C   UNL A   1      45.403  31.618  29.682  1.00  0.00     0.049 A 
ATOM     56  C   UNL A   1      40.104  33.112  30.994  1.00  0.00     0.074 A 
ATOM     57  C   UNL A   1      45.905  30.640  30.517  1.00  0.00     0.029 A 
ATOM     58  N   UNL A   1      44.827  32.555  30.503  1.00  0.00    -0.354 N 
ATOM     59  N   UNL A   1      40.783  32.823  32.070  1.00  0.00    -0.248 NA
ATOM     60  C   UNL A   1      40.823  33.878  29.989  1.00  0.00     0.031 C 
ATOM     61  C   UNL A   1      45.215  30.812  31.751  1.00  0.00     0.029 A 
ATOM     62  C   UNL A   1      44.340  31.890  31.596  1.00  0.00     0.049 A 
ATOM     63  H   UNL A   1      44.773  33.524  30.336  1.00  0.00     0.167 HD
ATOM     64  C   UNL A   1      42.112  32.982  31.698  1.00  0.00     0.074 A 
ATOM     65  C   UNL A   1      42.067  33.755  30.460  1.00  0.00     0.031 C 
ATOM     66  C   UNL A   1      43.102  32.230  32.265  1.00  0.00     0.034 A 
BRANCH  53  67
ATOM     67  C   UNL A   1      45.551  32.942  27.486  1.00  0.00     0.023 A 
ATOM     68  C   UNL A   1      44.542  33.668  26.821  1.00  0.00     0.012 A 
ATOM     69  C   UNL A   1      46.893  33.243  27.158  1.00  0.00     0.148 A 
ATOM     70  C   UNL A   1      44.855  34.636  25.861  1.00  0.00     0.002 A 
ATOM     71  C   UNL A   1      47.198  34.264  26.267  1.00  0.00     0.091 A 
ATOM     72  F   UNL A   1      47.882  32.457  27.598  1.00  0.00    -0.205 F 
ATOM     73  C   UNL A   1      46.184  34.945  25.594  1.00  0.00     0.022 A 
BRANCH  71  74
ATOM     74  S   UNL A   1      48.903  34.731  25.953  1.00  0.00     0.127 S 
ATOM     75  O   UNL A   1      48.739  35.822  25.000  1.00  0.00    -0.237 OA
ATOM     76  O   UNL A   1      49.361  35.132  27.283  1.00  0.00    -0.237 OA
ATOM     77  O   UNL A   1      49.537  33.518  25.449  1.00  0.00    -0.744 OA
ENDBRANCH  71  74
ENDBRANCH  53  67
BRANCH  54  78
ATOM     78  C   UNL A   1      37.580  33.175  30.390  1.00  0.00     0.023 A 
ATOM     79  C   UNL A   1      37.044  33.277  29.093  1.00  0.00     0.012 A 
ATOM     80  C   UNL A   1      36.769  33.568  31.481  1.00  0.00     0.148 A 
ATOM     81  C   UNL A   1      35.737  33.733  28.890  1.00  0.00     0.002 A 
ATOM     82  C   UNL A   1      35.477  34.038  31.272  1.00  0.00     0.091 A 
ATOM     83  F   UNL A   1      37.226  33.391  32.727  1.00  0.00    -0.205 F 
ATOM     84  C   UNL A   1      34.952  34.112  29.977  1.00  0.00     0.022 A 
BRANCH  82  85
ATOM     85  S   UNL A   1      34.419  34.544  32.635  1.00  0.00     0.127 S 
ATOM     86  O   UNL A   1      34.303  33.306  33.408  1.00  0.00    -0.237 OA
ATOM     87  O   UNL A   1      35.218  35.589  33.270  1.00  0.00    -0.237 OA
ATOM     88  O   UNL A   1      33.169  34.981  32.025  1.00  0.00    -0.744 OA
ENDBRANCH  82  85
ENDBRANCH  54  78
BRANCH  66  89
ATOM     89  C   UNL A   1      42.770  31.427  33.499  1.00  0.00     0.023 A 
ATOM     90  C   UNL A   1      42.636  32.038  34.763  1.00  0.00     0.012 A 
ATOM     91  C   UNL A   1      42.409  30.074  33.360  1.00  0.00     0.148 A 
ATOM     92  C   UNL A   1      42.188  31.314  35.869  1.00  0.00     0.002 A 
ATOM     93  C   UNL A   1      41.919  29.367  34.453  1.00  0.00     0.091 A 
ATOM     94  F   UNL A   1      42.526  29.504  32.151  1.00  0.00    -0.205 F 
ATOM     95  C   UNL A   1      41.817  29.981  35.712  1.00  0.00     0.022 A 
BRANCH  93  96
ATOM     96  S   UNL A   1      41.298  27.690  34.289  1.00  0.00     0.127 S 
ATOM     97  O   UNL A   1      42.427  27.004  33.663  1.00  0.00    -0.237 OA
ATOM     98  O   UNL A   1      41.044  27.304  35.679  1.00  0.00    -0.237 OA
ATOM     99  O   UNL A   1      40.092  27.792  33.475  1.00  0.00    -0.744 OA
ENDBRANCH  93  96
ENDBRANCH  66  89
ENDBRANCH  40  41
ENDBRANCH  33  35
ENDBRANCH  32  33
ENDBRANCH  31  32
ENDBRANCH   1  31
TORSDOF 19
ENDMDL
