MODEL 1
REMARK VINA RESULT:     -12.5      0.000      0.000
REMARK SMILES O=C(C[NH+]1CCN(C(=O)c2ccc(F)c(F)c2F)CC1)OCCOC(=O)c1ccc(-c2c3nc(c(-c4cccc(S(=O)(=O)[O-])c4F)c4ccc([nH]4)c(-c4cccc(S(=O)(=O)[O-])c4F)c4nc(c(-c5cccc(S(=O)(=O)[O-])c5F)c5ccc2[nH]5)C=C4)C=C3)cc1
REMARK SMILES IDX 23 1 22 2 21 3 2 4 1 5 3 6 4 7 5 8 20 9 6 11 19 12 7 13 8 14
REMARK SMILES IDX 9 15 10 16 11 17 17 18 12 19 15 20 18 21 13 22 16 23 14 24
REMARK SMILES IDX 24 25 25 26 26 27 27 28 28 29 89 30 29 31 88 32 30 33 31 34
REMARK SMILES IDX 32 35 82 36 33 37 87 38 81 39 83 40 34 41 86 42 80 43 79 44
REMARK SMILES IDX 35 46 67 47 47 48 66 49 48 50 51 51 65 52 84 53 49 54 50 55
REMARK SMILES IDX 64 57 85 58 52 59 36 60 37 61 45 62 38 63 40 64 46 65 39 66
REMARK SMILES IDX 41 67 42 68 43 69 44 70 68 71 69 72 77 73 70 74 72 75 78 76
REMARK SMILES IDX 71 77 73 78 74 79 75 80 76 81 53 82 54 83 62 84 55 85 57 86
REMARK SMILES IDX 63 87 56 88 58 89 59 90 60 91 61 92
REMARK H PARENT 4 10 83 45 51 56
REMARK Flexibility Score: inf
ROOT
ATOM      1  C   UNL A   1      31.625  31.000  26.094  1.00  0.00     0.275 C 
ENDROOT
BRANCH   1   2
ATOM      2  C   UNL A   1      31.654  29.739  25.231  1.00  0.00     0.274 C 
BRANCH   2   3
ATOM      3  O   UNL A   1      30.745  29.803  24.110  1.00  0.00    -0.458 OA
BRANCH   3   4
ATOM      4  C   UNL A   1      30.244  28.740  23.423  1.00  0.00     0.361 C 
ATOM      5  O   UNL A   1      29.653  28.936  22.363  1.00  0.00    -0.245 OA
BRANCH   4   6
ATOM      6  C   UNL A   1      30.475  27.332  23.959  1.00  0.00     0.386 C 
BRANCH   6   7
ATOM      7  N   UNL A   1      30.638  26.270  22.951  1.00  0.00    -0.323 N 
ATOM      8  C   UNL A   1      31.891  26.334  22.173  1.00  0.00     0.284 C 
ATOM      9  C   UNL A   1      30.363  24.905  23.399  1.00  0.00     0.284 C 
ATOM     10  H   UNL A   1      29.877  26.503  22.314  1.00  0.00     0.348 HD
ATOM     11  C   UNL A   1      33.096  25.531  22.711  1.00  0.00     0.181 C 
ATOM     12  C   UNL A   1      31.541  24.218  24.103  1.00  0.00     0.181 C 
ATOM     13  N   UNL A   1      32.723  24.211  23.243  1.00  0.00    -0.327 N 
ATOM     14  C   UNL A   1      33.613  23.154  23.097  1.00  0.00     0.257 C 
ATOM     15  O   UNL A   1      34.619  23.178  22.395  1.00  0.00    -0.269 OA
BRANCH  14  16
ATOM     16  C   UNL A   1      33.349  21.917  23.848  1.00  0.00     0.079 A 
ATOM     17  C   UNL A   1      33.851  21.743  25.147  1.00  0.00     0.020 A 
ATOM     18  C   UNL A   1      32.624  20.901  23.226  1.00  0.00     0.174 A 
ATOM     19  C   UNL A   1      33.698  20.511  25.782  1.00  0.00     0.043 A 
ATOM     20  C   UNL A   1      32.452  19.687  23.876  1.00  0.00     0.195 A 
ATOM     21  F   UNL A   1      32.130  21.061  21.990  1.00  0.00    -0.203 F 
ATOM     22  C   UNL A   1      33.003  19.490  25.137  1.00  0.00     0.161 A 
ATOM     23  F   UNL A   1      31.778  18.694  23.278  1.00  0.00    -0.200 F 
ATOM     24  F   UNL A   1      32.881  18.301  25.744  1.00  0.00    -0.204 F 
ENDBRANCH  14  16
ENDBRANCH   6   7
ENDBRANCH   4   6
ENDBRANCH   3   4
ENDBRANCH   2   3
ENDBRANCH   1   2
BRANCH   1  25
ATOM     25  O   UNL A   1      32.521  30.864  27.204  1.00  0.00    -0.458 OA
BRANCH  25  26
ATOM     26  C   UNL A   1      33.277  31.970  27.452  1.00  0.00     0.338 C 
ATOM     27  O   UNL A   1      32.893  33.119  27.463  1.00  0.00    -0.246 OA
BRANCH  26  28
ATOM     28  C   UNL A   1      34.614  31.536  27.915  1.00  0.00     0.060 A 
ATOM     29  C   UNL A   1      34.808  30.168  28.137  1.00  0.00     0.016 A 
ATOM     30  C   UNL A   1      35.663  32.440  28.107  1.00  0.00     0.016 A 
ATOM     31  C   UNL A   1      36.038  29.707  28.603  1.00  0.00     0.010 A 
ATOM     32  C   UNL A   1      36.896  31.976  28.573  1.00  0.00     0.010 A 
ATOM     33  C   UNL A   1      37.075  30.613  28.861  1.00  0.00    -0.014 A 
BRANCH  33  34
ATOM     34  C   UNL A   1      38.280  30.145  29.584  1.00  0.00     0.031 A 
ATOM     35  C   UNL A   1      38.528  30.653  30.978  1.00  0.00     0.074 A 
ATOM     36  C   UNL A   1      39.130  29.266  29.024  1.00  0.00     0.049 A 
ATOM     37  N   UNL A   1      39.464  30.318  31.826  1.00  0.00    -0.248 NA
ATOM     38  C   UNL A   1      37.595  31.675  31.484  1.00  0.00     0.031 C 
ATOM     39  C   UNL A   1      39.021  28.726  27.670  1.00  0.00     0.029 A 
ATOM     40  N   UNL A   1      40.268  28.689  29.528  1.00  0.00    -0.354 N 
ATOM     41  C   UNL A   1      39.232  31.078  32.965  1.00  0.00     0.074 A 
ATOM     42  C   UNL A   1      38.091  31.923  32.687  1.00  0.00     0.031 C 
ATOM     43  C   UNL A   1      40.069  27.914  27.442  1.00  0.00     0.029 A 
ATOM     44  C   UNL A   1      40.917  27.875  28.632  1.00  0.00     0.049 A 
ATOM     45  H   UNL A   1      40.589  28.843  30.446  1.00  0.00     0.167 HD
ATOM     46  C   UNL A   1      39.885  31.053  34.150  1.00  0.00     0.034 A 
ATOM     47  C   UNL A   1      42.065  27.179  28.762  1.00  0.00     0.034 A 
ATOM     48  C   UNL A   1      41.019  30.216  34.432  1.00  0.00     0.049 A 
ATOM     49  C   UNL A   1      42.781  27.176  30.089  1.00  0.00     0.074 A 
ATOM     50  C   UNL A   1      41.731  30.099  35.612  1.00  0.00     0.029 A 
ATOM     51  N   UNL A   1      41.615  29.360  33.519  1.00  0.00    -0.354 N 
ATOM     52  N   UNL A   1      42.456  27.779  31.208  1.00  0.00    -0.248 NA
ATOM     53  C   UNL A   1      43.997  26.355  30.185  1.00  0.00     0.031 C 
ATOM     54  C   UNL A   1      42.770  29.184  35.408  1.00  0.00     0.029 A 
ATOM     55  C   UNL A   1      42.691  28.718  34.106  1.00  0.00     0.049 A 
ATOM     56  H   UNL A   1      41.318  29.230  32.589  1.00  0.00     0.167 HD
ATOM     57  C   UNL A   1      43.407  27.386  32.144  1.00  0.00     0.074 A 
ATOM     58  C   UNL A   1      44.300  26.467  31.471  1.00  0.00     0.031 C 
ATOM     59  C   UNL A   1      43.542  27.766  33.440  1.00  0.00     0.034 A 
BRANCH  46  60
ATOM     60  C   UNL A   1      39.347  31.921  35.255  1.00  0.00     0.023 A 
ATOM     61  C   UNL A   1      38.366  31.397  36.122  1.00  0.00     0.012 A 
ATOM     62  C   UNL A   1      39.841  33.221  35.470  1.00  0.00     0.148 A 
ATOM     63  C   UNL A   1      37.868  32.163  37.174  1.00  0.00     0.002 A 
ATOM     64  C   UNL A   1      39.367  33.964  36.544  1.00  0.00     0.091 A 
ATOM     65  F   UNL A   1      40.755  33.707  34.618  1.00  0.00    -0.205 F 
ATOM     66  C   UNL A   1      38.375  33.441  37.391  1.00  0.00     0.022 A 
BRANCH  64  67
ATOM     67  S   UNL A   1      40.001  35.594  36.952  1.00  0.00     0.127 S 
ATOM     68  O   UNL A   1      39.296  35.879  38.201  1.00  0.00    -0.237 OA
ATOM     69  O   UNL A   1      41.433  35.337  37.106  1.00  0.00    -0.237 OA
ATOM     70  O   UNL A   1      39.653  36.454  35.830  1.00  0.00    -0.744 OA
ENDBRANCH  64  67
ENDBRANCH  46  60
BRANCH  47  71
ATOM     71  C   UNL A   1      42.590  26.382  27.617  1.00  0.00     0.023 A 
ATOM     72  C   UNL A   1      43.466  26.981  26.691  1.00  0.00     0.012 A 
ATOM     73  C   UNL A   1      42.217  25.037  27.437  1.00  0.00     0.148 A 
ATOM     74  C   UNL A   1      43.925  26.267  25.583  1.00  0.00     0.002 A 
ATOM     75  C   UNL A   1      42.721  24.315  26.361  1.00  0.00     0.091 A 
ATOM     76  F   UNL A   1      41.367  24.489  28.318  1.00  0.00    -0.205 F 
ATOM     77  C   UNL A   1      43.560  24.934  25.423  1.00  0.00     0.022 A 
BRANCH  75  78
ATOM     78  S   UNL A   1      42.397  22.561  26.153  1.00  0.00     0.127 S 
ATOM     79  O   UNL A   1      40.937  22.527  26.126  1.00  0.00    -0.237 OA
ATOM     80  O   UNL A   1      43.044  22.279  24.872  1.00  0.00    -0.237 OA
ATOM     81  O   UNL A   1      43.027  21.912  27.295  1.00  0.00    -0.744 OA
ENDBRANCH  75  78
ENDBRANCH  47  71
BRANCH  59  82
ATOM     82  C   UNL A   1      44.688  27.175  34.224  1.00  0.00     0.023 A 
ATOM     83  C   UNL A   1      45.944  27.817  34.214  1.00  0.00     0.012 A 
ATOM     84  C   UNL A   1      44.510  26.023  35.015  1.00  0.00     0.148 A 
ATOM     85  C   UNL A   1      47.012  27.297  34.942  1.00  0.00     0.002 A 
ATOM     86  C   UNL A   1      45.567  25.538  35.777  1.00  0.00     0.091 A 
ATOM     87  F   UNL A   1      43.315  25.414  35.003  1.00  0.00    -0.205 F 
ATOM     88  C   UNL A   1      46.822  26.166  35.732  1.00  0.00     0.022 A 
BRANCH  86  89
ATOM     89  S   UNL A   1      45.381  24.142  36.894  1.00  0.00     0.127 S 
ATOM     90  O   UNL A   1      45.026  23.067  35.971  1.00  0.00    -0.237 OA
ATOM     91  O   UNL A   1      46.718  24.028  37.479  1.00  0.00    -0.237 OA
ATOM     92  O   UNL A   1      44.344  24.530  37.841  1.00  0.00    -0.744 OA
ENDBRANCH  86  89
ENDBRANCH  59  82
ENDBRANCH  33  34
ENDBRANCH  26  28
ENDBRANCH  25  26
ENDBRANCH   1  25
TORSDOF 16
ENDMDL
MODEL 2
REMARK VINA RESULT:     -12.4      4.922     10.366
REMARK SMILES O=C(C[NH+]1CCN(C(=O)c2ccc(F)c(F)c2F)CC1)OCCOC(=O)c1ccc(-c2c3nc(c(-c4cccc(S(=O)(=O)[O-])c4F)c4ccc([nH]4)c(-c4cccc(S(=O)(=O)[O-])c4F)c4nc(c(-c5cccc(S(=O)(=O)[O-])c5F)c5ccc2[nH]5)C=C4)C=C3)cc1
REMARK SMILES IDX 23 1 22 2 21 3 2 4 1 5 3 6 4 7 5 8 20 9 6 11 19 12 7 13 8 14
REMARK SMILES IDX 9 15 10 16 11 17 17 18 12 19 15 20 18 21 13 22 16 23 14 24
REMARK SMILES IDX 24 25 25 26 26 27 27 28 28 29 89 30 29 31 88 32 30 33 31 34
REMARK SMILES IDX 32 35 82 36 33 37 87 38 81 39 83 40 34 41 86 42 80 43 79 44
REMARK SMILES IDX 35 46 67 47 47 48 66 49 48 50 51 51 65 52 84 53 49 54 50 55
REMARK SMILES IDX 64 57 85 58 52 59 36 60 37 61 45 62 38 63 40 64 46 65 39 66
REMARK SMILES IDX 41 67 42 68 43 69 44 70 68 71 69 72 77 73 70 74 72 75 78 76
REMARK SMILES IDX 71 77 73 78 74 79 75 80 76 81 53 82 54 83 62 84 55 85 57 86
REMARK SMILES IDX 63 87 56 88 58 89 59 90 60 91 61 92
REMARK H PARENT 4 10 83 45 51 56
REMARK Flexibility Score: inf
ROOT
ATOM      1  C   UNL A   1      37.197  20.348  24.980  1.00  0.00     0.275 C 
ENDROOT
BRANCH   1   2
ATOM      2  C   UNL A   1      35.803  20.938  25.191  1.00  0.00     0.274 C 
BRANCH   2   3
ATOM      3  O   UNL A   1      34.750  19.962  25.034  1.00  0.00    -0.458 OA
BRANCH   3   4
ATOM      4  C   UNL A   1      33.514  20.192  24.511  1.00  0.00     0.361 C 
ATOM      5  O   UNL A   1      32.684  19.286  24.510  1.00  0.00    -0.245 OA
BRANCH   4   6
ATOM      6  C   UNL A   1      33.176  21.583  23.988  1.00  0.00     0.386 C 
BRANCH   6   7
ATOM      7  N   UNL A   1      31.814  22.071  24.267  1.00  0.00    -0.323 N 
ATOM      8  C   UNL A   1      31.555  22.428  25.676  1.00  0.00     0.284 C 
ATOM      9  C   UNL A   1      31.292  23.091  23.359  1.00  0.00     0.284 C 
ATOM     10  H   UNL A   1      31.273  21.230  24.067  1.00  0.00     0.348 HD
ATOM     11  C   UNL A   1      31.793  23.899  26.085  1.00  0.00     0.181 C 
ATOM     12  C   UNL A   1      31.720  24.525  23.701  1.00  0.00     0.181 C 
ATOM     13  N   UNL A   1      31.339  24.864  25.071  1.00  0.00    -0.327 N 
ATOM     14  C   UNL A   1      30.822  26.084  25.491  1.00  0.00     0.257 C 
ATOM     15  O   UNL A   1      30.539  26.361  26.652  1.00  0.00    -0.269 OA
BRANCH  14  16
ATOM     16  C   UNL A   1      30.613  27.133  24.480  1.00  0.00     0.079 A 
ATOM     17  C   UNL A   1      31.647  28.018  24.139  1.00  0.00     0.020 A 
ATOM     18  C   UNL A   1      29.352  27.255  23.899  1.00  0.00     0.174 A 
ATOM     19  C   UNL A   1      31.380  29.083  23.278  1.00  0.00     0.043 A 
ATOM     20  C   UNL A   1      29.102  28.301  23.021  1.00  0.00     0.195 A 
ATOM     21  F   UNL A   1      28.362  26.407  24.209  1.00  0.00    -0.203 F 
ATOM     22  C   UNL A   1      30.106  29.218  22.730  1.00  0.00     0.161 A 
ATOM     23  F   UNL A   1      27.887  28.445  22.474  1.00  0.00    -0.200 F 
ATOM     24  F   UNL A   1      29.852  30.257  21.922  1.00  0.00    -0.204 F 
ENDBRANCH  14  16
ENDBRANCH   6   7
ENDBRANCH   4   6
ENDBRANCH   3   4
ENDBRANCH   2   3
ENDBRANCH   1   2
BRANCH   1  25
ATOM     25  O   UNL A   1      38.193  21.373  25.093  1.00  0.00    -0.458 OA
BRANCH  25  26
ATOM     26  C   UNL A   1      39.206  21.075  25.954  1.00  0.00     0.338 C 
ATOM     27  O   UNL A   1      39.752  20.001  26.080  1.00  0.00    -0.246 OA
BRANCH  26  28
ATOM     28  C   UNL A   1      39.686  22.330  26.574  1.00  0.00     0.060 A 
ATOM     29  C   UNL A   1      39.104  23.527  26.142  1.00  0.00     0.016 A 
ATOM     30  C   UNL A   1      40.666  22.339  27.571  1.00  0.00     0.016 A 
ATOM     31  C   UNL A   1      39.538  24.742  26.669  1.00  0.00     0.010 A 
ATOM     32  C   UNL A   1      41.100  23.557  28.099  1.00  0.00     0.010 A 
ATOM     33  C   UNL A   1      40.566  24.766  27.621  1.00  0.00    -0.014 A 
BRANCH  33  34
ATOM     34  C   UNL A   1      41.183  26.062  27.986  1.00  0.00     0.031 A 
ATOM     35  C   UNL A   1      42.608  26.322  27.577  1.00  0.00     0.074 A 
ATOM     36  C   UNL A   1      40.488  27.002  28.648  1.00  0.00     0.049 A 
ATOM     37  N   UNL A   1      43.321  27.409  27.711  1.00  0.00    -0.248 NA
ATOM     38  C   UNL A   1      43.323  25.210  26.929  1.00  0.00     0.031 C 
ATOM     39  C   UNL A   1      39.115  26.860  29.131  1.00  0.00     0.029 A 
ATOM     40  N   UNL A   1      40.857  28.263  29.045  1.00  0.00    -0.354 N 
ATOM     41  C   UNL A   1      44.562  27.117  27.160  1.00  0.00     0.074 A 
ATOM     42  C   UNL A   1      44.521  25.737  26.727  1.00  0.00     0.031 C 
ATOM     43  C   UNL A   1      38.766  27.983  29.784  1.00  0.00     0.029 A 
ATOM     44  C   UNL A   1      39.887  28.921  29.762  1.00  0.00     0.049 A 
ATOM     45  H   UNL A   1      41.734  28.659  28.835  1.00  0.00     0.167 HD
ATOM     46  C   UNL A   1      45.631  27.931  26.997  1.00  0.00     0.034 A 
ATOM     47  C   UNL A   1      39.906  30.142  30.333  1.00  0.00     0.034 A 
ATOM     48  C   UNL A   1      45.678  29.302  27.427  1.00  0.00     0.049 A 
ATOM     49  C   UNL A   1      41.113  31.026  30.147  1.00  0.00     0.074 A 
ATOM     50  C   UNL A   1      46.707  30.215  27.280  1.00  0.00     0.029 A 
ATOM     51  N   UNL A   1      44.656  29.954  28.098  1.00  0.00    -0.354 N 
ATOM     52  N   UNL A   1      42.221  30.789  29.484  1.00  0.00    -0.248 NA
ATOM     53  C   UNL A   1      41.053  32.368  30.747  1.00  0.00     0.031 C 
ATOM     54  C   UNL A   1      46.313  31.417  27.878  1.00  0.00     0.029 A 
ATOM     55  C   UNL A   1      45.032  31.256  28.380  1.00  0.00     0.049 A 
ATOM     56  H   UNL A   1      43.791  29.551  28.341  1.00  0.00     0.167 HD
ATOM     57  C   UNL A   1      42.971  31.959  29.561  1.00  0.00     0.074 A 
ATOM     58  C   UNL A   1      42.179  32.914  30.306  1.00  0.00     0.031 C 
ATOM     59  C   UNL A   1      44.213  32.214  29.078  1.00  0.00     0.034 A 
BRANCH  46  60
ATOM     60  C   UNL A   1      46.822  27.370  26.269  1.00  0.00     0.023 A 
ATOM     61  C   UNL A   1      46.921  27.554  24.874  1.00  0.00     0.012 A 
ATOM     62  C   UNL A   1      47.859  26.716  26.958  1.00  0.00     0.148 A 
ATOM     63  C   UNL A   1      48.026  27.075  24.172  1.00  0.00     0.002 A 
ATOM     64  C   UNL A   1      48.975  26.274  26.257  1.00  0.00     0.091 A 
ATOM     65  F   UNL A   1      47.732  26.530  28.279  1.00  0.00    -0.205 F 
ATOM     66  C   UNL A   1      49.056  26.445  24.864  1.00  0.00     0.022 A 
BRANCH  64  67
ATOM     67  S   UNL A   1      50.388  25.510  27.061  1.00  0.00     0.127 S 
ATOM     68  O   UNL A   1      50.772  26.544  28.022  1.00  0.00    -0.237 OA
ATOM     69  O   UNL A   1      49.793  24.315  27.657  1.00  0.00    -0.237 OA
ATOM     70  O   UNL A   1      51.358  25.248  26.008  1.00  0.00    -0.744 OA
ENDBRANCH  64  67
ENDBRANCH  46  60
BRANCH  47  71
ATOM     71  C   UNL A   1      38.724  30.629  31.098  1.00  0.00     0.023 A 
ATOM     72  C   UNL A   1      38.663  30.435  32.491  1.00  0.00     0.012 A 
ATOM     73  C   UNL A   1      37.653  31.274  30.447  1.00  0.00     0.148 A 
ATOM     74  C   UNL A   1      37.540  30.835  33.216  1.00  0.00     0.002 A 
ATOM     75  C   UNL A   1      36.562  31.718  31.184  1.00  0.00     0.091 A 
ATOM     76  F   UNL A   1      37.720  31.432  29.118  1.00  0.00    -0.205 F 
ATOM     77  C   UNL A   1      36.494  31.484  32.566  1.00  0.00     0.022 A 
BRANCH  75  78
ATOM     78  S   UNL A   1      35.232  32.669  30.439  1.00  0.00     0.127 S 
ATOM     79  O   UNL A   1      34.282  32.772  31.543  1.00  0.00    -0.237 OA
ATOM     80  O   UNL A   1      35.908  33.919  30.090  1.00  0.00    -0.237 OA
ATOM     81  O   UNL A   1      34.793  31.888  29.291  1.00  0.00    -0.744 OA
ENDBRANCH  75  78
ENDBRANCH  47  71
BRANCH  59  82
ATOM     82  C   UNL A   1      44.788  33.587  29.322  1.00  0.00     0.023 A 
ATOM     83  C   UNL A   1      45.489  33.848  30.517  1.00  0.00     0.012 A 
ATOM     84  C   UNL A   1      44.687  34.601  28.348  1.00  0.00     0.148 A 
ATOM     85  C   UNL A   1      46.040  35.104  30.757  1.00  0.00     0.002 A 
ATOM     86  C   UNL A   1      45.282  35.837  28.574  1.00  0.00     0.091 A 
ATOM     87  F   UNL A   1      44.004  34.344  27.223  1.00  0.00    -0.205 F 
ATOM     88  C   UNL A   1      45.947  36.095  29.784  1.00  0.00     0.022 A 
BRANCH  86  89
ATOM     89  S   UNL A   1      45.290  37.137  27.333  1.00  0.00     0.127 S 
ATOM     90  O   UNL A   1      45.922  38.237  28.057  1.00  0.00    -0.237 OA
ATOM     91  O   UNL A   1      46.113  36.553  26.273  1.00  0.00    -0.237 OA
ATOM     92  O   UNL A   1      43.896  37.340  26.965  1.00  0.00    -0.744 OA
ENDBRANCH  86  89
ENDBRANCH  59  82
ENDBRANCH  33  34
ENDBRANCH  26  28
ENDBRANCH  25  26
ENDBRANCH   1  25
TORSDOF 16
ENDMDL
MODEL 3
REMARK VINA RESULT:     -12.3      1.172      1.569
REMARK SMILES O=C(C[NH+]1CCN(C(=O)c2ccc(F)c(F)c2F)CC1)OCCOC(=O)c1ccc(-c2c3nc(c(-c4cccc(S(=O)(=O)[O-])c4F)c4ccc([nH]4)c(-c4cccc(S(=O)(=O)[O-])c4F)c4nc(c(-c5cccc(S(=O)(=O)[O-])c5F)c5ccc2[nH]5)C=C4)C=C3)cc1
REMARK SMILES IDX 23 1 22 2 21 3 2 4 1 5 3 6 4 7 5 8 20 9 6 11 19 12 7 13 8 14
REMARK SMILES IDX 9 15 10 16 11 17 17 18 12 19 15 20 18 21 13 22 16 23 14 24
REMARK SMILES IDX 24 25 25 26 26 27 27 28 28 29 89 30 29 31 88 32 30 33 31 34
REMARK SMILES IDX 32 35 82 36 33 37 87 38 81 39 83 40 34 41 86 42 80 43 79 44
REMARK SMILES IDX 35 46 67 47 47 48 66 49 48 50 51 51 65 52 84 53 49 54 50 55
REMARK SMILES IDX 64 57 85 58 52 59 36 60 37 61 45 62 38 63 40 64 46 65 39 66
REMARK SMILES IDX 41 67 42 68 43 69 44 70 68 71 69 72 77 73 70 74 72 75 78 76
REMARK SMILES IDX 71 77 73 78 74 79 75 80 76 81 53 82 54 83 62 84 55 85 57 86
REMARK SMILES IDX 63 87 56 88 58 89 59 90 60 91 61 92
REMARK H PARENT 4 10 83 45 51 56
REMARK Flexibility Score: inf
ROOT
ATOM      1  C   UNL A   1      31.559  30.993  26.117  1.00  0.00     0.275 C 
ENDROOT
BRANCH   1   2
ATOM      2  C   UNL A   1      31.815  29.879  25.103  1.00  0.00     0.274 C 
BRANCH   2   3
ATOM      3  O   UNL A   1      30.690  29.645  24.228  1.00  0.00    -0.458 OA
BRANCH   3   4
ATOM      4  C   UNL A   1      30.593  28.662  23.291  1.00  0.00     0.361 C 
ATOM      5  O   UNL A   1      30.404  28.968  22.116  1.00  0.00    -0.245 OA
BRANCH   4   6
ATOM      6  C   UNL A   1      30.773  27.209  23.717  1.00  0.00     0.386 C 
BRANCH   6   7
ATOM      7  N   UNL A   1      31.568  26.982  24.936  1.00  0.00    -0.323 N 
ATOM      8  C   UNL A   1      30.799  26.507  26.104  1.00  0.00     0.284 C 
ATOM      9  C   UNL A   1      32.803  26.216  24.771  1.00  0.00     0.284 C 
ATOM     10  H   UNL A   1      31.868  27.935  25.141  1.00  0.00     0.348 HD
ATOM     11  C   UNL A   1      30.693  24.979  26.303  1.00  0.00     0.181 C 
ATOM     12  C   UNL A   1      32.613  24.693  24.784  1.00  0.00     0.181 C 
ATOM     13  N   UNL A   1      31.946  24.267  26.013  1.00  0.00    -0.327 N 
ATOM     14  C   UNL A   1      32.263  23.136  26.757  1.00  0.00     0.257 C 
ATOM     15  O   UNL A   1      31.670  22.776  27.769  1.00  0.00    -0.269 OA
BRANCH  14  16
ATOM     16  C   UNL A   1      33.376  22.292  26.295  1.00  0.00     0.079 A 
ATOM     17  C   UNL A   1      34.707  22.645  26.567  1.00  0.00     0.020 A 
ATOM     18  C   UNL A   1      33.083  21.156  25.542  1.00  0.00     0.174 A 
ATOM     19  C   UNL A   1      35.742  21.900  26.003  1.00  0.00     0.043 A 
ATOM     20  C   UNL A   1      34.119  20.403  25.007  1.00  0.00     0.195 A 
ATOM     21  F   UNL A   1      31.815  20.804  25.286  1.00  0.00    -0.203 F 
ATOM     22  C   UNL A   1      35.438  20.786  25.222  1.00  0.00     0.161 A 
ATOM     23  F   UNL A   1      33.850  19.322  24.261  1.00  0.00    -0.200 F 
ATOM     24  F   UNL A   1      36.439  20.090  24.665  1.00  0.00    -0.204 F 
ENDBRANCH  14  16
ENDBRANCH   6   7
ENDBRANCH   4   6
ENDBRANCH   3   4
ENDBRANCH   2   3
ENDBRANCH   1   2
BRANCH   1  25
ATOM     25  O   UNL A   1      32.463  30.877  27.223  1.00  0.00    -0.458 OA
BRANCH  25  26
ATOM     26  C   UNL A   1      33.228  31.983  27.437  1.00  0.00     0.338 C 
ATOM     27  O   UNL A   1      32.850  33.134  27.435  1.00  0.00    -0.246 OA
BRANCH  26  28
ATOM     28  C   UNL A   1      34.571  31.551  27.886  1.00  0.00     0.060 A 
ATOM     29  C   UNL A   1      34.767  30.185  28.114  1.00  0.00     0.016 A 
ATOM     30  C   UNL A   1      35.623  32.456  28.059  1.00  0.00     0.016 A 
ATOM     31  C   UNL A   1      36.003  29.725  28.567  1.00  0.00     0.010 A 
ATOM     32  C   UNL A   1      36.862  31.994  28.512  1.00  0.00     0.010 A 
ATOM     33  C   UNL A   1      37.044  30.632  28.806  1.00  0.00    -0.014 A 
BRANCH  33  34
ATOM     34  C   UNL A   1      38.257  30.167  29.515  1.00  0.00     0.031 A 
ATOM     35  C   UNL A   1      38.513  30.668  30.911  1.00  0.00     0.074 A 
ATOM     36  C   UNL A   1      39.109  29.298  28.943  1.00  0.00     0.049 A 
ATOM     37  N   UNL A   1      39.459  30.334  31.749  1.00  0.00    -0.248 NA
ATOM     38  C   UNL A   1      37.578  31.680  31.431  1.00  0.00     0.031 C 
ATOM     39  C   UNL A   1      38.993  28.766  27.587  1.00  0.00     0.029 A 
ATOM     40  N   UNL A   1      40.254  28.725  29.434  1.00  0.00    -0.354 N 
ATOM     41  C   UNL A   1      39.230  31.084  32.895  1.00  0.00     0.074 A 
ATOM     42  C   UNL A   1      38.081  31.923  32.632  1.00  0.00     0.031 C 
ATOM     43  C   UNL A   1      40.044  27.963  27.344  1.00  0.00     0.029 A 
ATOM     44  C   UNL A   1      40.902  27.922  28.527  1.00  0.00     0.049 A 
ATOM     45  H   UNL A   1      40.582  28.875  30.351  1.00  0.00     0.167 HD
ATOM     46  C   UNL A   1      39.893  31.056  34.075  1.00  0.00     0.034 A 
ATOM     47  C   UNL A   1      42.055  27.233  28.643  1.00  0.00     0.034 A 
ATOM     48  C   UNL A   1      41.035  30.225  34.342  1.00  0.00     0.049 A 
ATOM     49  C   UNL A   1      42.782  27.226  29.964  1.00  0.00     0.074 A 
ATOM     50  C   UNL A   1      41.757  30.105  35.516  1.00  0.00     0.029 A 
ATOM     51  N   UNL A   1      41.630  29.379  33.419  1.00  0.00    -0.354 N 
ATOM     52  N   UNL A   1      42.462  27.820  31.090  1.00  0.00    -0.248 NA
ATOM     53  C   UNL A   1      44.005  26.413  30.045  1.00  0.00     0.031 C 
ATOM     54  C   UNL A   1      42.800  29.199  35.297  1.00  0.00     0.029 A 
ATOM     55  C   UNL A   1      42.715  28.740  33.993  1.00  0.00     0.049 A 
ATOM     56  H   UNL A   1      41.326  29.253  32.490  1.00  0.00     0.167 HD
ATOM     57  C   UNL A   1      43.423  27.426  32.017  1.00  0.00     0.074 A 
ATOM     58  C   UNL A   1      44.317  26.519  31.330  1.00  0.00     0.031 C 
ATOM     59  C   UNL A   1      43.567  27.799  33.313  1.00  0.00     0.034 A 
BRANCH  46  60
ATOM     60  C   UNL A   1      39.358  31.913  35.189  1.00  0.00     0.023 A 
ATOM     61  C   UNL A   1      38.408  31.368  36.077  1.00  0.00     0.012 A 
ATOM     62  C   UNL A   1      39.826  33.224  35.393  1.00  0.00     0.148 A 
ATOM     63  C   UNL A   1      37.914  32.124  37.139  1.00  0.00     0.002 A 
ATOM     64  C   UNL A   1      39.357  33.958  36.476  1.00  0.00     0.091 A 
ATOM     65  F   UNL A   1      40.711  33.730  34.522  1.00  0.00    -0.205 F 
ATOM     66  C   UNL A   1      38.396  33.413  37.344  1.00  0.00     0.022 A 
BRANCH  64  67
ATOM     67  S   UNL A   1      39.962  35.603  36.869  1.00  0.00     0.127 S 
ATOM     68  O   UNL A   1      41.405  35.375  36.942  1.00  0.00    -0.237 OA
ATOM     69  O   UNL A   1      39.525  36.377  35.708  1.00  0.00    -0.237 OA
ATOM     70  O   UNL A   1      39.327  35.976  38.125  1.00  0.00    -0.744 OA
ENDBRANCH  64  67
ENDBRANCH  46  60
BRANCH  47  71
ATOM     71  C   UNL A   1      42.577  26.447  27.489  1.00  0.00     0.023 A 
ATOM     72  C   UNL A   1      43.424  27.064  26.549  1.00  0.00     0.012 A 
ATOM     73  C   UNL A   1      42.227  25.095  27.315  1.00  0.00     0.148 A 
ATOM     74  C   UNL A   1      43.879  26.360  25.433  1.00  0.00     0.002 A 
ATOM     75  C   UNL A   1      42.728  24.384  26.230  1.00  0.00     0.091 A 
ATOM     76  F   UNL A   1      41.404  24.530  28.210  1.00  0.00    -0.205 F 
ATOM     77  C   UNL A   1      43.538  25.020  25.277  1.00  0.00     0.022 A 
BRANCH  75  78
ATOM     78  S   UNL A   1      42.435  22.624  26.026  1.00  0.00     0.127 S 
ATOM     79  O   UNL A   1      43.052  22.365  24.728  1.00  0.00    -0.237 OA
ATOM     80  O   UNL A   1      43.149  22.059  27.172  1.00  0.00    -0.237 OA
ATOM     81  O   UNL A   1      40.988  22.461  26.087  1.00  0.00    -0.744 OA
ENDBRANCH  75  78
ENDBRANCH  47  71
BRANCH  59  82
ATOM     82  C   UNL A   1      44.723  27.211  34.085  1.00  0.00     0.023 A 
ATOM     83  C   UNL A   1      45.977  27.855  34.059  1.00  0.00     0.012 A 
ATOM     84  C   UNL A   1      44.556  26.059  34.878  1.00  0.00     0.148 A 
ATOM     85  C   UNL A   1      47.055  27.338  34.775  1.00  0.00     0.002 A 
ATOM     86  C   UNL A   1      45.623  25.576  35.628  1.00  0.00     0.091 A 
ATOM     87  F   UNL A   1      43.362  25.448  34.880  1.00  0.00    -0.205 F 
ATOM     88  C   UNL A   1      46.876  26.207  35.567  1.00  0.00     0.022 A 
BRANCH  86  89
ATOM     89  S   UNL A   1      45.453  24.181  36.749  1.00  0.00     0.127 S 
ATOM     90  O   UNL A   1      45.050  23.114  35.836  1.00  0.00    -0.237 OA
ATOM     91  O   UNL A   1      46.806  24.045  37.287  1.00  0.00    -0.237 OA
ATOM     92  O   UNL A   1      44.455  24.583  37.730  1.00  0.00    -0.744 OA
ENDBRANCH  86  89
ENDBRANCH  59  82
ENDBRANCH  33  34
ENDBRANCH  26  28
ENDBRANCH  25  26
ENDBRANCH   1  25
TORSDOF 16
ENDMDL
