MODEL 1
REMARK VINA RESULT:     -13.0      0.000      0.000
REMARK SMILES O=C(OCCOC(=O)c1ccc(-c2c3nc(c(-c4cccc(S(=O)(=O)[O-])c4F)c4ccc([nH]4)c(-c4cccc(S(=O)(=O)[O-])c4F)c4nc(c(-c5cccc(S(=O)(=O)[O-])c5F)c5ccc2[nH]5)C=C4)C=C3)cc1)C1=Cc2cc(S(F)(F)(F)(F)F)cc(Br)c2O[C@H]1C(F)(F)F
REMARK SMILES IDX 5 1 4 2 3 3 2 4 1 5 72 6 73 7 88 8 74 9 87 10 75 11 86 12
REMARK SMILES IDX 76 13 84 14 83 15 85 16 89 17 90 18 91 19 92 20 77 21 78 22
REMARK SMILES IDX 79 23 80 24 81 25 82 26 6 27 7 28 8 29 9 30 10 31 71 32
REMARK SMILES IDX 11 33 70 34 12 35 13 36 14 37 64 38 15 39 69 40 63 41 65 42
REMARK SMILES IDX 16 43 68 44 62 45 61 46 17 48 49 49 29 50 48 51 30 52 33 53
REMARK SMILES IDX 47 54 66 55 31 56 32 57 46 59 67 60 34 61 18 62 19 63 27 64
REMARK SMILES IDX 20 65 22 66 28 67 21 68 23 69 24 70 25 71 26 72 50 73 51 74
REMARK SMILES IDX 59 75 52 76 54 77 60 78 53 79 55 80 56 81 57 82 58 83 35 84
REMARK SMILES IDX 36 85 44 86 37 87 39 88 45 89 38 90 40 91 41 92 42 93 43 94
REMARK H PARENT 65 47 33 58
REMARK Flexibility Score: inf
ROOT
ATOM      1  C   UNL A   1      35.436  21.497  24.627  1.00  0.00     0.275 C 
ENDROOT
BRANCH   1   2
ATOM      2  C   UNL A   1      35.028  22.917  24.270  1.00  0.00     0.275 C 
BRANCH   2   3
ATOM      3  O   UNL A   1      33.639  23.085  24.511  1.00  0.00    -0.459 OA
BRANCH   3   4
ATOM      4  C   UNL A   1      33.184  24.153  25.328  1.00  0.00     0.338 C 
ATOM      5  O   UNL A   1      33.904  25.190  25.478  1.00  0.00    -0.246 OA
BRANCH   4   6
ATOM      6  C   UNL A   1      31.836  24.057  26.024  1.00  0.00     0.087 C 
ATOM      7  C   UNL A   1      30.799  24.832  25.607  1.00  0.00     0.027 C 
ATOM      8  C   UNL A   1      31.647  23.094  27.185  1.00  0.00     0.316 C 
ATOM      9  C   UNL A   1      30.988  25.795  24.446  1.00  0.00     0.020 A 
ATOM     10  O   UNL A   1      32.199  24.108  23.291  1.00  0.00    -0.474 OA
ATOM     11  C   UNL A   1      30.544  27.099  24.594  1.00  0.00     0.036 A 
ATOM     12  C   UNL A   1      31.617  25.402  23.345  1.00  0.00     0.142 A 
ATOM     13  C   UNL A   1      30.556  27.848  23.393  1.00  0.00     0.109 A 
ATOM     14  C   UNL A   1      31.709  26.236  22.257  1.00  0.00     0.062 A 
ATOM     15  C   UNL A   1      31.240  27.519  22.313  1.00  0.00     0.044 A 
ATOM     16  Br  UNL A   1      32.528  25.578  20.602  1.00  0.00    -0.047 Br
BRANCH   8  17
ATOM     17  C   UNL A   1      32.949  22.355  27.446  1.00  0.00     0.430 C 
ATOM     18  F   UNL A   1      32.923  21.828  28.666  1.00  0.00    -0.167 F 
ATOM     19  F   UNL A   1      33.095  21.384  26.548  1.00  0.00    -0.167 F 
ATOM     20  F   UNL A   1      33.968  23.203  27.351  1.00  0.00    -0.167 F 
ENDBRANCH   8  17
BRANCH  13  21
ATOM     21  S   UNL A   1      29.567  29.363  23.336  1.00  0.00     0.310 S 
ATOM     22  F   UNL A   1      30.314  29.874  22.033  1.00  0.00    -0.094 F 
ATOM     23  F   UNL A   1      30.682  30.091  24.177  1.00  0.00    -0.094 F 
ATOM     24  F   UNL A   1      28.717  30.663  23.285  1.00  0.00    -0.094 F 
ATOM     25  F   UNL A   1      28.531  28.656  22.377  1.00  0.00    -0.094 F 
ATOM     26  F   UNL A   1      30.474  28.069  23.284  1.00  0.00    -0.094 F 
ENDBRANCH  13  21
ENDBRANCH   4   6
ENDBRANCH   3   4
ENDBRANCH   2   3
ENDBRANCH   1   2
BRANCH   1  27
ATOM     27  O   UNL A   1      36.231  21.516  25.804  1.00  0.00    -0.458 OA
BRANCH  27  28
ATOM     28  C   UNL A   1      37.647  21.514  25.705  1.00  0.00     0.338 C 
ATOM     29  O   UNL A   1      38.244  20.540  25.148  1.00  0.00    -0.246 OA
BRANCH  28  30
ATOM     30  C   UNL A   1      38.450  22.677  26.263  1.00  0.00     0.060 A 
ATOM     31  C   UNL A   1      38.003  23.968  26.034  1.00  0.00     0.016 A 
ATOM     32  C   UNL A   1      39.606  22.447  26.875  1.00  0.00     0.016 A 
ATOM     33  C   UNL A   1      38.991  24.961  26.231  1.00  0.00     0.010 A 
ATOM     34  C   UNL A   1      40.465  23.482  27.159  1.00  0.00     0.010 A 
ATOM     35  C   UNL A   1      40.113  24.778  26.904  1.00  0.00    -0.014 A 
BRANCH  35  36
ATOM     36  C   UNL A   1      40.965  25.947  27.372  1.00  0.00     0.031 A 
ATOM     37  C   UNL A   1      42.298  26.028  26.962  1.00  0.00     0.074 A 
ATOM     38  C   UNL A   1      40.321  26.927  28.106  1.00  0.00     0.049 A 
ATOM     39  N   UNL A   1      43.151  27.033  27.162  1.00  0.00    -0.248 NA
ATOM     40  C   UNL A   1      42.994  24.972  26.211  1.00  0.00     0.031 C 
ATOM     41  C   UNL A   1      38.975  26.857  28.516  1.00  0.00     0.029 A 
ATOM     42  N   UNL A   1      40.840  28.117  28.565  1.00  0.00    -0.354 N 
ATOM     43  C   UNL A   1      44.331  26.753  26.605  1.00  0.00     0.074 A 
ATOM     44  C   UNL A   1      44.250  25.421  25.991  1.00  0.00     0.031 C 
ATOM     45  C   UNL A   1      38.691  27.982  29.221  1.00  0.00     0.029 A 
ATOM     46  C   UNL A   1      39.853  28.775  29.264  1.00  0.00     0.049 A 
ATOM     47  H   UNL A   1      41.757  28.441  28.419  1.00  0.00     0.167 HD
ATOM     48  C   UNL A   1      45.472  27.558  26.583  1.00  0.00     0.034 A 
ATOM     49  C   UNL A   1      39.942  29.998  29.912  1.00  0.00     0.034 A 
ATOM     50  C   UNL A   1      45.547  28.801  27.193  1.00  0.00     0.049 A 
ATOM     51  C   UNL A   1      41.101  30.777  29.940  1.00  0.00     0.074 A 
ATOM     52  C   UNL A   1      46.686  29.628  27.175  1.00  0.00     0.029 A 
ATOM     53  N   UNL A   1      44.567  29.448  27.914  1.00  0.00    -0.354 N 
ATOM     54  N   UNL A   1      42.268  30.515  29.351  1.00  0.00    -0.248 NA
ATOM     55  C   UNL A   1      41.217  32.058  30.650  1.00  0.00     0.031 C 
ATOM     56  C   UNL A   1      46.401  30.753  27.882  1.00  0.00     0.029 A 
ATOM     57  C   UNL A   1      45.079  30.648  28.355  1.00  0.00     0.049 A 
ATOM     58  H   UNL A   1      43.659  29.110  28.085  1.00  0.00     0.167 HD
ATOM     59  C   UNL A   1      43.134  31.503  29.585  1.00  0.00     0.074 A 
ATOM     60  C   UNL A   1      42.472  32.506  30.432  1.00  0.00     0.031 C 
ATOM     61  C   UNL A   1      44.448  31.610  29.126  1.00  0.00     0.034 A 
BRANCH  48  62
ATOM     62  C   UNL A   1      46.699  27.043  25.849  1.00  0.00     0.023 A 
ATOM     63  C   UNL A   1      47.519  26.190  26.569  1.00  0.00     0.012 A 
ATOM     64  C   UNL A   1      46.957  27.340  24.581  1.00  0.00     0.148 A 
ATOM     65  C   UNL A   1      48.761  25.926  25.944  1.00  0.00     0.002 A 
ATOM     66  C   UNL A   1      48.129  26.933  23.992  1.00  0.00     0.091 A 
ATOM     67  F   UNL A   1      46.072  28.038  23.874  1.00  0.00    -0.205 F 
ATOM     68  C   UNL A   1      49.016  26.138  24.665  1.00  0.00     0.022 A 
BRANCH  66  69
ATOM     69  S   UNL A   1      48.508  27.457  22.302  1.00  0.00     0.127 S 
ATOM     70  O   UNL A   1      48.653  26.226  21.406  1.00  0.00    -0.237 OA
ATOM     71  O   UNL A   1      47.374  28.340  21.776  1.00  0.00    -0.237 OA
ATOM     72  O   UNL A   1      49.970  28.344  22.294  1.00  0.00    -0.744 OA
ENDBRANCH  66  69
ENDBRANCH  48  62
BRANCH  49  73
ATOM     73  C   UNL A   1      38.709  30.519  30.632  1.00  0.00     0.023 A 
ATOM     74  C   UNL A   1      38.437  30.142  31.937  1.00  0.00     0.012 A 
ATOM     75  C   UNL A   1      37.864  31.279  29.944  1.00  0.00     0.148 A 
ATOM     76  C   UNL A   1      37.100  30.379  32.335  1.00  0.00     0.002 A 
ATOM     77  C   UNL A   1      36.625  31.584  30.453  1.00  0.00     0.091 A 
ATOM     78  F   UNL A   1      38.222  31.748  28.752  1.00  0.00    -0.205 F 
ATOM     79  C   UNL A   1      36.267  31.193  31.714  1.00  0.00     0.022 A 
BRANCH  77  80
ATOM     80  S   UNL A   1      35.451  32.518  29.441  1.00  0.00     0.127 S 
ATOM     81  O   UNL A   1      34.150  32.716  30.221  1.00  0.00    -0.237 OA
ATOM     82  O   UNL A   1      36.050  33.884  29.095  1.00  0.00    -0.237 OA
ATOM     83  O   UNL A   1      35.127  31.656  28.001  1.00  0.00    -0.744 OA
ENDBRANCH  77  80
ENDBRANCH  49  73
BRANCH  61  84
ATOM     84  C   UNL A   1      45.233  32.858  29.496  1.00  0.00     0.023 A 
ATOM     85  C   UNL A   1      45.966  32.859  30.671  1.00  0.00     0.012 A 
ATOM     86  C   UNL A   1      45.148  33.944  28.736  1.00  0.00     0.148 A 
ATOM     87  C   UNL A   1      46.341  34.151  31.111  1.00  0.00     0.002 A 
ATOM     88  C   UNL A   1      45.657  35.144  29.170  1.00  0.00     0.091 A 
ATOM     89  F   UNL A   1      44.565  33.869  27.542  1.00  0.00    -0.205 F 
ATOM     90  C   UNL A   1      46.341  35.231  30.351  1.00  0.00     0.022 A 
BRANCH  88  91
ATOM     91  S   UNL A   1      45.417  36.631  28.166  1.00  0.00     0.127 S 
ATOM     92  O   UNL A   1      46.116  36.453  26.817  1.00  0.00    -0.237 OA
ATOM     93  O   UNL A   1      43.919  36.856  27.939  1.00  0.00    -0.237 OA
ATOM     94  O   UNL A   1      46.079  37.980  28.979  1.00  0.00    -0.744 OA
ENDBRANCH  88  91
ENDBRANCH  61  84
ENDBRANCH  35  36
ENDBRANCH  28  30
ENDBRANCH  27  28
ENDBRANCH   1  27
TORSDOF 16
ENDMDL
MODEL 2
REMARK VINA RESULT:     -13.0      5.357     10.087
REMARK SMILES O=C(OCCOC(=O)c1ccc(-c2c3nc(c(-c4cccc(S(=O)(=O)[O-])c4F)c4ccc([nH]4)c(-c4cccc(S(=O)(=O)[O-])c4F)c4nc(c(-c5cccc(S(=O)(=O)[O-])c5F)c5ccc2[nH]5)C=C4)C=C3)cc1)C1=Cc2cc(S(F)(F)(F)(F)F)cc(Br)c2O[C@H]1C(F)(F)F
REMARK SMILES IDX 5 1 4 2 3 3 2 4 1 5 72 6 73 7 88 8 74 9 87 10 75 11 86 12
REMARK SMILES IDX 76 13 84 14 83 15 85 16 89 17 90 18 91 19 92 20 77 21 78 22
REMARK SMILES IDX 79 23 80 24 81 25 82 26 6 27 7 28 8 29 9 30 10 31 71 32
REMARK SMILES IDX 11 33 70 34 12 35 13 36 14 37 64 38 15 39 69 40 63 41 65 42
REMARK SMILES IDX 16 43 68 44 62 45 61 46 17 48 49 49 29 50 48 51 30 52 33 53
REMARK SMILES IDX 47 54 66 55 31 56 32 57 46 59 67 60 34 61 18 62 19 63 27 64
REMARK SMILES IDX 20 65 22 66 28 67 21 68 23 69 24 70 25 71 26 72 50 73 51 74
REMARK SMILES IDX 59 75 52 76 54 77 60 78 53 79 55 80 56 81 57 82 58 83 35 84
REMARK SMILES IDX 36 85 44 86 37 87 39 88 45 89 38 90 40 91 41 92 42 93 43 94
REMARK H PARENT 65 47 33 58
REMARK Flexibility Score: inf
ROOT
ATOM      1  C   UNL A   1      31.618  29.079  25.788  1.00  0.00     0.275 C 
ENDROOT
BRANCH   1   2
ATOM      2  C   UNL A   1      32.136  27.675  26.049  1.00  0.00     0.275 C 
BRANCH   2   3
ATOM      3  O   UNL A   1      31.932  26.872  24.896  1.00  0.00    -0.459 OA
BRANCH   3   4
ATOM      4  C   UNL A   1      32.992  26.078  24.386  1.00  0.00     0.338 C 
ATOM      5  O   UNL A   1      33.922  25.686  25.159  1.00  0.00    -0.246 OA
BRANCH   4   6
ATOM      6  C   UNL A   1      33.016  25.696  22.915  1.00  0.00     0.087 C 
ATOM      7  C   UNL A   1      32.798  24.406  22.544  1.00  0.00     0.027 C 
ATOM      8  C   UNL A   1      33.284  26.756  21.859  1.00  0.00     0.316 C 
ATOM      9  C   UNL A   1      32.530  23.346  23.600  1.00  0.00     0.020 A 
ATOM     10  O   UNL A   1      31.104  24.878  24.725  1.00  0.00    -0.474 OA
ATOM     11  C   UNL A   1      33.234  22.154  23.529  1.00  0.00     0.036 A 
ATOM     12  C   UNL A   1      31.685  23.589  24.595  1.00  0.00     0.142 A 
ATOM     13  C   UNL A   1      32.757  21.154  24.409  1.00  0.00     0.109 A 
ATOM     14  C   UNL A   1      31.369  22.604  25.499  1.00  0.00     0.062 A 
ATOM     15  C   UNL A   1      31.982  21.384  25.453  1.00  0.00     0.044 A 
ATOM     16  Br  UNL A   1      30.018  22.956  26.876  1.00  0.00    -0.047 Br
BRANCH   8  17
ATOM     17  C   UNL A   1      33.492  28.102  22.533  1.00  0.00     0.430 C 
ATOM     18  F   UNL A   1      32.313  28.623  22.858  1.00  0.00    -0.167 F 
ATOM     19  F   UNL A   1      34.222  27.937  23.634  1.00  0.00    -0.167 F 
ATOM     20  F   UNL A   1      34.126  28.922  21.700  1.00  0.00    -0.167 F 
ENDBRANCH   8  17
BRANCH  13  21
ATOM     21  S   UNL A   1      33.245  19.442  24.081  1.00  0.00     0.310 S 
ATOM     22  F   UNL A   1      32.156  18.875  25.085  1.00  0.00    -0.094 F 
ATOM     23  F   UNL A   1      34.233  19.518  25.306  1.00  0.00    -0.094 F 
ATOM     24  F   UNL A   1      33.662  17.972  23.799  1.00  0.00    -0.094 F 
ATOM     25  F   UNL A   1      32.149  19.341  22.949  1.00  0.00    -0.094 F 
ATOM     26  F   UNL A   1      32.730  20.896  24.428  1.00  0.00    -0.094 F 
ENDBRANCH  13  21
ENDBRANCH   4   6
ENDBRANCH   3   4
ENDBRANCH   2   3
ENDBRANCH   1   2
BRANCH   1  27
ATOM     27  O   UNL A   1      32.715  29.972  25.661  1.00  0.00    -0.458 OA
BRANCH  27  28
ATOM     28  C   UNL A   1      32.994  30.906  26.694  1.00  0.00     0.338 C 
ATOM     29  O   UNL A   1      32.230  31.906  26.869  1.00  0.00    -0.246 OA
BRANCH  28  30
ATOM     30  C   UNL A   1      34.205  30.709  27.591  1.00  0.00     0.060 A 
ATOM     31  C   UNL A   1      34.962  31.814  27.944  1.00  0.00     0.016 A 
ATOM     32  C   UNL A   1      34.572  29.482  27.943  1.00  0.00     0.016 A 
ATOM     33  C   UNL A   1      36.253  31.494  28.425  1.00  0.00     0.010 A 
ATOM     34  C   UNL A   1      35.793  29.259  28.533  1.00  0.00     0.010 A 
ATOM     35  C   UNL A   1      36.618  30.300  28.855  1.00  0.00    -0.014 A 
BRANCH  35  36
ATOM     36  C   UNL A   1      37.888  30.095  29.667  1.00  0.00     0.031 A 
ATOM     37  C   UNL A   1      37.991  30.677  30.932  1.00  0.00     0.074 A 
ATOM     38  C   UNL A   1      38.836  29.244  29.127  1.00  0.00     0.049 A 
ATOM     39  N   UNL A   1      38.961  30.503  31.830  1.00  0.00    -0.248 NA
ATOM     40  C   UNL A   1      37.002  31.609  31.493  1.00  0.00     0.031 C 
ATOM     41  C   UNL A   1      38.734  28.646  27.855  1.00  0.00     0.029 A 
ATOM     42  N   UNL A   1      40.018  28.826  29.696  1.00  0.00    -0.354 N 
ATOM     43  C   UNL A   1      38.702  31.212  32.931  1.00  0.00     0.074 A 
ATOM     44  C   UNL A   1      37.442  31.939  32.728  1.00  0.00     0.031 C 
ATOM     45  C   UNL A   1      39.844  27.888  27.656  1.00  0.00     0.029 A 
ATOM     46  C   UNL A   1      40.657  27.999  28.799  1.00  0.00     0.049 A 
ATOM     47  H   UNL A   1      40.348  29.074  30.589  1.00  0.00     0.167 HD
ATOM     48  C   UNL A   1      39.467  31.279  34.097  1.00  0.00     0.034 A 
ATOM     49  C   UNL A   1      41.883  27.369  28.951  1.00  0.00     0.034 A 
ATOM     50  C   UNL A   1      40.671  30.614  34.266  1.00  0.00     0.049 A 
ATOM     51  C   UNL A   1      42.677  27.483  30.095  1.00  0.00     0.074 A 
ATOM     52  C   UNL A   1      41.451  30.665  35.437  1.00  0.00     0.029 A 
ATOM     53  N   UNL A   1      41.323  29.807  33.359  1.00  0.00    -0.354 N 
ATOM     54  N   UNL A   1      42.400  28.160  31.210  1.00  0.00    -0.248 NA
ATOM     55  C   UNL A   1      43.991  26.846  30.254  1.00  0.00     0.031 C 
ATOM     56  C   UNL A   1      42.562  29.907  35.237  1.00  0.00     0.029 A 
ATOM     57  C   UNL A   1      42.495  29.371  33.937  1.00  0.00     0.049 A 
ATOM     58  H   UNL A   1      41.007  29.581  32.455  1.00  0.00     0.167 HD
ATOM     59  C   UNL A   1      43.390  28.018  32.093  1.00  0.00     0.074 A 
ATOM     60  C   UNL A   1      44.431  27.177  31.487  1.00  0.00     0.031 C 
ATOM     61  C   UNL A   1      43.465  28.553  33.380  1.00  0.00     0.034 A 
BRANCH  48  62
ATOM     62  C   UNL A   1      38.949  32.129  35.246  1.00  0.00     0.023 A 
ATOM     63  C   UNL A   1      39.189  33.489  35.147  1.00  0.00     0.012 A 
ATOM     64  C   UNL A   1      38.263  31.623  36.264  1.00  0.00     0.148 A 
ATOM     65  C   UNL A   1      38.910  34.209  36.332  1.00  0.00     0.002 A 
ATOM     66  C   UNL A   1      37.904  32.415  37.327  1.00  0.00     0.091 A 
ATOM     67  F   UNL A   1      37.919  30.338  36.253  1.00  0.00    -0.205 F 
ATOM     68  C   UNL A   1      38.163  33.758  37.324  1.00  0.00     0.022 A 
BRANCH  66  69
ATOM     69  S   UNL A   1      37.077  31.671  38.755  1.00  0.00     0.127 S 
ATOM     70  O   UNL A   1      37.922  31.897  40.010  1.00  0.00    -0.237 OA
ATOM     71  O   UNL A   1      35.702  32.316  38.942  1.00  0.00    -0.237 OA
ATOM     72  O   UNL A   1      36.886  29.992  38.491  1.00  0.00    -0.744 OA
ENDBRANCH  66  69
ENDBRANCH  48  62
BRANCH  49  73
ATOM     73  C   UNL A   1      42.392  26.506  27.808  1.00  0.00     0.023 A 
ATOM     74  C   UNL A   1      43.109  27.065  26.762  1.00  0.00     0.012 A 
ATOM     75  C   UNL A   1      42.057  25.221  27.804  1.00  0.00     0.148 A 
ATOM     76  C   UNL A   1      43.178  26.244  25.612  1.00  0.00     0.002 A 
ATOM     77  C   UNL A   1      42.278  24.444  26.693  1.00  0.00     0.091 A 
ATOM     78  F   UNL A   1      41.504  24.682  28.887  1.00  0.00    -0.205 F 
ATOM     79  C   UNL A   1      42.929  24.947  25.601  1.00  0.00     0.022 A 
BRANCH  77  80
ATOM     80  S   UNL A   1      41.701  22.729  26.675  1.00  0.00     0.127 S 
ATOM     81  O   UNL A   1      40.174  22.704  26.766  1.00  0.00    -0.237 OA
ATOM     82  O   UNL A   1      42.146  22.054  25.376  1.00  0.00    -0.237 OA
ATOM     83  O   UNL A   1      42.364  21.890  28.009  1.00  0.00    -0.744 OA
ENDBRANCH  77  80
ENDBRANCH  49  73
BRANCH  61  84
ATOM     84  C   UNL A   1      44.686  28.218  34.221  1.00  0.00     0.023 A 
ATOM     85  C   UNL A   1      45.800  29.034  34.131  1.00  0.00     0.012 A 
ATOM     86  C   UNL A   1      44.696  27.118  34.965  1.00  0.00     0.148 A 
ATOM     87  C   UNL A   1      46.984  28.448  34.640  1.00  0.00     0.002 A 
ATOM     88  C   UNL A   1      45.861  26.676  35.545  1.00  0.00     0.091 A 
ATOM     89  F   UNL A   1      43.568  26.438  35.152  1.00  0.00    -0.205 F 
ATOM     90  C   UNL A   1      47.015  27.403  35.447  1.00  0.00     0.022 A 
BRANCH  88  91
ATOM     91  S   UNL A   1      45.868  25.109  36.451  1.00  0.00     0.127 S 
ATOM     92  O   UNL A   1      44.686  25.076  37.423  1.00  0.00    -0.237 OA
ATOM     93  O   UNL A   1      45.747  23.947  35.461  1.00  0.00    -0.237 OA
ATOM     94  O   UNL A   1      47.329  24.963  37.325  1.00  0.00    -0.744 OA
ENDBRANCH  88  91
ENDBRANCH  61  84
ENDBRANCH  35  36
ENDBRANCH  28  30
ENDBRANCH  27  28
ENDBRANCH   1  27
TORSDOF 16
ENDMDL
MODEL 3
REMARK VINA RESULT:     -13.0      2.103      2.526
REMARK SMILES O=C(OCCOC(=O)c1ccc(-c2c3nc(c(-c4cccc(S(=O)(=O)[O-])c4F)c4ccc([nH]4)c(-c4cccc(S(=O)(=O)[O-])c4F)c4nc(c(-c5cccc(S(=O)(=O)[O-])c5F)c5ccc2[nH]5)C=C4)C=C3)cc1)C1=Cc2cc(S(F)(F)(F)(F)F)cc(Br)c2O[C@H]1C(F)(F)F
REMARK SMILES IDX 5 1 4 2 3 3 2 4 1 5 72 6 73 7 88 8 74 9 87 10 75 11 86 12
REMARK SMILES IDX 76 13 84 14 83 15 85 16 89 17 90 18 91 19 92 20 77 21 78 22
REMARK SMILES IDX 79 23 80 24 81 25 82 26 6 27 7 28 8 29 9 30 10 31 71 32
REMARK SMILES IDX 11 33 70 34 12 35 13 36 14 37 64 38 15 39 69 40 63 41 65 42
REMARK SMILES IDX 16 43 68 44 62 45 61 46 17 48 49 49 29 50 48 51 30 52 33 53
REMARK SMILES IDX 47 54 66 55 31 56 32 57 46 59 67 60 34 61 18 62 19 63 27 64
REMARK SMILES IDX 20 65 22 66 28 67 21 68 23 69 24 70 25 71 26 72 50 73 51 74
REMARK SMILES IDX 59 75 52 76 54 77 60 78 53 79 55 80 56 81 57 82 58 83 35 84
REMARK SMILES IDX 36 85 44 86 37 87 39 88 45 89 38 90 40 91 41 92 42 93 43 94
REMARK H PARENT 65 47 33 58
REMARK Flexibility Score: inf
ROOT
ATOM      1  C   UNL A   1      36.956  21.730  23.983  1.00  0.00     0.275 C 
ENDROOT
BRANCH   1   2
ATOM      2  C   UNL A   1      36.114  22.958  23.676  1.00  0.00     0.275 C 
BRANCH   2   3
ATOM      3  O   UNL A   1      34.994  22.994  24.548  1.00  0.00    -0.459 OA
BRANCH   3   4
ATOM      4  C   UNL A   1      33.693  22.732  24.045  1.00  0.00     0.338 C 
ATOM      5  O   UNL A   1      33.515  22.571  22.797  1.00  0.00    -0.246 OA
BRANCH   4   6
ATOM      6  C   UNL A   1      32.512  22.645  24.998  1.00  0.00     0.087 C 
ATOM      7  C   UNL A   1      31.972  23.780  25.517  1.00  0.00     0.027 C 
ATOM      8  C   UNL A   1      31.936  21.289  25.372  1.00  0.00     0.316 C 
ATOM      9  C   UNL A   1      32.548  25.136  25.143  1.00  0.00     0.020 A 
ATOM     10  O   UNL A   1      32.705  24.408  22.886  1.00  0.00    -0.474 OA
ATOM     11  C   UNL A   1      32.813  26.041  26.158  1.00  0.00     0.036 A 
ATOM     12  C   UNL A   1      32.841  25.415  23.879  1.00  0.00     0.142 A 
ATOM     13  C   UNL A   1      33.128  27.342  25.699  1.00  0.00     0.109 A 
ATOM     14  C   UNL A   1      33.274  26.669  23.521  1.00  0.00     0.062 A 
ATOM     15  C   UNL A   1      33.501  27.630  24.465  1.00  0.00     0.044 A 
ATOM     16  Br  UNL A   1      33.571  27.084  21.628  1.00  0.00    -0.047 Br
BRANCH   8  17
ATOM     17  C   UNL A   1      32.715  20.194  24.662  1.00  0.00     0.430 C 
ATOM     18  F   UNL A   1      34.017  20.372  24.867  1.00  0.00    -0.167 F 
ATOM     19  F   UNL A   1      32.350  19.008  25.142  1.00  0.00    -0.167 F 
ATOM     20  F   UNL A   1      32.460  20.243  23.358  1.00  0.00    -0.167 F 
ENDBRANCH   8  17
BRANCH  13  21
ATOM     21  S   UNL A   1      33.014  28.704  26.885  1.00  0.00     0.310 S 
ATOM     22  F   UNL A   1      33.374  29.780  25.777  1.00  0.00    -0.094 F 
ATOM     23  F   UNL A   1      34.560  28.566  27.153  1.00  0.00    -0.094 F 
ATOM     24  F   UNL A   1      32.913  29.875  27.903  1.00  0.00    -0.094 F 
ATOM     25  F   UNL A   1      31.498  28.920  26.499  1.00  0.00    -0.094 F 
ATOM     26  F   UNL A   1      33.125  27.593  25.766  1.00  0.00    -0.094 F 
ENDBRANCH  13  21
ENDBRANCH   4   6
ENDBRANCH   3   4
ENDBRANCH   2   3
ENDBRANCH   1   2
BRANCH   1  27
ATOM     27  O   UNL A   1      37.136  21.619  25.387  1.00  0.00    -0.458 OA
BRANCH  27  28
ATOM     28  C   UNL A   1      38.443  21.496  25.928  1.00  0.00     0.338 C 
ATOM     29  O   UNL A   1      39.021  20.365  25.942  1.00  0.00    -0.246 OA
BRANCH  28  30
ATOM     30  C   UNL A   1      39.151  22.718  26.490  1.00  0.00     0.060 A 
ATOM     31  C   UNL A   1      38.693  23.977  26.137  1.00  0.00     0.016 A 
ATOM     32  C   UNL A   1      40.245  22.565  27.228  1.00  0.00     0.016 A 
ATOM     33  C   UNL A   1      39.628  25.013  26.369  1.00  0.00     0.010 A 
ATOM     34  C   UNL A   1      41.040  23.644  27.531  1.00  0.00     0.010 A 
ATOM     35  C   UNL A   1      40.679  24.909  27.162  1.00  0.00    -0.014 A 
BRANCH  35  36
ATOM     36  C   UNL A   1      41.446  26.133  27.638  1.00  0.00     0.031 A 
ATOM     37  C   UNL A   1      42.791  26.274  27.289  1.00  0.00     0.074 A 
ATOM     38  C   UNL A   1      40.717  27.094  28.315  1.00  0.00     0.049 A 
ATOM     39  N   UNL A   1      43.580  27.328  27.502  1.00  0.00    -0.248 NA
ATOM     40  C   UNL A   1      43.577  25.240  26.600  1.00  0.00     0.031 C 
ATOM     41  C   UNL A   1      39.358  26.962  28.662  1.00  0.00     0.029 A 
ATOM     42  N   UNL A   1      41.151  28.321  28.767  1.00  0.00    -0.354 N 
ATOM     43  C   UNL A   1      44.799  27.098  27.009  1.00  0.00     0.074 A 
ATOM     44  C   UNL A   1      44.817  25.749  26.428  1.00  0.00     0.031 C 
ATOM     45  C   UNL A   1      38.982  28.088  29.324  1.00  0.00     0.029 A 
ATOM     46  C   UNL A   1      40.098  28.942  29.400  1.00  0.00     0.049 A 
ATOM     47  H   UNL A   1      42.056  28.690  28.655  1.00  0.00     0.167 HD
ATOM     48  C   UNL A   1      45.896  27.962  27.021  1.00  0.00     0.034 A 
ATOM     49  C   UNL A   1      40.092  30.183  30.019  1.00  0.00     0.034 A 
ATOM     50  C   UNL A   1      45.877  29.221  27.601  1.00  0.00     0.049 A 
ATOM     51  C   UNL A   1      41.206  31.023  30.081  1.00  0.00     0.074 A 
ATOM     52  C   UNL A   1      46.971  30.107  27.614  1.00  0.00     0.029 A 
ATOM     53  N   UNL A   1      44.831  29.832  28.257  1.00  0.00    -0.354 N 
ATOM     54  N   UNL A   1      42.413  30.810  29.555  1.00  0.00    -0.248 NA
ATOM     55  C   UNL A   1      41.220  32.325  30.762  1.00  0.00     0.031 C 
ATOM     56  C   UNL A   1      46.594  31.232  28.277  1.00  0.00     0.029 A 
ATOM     57  C   UNL A   1      45.258  31.068  28.690  1.00  0.00     0.049 A 
ATOM     58  H   UNL A   1      43.934  29.451  28.393  1.00  0.00     0.167 HD
ATOM     59  C   UNL A   1      43.213  31.847  29.804  1.00  0.00     0.074 A 
ATOM     60  C   UNL A   1      42.460  32.833  30.591  1.00  0.00     0.031 C 
ATOM     61  C   UNL A   1      44.541  32.013  29.405  1.00  0.00     0.034 A 
BRANCH  48  62
ATOM     62  C   UNL A   1      47.182  27.495  26.359  1.00  0.00     0.023 A 
ATOM     63  C   UNL A   1      47.329  27.827  25.022  1.00  0.00     0.012 A 
ATOM     64  C   UNL A   1      48.140  26.854  27.019  1.00  0.00     0.148 A 
ATOM     65  C   UNL A   1      48.413  27.177  24.386  1.00  0.00     0.002 A 
ATOM     66  C   UNL A   1      49.239  26.365  26.355  1.00  0.00     0.091 A 
ATOM     67  F   UNL A   1      48.034  26.685  28.334  1.00  0.00    -0.205 F 
ATOM     68  C   UNL A   1      49.418  26.603  25.021  1.00  0.00     0.022 A 
BRANCH  66  69
ATOM     69  S   UNL A   1      50.466  25.389  27.260  1.00  0.00     0.127 S 
ATOM     70  O   UNL A   1      51.121  26.261  28.333  1.00  0.00    -0.237 OA
ATOM     71  O   UNL A   1      49.778  24.194  27.924  1.00  0.00    -0.237 OA
ATOM     72  O   UNL A   1      51.661  24.828  26.174  1.00  0.00    -0.744 OA
ENDBRANCH  66  69
ENDBRANCH  48  62
BRANCH  49  73
ATOM     73  C   UNL A   1      38.800  30.655  30.666  1.00  0.00     0.023 A 
ATOM     74  C   UNL A   1      38.472  30.273  31.957  1.00  0.00     0.012 A 
ATOM     75  C   UNL A   1      37.963  31.374  29.927  1.00  0.00     0.148 A 
ATOM     76  C   UNL A   1      37.107  30.456  32.279  1.00  0.00     0.002 A 
ATOM     77  C   UNL A   1      36.686  31.630  30.365  1.00  0.00     0.091 A 
ATOM     78  F   UNL A   1      38.366  31.852  28.753  1.00  0.00    -0.205 F 
ATOM     79  C   UNL A   1      36.275  31.230  31.606  1.00  0.00     0.022 A 
BRANCH  77  80
ATOM     80  S   UNL A   1      35.532  32.508  29.283  1.00  0.00     0.127 S 
ATOM     81  O   UNL A   1      36.102  33.886  28.939  1.00  0.00    -0.237 OA
ATOM     82  O   UNL A   1      35.327  31.705  27.996  1.00  0.00    -0.237 OA
ATOM     83  O   UNL A   1      34.032  32.696  30.082  1.00  0.00    -0.744 OA
ENDBRANCH  77  80
ENDBRANCH  49  73
BRANCH  61  84
ATOM     84  C   UNL A   1      45.241  33.310  29.778  1.00  0.00     0.023 A 
ATOM     85  C   UNL A   1      45.938  33.369  30.973  1.00  0.00     0.012 A 
ATOM     86  C   UNL A   1      45.115  34.378  29.000  1.00  0.00     0.148 A 
ATOM     87  C   UNL A   1      46.225  34.686  31.405  1.00  0.00     0.002 A 
ATOM     88  C   UNL A   1      45.541  35.612  29.431  1.00  0.00     0.091 A 
ATOM     89  F   UNL A   1      44.572  34.254  27.792  1.00  0.00    -0.205 F 
ATOM     90  C   UNL A   1      46.185  35.754  30.629  1.00  0.00     0.022 A 
BRANCH  88  91
ATOM     91  S   UNL A   1      45.244  37.069  28.399  1.00  0.00     0.127 S 
ATOM     92  O   UNL A   1      45.685  38.326  29.152  1.00  0.00    -0.237 OA
ATOM     93  O   UNL A   1      46.046  36.945  27.100  1.00  0.00    -0.237 OA
ATOM     94  O   UNL A   1      43.579  37.178  28.032  1.00  0.00    -0.744 OA
ENDBRANCH  88  91
ENDBRANCH  61  84
ENDBRANCH  35  36
ENDBRANCH  28  30
ENDBRANCH  27  28
ENDBRANCH   1  27
TORSDOF 16
ENDMDL
