MODEL 1
REMARK VINA RESULT:     -10.7      0.000      0.000
REMARK SMILES CCC[N@H+](CC(=O)OCCOC(=O)c1ccc(-c2c3nc(c(-c4cccc(S(=O)(=O)[O-])c4F)c4ccc([nH]4)c(-c4cccc(S(=O)(=O)[O-])c4F)c4nc(c(-c5cccc(S(=O)(=O)[O-])c5F)c5ccc2[nH]5)C=C4)C=C3)cc1)[C@H]1CCOC2(CCCCC2)C1
REMARK SMILES IDX 9 1 8 2 6 3 7 4 5 5 4 6 3 8 2 9 1 10 77 11 78 12 87 13 79 14
REMARK SMILES IDX 81 15 80 16 82 17 86 18 83 19 85 20 84 21 10 22 11 23 12 24
REMARK SMILES IDX 13 25 14 26 15 27 76 28 16 29 75 30 17 31 18 32 19 33 69 34
REMARK SMILES IDX 20 35 74 36 68 37 70 38 21 39 73 40 67 41 66 42 22 44 54 45
REMARK SMILES IDX 34 46 53 47 35 48 38 49 52 50 71 51 36 52 37 53 51 55 72 56
REMARK SMILES IDX 39 57 23 58 24 59 32 60 25 61 27 62 33 63 26 64 28 65 29 66
REMARK SMILES IDX 30 67 31 68 55 69 56 70 64 71 57 72 59 73 65 74 58 75 60 76
REMARK SMILES IDX 61 77 62 78 63 79 40 80 41 81 49 82 42 83 44 84 50 85 43 86
REMARK SMILES IDX 45 87 46 88 47 89 48 90
REMARK H PARENT 4 7 70 43 38 54
REMARK Flexibility Score: inf
ROOT
ATOM      1  C   UNL A   1      32.216  31.273  26.883  1.00  0.00     0.274 C 
ENDROOT
BRANCH   1   2
ATOM      2  O   UNL A   1      33.276  30.468  27.431  1.00  0.00    -0.458 OA
BRANCH   2   3
ATOM      3  C   UNL A   1      33.806  29.522  26.614  1.00  0.00     0.361 C 
ATOM      4  O   UNL A   1      34.790  28.844  26.897  1.00  0.00    -0.245 OA
BRANCH   3   5
ATOM      5  C   UNL A   1      33.145  29.464  25.240  1.00  0.00     0.386 C 
BRANCH   5   6
ATOM      6  N   UNL A   1      32.501  28.155  24.862  1.00  0.00    -0.323 N 
ATOM      7  H   UNL A   1      33.093  27.568  24.274  1.00  0.00     0.348 HD
BRANCH   6   8
ATOM      8  C   UNL A   1      32.287  27.359  26.094  1.00  0.00     0.262 C 
BRANCH   8   9
ATOM      9  C   UNL A   1      32.791  25.913  26.207  1.00  0.00     0.058 C 
ATOM     10  C   UNL A   1      34.133  25.658  25.538  1.00  0.00     0.010 C 
ENDBRANCH   8   9
ENDBRANCH   6   8
BRANCH   6  11
ATOM     11  C   UNL A   1      31.290  28.438  24.023  1.00  0.00     0.189 C 
ATOM     12  C   UNL A   1      30.186  27.367  24.052  1.00  0.00     0.093 C 
ATOM     13  C   UNL A   1      30.695  29.839  24.238  1.00  0.00     0.100 C 
ATOM     14  C   UNL A   1      28.948  27.760  23.258  1.00  0.00     0.167 C 
ATOM     15  C   UNL A   1      29.462  30.110  23.357  1.00  0.00     0.074 C 
ATOM     16  O   UNL A   1      28.497  29.074  23.589  1.00  0.00    -0.375 OA
ATOM     17  C   UNL A   1      29.799  30.236  21.852  1.00  0.00     0.036 C 
ATOM     18  C   UNL A   1      28.835  31.445  23.825  1.00  0.00     0.036 C 
ATOM     19  C   UNL A   1      28.558  30.585  21.028  1.00  0.00     0.003 C 
ATOM     20  C   UNL A   1      27.622  31.860  22.996  1.00  0.00     0.003 C 
ATOM     21  C   UNL A   1      27.933  31.892  21.504  1.00  0.00     0.000 C 
ENDBRANCH   6  11
ENDBRANCH   5   6
ENDBRANCH   3   5
ENDBRANCH   2   3
ENDBRANCH   1   2
BRANCH   1  22
ATOM     22  C   UNL A   1      32.611  32.751  26.826  1.00  0.00     0.275 C 
BRANCH  22  23
ATOM     23  O   UNL A   1      32.398  33.391  28.095  1.00  0.00    -0.458 OA
BRANCH  23  24
ATOM     24  C   UNL A   1      33.339  34.297  28.459  1.00  0.00     0.338 C 
ATOM     25  O   UNL A   1      33.224  35.509  28.470  1.00  0.00    -0.246 OA
BRANCH  24  26
ATOM     26  C   UNL A   1      34.526  33.585  28.967  1.00  0.00     0.060 A 
ATOM     27  C   UNL A   1      34.335  32.536  29.870  1.00  0.00     0.016 A 
ATOM     28  C   UNL A   1      35.814  33.975  28.592  1.00  0.00     0.016 A 
ATOM     29  C   UNL A   1      35.437  31.864  30.398  1.00  0.00     0.010 A 
ATOM     30  C   UNL A   1      36.918  33.306  29.132  1.00  0.00     0.010 A 
ATOM     31  C   UNL A   1      36.738  32.254  30.045  1.00  0.00    -0.014 A 
BRANCH  31  32
ATOM     32  C   UNL A   1      37.904  31.573  30.659  1.00  0.00     0.031 A 
ATOM     33  C   UNL A   1      38.302  31.887  32.074  1.00  0.00     0.074 A 
ATOM     34  C   UNL A   1      38.605  30.670  29.947  1.00  0.00     0.049 A 
ATOM     35  N   UNL A   1      39.276  31.386  32.788  1.00  0.00    -0.248 NA
ATOM     36  C   UNL A   1      37.500  32.901  32.779  1.00  0.00     0.031 C 
ATOM     37  C   UNL A   1      38.336  30.300  28.557  1.00  0.00     0.029 A 
ATOM     38  N   UNL A   1      39.698  29.915  30.290  1.00  0.00    -0.354 N 
ATOM     39  C   UNL A   1      39.217  32.027  34.019  1.00  0.00     0.074 A 
ATOM     40  C   UNL A   1      38.121  32.971  33.949  1.00  0.00     0.031 C 
ATOM     41  C   UNL A   1      39.252  29.401  28.160  1.00  0.00     0.029 A 
ATOM     42  C   UNL A   1      40.177  29.140  29.259  1.00  0.00     0.049 A 
ATOM     43  H   UNL A   1      40.101  29.926  31.188  1.00  0.00     0.167 HD
ATOM     44  C   UNL A   1      39.988  31.833  35.115  1.00  0.00     0.034 A 
ATOM     45  C   UNL A   1      41.246  28.321  29.206  1.00  0.00     0.034 A 
ATOM     46  C   UNL A   1      41.065  30.881  35.193  1.00  0.00     0.049 A 
ATOM     47  C   UNL A   1      42.078  28.116  30.444  1.00  0.00     0.074 A 
ATOM     48  C   UNL A   1      41.882  30.592  36.273  1.00  0.00     0.029 A 
ATOM     49  N   UNL A   1      41.482  30.068  34.150  1.00  0.00    -0.354 N 
ATOM     50  N   UNL A   1      41.925  28.634  31.638  1.00  0.00    -0.248 NA
ATOM     51  C   UNL A   1      43.210  27.183  30.337  1.00  0.00     0.031 C 
ATOM     52  C   UNL A   1      42.796  29.607  35.880  1.00  0.00     0.029 A 
ATOM     53  C   UNL A   1      42.542  29.277  34.559  1.00  0.00     0.049 A 
ATOM     54  H   UNL A   1      41.081  30.055  33.251  1.00  0.00     0.167 HD
ATOM     55  C   UNL A   1      42.924  28.075  32.429  1.00  0.00     0.074 A 
ATOM     56  C   UNL A   1      43.653  27.149  31.586  1.00  0.00     0.031 C 
ATOM     57  C   UNL A   1      43.227  28.323  33.726  1.00  0.00     0.034 A 
BRANCH  44  58
ATOM     58  C   UNL A   1      39.658  32.627  36.352  1.00  0.00     0.023 A 
ATOM     59  C   UNL A   1      40.287  33.872  36.553  1.00  0.00     0.012 A 
ATOM     60  C   UNL A   1      38.683  32.186  37.267  1.00  0.00     0.148 A 
ATOM     61  C   UNL A   1      39.966  34.659  37.658  1.00  0.00     0.002 A 
ATOM     62  C   UNL A   1      38.343  32.994  38.348  1.00  0.00     0.091 A 
ATOM     63  F   UNL A   1      38.113  30.990  37.067  1.00  0.00    -0.205 F 
ATOM     64  C   UNL A   1      38.988  34.225  38.548  1.00  0.00     0.022 A 
BRANCH  62  65
ATOM     65  S   UNL A   1      37.048  32.558  39.515  1.00  0.00     0.127 S 
ATOM     66  O   UNL A   1      37.476  31.228  39.947  1.00  0.00    -0.237 OA
ATOM     67  O   UNL A   1      37.185  33.602  40.531  1.00  0.00    -0.237 OA
ATOM     68  O   UNL A   1      35.800  32.598  38.765  1.00  0.00    -0.744 OA
ENDBRANCH  62  65
ENDBRANCH  44  58
BRANCH  45  69
ATOM     69  C   UNL A   1      41.560  27.589  27.946  1.00  0.00     0.023 A 
ATOM     70  C   UNL A   1      42.103  28.290  26.852  1.00  0.00     0.012 A 
ATOM     71  C   UNL A   1      41.338  26.204  27.831  1.00  0.00     0.148 A 
ATOM     72  C   UNL A   1      42.390  27.631  25.656  1.00  0.00     0.002 A 
ATOM     73  C   UNL A   1      41.678  25.542  26.657  1.00  0.00     0.091 A 
ATOM     74  F   UNL A   1      40.795  25.555  28.871  1.00  0.00    -0.205 F 
ATOM     75  C   UNL A   1      42.189  26.255  25.562  1.00  0.00     0.022 A 
BRANCH  73  76
ATOM     76  S   UNL A   1      41.573  23.754  26.513  1.00  0.00     0.127 S 
ATOM     77  O   UNL A   1      40.132  23.545  26.412  1.00  0.00    -0.237 OA
ATOM     78  O   UNL A   1      42.320  23.497  25.281  1.00  0.00    -0.237 OA
ATOM     79  O   UNL A   1      42.215  23.237  27.714  1.00  0.00    -0.744 OA
ENDBRANCH  73  76
ENDBRANCH  45  69
BRANCH  57  80
ATOM     80  C   UNL A   1      44.395  27.579  34.320  1.00  0.00     0.023 A 
ATOM     81  C   UNL A   1      45.696  28.098  34.169  1.00  0.00     0.012 A 
ATOM     82  C   UNL A   1      44.205  26.398  35.066  1.00  0.00     0.148 A 
ATOM     83  C   UNL A   1      46.793  27.436  34.718  1.00  0.00     0.002 A 
ATOM     84  C   UNL A   1      45.300  25.766  35.647  1.00  0.00     0.091 A 
ATOM     85  F   UNL A   1      42.964  25.904  35.182  1.00  0.00    -0.205 F 
ATOM     86  C   UNL A   1      46.595  26.277  35.465  1.00  0.00     0.022 A 
BRANCH  84  87
ATOM     87  S   UNL A   1      45.116  24.318  36.693  1.00  0.00     0.127 S 
ATOM     88  O   UNL A   1      44.623  23.322  35.743  1.00  0.00    -0.237 OA
ATOM     89  O   UNL A   1      46.485  24.088  37.160  1.00  0.00    -0.237 OA
ATOM     90  O   UNL A   1      44.185  24.708  37.743  1.00  0.00    -0.744 OA
ENDBRANCH  84  87
ENDBRANCH  57  80
ENDBRANCH  31  32
ENDBRANCH  24  26
ENDBRANCH  23  24
ENDBRANCH  22  23
ENDBRANCH   1  22
TORSDOF 18
ENDMDL
MODEL 2
REMARK VINA RESULT:     -10.7      6.018     11.519
REMARK SMILES CCC[N@H+](CC(=O)OCCOC(=O)c1ccc(-c2c3nc(c(-c4cccc(S(=O)(=O)[O-])c4F)c4ccc([nH]4)c(-c4cccc(S(=O)(=O)[O-])c4F)c4nc(c(-c5cccc(S(=O)(=O)[O-])c5F)c5ccc2[nH]5)C=C4)C=C3)cc1)[C@H]1CCOC2(CCCCC2)C1
REMARK SMILES IDX 9 1 8 2 6 3 7 4 5 5 4 6 3 8 2 9 1 10 77 11 78 12 87 13 79 14
REMARK SMILES IDX 81 15 80 16 82 17 86 18 83 19 85 20 84 21 10 22 11 23 12 24
REMARK SMILES IDX 13 25 14 26 15 27 76 28 16 29 75 30 17 31 18 32 19 33 69 34
REMARK SMILES IDX 20 35 74 36 68 37 70 38 21 39 73 40 67 41 66 42 22 44 54 45
REMARK SMILES IDX 34 46 53 47 35 48 38 49 52 50 71 51 36 52 37 53 51 55 72 56
REMARK SMILES IDX 39 57 23 58 24 59 32 60 25 61 27 62 33 63 26 64 28 65 29 66
REMARK SMILES IDX 30 67 31 68 55 69 56 70 64 71 57 72 59 73 65 74 58 75 60 76
REMARK SMILES IDX 61 77 62 78 63 79 40 80 41 81 49 82 42 83 44 84 50 85 43 86
REMARK SMILES IDX 45 87 46 88 47 89 48 90
REMARK H PARENT 4 7 70 43 38 54
REMARK Flexibility Score: inf
ROOT
ATOM      1  C   UNL A   1      36.494  21.829  24.373  1.00  0.00     0.274 C 
ENDROOT
BRANCH   1   2
ATOM      2  O   UNL A   1      35.395  22.712  24.661  1.00  0.00    -0.458 OA
BRANCH   2   3
ATOM      3  C   UNL A   1      34.744  23.243  23.594  1.00  0.00     0.361 C 
ATOM      4  O   UNL A   1      35.070  24.291  23.044  1.00  0.00    -0.245 OA
BRANCH   3   5
ATOM      5  C   UNL A   1      33.477  22.482  23.215  1.00  0.00     0.386 C 
BRANCH   5   6
ATOM      6  N   UNL A   1      32.671  21.914  24.354  1.00  0.00    -0.323 N 
ATOM      7  H   UNL A   1      33.121  22.025  25.263  1.00  0.00     0.348 HD
BRANCH   6   8
ATOM      8  C   UNL A   1      31.404  22.674  24.465  1.00  0.00     0.262 C 
BRANCH   8   9
ATOM      9  C   UNL A   1      31.137  23.611  25.652  1.00  0.00     0.058 C 
ATOM     10  C   UNL A   1      30.544  22.927  26.874  1.00  0.00     0.010 C 
ENDBRANCH   8   9
ENDBRANCH   6   8
BRANCH   6  11
ATOM     11  C   UNL A   1      32.553  20.430  24.167  1.00  0.00     0.189 C 
ATOM     12  C   UNL A   1      32.156  19.960  22.757  1.00  0.00     0.093 C 
ATOM     13  C   UNL A   1      33.764  19.636  24.685  1.00  0.00     0.100 C 
ATOM     14  C   UNL A   1      32.149  18.443  22.611  1.00  0.00     0.167 C 
ATOM     15  C   UNL A   1      33.613  18.117  24.493  1.00  0.00     0.074 C 
ATOM     16  O   UNL A   1      33.350  17.853  23.108  1.00  0.00    -0.375 OA
ATOM     17  C   UNL A   1      32.527  17.489  25.399  1.00  0.00     0.036 C 
ATOM     18  C   UNL A   1      34.971  17.462  24.843  1.00  0.00     0.036 C 
ATOM     19  C   UNL A   1      32.470  15.969  25.233  1.00  0.00     0.003 C 
ATOM     20  C   UNL A   1      34.946  15.939  24.741  1.00  0.00     0.003 C 
ATOM     21  C   UNL A   1      33.815  15.330  25.562  1.00  0.00     0.000 C 
ENDBRANCH   6  11
ENDBRANCH   5   6
ENDBRANCH   3   5
ENDBRANCH   2   3
ENDBRANCH   1   2
BRANCH   1  22
ATOM     22  C   UNL A   1      37.310  21.523  25.631  1.00  0.00     0.275 C 
BRANCH  22  23
ATOM     23  O   UNL A   1      38.720  21.573  25.356  1.00  0.00    -0.458 OA
BRANCH  23  24
ATOM     24  C   UNL A   1      39.531  21.420  26.431  1.00  0.00     0.338 C 
ATOM     25  O   UNL A   1      39.912  20.372  26.920  1.00  0.00    -0.246 OA
BRANCH  24  26
ATOM     26  C   UNL A   1      39.999  22.745  26.878  1.00  0.00     0.060 A 
ATOM     27  C   UNL A   1      39.603  23.870  26.148  1.00  0.00     0.016 A 
ATOM     28  C   UNL A   1      40.853  22.875  27.975  1.00  0.00     0.016 A 
ATOM     29  C   UNL A   1      40.055  25.135  26.521  1.00  0.00     0.010 A 
ATOM     30  C   UNL A   1      41.314  24.145  28.340  1.00  0.00     0.010 A 
ATOM     31  C   UNL A   1      40.926  25.281  27.611  1.00  0.00    -0.014 A 
BRANCH  31  32
ATOM     32  C   UNL A   1      41.450  26.624  27.961  1.00  0.00     0.031 A 
ATOM     33  C   UNL A   1      42.869  26.991  27.625  1.00  0.00     0.074 A 
ATOM     34  C   UNL A   1      40.652  27.515  28.578  1.00  0.00     0.049 A 
ATOM     35  N   UNL A   1      43.501  28.117  27.834  1.00  0.00    -0.248 NA
ATOM     36  C   UNL A   1      43.685  25.956  26.971  1.00  0.00     0.031 C 
ATOM     37  C   UNL A   1      39.267  27.269  28.982  1.00  0.00     0.029 A 
ATOM     38  N   UNL A   1      40.898  28.801  28.991  1.00  0.00    -0.354 N 
ATOM     39  C   UNL A   1      44.790  27.926  27.352  1.00  0.00     0.074 A 
ATOM     40  C   UNL A   1      44.857  26.568  26.856  1.00  0.00     0.031 C 
ATOM     41  C   UNL A   1      38.792  28.362  29.600  1.00  0.00     0.029 A 
ATOM     42  C   UNL A   1      39.837  29.380  29.648  1.00  0.00     0.049 A 
ATOM     43  H   UNL A   1      41.751  29.265  28.831  1.00  0.00     0.167 HD
ATOM     44  C   UNL A   1      45.817  28.808  27.304  1.00  0.00     0.034 A 
ATOM     45  C   UNL A   1      39.727  30.591  30.229  1.00  0.00     0.034 A 
ATOM     46  C   UNL A   1      45.747  30.165  27.778  1.00  0.00     0.049 A 
ATOM     47  C   UNL A   1      40.881  31.554  30.151  1.00  0.00     0.074 A 
ATOM     48  C   UNL A   1      46.727  31.142  27.742  1.00  0.00     0.029 A 
ATOM     49  N   UNL A   1      44.637  30.738  28.380  1.00  0.00    -0.354 N 
ATOM     50  N   UNL A   1      42.048  31.400  29.572  1.00  0.00    -0.248 NA
ATOM     51  C   UNL A   1      40.690  32.873  30.771  1.00  0.00     0.031 C 
ATOM     52  C   UNL A   1      46.212  32.303  28.328  1.00  0.00     0.029 A 
ATOM     53  C   UNL A   1      44.907  32.053  28.720  1.00  0.00     0.049 A 
ATOM     54  H   UNL A   1      43.782  30.277  28.542  1.00  0.00     0.167 HD
ATOM     55  C   UNL A   1      42.720  32.606  29.741  1.00  0.00     0.074 A 
ATOM     56  C   UNL A   1      41.815  33.494  30.442  1.00  0.00     0.031 C 
ATOM     57  C   UNL A   1      43.980  32.942  29.371  1.00  0.00     0.034 A 
BRANCH  44  58
ATOM     58  C   UNL A   1      47.100  28.352  26.660  1.00  0.00     0.023 A 
ATOM     59  C   UNL A   1      48.192  28.004  27.481  1.00  0.00     0.012 A 
ATOM     60  C   UNL A   1      47.205  28.196  25.264  1.00  0.00     0.148 A 
ATOM     61  C   UNL A   1      49.376  27.525  26.922  1.00  0.00     0.002 A 
ATOM     62  C   UNL A   1      48.377  27.685  24.717  1.00  0.00     0.091 A 
ATOM     63  F   UNL A   1      46.161  28.552  24.502  1.00  0.00    -0.205 F 
ATOM     64  C   UNL A   1      49.464  27.356  25.543  1.00  0.00     0.022 A 
BRANCH  62  65
ATOM     65  S   UNL A   1      48.569  27.366  22.960  1.00  0.00     0.127 S 
ATOM     66  O   UNL A   1      49.973  27.717  22.749  1.00  0.00    -0.237 OA
ATOM     67  O   UNL A   1      48.279  25.934  22.872  1.00  0.00    -0.237 OA
ATOM     68  O   UNL A   1      47.604  28.224  22.287  1.00  0.00    -0.744 OA
ENDBRANCH  62  65
ENDBRANCH  44  58
BRANCH  45  69
ATOM     69  C   UNL A   1      38.452  30.983  30.895  1.00  0.00     0.023 A 
ATOM     70  C   UNL A   1      38.288  30.752  32.275  1.00  0.00     0.012 A 
ATOM     71  C   UNL A   1      37.409  31.593  30.173  1.00  0.00     0.148 A 
ATOM     72  C   UNL A   1      37.097  31.094  32.917  1.00  0.00     0.002 A 
ATOM     73  C   UNL A   1      36.247  31.982  30.830  1.00  0.00     0.091 A 
ATOM     74  F   UNL A   1      37.568  31.780  28.855  1.00  0.00    -0.205 F 
ATOM     75  C   UNL A   1      36.082  31.721  32.198  1.00  0.00     0.022 A 
BRANCH  73  76
ATOM     76  S   UNL A   1      34.955  32.913  29.996  1.00  0.00     0.127 S 
ATOM     77  O   UNL A   1      34.028  33.185  31.090  1.00  0.00    -0.237 OA
ATOM     78  O   UNL A   1      35.684  34.083  29.502  1.00  0.00    -0.237 OA
ATOM     79  O   UNL A   1      34.467  32.031  28.945  1.00  0.00    -0.744 OA
ENDBRANCH  73  76
ENDBRANCH  45  69
BRANCH  57  80
ATOM     80  C   UNL A   1      44.457  34.330  29.712  1.00  0.00     0.023 A 
ATOM     81  C   UNL A   1      45.145  34.549  30.922  1.00  0.00     0.012 A 
ATOM     82  C   UNL A   1      44.269  35.405  28.821  1.00  0.00     0.148 A 
ATOM     83  C   UNL A   1      45.607  35.821  31.257  1.00  0.00     0.002 A 
ATOM     84  C   UNL A   1      44.770  36.663  29.143  1.00  0.00     0.091 A 
ATOM     85  F   UNL A   1      43.593  35.187  27.684  1.00  0.00    -0.205 F 
ATOM     86  C   UNL A   1      45.429  36.875  30.365  1.00  0.00     0.022 A 
BRANCH  84  87
ATOM     87  S   UNL A   1      44.655  38.051  28.008  1.00  0.00     0.127 S 
ATOM     88  O   UNL A   1      45.433  37.572  26.868  1.00  0.00    -0.237 OA
ATOM     89  O   UNL A   1      43.214  38.144  27.766  1.00  0.00    -0.237 OA
ATOM     90  O   UNL A   1      45.214  39.189  28.724  1.00  0.00    -0.744 OA
ENDBRANCH  84  87
ENDBRANCH  57  80
ENDBRANCH  31  32
ENDBRANCH  24  26
ENDBRANCH  23  24
ENDBRANCH  22  23
ENDBRANCH   1  22
TORSDOF 18
ENDMDL
MODEL 3
REMARK VINA RESULT:     -10.6      5.405      8.420
REMARK SMILES CCC[N@H+](CC(=O)OCCOC(=O)c1ccc(-c2c3nc(c(-c4cccc(S(=O)(=O)[O-])c4F)c4ccc([nH]4)c(-c4cccc(S(=O)(=O)[O-])c4F)c4nc(c(-c5cccc(S(=O)(=O)[O-])c5F)c5ccc2[nH]5)C=C4)C=C3)cc1)[C@H]1CCOC2(CCCCC2)C1
REMARK SMILES IDX 9 1 8 2 6 3 7 4 5 5 4 6 3 8 2 9 1 10 77 11 78 12 87 13 79 14
REMARK SMILES IDX 81 15 80 16 82 17 86 18 83 19 85 20 84 21 10 22 11 23 12 24
REMARK SMILES IDX 13 25 14 26 15 27 76 28 16 29 75 30 17 31 18 32 19 33 69 34
REMARK SMILES IDX 20 35 74 36 68 37 70 38 21 39 73 40 67 41 66 42 22 44 54 45
REMARK SMILES IDX 34 46 53 47 35 48 38 49 52 50 71 51 36 52 37 53 51 55 72 56
REMARK SMILES IDX 39 57 23 58 24 59 32 60 25 61 27 62 33 63 26 64 28 65 29 66
REMARK SMILES IDX 30 67 31 68 55 69 56 70 64 71 57 72 59 73 65 74 58 75 60 76
REMARK SMILES IDX 61 77 62 78 63 79 40 80 41 81 49 82 42 83 44 84 50 85 43 86
REMARK SMILES IDX 45 87 46 88 47 89 48 90
REMARK H PARENT 4 7 70 43 38 54
REMARK Flexibility Score: inf
ROOT
ATOM      1  C   UNL A   1      35.450  21.338  24.625  1.00  0.00     0.274 C 
ENDROOT
BRANCH   1   2
ATOM      2  O   UNL A   1      34.332  20.433  24.562  1.00  0.00    -0.458 OA
BRANCH   2   3
ATOM      3  C   UNL A   1      33.152  20.951  24.133  1.00  0.00     0.361 C 
ATOM      4  O   UNL A   1      32.186  20.272  23.799  1.00  0.00    -0.245 OA
BRANCH   3   5
ATOM      5  C   UNL A   1      33.176  22.469  23.974  1.00  0.00     0.386 C 
BRANCH   5   6
ATOM      6  N   UNL A   1      31.978  23.215  24.503  1.00  0.00    -0.323 N 
ATOM      7  H   UNL A   1      31.108  22.968  24.033  1.00  0.00     0.348 HD
BRANCH   6   8
ATOM      8  C   UNL A   1      31.765  22.828  25.918  1.00  0.00     0.262 C 
BRANCH   8   9
ATOM      9  C   UNL A   1      32.737  23.271  27.021  1.00  0.00     0.058 C 
ATOM     10  C   UNL A   1      33.484  22.133  27.699  1.00  0.00     0.010 C 
ENDBRANCH   8   9
ENDBRANCH   6   8
BRANCH   6  11
ATOM     11  C   UNL A   1      32.161  24.678  24.224  1.00  0.00     0.189 C 
ATOM     12  C   UNL A   1      33.295  25.040  23.249  1.00  0.00     0.093 C 
ATOM     13  C   UNL A   1      30.863  25.409  23.846  1.00  0.00     0.100 C 
ATOM     14  C   UNL A   1      33.363  26.529  22.936  1.00  0.00     0.167 C 
ATOM     15  C   UNL A   1      31.075  26.910  23.578  1.00  0.00     0.074 C 
ATOM     16  O   UNL A   1      32.087  27.057  22.572  1.00  0.00    -0.375 OA
ATOM     17  C   UNL A   1      31.426  27.717  24.850  1.00  0.00     0.036 C 
ATOM     18  C   UNL A   1      29.756  27.474  22.997  1.00  0.00     0.036 C 
ATOM     19  C   UNL A   1      31.546  29.212  24.549  1.00  0.00     0.003 C 
ATOM     20  C   UNL A   1      29.813  28.975  22.729  1.00  0.00     0.003 C 
ATOM     21  C   UNL A   1      30.251  29.760  23.961  1.00  0.00     0.000 C 
ENDBRANCH   6  11
ENDBRANCH   5   6
ENDBRANCH   3   5
ENDBRANCH   2   3
ENDBRANCH   1   2
BRANCH   1  22
ATOM     22  C   UNL A   1      36.750  20.597  24.944  1.00  0.00     0.275 C 
BRANCH  22  23
ATOM     23  O   UNL A   1      37.445  21.221  26.036  1.00  0.00    -0.458 OA
BRANCH  23  24
ATOM     24  C   UNL A   1      38.787  21.032  26.061  1.00  0.00     0.338 C 
ATOM     25  O   UNL A   1      39.395  20.044  25.690  1.00  0.00    -0.246 OA
BRANCH  24  26
ATOM     26  C   UNL A   1      39.445  22.272  26.511  1.00  0.00     0.060 A 
ATOM     27  C   UNL A   1      38.926  23.495  26.074  1.00  0.00     0.016 A 
ATOM     28  C   UNL A   1      40.584  22.232  27.317  1.00  0.00     0.016 A 
ATOM     29  C   UNL A   1      39.543  24.687  26.450  1.00  0.00     0.010 A 
ATOM     30  C   UNL A   1      41.208  23.429  27.684  1.00  0.00     0.010 A 
ATOM     31  C   UNL A   1      40.698  24.663  27.246  1.00  0.00    -0.014 A 
BRANCH  31  32
ATOM     32  C   UNL A   1      41.383  25.933  27.590  1.00  0.00     0.031 A 
ATOM     33  C   UNL A   1      40.654  26.997  28.363  1.00  0.00     0.074 A 
ATOM     34  C   UNL A   1      42.660  26.130  27.212  1.00  0.00     0.049 A 
ATOM     35  N   UNL A   1      41.086  28.162  28.771  1.00  0.00    -0.248 NA
ATOM     36  C   UNL A   1      39.254  26.716  28.720  1.00  0.00     0.031 C 
ATOM     37  C   UNL A   1      43.464  25.187  26.435  1.00  0.00     0.029 A 
ATOM     38  N   UNL A   1      43.497  27.199  27.414  1.00  0.00    -0.354 N 
ATOM     39  C   UNL A   1      40.015  28.760  29.421  1.00  0.00     0.074 A 
ATOM     40  C   UNL A   1      38.903  27.837  29.337  1.00  0.00     0.031 C 
ATOM     41  C   UNL A   1      44.674  25.726  26.211  1.00  0.00     0.029 A 
ATOM     42  C   UNL A   1      44.728  27.054  26.815  1.00  0.00     0.049 A 
ATOM     43  H   UNL A   1      43.242  27.992  27.938  1.00  0.00     0.167 HD
ATOM     44  C   UNL A   1      39.966  29.958  30.053  1.00  0.00     0.034 A 
ATOM     45  C   UNL A   1      45.774  27.902  26.755  1.00  0.00     0.034 A 
ATOM     46  C   UNL A   1      41.076  30.868  30.155  1.00  0.00     0.049 A 
ATOM     47  C   UNL A   1      45.695  29.221  27.475  1.00  0.00     0.074 A 
ATOM     48  C   UNL A   1      41.130  32.091  30.802  1.00  0.00     0.029 A 
ATOM     49  N   UNL A   1      42.326  30.662  29.592  1.00  0.00    -0.354 N 
ATOM     50  N   UNL A   1      44.717  29.712  28.197  1.00  0.00    -0.248 NA
ATOM     51  C   UNL A   1      46.880  30.089  27.405  1.00  0.00     0.031 C 
ATOM     52  C   UNL A   1      42.410  32.625  30.625  1.00  0.00     0.029 A 
ATOM     53  C   UNL A   1      43.157  31.732  29.875  1.00  0.00     0.049 A 
ATOM     54  H   UNL A   1      42.584  29.869  29.067  1.00  0.00     0.167 HD
ATOM     55  C   UNL A   1      45.175  30.932  28.683  1.00  0.00     0.074 A 
ATOM     56  C   UNL A   1      46.533  31.088  28.204  1.00  0.00     0.031 C 
ATOM     57  C   UNL A   1      44.523  31.852  29.436  1.00  0.00     0.034 A 
BRANCH  44  58
ATOM     58  C   UNL A   1      38.679  30.334  30.740  1.00  0.00     0.023 A 
ATOM     59  C   UNL A   1      38.506  30.000  32.098  1.00  0.00     0.012 A 
ATOM     60  C   UNL A   1      37.683  31.074  30.075  1.00  0.00     0.148 A 
ATOM     61  C   UNL A   1      37.351  30.381  32.781  1.00  0.00     0.002 A 
ATOM     62  C   UNL A   1      36.550  31.480  30.772  1.00  0.00     0.091 A 
ATOM     63  F   UNL A   1      37.859  31.362  28.777  1.00  0.00    -0.205 F 
ATOM     64  C   UNL A   1      36.380  31.128  32.121  1.00  0.00     0.022 A 
BRANCH  62  65
ATOM     65  S   UNL A   1      35.270  32.502  30.034  1.00  0.00     0.127 S 
ATOM     66  O   UNL A   1      34.792  31.641  28.953  1.00  0.00    -0.237 OA
ATOM     67  O   UNL A   1      34.330  32.669  31.143  1.00  0.00    -0.237 OA
ATOM     68  O   UNL A   1      35.931  33.728  29.608  1.00  0.00    -0.744 OA
ENDBRANCH  62  65
ENDBRANCH  44  58
BRANCH  45  69
ATOM     69  C   UNL A   1      47.011  27.504  26.025  1.00  0.00     0.023 A 
ATOM     70  C   UNL A   1      48.040  26.832  26.714  1.00  0.00     0.012 A 
ATOM     71  C   UNL A   1      47.168  27.775  24.653  1.00  0.00     0.148 A 
ATOM     72  C   UNL A   1      49.214  26.465  26.056  1.00  0.00     0.002 A 
ATOM     73  C   UNL A   1      48.317  27.358  23.991  1.00  0.00     0.091 A 
ATOM     74  F   UNL A   1      46.193  28.440  24.018  1.00  0.00    -0.205 F 
ATOM     75  C   UNL A   1      49.348  26.716  24.693  1.00  0.00     0.022 A 
BRANCH  73  76
ATOM     76  S   UNL A   1      48.498  27.527  22.211  1.00  0.00     0.127 S 
ATOM     77  O   UNL A   1      47.232  28.151  21.839  1.00  0.00    -0.237 OA
ATOM     78  O   UNL A   1      49.670  28.397  22.099  1.00  0.00    -0.237 OA
ATOM     79  O   UNL A   1      48.715  26.173  21.720  1.00  0.00    -0.744 OA
ENDBRANCH  73  76
ENDBRANCH  45  69
BRANCH  57  80
ATOM     80  C   UNL A   1      45.271  33.110  29.796  1.00  0.00     0.023 A 
ATOM     81  C   UNL A   1      46.053  33.139  30.968  1.00  0.00     0.012 A 
ATOM     82  C   UNL A   1      45.242  34.241  28.957  1.00  0.00     0.148 A 
ATOM     83  C   UNL A   1      46.765  34.286  31.318  1.00  0.00     0.002 A 
ATOM     84  C   UNL A   1      45.989  35.366  29.291  1.00  0.00     0.091 A 
ATOM     85  F   UNL A   1      44.477  34.206  27.857  1.00  0.00    -0.205 F 
ATOM     86  C   UNL A   1      46.741  35.395  30.476  1.00  0.00     0.022 A 
BRANCH  84  87
ATOM     87  S   UNL A   1      46.077  36.803  28.215  1.00  0.00     0.127 S 
ATOM     88  O   UNL A   1      44.699  37.288  28.249  1.00  0.00    -0.237 OA
ATOM     89  O   UNL A   1      47.042  37.659  28.908  1.00  0.00    -0.237 OA
ATOM     90  O   UNL A   1      46.541  36.301  26.929  1.00  0.00    -0.744 OA
ENDBRANCH  84  87
ENDBRANCH  57  80
ENDBRANCH  31  32
ENDBRANCH  24  26
ENDBRANCH  23  24
ENDBRANCH  22  23
ENDBRANCH   1  22
TORSDOF 18
ENDMDL
