MODEL 1
REMARK VINA RESULT:     -11.2      0.000      0.000
REMARK SMILES COc1cc(/C=C2/CCc3cc(OC(C)(C)C(=O)OCCOC(=O)c4ccc(-c5c6nc(c(-c7cccc(S(=O)(=O)[O-])c7F)c7ccc([nH]7)c(-c7cccc(S(=O)(=O)[O-])c7F)c7nc(c(-c8cccc(S(=O)(=O)[O-])c8F)c8ccc5[nH]8)C=C7)C=C6)cc4)ccc3C2=O)cc(OC)c1O
REMARK SMILES IDX 20 1 19 2 17 3 18 4 14 5 15 6 16 7 13 8 12 9 6 10 7 11 8 12
REMARK SMILES IDX 91 13 9 14 90 15 92 16 10 17 89 18 11 19 88 20 5 21 3 22
REMARK SMILES IDX 4 23 97 24 94 25 93 26 2 27 1 28 98 29 95 31 96 32 21 33
REMARK SMILES IDX 22 34 23 35 24 36 25 37 26 38 87 39 27 40 86 41 28 42 29 43
REMARK SMILES IDX 30 44 80 45 31 46 85 47 79 48 81 49 32 50 84 51 78 52 77 53
REMARK SMILES IDX 33 55 65 56 45 57 64 58 46 59 49 60 63 61 82 62 47 63 48 64
REMARK SMILES IDX 62 66 83 67 50 68 34 69 35 70 43 71 36 72 38 73 44 74 37 75
REMARK SMILES IDX 39 76 40 77 41 78 42 79 66 80 67 81 75 82 68 83 70 84 76 85
REMARK SMILES IDX 69 86 71 87 72 88 73 89 74 90 51 91 52 92 60 93 53 94 55 95
REMARK SMILES IDX 61 96 54 97 56 98 57 99 58 100 59 101
REMARK H PARENT 98 30 81 54 49 65
REMARK Flexibility Score: inf
ROOT
ATOM      1  C   UNL A   1      39.791  21.313  26.011  1.00  0.00     0.274 C 
ENDROOT
BRANCH   1   2
ATOM      2  O   UNL A   1      38.446  21.682  26.377  1.00  0.00    -0.459 OA
BRANCH   2   3
ATOM      3  C   UNL A   1      37.938  22.900  25.957  1.00  0.00     0.350 C 
ATOM      4  O   UNL A   1      38.571  23.946  25.951  1.00  0.00    -0.247 OA
BRANCH   3   5
ATOM      5  C   UNL A   1      36.493  22.685  25.392  1.00  0.00     0.200 C 
ATOM      6  C   UNL A   1      36.291  21.161  25.353  1.00  0.00     0.069 C 
ATOM      7  C   UNL A   1      36.672  23.302  23.977  1.00  0.00     0.069 C 
BRANCH   5   8
ATOM      8  O   UNL A   1      35.421  23.208  26.263  1.00  0.00    -0.476 OA
BRANCH   8   9
ATOM      9  C   UNL A   1      34.140  22.755  25.994  1.00  0.00     0.121 A 
ATOM     10  C   UNL A   1      30.261  26.519  24.215  1.00  0.00     0.016 C 
ATOM     11  C   UNL A   1      30.577  25.203  24.231  1.00  0.00     0.001 C 
ATOM     12  C   UNL A   1      30.212  24.000  23.357  1.00  0.00     0.044 C 
ATOM     13  C   UNL A   1      31.715  24.813  25.049  1.00  0.00     0.189 C 
ATOM     14  C   UNL A   1      31.469  22.969  23.173  1.00  0.00     0.041 C 
ATOM     15  C   UNL A   1      31.613  23.398  25.547  1.00  0.00     0.026 A 
ATOM     16  O   UNL A   1      32.790  25.358  24.819  1.00  0.00    -0.289 OA
ATOM     17  C   UNL A   1      32.236  22.746  24.489  1.00  0.00    -0.033 A 
ATOM     18  C   UNL A   1      31.977  23.153  26.861  1.00  0.00     0.016 A 
ATOM     19  C   UNL A   1      33.615  22.524  24.694  1.00  0.00     0.051 A 
ATOM     20  C   UNL A   1      33.280  22.762  27.084  1.00  0.00     0.047 A 
BRANCH  10  21
ATOM     21  C   UNL A   1      31.250  27.582  24.630  1.00  0.00    -0.018 A 
ATOM     22  C   UNL A   1      33.464  28.465  24.082  1.00  0.00     0.165 A 
ATOM     23  C   UNL A   1      32.327  27.733  23.737  1.00  0.00     0.058 A 
ATOM     24  C   UNL A   1      33.568  29.052  25.343  1.00  0.00     0.200 A 
ATOM     25  C   UNL A   1      32.481  29.015  26.222  1.00  0.00     0.165 A 
ATOM     26  C   UNL A   1      31.334  28.249  25.873  1.00  0.00     0.058 A 
BRANCH  22  27
ATOM     27  O   UNL A   1      34.504  28.450  23.187  1.00  0.00    -0.493 OA
ATOM     28  C   UNL A   1      34.075  28.252  21.839  1.00  0.00     0.278 C 
ENDBRANCH  22  27
BRANCH  24  29
ATOM     29  O   UNL A   1      34.790  29.537  25.735  1.00  0.00    -0.502 OA
ATOM     30  H   UNL A   1      35.175  30.259  25.280  1.00  0.00     0.293 HD
ENDBRANCH  24  29
BRANCH  25  31
ATOM     31  O   UNL A   1      32.508  29.526  27.499  1.00  0.00    -0.493 OA
ATOM     32  C   UNL A   1      32.700  30.939  27.605  1.00  0.00     0.278 C 
ENDBRANCH  25  31
ENDBRANCH  10  21
ENDBRANCH   8   9
ENDBRANCH   5   8
ENDBRANCH   3   5
ENDBRANCH   2   3
ENDBRANCH   1   2
BRANCH   1  33
ATOM     33  C   UNL A   1      39.997  19.793  26.045  1.00  0.00     0.275 C 
BRANCH  33  34
ATOM     34  O   UNL A   1      41.187  19.462  25.325  1.00  0.00    -0.458 OA
BRANCH  34  35
ATOM     35  C   UNL A   1      42.321  19.366  26.050  1.00  0.00     0.338 C 
ATOM     36  O   UNL A   1      42.841  18.343  26.489  1.00  0.00    -0.246 OA
BRANCH  35  37
ATOM     37  C   UNL A   1      42.825  20.727  26.290  1.00  0.00     0.060 A 
ATOM     38  C   UNL A   1      43.186  21.541  25.215  1.00  0.00     0.016 A 
ATOM     39  C   UNL A   1      42.908  21.215  27.594  1.00  0.00     0.016 A 
ATOM     40  C   UNL A   1      43.647  22.827  25.439  1.00  0.00     0.010 A 
ATOM     41  C   UNL A   1      43.286  22.541  27.809  1.00  0.00     0.010 A 
ATOM     42  C   UNL A   1      43.661  23.355  26.728  1.00  0.00    -0.014 A 
BRANCH  42  43
ATOM     43  C   UNL A   1      44.040  24.773  26.915  1.00  0.00     0.031 A 
ATOM     44  C   UNL A   1      45.443  25.206  26.625  1.00  0.00     0.074 A 
ATOM     45  C   UNL A   1      43.107  25.649  27.343  1.00  0.00     0.049 A 
ATOM     46  N   UNL A   1      46.021  26.346  26.882  1.00  0.00    -0.248 NA
ATOM     47  C   UNL A   1      46.321  24.218  25.972  1.00  0.00     0.031 C 
ATOM     48  C   UNL A   1      41.702  25.326  27.613  1.00  0.00     0.029 A 
ATOM     49  N   UNL A   1      43.197  26.984  27.634  1.00  0.00    -0.354 N 
ATOM     50  C   UNL A   1      47.348  26.188  26.505  1.00  0.00     0.074 A 
ATOM     51  C   UNL A   1      47.486  24.849  25.977  1.00  0.00     0.031 C 
ATOM     52  C   UNL A   1      41.061  26.430  28.019  1.00  0.00     0.029 A 
ATOM     53  C   UNL A   1      42.026  27.514  28.127  1.00  0.00     0.049 A 
ATOM     54  H   UNL A   1      44.018  27.514  27.505  1.00  0.00     0.167 HD
ATOM     55  C   UNL A   1      48.355  27.087  26.601  1.00  0.00     0.034 A 
ATOM     56  C   UNL A   1      41.773  28.723  28.661  1.00  0.00     0.034 A 
ATOM     57  C   UNL A   1      48.170  28.428  27.089  1.00  0.00     0.049 A 
ATOM     58  C   UNL A   1      42.908  29.701  28.749  1.00  0.00     0.074 A 
ATOM     59  C   UNL A   1      49.104  29.439  27.207  1.00  0.00     0.029 A 
ATOM     60  N   UNL A   1      46.961  28.942  27.539  1.00  0.00    -0.354 N 
ATOM     61  N   UNL A   1      44.152  29.555  28.355  1.00  0.00    -0.248 NA
ATOM     62  C   UNL A   1      42.610  31.009  29.342  1.00  0.00     0.031 C 
ATOM     63  C   UNL A   1      48.463  30.559  27.749  1.00  0.00     0.029 A 
ATOM     64  C   UNL A   1      47.124  30.254  27.942  1.00  0.00     0.049 A 
ATOM     65  H   UNL A   1      46.111  28.444  27.567  1.00  0.00     0.167 HD
ATOM     66  C   UNL A   1      44.784  30.756  28.638  1.00  0.00     0.074 A 
ATOM     67  C   UNL A   1      43.775  31.630  29.206  1.00  0.00     0.031 C 
ATOM     68  C   UNL A   1      46.083  31.104  28.466  1.00  0.00     0.034 A 
BRANCH  55  69
ATOM     69  C   UNL A   1      49.732  26.645  26.181  1.00  0.00     0.023 A 
ATOM     70  C   UNL A   1      50.499  25.817  27.027  1.00  0.00     0.012 A 
ATOM     71  C   UNL A   1      50.260  27.034  24.933  1.00  0.00     0.148 A 
ATOM     72  C   UNL A   1      51.781  25.412  26.652  1.00  0.00     0.002 A 
ATOM     73  C   UNL A   1      51.520  26.590  24.548  1.00  0.00     0.091 A 
ATOM     74  F   UNL A   1      49.528  27.841  24.154  1.00  0.00    -0.205 F 
ATOM     75  C   UNL A   1      52.287  25.790  25.411  1.00  0.00     0.022 A 
BRANCH  73  76
ATOM     76  S   UNL A   1      52.232  26.962  22.942  1.00  0.00     0.127 S 
ATOM     77  O   UNL A   1      53.264  25.932  22.829  1.00  0.00    -0.237 OA
ATOM     78  O   UNL A   1      51.088  26.777  22.049  1.00  0.00    -0.237 OA
ATOM     79  O   UNL A   1      52.724  28.330  23.026  1.00  0.00    -0.744 OA
ENDBRANCH  73  76
ENDBRANCH  55  69
BRANCH  56  80
ATOM     80  C   UNL A   1      40.402  29.055  29.147  1.00  0.00     0.023 A 
ATOM     81  C   UNL A   1      39.437  29.521  28.234  1.00  0.00     0.012 A 
ATOM     82  C   UNL A   1      40.032  28.856  30.493  1.00  0.00     0.148 A 
ATOM     83  C   UNL A   1      38.136  29.800  28.655  1.00  0.00     0.002 A 
ATOM     84  C   UNL A   1      38.719  29.079  30.893  1.00  0.00     0.091 A 
ATOM     85  F   UNL A   1      40.967  28.431  31.354  1.00  0.00    -0.205 F 
ATOM     86  C   UNL A   1      37.772  29.567  29.979  1.00  0.00     0.022 A 
BRANCH  84  87
ATOM     87  S   UNL A   1      38.135  28.672  32.544  1.00  0.00     0.127 S 
ATOM     88  O   UNL A   1      39.059  29.430  33.383  1.00  0.00    -0.237 OA
ATOM     89  O   UNL A   1      36.764  29.185  32.518  1.00  0.00    -0.237 OA
ATOM     90  O   UNL A   1      38.230  27.222  32.644  1.00  0.00    -0.744 OA
ENDBRANCH  84  87
ENDBRANCH  56  80
BRANCH  68  91
ATOM     91  C   UNL A   1      46.474  32.496  28.877  1.00  0.00     0.023 A 
ATOM     92  C   UNL A   1      46.953  32.731  30.180  1.00  0.00     0.012 A 
ATOM     93  C   UNL A   1      46.426  33.553  27.949  1.00  0.00     0.148 A 
ATOM     94  C   UNL A   1      47.349  34.010  30.565  1.00  0.00     0.002 A 
ATOM     95  C   UNL A   1      46.872  34.813  28.323  1.00  0.00     0.091 A 
ATOM     96  F   UNL A   1      45.947  33.307  26.722  1.00  0.00    -0.205 F 
ATOM     97  C   UNL A   1      47.321  35.047  29.635  1.00  0.00     0.022 A 
BRANCH  95  98
ATOM     98  S   UNL A   1      46.966  36.181  27.164  1.00  0.00     0.127 S 
ATOM     99  O   UNL A   1      48.166  35.843  26.402  1.00  0.00    -0.237 OA
ATOM    100  O   UNL A   1      45.711  36.044  26.423  1.00  0.00    -0.237 OA
ATOM    101  O   UNL A   1      47.059  37.388  27.975  1.00  0.00    -0.744 OA
ENDBRANCH  95  98
ENDBRANCH  68  91
ENDBRANCH  42  43
ENDBRANCH  35  37
ENDBRANCH  34  35
ENDBRANCH  33  34
ENDBRANCH   1  33
TORSDOF 20
ENDMDL
MODEL 2
REMARK VINA RESULT:     -10.9      5.232      9.675
REMARK SMILES COc1cc(/C=C2/CCc3cc(OC(C)(C)C(=O)OCCOC(=O)c4ccc(-c5c6nc(c(-c7cccc(S(=O)(=O)[O-])c7F)c7ccc([nH]7)c(-c7cccc(S(=O)(=O)[O-])c7F)c7nc(c(-c8cccc(S(=O)(=O)[O-])c8F)c8ccc5[nH]8)C=C7)C=C6)cc4)ccc3C2=O)cc(OC)c1O
REMARK SMILES IDX 20 1 19 2 17 3 18 4 14 5 15 6 16 7 13 8 12 9 6 10 7 11 8 12
REMARK SMILES IDX 91 13 9 14 90 15 92 16 10 17 89 18 11 19 88 20 5 21 3 22
REMARK SMILES IDX 4 23 97 24 94 25 93 26 2 27 1 28 98 29 95 31 96 32 21 33
REMARK SMILES IDX 22 34 23 35 24 36 25 37 26 38 87 39 27 40 86 41 28 42 29 43
REMARK SMILES IDX 30 44 80 45 31 46 85 47 79 48 81 49 32 50 84 51 78 52 77 53
REMARK SMILES IDX 33 55 65 56 45 57 64 58 46 59 49 60 63 61 82 62 47 63 48 64
REMARK SMILES IDX 62 66 83 67 50 68 34 69 35 70 43 71 36 72 38 73 44 74 37 75
REMARK SMILES IDX 39 76 40 77 41 78 42 79 66 80 67 81 75 82 68 83 70 84 76 85
REMARK SMILES IDX 69 86 71 87 72 88 73 89 74 90 51 91 52 92 60 93 53 94 55 95
REMARK SMILES IDX 61 96 54 97 56 98 57 99 58 100 59 101
REMARK H PARENT 98 30 81 54 49 65
REMARK Flexibility Score: inf
ROOT
ATOM      1  C   UNL A   1      42.155  27.093  34.586  1.00  0.00     0.274 C 
ENDROOT
BRANCH   1   2
ATOM      2  O   UNL A   1      42.950  25.996  34.095  1.00  0.00    -0.459 OA
BRANCH   2   3
ATOM      3  C   UNL A   1      44.044  26.258  33.286  1.00  0.00     0.350 C 
ATOM      4  O   UNL A   1      44.514  27.371  33.103  1.00  0.00    -0.247 OA
BRANCH   3   5
ATOM      5  C   UNL A   1      44.630  24.903  32.762  1.00  0.00     0.200 C 
ATOM      6  C   UNL A   1      44.036  23.819  33.676  1.00  0.00     0.069 C 
ATOM      7  C   UNL A   1      46.140  25.152  33.032  1.00  0.00     0.069 C 
BRANCH   5   8
ATOM      8  O   UNL A   1      44.203  24.550  31.394  1.00  0.00    -0.476 OA
BRANCH   8   9
ATOM      9  C   UNL A   1      44.577  25.429  30.391  1.00  0.00     0.121 A 
ATOM     10  C   UNL A   1      43.388  24.045  25.001  1.00  0.00     0.016 C 
ATOM     11  C   UNL A   1      43.661  25.083  25.826  1.00  0.00     0.001 C 
ATOM     12  C   UNL A   1      43.373  26.586  25.793  1.00  0.00     0.044 C 
ATOM     13  C   UNL A   1      44.065  24.751  27.184  1.00  0.00     0.189 C 
ATOM     14  C   UNL A   1      43.034  27.181  27.279  1.00  0.00     0.041 C 
ATOM     15  C   UNL A   1      44.949  25.801  27.799  1.00  0.00     0.026 A 
ATOM     16  O   UNL A   1      43.302  24.056  27.847  1.00  0.00    -0.289 OA
ATOM     17  C   UNL A   1      43.970  26.612  28.361  1.00  0.00    -0.033 A 
ATOM     18  C   UNL A   1      46.041  25.370  28.535  1.00  0.00     0.016 A 
ATOM     19  C   UNL A   1      43.695  26.313  29.713  1.00  0.00     0.051 A 
ATOM     20  C   UNL A   1      45.859  25.233  29.895  1.00  0.00     0.047 A 
BRANCH  10  21
ATOM     21  C   UNL A   1      43.076  22.665  25.531  1.00  0.00    -0.018 A 
ATOM     22  C   UNL A   1      43.893  20.361  25.484  1.00  0.00     0.165 A 
ATOM     23  C   UNL A   1      44.103  21.729  25.310  1.00  0.00     0.058 A 
ATOM     24  C   UNL A   1      42.639  19.884  25.865  1.00  0.00     0.200 A 
ATOM     25  C   UNL A   1      41.620  20.784  26.195  1.00  0.00     0.165 A 
ATOM     26  C   UNL A   1      41.834  22.176  25.995  1.00  0.00     0.058 A 
BRANCH  22  27
ATOM     27  O   UNL A   1      44.922  19.526  25.126  1.00  0.00    -0.493 OA
ATOM     28  C   UNL A   1      44.994  19.304  23.717  1.00  0.00     0.278 C 
ENDBRANCH  22  27
BRANCH  24  29
ATOM     29  O   UNL A   1      42.402  18.536  25.776  1.00  0.00    -0.502 OA
ATOM     30  H   UNL A   1      43.046  17.926  26.078  1.00  0.00     0.293 HD
ENDBRANCH  24  29
BRANCH  25  31
ATOM     31  O   UNL A   1      40.342  20.407  26.537  1.00  0.00    -0.493 OA
ATOM     32  C   UNL A   1      39.294  21.274  26.098  1.00  0.00     0.278 C 
ENDBRANCH  25  31
ENDBRANCH  10  21
ENDBRANCH   8   9
ENDBRANCH   5   8
ENDBRANCH   3   5
ENDBRANCH   2   3
ENDBRANCH   1   2
BRANCH   1  33
ATOM     33  C   UNL A   1      41.023  27.459  33.617  1.00  0.00     0.275 C 
BRANCH  33  34
ATOM     34  O   UNL A   1      40.361  28.636  34.087  1.00  0.00    -0.458 OA
BRANCH  34  35
ATOM     35  C   UNL A   1      39.648  29.329  33.175  1.00  0.00     0.338 C 
ATOM     36  O   UNL A   1      38.427  29.340  33.036  1.00  0.00    -0.246 OA
BRANCH  35  37
ATOM     37  C   UNL A   1      40.593  30.050  32.308  1.00  0.00     0.060 A 
ATOM     38  C   UNL A   1      41.606  30.829  32.871  1.00  0.00     0.016 A 
ATOM     39  C   UNL A   1      40.497  29.922  30.923  1.00  0.00     0.016 A 
ATOM     40  C   UNL A   1      42.505  31.496  32.056  1.00  0.00     0.010 A 
ATOM     41  C   UNL A   1      41.460  30.522  30.110  1.00  0.00     0.010 A 
ATOM     42  C   UNL A   1      42.471  31.316  30.675  1.00  0.00    -0.014 A 
BRANCH  42  43
ATOM     43  C   UNL A   1      43.524  31.943  29.847  1.00  0.00     0.031 A 
ATOM     44  C   UNL A   1      44.754  31.163  29.503  1.00  0.00     0.074 A 
ATOM     45  C   UNL A   1      43.352  33.211  29.419  1.00  0.00     0.049 A 
ATOM     46  N   UNL A   1      45.859  31.574  28.944  1.00  0.00    -0.248 NA
ATOM     47  C   UNL A   1      44.749  29.730  29.848  1.00  0.00     0.031 C 
ATOM     48  C   UNL A   1      42.166  34.037  29.671  1.00  0.00     0.029 A 
ATOM     49  N   UNL A   1      44.171  34.031  28.688  1.00  0.00    -0.354 N 
ATOM     50  C   UNL A   1      46.712  30.478  28.947  1.00  0.00     0.074 A 
ATOM     51  C   UNL A   1      45.989  29.376  29.541  1.00  0.00     0.031 C 
ATOM     52  C   UNL A   1      42.330  35.237  29.099  1.00  0.00     0.029 A 
ATOM     53  C   UNL A   1      43.663  35.299  28.521  1.00  0.00     0.049 A 
ATOM     54  H   UNL A   1      45.038  33.742  28.320  1.00  0.00     0.167 HD
ATOM     55  C   UNL A   1      47.986  30.412  28.496  1.00  0.00     0.034 A 
ATOM     56  C   UNL A   1      44.233  36.406  28.009  1.00  0.00     0.034 A 
ATOM     57  C   UNL A   1      48.657  31.518  27.867  1.00  0.00     0.049 A 
ATOM     58  C   UNL A   1      45.645  36.300  27.512  1.00  0.00     0.074 A 
ATOM     59  C   UNL A   1      49.935  31.567  27.343  1.00  0.00     0.029 A 
ATOM     60  N   UNL A   1      48.096  32.774  27.677  1.00  0.00    -0.354 N 
ATOM     61  N   UNL A   1      46.431  35.249  27.485  1.00  0.00    -0.248 NA
ATOM     62  C   UNL A   1      46.248  37.521  26.967  1.00  0.00     0.031 C 
ATOM     63  C   UNL A   1      50.154  32.860  26.856  1.00  0.00     0.029 A 
ATOM     64  C   UNL A   1      49.003  33.609  27.049  1.00  0.00     0.049 A 
ATOM     65  H   UNL A   1      47.186  33.033  27.949  1.00  0.00     0.167 HD
ATOM     66  C   UNL A   1      47.617  35.675  26.907  1.00  0.00     0.074 A 
ATOM     67  C   UNL A   1      47.432  37.074  26.568  1.00  0.00     0.031 C 
ATOM     68  C   UNL A   1      48.765  34.986  26.694  1.00  0.00     0.034 A 
BRANCH  55  69
ATOM     69  C   UNL A   1      48.727  29.113  28.676  1.00  0.00     0.023 A 
ATOM     70  C   UNL A   1      49.222  28.750  29.946  1.00  0.00     0.012 A 
ATOM     71  C   UNL A   1      48.914  28.238  27.587  1.00  0.00     0.148 A 
ATOM     72  C   UNL A   1      49.920  27.555  30.121  1.00  0.00     0.002 A 
ATOM     73  C   UNL A   1      49.572  27.029  27.778  1.00  0.00     0.091 A 
ATOM     74  F   UNL A   1      48.459  28.611  26.383  1.00  0.00    -0.205 F 
ATOM     75  C   UNL A   1      50.087  26.691  29.041  1.00  0.00     0.022 A 
BRANCH  73  76
ATOM     76  S   UNL A   1      49.776  25.816  26.469  1.00  0.00     0.127 S 
ATOM     77  O   UNL A   1      50.676  24.850  27.098  1.00  0.00    -0.237 OA
ATOM     78  O   UNL A   1      48.407  25.337  26.279  1.00  0.00    -0.237 OA
ATOM     79  O   UNL A   1      50.332  26.538  25.333  1.00  0.00    -0.744 OA
ENDBRANCH  73  76
ENDBRANCH  55  69
BRANCH  56  80
ATOM     80  C   UNL A   1      43.467  37.685  27.954  1.00  0.00     0.023 A 
ATOM     81  C   UNL A   1      42.585  37.918  26.883  1.00  0.00     0.012 A 
ATOM     82  C   UNL A   1      43.563  38.643  28.984  1.00  0.00     0.148 A 
ATOM     83  C   UNL A   1      41.827  39.089  26.828  1.00  0.00     0.002 A 
ATOM     84  C   UNL A   1      42.761  39.779  28.954  1.00  0.00     0.091 A 
ATOM     85  F   UNL A   1      44.422  38.415  29.987  1.00  0.00    -0.205 F 
ATOM     86  C   UNL A   1      41.904  40.012  27.868  1.00  0.00     0.022 A 
BRANCH  84  87
ATOM     87  S   UNL A   1      42.696  40.946  30.319  1.00  0.00     0.127 S 
ATOM     88  O   UNL A   1      43.688  41.938  29.912  1.00  0.00    -0.237 OA
ATOM     89  O   UNL A   1      41.308  41.405  30.263  1.00  0.00    -0.237 OA
ATOM     90  O   UNL A   1      43.024  40.173  31.510  1.00  0.00    -0.744 OA
ENDBRANCH  84  87
ENDBRANCH  56  80
BRANCH  68  91
ATOM     91  C   UNL A   1      49.895  35.733  26.042  1.00  0.00     0.023 A 
ATOM     92  C   UNL A   1      50.085  35.636  24.650  1.00  0.00     0.012 A 
ATOM     93  C   UNL A   1      50.723  36.579  26.802  1.00  0.00     0.148 A 
ATOM     94  C   UNL A   1      51.108  36.348  24.027  1.00  0.00     0.002 A 
ATOM     95  C   UNL A   1      51.705  37.327  26.168  1.00  0.00     0.091 A 
ATOM     96  F   UNL A   1      50.534  36.638  28.128  1.00  0.00    -0.205 F 
ATOM     97  C   UNL A   1      51.908  37.202  24.782  1.00  0.00     0.022 A 
BRANCH  95  98
ATOM     98  S   UNL A   1      52.715  38.525  27.044  1.00  0.00     0.127 S 
ATOM     99  O   UNL A   1      53.477  37.666  27.949  1.00  0.00    -0.237 OA
ATOM    100  O   UNL A   1      53.498  39.120  25.961  1.00  0.00    -0.237 OA
ATOM    101  O   UNL A   1      51.783  39.440  27.688  1.00  0.00    -0.744 OA
ENDBRANCH  95  98
ENDBRANCH  68  91
ENDBRANCH  42  43
ENDBRANCH  35  37
ENDBRANCH  34  35
ENDBRANCH  33  34
ENDBRANCH   1  33
TORSDOF 20
ENDMDL
MODEL 3
REMARK VINA RESULT:     -10.9      6.930     13.931
REMARK SMILES COc1cc(/C=C2/CCc3cc(OC(C)(C)C(=O)OCCOC(=O)c4ccc(-c5c6nc(c(-c7cccc(S(=O)(=O)[O-])c7F)c7ccc([nH]7)c(-c7cccc(S(=O)(=O)[O-])c7F)c7nc(c(-c8cccc(S(=O)(=O)[O-])c8F)c8ccc5[nH]8)C=C7)C=C6)cc4)ccc3C2=O)cc(OC)c1O
REMARK SMILES IDX 20 1 19 2 17 3 18 4 14 5 15 6 16 7 13 8 12 9 6 10 7 11 8 12
REMARK SMILES IDX 91 13 9 14 90 15 92 16 10 17 89 18 11 19 88 20 5 21 3 22
REMARK SMILES IDX 4 23 97 24 94 25 93 26 2 27 1 28 98 29 95 31 96 32 21 33
REMARK SMILES IDX 22 34 23 35 24 36 25 37 26 38 87 39 27 40 86 41 28 42 29 43
REMARK SMILES IDX 30 44 80 45 31 46 85 47 79 48 81 49 32 50 84 51 78 52 77 53
REMARK SMILES IDX 33 55 65 56 45 57 64 58 46 59 49 60 63 61 82 62 47 63 48 64
REMARK SMILES IDX 62 66 83 67 50 68 34 69 35 70 43 71 36 72 38 73 44 74 37 75
REMARK SMILES IDX 39 76 40 77 41 78 42 79 66 80 67 81 75 82 68 83 70 84 76 85
REMARK SMILES IDX 69 86 71 87 72 88 73 89 74 90 51 91 52 92 60 93 53 94 55 95
REMARK SMILES IDX 61 96 54 97 56 98 57 99 58 100 59 101
REMARK H PARENT 98 30 81 54 49 65
REMARK Flexibility Score: inf
ROOT
ATOM      1  C   UNL A   1      47.230  24.094  38.864  1.00  0.00     0.274 C 
ENDROOT
BRANCH   1   2
ATOM      2  O   UNL A   1      46.322  23.379  38.003  1.00  0.00    -0.459 OA
BRANCH   2   3
ATOM      3  C   UNL A   1      46.145  22.017  38.184  1.00  0.00     0.350 C 
ATOM      4  O   UNL A   1      45.725  21.507  39.212  1.00  0.00    -0.247 OA
BRANCH   3   5
ATOM      5  C   UNL A   1      46.451  21.278  36.837  1.00  0.00     0.200 C 
ATOM      6  C   UNL A   1      45.338  21.712  35.870  1.00  0.00     0.069 C 
ATOM      7  C   UNL A   1      46.294  19.805  37.308  1.00  0.00     0.069 C 
BRANCH   5   8
ATOM      8  O   UNL A   1      47.717  21.687  36.198  1.00  0.00    -0.476 OA
BRANCH   8   9
ATOM      9  C   UNL A   1      48.486  20.670  35.658  1.00  0.00     0.121 A 
ATOM     10  C   UNL A   1      53.296  22.062  32.955  1.00  0.00     0.016 C 
ATOM     11  C   UNL A   1      52.656  21.055  33.594  1.00  0.00     0.001 C 
ATOM     12  C   UNL A   1      53.108  19.784  34.320  1.00  0.00     0.044 C 
ATOM     13  C   UNL A   1      51.266  21.288  33.957  1.00  0.00     0.189 C 
ATOM     14  C   UNL A   1      52.186  19.465  35.633  1.00  0.00     0.041 C 
ATOM     15  C   UNL A   1      50.464  20.018  34.028  1.00  0.00     0.026 A 
ATOM     16  O   UNL A   1      51.021  22.267  34.655  1.00  0.00    -0.289 OA
ATOM     17  C   UNL A   1      50.687  19.692  35.361  1.00  0.00    -0.033 A 
ATOM     18  C   UNL A   1      49.188  20.034  33.491  1.00  0.00     0.016 A 
ATOM     19  C   UNL A   1      49.681  20.159  36.234  1.00  0.00     0.051 A 
ATOM     20  C   UNL A   1      48.152  20.318  34.357  1.00  0.00     0.047 A 
BRANCH  10  21
ATOM     21  C   UNL A   1      52.791  23.485  33.000  1.00  0.00    -0.018 A 
ATOM     22  C   UNL A   1      52.678  25.437  34.468  1.00  0.00     0.165 A 
ATOM     23  C   UNL A   1      53.245  24.211  34.116  1.00  0.00     0.058 A 
ATOM     24  C   UNL A   1      51.623  25.965  33.724  1.00  0.00     0.200 A 
ATOM     25  C   UNL A   1      51.209  25.328  32.549  1.00  0.00     0.165 A 
ATOM     26  C   UNL A   1      51.776  24.068  32.208  1.00  0.00     0.058 A 
BRANCH  22  27
ATOM     27  O   UNL A   1      53.110  26.005  35.640  1.00  0.00    -0.493 OA
ATOM     28  C   UNL A   1      54.442  25.621  35.986  1.00  0.00     0.278 C 
ENDBRANCH  22  27
BRANCH  24  29
ATOM     29  O   UNL A   1      50.929  27.028  34.244  1.00  0.00    -0.502 OA
ATOM     30  H   UNL A   1      50.476  26.938  35.059  1.00  0.00     0.293 HD
ENDBRANCH  24  29
BRANCH  25  31
ATOM     31  O   UNL A   1      50.151  25.749  31.778  1.00  0.00    -0.493 OA
ATOM     32  C   UNL A   1      50.103  25.233  30.445  1.00  0.00     0.278 C 
ENDBRANCH  25  31
ENDBRANCH  10  21
ENDBRANCH   8   9
ENDBRANCH   5   8
ENDBRANCH   3   5
ENDBRANCH   2   3
ENDBRANCH   1   2
BRANCH   1  33
ATOM     33  C   UNL A   1      48.223  24.949  38.065  1.00  0.00     0.275 C 
BRANCH  33  34
ATOM     34  O   UNL A   1      47.702  25.177  36.754  1.00  0.00    -0.458 OA
BRANCH  34  35
ATOM     35  C   UNL A   1      47.929  26.396  36.221  1.00  0.00     0.338 C 
ATOM     36  O   UNL A   1      48.971  27.045  36.261  1.00  0.00    -0.246 OA
BRANCH  35  37
ATOM     37  C   UNL A   1      46.674  26.869  35.614  1.00  0.00     0.060 A 
ATOM     38  C   UNL A   1      46.675  27.999  34.794  1.00  0.00     0.016 A 
ATOM     39  C   UNL A   1      45.491  26.164  35.831  1.00  0.00     0.016 A 
ATOM     40  C   UNL A   1      45.499  28.437  34.210  1.00  0.00     0.010 A 
ATOM     41  C   UNL A   1      44.327  26.556  35.168  1.00  0.00     0.010 A 
ATOM     42  C   UNL A   1      44.326  27.699  34.353  1.00  0.00    -0.014 A 
BRANCH  42  43
ATOM     43  C   UNL A   1      43.118  28.127  33.612  1.00  0.00     0.031 A 
ATOM     44  C   UNL A   1      42.909  27.657  32.207  1.00  0.00     0.074 A 
ATOM     45  C   UNL A   1      42.228  28.936  34.224  1.00  0.00     0.049 A 
ATOM     46  N   UNL A   1      42.022  28.045  31.333  1.00  0.00    -0.248 NA
ATOM     47  C   UNL A   1      43.832  26.621  31.710  1.00  0.00     0.031 C 
ATOM     48  C   UNL A   1      42.328  29.414  35.607  1.00  0.00     0.029 A 
ATOM     49  N   UNL A   1      41.070  29.506  33.765  1.00  0.00    -0.354 N 
ATOM     50  C   UNL A   1      42.329  27.370  30.160  1.00  0.00     0.074 A 
ATOM     51  C   UNL A   1      43.471  26.527  30.438  1.00  0.00     0.031 C 
ATOM     52  C   UNL A   1      41.274  30.193  35.886  1.00  0.00     0.029 A 
ATOM     53  C   UNL A   1      40.476  30.344  34.680  1.00  0.00     0.049 A 
ATOM     54  H   UNL A   1      40.699  29.333  32.868  1.00  0.00     0.167 HD
ATOM     55  C   UNL A   1      41.710  27.458  28.960  1.00  0.00     0.034 A 
ATOM     56  C   UNL A   1      39.435  31.187  34.542  1.00  0.00     0.034 A 
ATOM     57  C   UNL A   1      40.547  28.274  28.732  1.00  0.00     0.049 A 
ATOM     58  C   UNL A   1      38.765  31.259  33.202  1.00  0.00     0.074 A 
ATOM     59  C   UNL A   1      39.813  28.424  27.572  1.00  0.00     0.029 A 
ATOM     60  N   UNL A   1      39.948  29.077  29.694  1.00  0.00    -0.354 N 
ATOM     61  N   UNL A   1      39.040  30.588  32.108  1.00  0.00    -0.248 NA
ATOM     62  C   UNL A   1      37.639  32.191  33.074  1.00  0.00     0.031 C 
ATOM     63  C   UNL A   1      38.783  29.336  27.826  1.00  0.00     0.029 A 
ATOM     64  C   UNL A   1      38.857  29.732  29.154  1.00  0.00     0.049 A 
ATOM     65  H   UNL A   1      40.256  29.166  30.626  1.00  0.00     0.167 HD
ATOM     66  C   UNL A   1      38.113  31.004  31.163  1.00  0.00     0.074 A 
ATOM     67  C   UNL A   1      37.248  31.961  31.827  1.00  0.00     0.031 C 
ATOM     68  C   UNL A   1      37.996  30.648  29.860  1.00  0.00     0.034 A 
BRANCH  55  69
ATOM     69  C   UNL A   1      42.282  26.665  27.815  1.00  0.00     0.023 A 
ATOM     70  C   UNL A   1      43.206  27.262  26.932  1.00  0.00     0.012 A 
ATOM     71  C   UNL A   1      41.921  25.316  27.626  1.00  0.00     0.148 A 
ATOM     72  C   UNL A   1      43.734  26.539  25.861  1.00  0.00     0.002 A 
ATOM     73  C   UNL A   1      42.485  24.590  26.583  1.00  0.00     0.091 A 
ATOM     74  F   UNL A   1      41.023  24.772  28.460  1.00  0.00    -0.205 F 
ATOM     75  C   UNL A   1      43.381  25.203  25.692  1.00  0.00     0.022 A 
BRANCH  73  76
ATOM     76  S   UNL A   1      42.150  22.844  26.322  1.00  0.00     0.127 S 
ATOM     77  O   UNL A   1      42.781  22.612  25.024  1.00  0.00    -0.237 OA
ATOM     78  O   UNL A   1      42.842  22.227  27.454  1.00  0.00    -0.237 OA
ATOM     79  O   UNL A   1      40.700  22.704  26.345  1.00  0.00    -0.744 OA
ENDBRANCH  73  76
ENDBRANCH  55  69
BRANCH  56  80
ATOM     80  C   UNL A   1      38.986  32.016  35.699  1.00  0.00     0.023 A 
ATOM     81  C   UNL A   1      38.112  31.460  36.652  1.00  0.00     0.012 A 
ATOM     82  C   UNL A   1      39.464  33.329  35.892  1.00  0.00     0.148 A 
ATOM     83  C   UNL A   1      37.709  32.200  37.764  1.00  0.00     0.002 A 
ATOM     84  C   UNL A   1      39.105  34.039  37.032  1.00  0.00     0.091 A 
ATOM     85  F   UNL A   1      40.280  33.851  34.965  1.00  0.00    -0.205 F 
ATOM     86  C   UNL A   1      38.214  33.483  37.962  1.00  0.00     0.022 A 
BRANCH  84  87
ATOM     87  S   UNL A   1      39.820  35.639  37.433  1.00  0.00     0.127 S 
ATOM     88  O   UNL A   1      39.029  36.037  38.594  1.00  0.00    -0.237 OA
ATOM     89  O   UNL A   1      41.210  35.287  37.726  1.00  0.00    -0.237 OA
ATOM     90  O   UNL A   1      39.649  36.453  36.237  1.00  0.00    -0.744 OA
ENDBRANCH  84  87
ENDBRANCH  56  80
BRANCH  68  91
ATOM     91  C   UNL A   1      36.877  31.280  29.081  1.00  0.00     0.023 A 
ATOM     92  C   UNL A   1      36.944  32.647  28.747  1.00  0.00     0.012 A 
ATOM     93  C   UNL A   1      35.796  30.503  28.627  1.00  0.00     0.148 A 
ATOM     94  C   UNL A   1      35.930  33.239  27.998  1.00  0.00     0.002 A 
ATOM     95  C   UNL A   1      34.817  31.088  27.836  1.00  0.00     0.091 A 
ATOM     96  F   UNL A   1      35.746  29.209  28.975  1.00  0.00    -0.205 F 
ATOM     97  C   UNL A   1      34.875  32.459  27.531  1.00  0.00     0.022 A 
BRANCH  95  98
ATOM     98  S   UNL A   1      33.477  30.138  27.109  1.00  0.00     0.127 S 
ATOM     99  O   UNL A   1      33.993  29.873  25.768  1.00  0.00    -0.237 OA
ATOM    100  O   UNL A   1      33.418  28.967  27.985  1.00  0.00    -0.237 OA
ATOM    101  O   UNL A   1      32.301  30.996  27.169  1.00  0.00    -0.744 OA
ENDBRANCH  95  98
ENDBRANCH  68  91
ENDBRANCH  42  43
ENDBRANCH  35  37
ENDBRANCH  34  35
ENDBRANCH  33  34
ENDBRANCH   1  33
TORSDOF 20
ENDMDL
