MODEL 1
REMARK VINA RESULT:     -12.3      0.000      0.000
REMARK SMILES O=C(CSc1nnnn1-c1ccc(C(=O)OCCOC(=O)c2ccc(-c3c4nc(c(-c5cccc(S(=O)(=O)[O-])c5F)c5ccc([nH]5)c(-c5cccc(S(=O)(=O)[O-])c5F)c5nc(c(-c6cccc(S(=O)(=O)[O-])c6F)c6ccc3[nH]6)C=C5)C=C4)cc2)cc1)Nc1nc(-c2ccccc2)cs1
REMARK SMILES IDX 16 1 14 2 15 3 13 4 10 5 11 6 86 7 12 8 85 9 9 10 5 11 6 12
REMARK SMILES IDX 7 13 8 14 4 15 3 16 2 17 1 18 87 19 88 21 89 22 98 23 90 24
REMARK SMILES IDX 97 25 91 26 92 27 96 28 93 29 95 30 94 31 17 32 18 33 19 34
REMARK SMILES IDX 20 35 21 36 22 37 23 38 84 39 24 40 83 41 25 42 26 43 27 44
REMARK SMILES IDX 77 45 28 46 82 47 76 48 78 49 29 50 81 51 75 52 74 53 30 55
REMARK SMILES IDX 62 56 42 57 61 58 43 59 46 60 60 61 79 62 44 63 45 64 59 66
REMARK SMILES IDX 80 67 47 68 31 69 32 70 40 71 33 72 35 73 41 74 34 75 36 76
REMARK SMILES IDX 37 77 38 78 39 79 63 80 64 81 72 82 65 83 67 84 73 85 66 86
REMARK SMILES IDX 68 87 69 88 70 89 71 90 48 91 49 92 57 93 50 94 52 95 58 96
REMARK SMILES IDX 51 97 53 98 54 99 55 100 56 101
REMARK H PARENT 87 20 78 54 46 65
REMARK Flexibility Score: inf
ROOT
ATOM      1  O   UNL A   1      36.501  23.623  24.544  1.00  0.00    -0.458 OA
ENDROOT
BRANCH   1   2
ATOM      2  C   UNL A   1      35.353  23.375  23.855  1.00  0.00     0.338 C 
ATOM      3  O   UNL A   1      34.975  22.303  23.444  1.00  0.00    -0.246 OA
BRANCH   2   4
ATOM      4  C   UNL A   1      34.562  24.630  23.694  1.00  0.00     0.060 A 
ATOM      5  C   UNL A   1      32.745  26.719  23.609  1.00  0.00     0.069 A 
ATOM      6  C   UNL A   1      33.501  26.529  24.768  1.00  0.00     0.029 A 
ATOM      7  C   UNL A   1      33.053  26.034  22.434  1.00  0.00     0.029 A 
ATOM      8  C   UNL A   1      34.400  25.463  24.812  1.00  0.00     0.018 A 
ATOM      9  C   UNL A   1      33.963  24.982  22.480  1.00  0.00     0.018 A 
BRANCH   5  10
ATOM     10  N   UNL A   1      31.615  27.545  23.656  1.00  0.00    -0.187 N 
ATOM     11  C   UNL A   1      30.264  27.247  23.782  1.00  0.00     0.214 A 
ATOM     12  N   UNL A   1      29.589  28.361  23.575  1.00  0.00    -0.101 NA
ATOM     13  N   UNL A   1      30.513  29.362  23.455  1.00  0.00    -0.022 NA
ATOM     14  N   UNL A   1      31.742  28.890  23.591  1.00  0.00    -0.039 NA
BRANCH  11  15
ATOM     15  S   UNL A   1      29.439  25.868  24.456  1.00  0.00    -0.074 SA
BRANCH  15  16
ATOM     16  C   UNL A   1      29.981  25.485  26.135  1.00  0.00     0.178 C 
BRANCH  16  17
ATOM     17  C   UNL A   1      30.443  24.039  26.336  1.00  0.00     0.236 C 
ATOM     18  O   UNL A   1      30.045  23.398  27.305  1.00  0.00    -0.274 OA
ATOM     19  N   UNL A   1      31.287  23.570  25.359  1.00  0.00    -0.301 N 
ATOM     20  H   UNL A   1      31.281  24.021  24.484  1.00  0.00     0.172 HD
BRANCH  19  21
ATOM     21  C   UNL A   1      32.130  22.511  25.531  1.00  0.00     0.189 A 
ATOM     22  N   UNL A   1      32.192  21.372  24.896  1.00  0.00    -0.220 NA
ATOM     23  S   UNL A   1      33.156  22.696  26.885  1.00  0.00    -0.105 S 
ATOM     24  C   UNL A   1      33.069  20.532  25.563  1.00  0.00     0.084 A 
ATOM     25  C   UNL A   1      33.699  21.087  26.662  1.00  0.00     0.097 A 
BRANCH  24  26
ATOM     26  C   UNL A   1      33.315  19.167  25.129  1.00  0.00     0.001 A 
ATOM     27  C   UNL A   1      34.589  18.793  24.692  1.00  0.00     0.010 A 
ATOM     28  C   UNL A   1      32.288  18.213  25.154  1.00  0.00     0.010 A 
ATOM     29  C   UNL A   1      34.842  17.473  24.311  1.00  0.00     0.001 A 
ATOM     30  C   UNL A   1      32.540  16.897  24.761  1.00  0.00     0.001 A 
ATOM     31  C   UNL A   1      33.818  16.526  24.347  1.00  0.00     0.000 A 
ENDBRANCH  24  26
ENDBRANCH  19  21
ENDBRANCH  16  17
ENDBRANCH  15  16
ENDBRANCH  11  15
ENDBRANCH   5  10
ENDBRANCH   2   4
ENDBRANCH   1   2
BRANCH   1  32
ATOM     32  C   UNL A   1      36.845  22.671  25.565  1.00  0.00     0.275 C 
BRANCH  32  33
ATOM     33  C   UNL A   1      37.840  21.648  25.036  1.00  0.00     0.275 C 
BRANCH  33  34
ATOM     34  O   UNL A   1      38.418  20.927  26.119  1.00  0.00    -0.458 OA
BRANCH  34  35
ATOM     35  C   UNL A   1      39.534  20.235  25.809  1.00  0.00     0.338 C 
ATOM     36  O   UNL A   1      39.603  19.134  25.283  1.00  0.00    -0.246 OA
BRANCH  35  37
ATOM     37  C   UNL A   1      40.698  20.917  26.369  1.00  0.00     0.060 A 
ATOM     38  C   UNL A   1      40.873  20.797  27.751  1.00  0.00     0.016 A 
ATOM     39  C   UNL A   1      41.284  21.942  25.616  1.00  0.00     0.016 A 
ATOM     40  C   UNL A   1      41.406  21.870  28.422  1.00  0.00     0.010 A 
ATOM     41  C   UNL A   1      41.797  23.017  26.288  1.00  0.00     0.010 A 
ATOM     42  C   UNL A   1      41.749  23.002  27.680  1.00  0.00    -0.014 A 
BRANCH  42  43
ATOM     43  C   UNL A   1      42.120  24.196  28.396  1.00  0.00     0.031 A 
ATOM     44  C   UNL A   1      41.137  25.286  28.223  1.00  0.00     0.074 A 
ATOM     45  C   UNL A   1      43.179  24.200  29.228  1.00  0.00     0.049 A 
ATOM     46  N   UNL A   1      41.320  26.447  27.689  1.00  0.00    -0.248 NA
ATOM     47  C   UNL A   1      39.727  24.965  28.506  1.00  0.00     0.031 C 
ATOM     48  C   UNL A   1      44.001  23.059  29.651  1.00  0.00     0.029 A 
ATOM     49  N   UNL A   1      43.635  25.210  30.010  1.00  0.00    -0.354 N 
ATOM     50  C   UNL A   1      40.086  27.085  27.790  1.00  0.00     0.074 A 
ATOM     51  C   UNL A   1      39.115  26.066  28.079  1.00  0.00     0.031 C 
ATOM     52  C   UNL A   1      44.648  23.384  30.792  1.00  0.00     0.029 A 
ATOM     53  C   UNL A   1      44.383  24.779  31.098  1.00  0.00     0.049 A 
ATOM     54  H   UNL A   1      43.452  26.160  29.823  1.00  0.00     0.167 HD
ATOM     55  C   UNL A   1      39.998  28.434  27.911  1.00  0.00     0.034 A 
ATOM     56  C   UNL A   1      44.655  25.499  32.214  1.00  0.00     0.034 A 
ATOM     57  C   UNL A   1      41.211  29.084  27.495  1.00  0.00     0.049 A 
ATOM     58  C   UNL A   1      44.404  26.924  31.889  1.00  0.00     0.074 A 
ATOM     59  C   UNL A   1      41.923  29.148  26.314  1.00  0.00     0.029 A 
ATOM     60  N   UNL A   1      42.078  29.480  28.486  1.00  0.00    -0.354 N 
ATOM     61  N   UNL A   1      45.113  27.602  31.028  1.00  0.00    -0.248 NA
ATOM     62  C   UNL A   1      43.083  27.463  32.171  1.00  0.00     0.031 C 
ATOM     63  C   UNL A   1      43.292  29.130  26.708  1.00  0.00     0.029 A 
ATOM     64  C   UNL A   1      43.341  29.112  28.104  1.00  0.00     0.049 A 
ATOM     65  H   UNL A   1      41.835  29.944  29.319  1.00  0.00     0.167 HD
ATOM     66  C   UNL A   1      44.182  28.368  30.336  1.00  0.00     0.074 A 
ATOM     67  C   UNL A   1      42.971  28.323  31.154  1.00  0.00     0.031 C 
ATOM     68  C   UNL A   1      44.383  28.715  29.030  1.00  0.00     0.034 A 
BRANCH  55  69
ATOM     69  C   UNL A   1      38.963  29.133  28.757  1.00  0.00     0.023 A 
ATOM     70  C   UNL A   1      38.216  30.162  28.144  1.00  0.00     0.012 A 
ATOM     71  C   UNL A   1      38.870  29.027  30.166  1.00  0.00     0.148 A 
ATOM     72  C   UNL A   1      37.460  31.064  28.897  1.00  0.00     0.002 A 
ATOM     73  C   UNL A   1      38.051  29.873  30.902  1.00  0.00     0.091 A 
ATOM     74  F   UNL A   1      39.679  28.200  30.835  1.00  0.00    -0.205 F 
ATOM     75  C   UNL A   1      37.368  30.915  30.276  1.00  0.00     0.022 A 
BRANCH  73  76
ATOM     76  S   UNL A   1      37.866  29.685  32.679  1.00  0.00     0.127 S 
ATOM     77  O   UNL A   1      39.195  30.061  33.153  1.00  0.00    -0.237 OA
ATOM     78  O   UNL A   1      36.807  30.650  32.974  1.00  0.00    -0.237 OA
ATOM     79  O   UNL A   1      37.478  28.295  32.887  1.00  0.00    -0.744 OA
ENDBRANCH  73  76
ENDBRANCH  55  69
BRANCH  56  80
ATOM     80  C   UNL A   1      44.808  25.019  33.608  1.00  0.00     0.023 A 
ATOM     81  C   UNL A   1      43.667  24.748  34.387  1.00  0.00     0.012 A 
ATOM     82  C   UNL A   1      46.064  24.587  34.092  1.00  0.00     0.148 A 
ATOM     83  C   UNL A   1      43.772  24.057  35.601  1.00  0.00     0.002 A 
ATOM     84  C   UNL A   1      46.165  23.912  35.305  1.00  0.00     0.091 A 
ATOM     85  F   UNL A   1      47.147  24.761  33.322  1.00  0.00    -0.205 F 
ATOM     86  C   UNL A   1      45.018  23.635  36.057  1.00  0.00     0.022 A 
BRANCH  84  87
ATOM     87  S   UNL A   1      47.737  23.321  35.950  1.00  0.00     0.127 S 
ATOM     88  O   UNL A   1      48.525  24.554  35.994  1.00  0.00    -0.237 OA
ATOM     89  O   UNL A   1      47.350  22.795  37.256  1.00  0.00    -0.237 OA
ATOM     90  O   UNL A   1      48.219  22.336  34.990  1.00  0.00    -0.744 OA
ENDBRANCH  84  87
ENDBRANCH  56  80
BRANCH  68  91
ATOM     91  C   UNL A   1      45.731  28.414  28.418  1.00  0.00     0.023 A 
ATOM     92  C   UNL A   1      46.859  29.231  28.650  1.00  0.00     0.012 A 
ATOM     93  C   UNL A   1      45.911  27.185  27.763  1.00  0.00     0.148 A 
ATOM     94  C   UNL A   1      48.131  28.842  28.221  1.00  0.00     0.002 A 
ATOM     95  C   UNL A   1      47.185  26.779  27.380  1.00  0.00     0.091 A 
ATOM     96  F   UNL A   1      44.833  26.412  27.563  1.00  0.00    -0.205 F 
ATOM     97  C   UNL A   1      48.295  27.609  27.597  1.00  0.00     0.022 A 
BRANCH  95  98
ATOM     98  S   UNL A   1      47.486  25.150  26.694  1.00  0.00     0.127 S 
ATOM     99  O   UNL A   1      46.761  25.212  25.426  1.00  0.00    -0.237 OA
ATOM    100  O   UNL A   1      48.943  25.128  26.564  1.00  0.00    -0.237 OA
ATOM    101  O   UNL A   1      46.962  24.200  27.668  1.00  0.00    -0.744 OA
ENDBRANCH  95  98
ENDBRANCH  68  91
ENDBRANCH  42  43
ENDBRANCH  35  37
ENDBRANCH  34  35
ENDBRANCH  33  34
ENDBRANCH  32  33
ENDBRANCH   1  32
TORSDOF 20
ENDMDL
MODEL 2
REMARK VINA RESULT:     -12.2      4.608      9.911
REMARK SMILES O=C(CSc1nnnn1-c1ccc(C(=O)OCCOC(=O)c2ccc(-c3c4nc(c(-c5cccc(S(=O)(=O)[O-])c5F)c5ccc([nH]5)c(-c5cccc(S(=O)(=O)[O-])c5F)c5nc(c(-c6cccc(S(=O)(=O)[O-])c6F)c6ccc3[nH]6)C=C5)C=C4)cc2)cc1)Nc1nc(-c2ccccc2)cs1
REMARK SMILES IDX 16 1 14 2 15 3 13 4 10 5 11 6 86 7 12 8 85 9 9 10 5 11 6 12
REMARK SMILES IDX 7 13 8 14 4 15 3 16 2 17 1 18 87 19 88 21 89 22 98 23 90 24
REMARK SMILES IDX 97 25 91 26 92 27 96 28 93 29 95 30 94 31 17 32 18 33 19 34
REMARK SMILES IDX 20 35 21 36 22 37 23 38 84 39 24 40 83 41 25 42 26 43 27 44
REMARK SMILES IDX 77 45 28 46 82 47 76 48 78 49 29 50 81 51 75 52 74 53 30 55
REMARK SMILES IDX 62 56 42 57 61 58 43 59 46 60 60 61 79 62 44 63 45 64 59 66
REMARK SMILES IDX 80 67 47 68 31 69 32 70 40 71 33 72 35 73 41 74 34 75 36 76
REMARK SMILES IDX 37 77 38 78 39 79 63 80 64 81 72 82 65 83 67 84 73 85 66 86
REMARK SMILES IDX 68 87 69 88 70 89 71 90 48 91 49 92 57 93 50 94 52 95 58 96
REMARK SMILES IDX 51 97 53 98 54 99 55 100 56 101
REMARK H PARENT 87 20 78 54 46 65
REMARK Flexibility Score: inf
ROOT
ATOM      1  O   UNL A   1      32.962  29.625  26.153  1.00  0.00    -0.458 OA
ENDROOT
BRANCH   1   2
ATOM      2  C   UNL A   1      32.786  29.173  24.879  1.00  0.00     0.338 C 
ATOM      3  O   UNL A   1      32.290  29.783  23.960  1.00  0.00    -0.246 OA
BRANCH   2   4
ATOM      4  C   UNL A   1      33.336  27.794  24.736  1.00  0.00     0.060 A 
ATOM      5  C   UNL A   1      33.902  25.097  24.453  1.00  0.00     0.069 A 
ATOM      6  C   UNL A   1      33.662  25.860  23.308  1.00  0.00     0.029 A 
ATOM      7  C   UNL A   1      34.091  25.708  25.692  1.00  0.00     0.029 A 
ATOM      8  C   UNL A   1      33.357  27.214  23.459  1.00  0.00     0.018 A 
ATOM      9  C   UNL A   1      33.802  27.062  25.834  1.00  0.00     0.018 A 
BRANCH   5  10
ATOM     10  N   UNL A   1      33.870  23.700  24.364  1.00  0.00    -0.187 N 
ATOM     11  C   UNL A   1      32.888  22.780  24.709  1.00  0.00     0.214 A 
ATOM     12  N   UNL A   1      33.420  21.576  24.616  1.00  0.00    -0.101 NA
ATOM     13  N   UNL A   1      34.671  21.741  24.091  1.00  0.00    -0.022 NA
ATOM     14  N   UNL A   1      34.920  23.019  23.852  1.00  0.00    -0.039 NA
BRANCH  11  15
ATOM     15  S   UNL A   1      31.160  22.935  24.872  1.00  0.00    -0.074 SA
BRANCH  15  16
ATOM     16  C   UNL A   1      30.685  24.055  26.205  1.00  0.00     0.178 C 
BRANCH  16  17
ATOM     17  C   UNL A   1      30.319  25.468  25.744  1.00  0.00     0.236 C 
ATOM     18  O   UNL A   1      30.393  26.408  26.531  1.00  0.00    -0.274 OA
ATOM     19  N   UNL A   1      29.940  25.557  24.427  1.00  0.00    -0.301 N 
ATOM     20  H   UNL A   1      30.222  24.841  23.813  1.00  0.00     0.172 HD
BRANCH  19  21
ATOM     21  C   UNL A   1      29.195  26.582  23.921  1.00  0.00     0.189 A 
ATOM     22  N   UNL A   1      29.568  27.740  23.447  1.00  0.00    -0.220 NA
ATOM     23  S   UNL A   1      27.514  26.319  24.076  1.00  0.00    -0.105 S 
ATOM     24  C   UNL A   1      28.446  28.529  23.249  1.00  0.00     0.084 A 
ATOM     25  C   UNL A   1      27.237  27.917  23.525  1.00  0.00     0.097 A 
BRANCH  24  26
ATOM     26  C   UNL A   1      28.537  29.899  22.776  1.00  0.00     0.001 A 
ATOM     27  C   UNL A   1      28.268  30.194  21.436  1.00  0.00     0.010 A 
ATOM     28  C   UNL A   1      28.882  30.938  23.654  1.00  0.00     0.010 A 
ATOM     29  C   UNL A   1      28.314  31.515  20.984  1.00  0.00     0.001 A 
ATOM     30  C   UNL A   1      28.940  32.256  23.196  1.00  0.00     0.001 A 
ATOM     31  C   UNL A   1      28.649  32.544  21.864  1.00  0.00     0.000 A 
ENDBRANCH  24  26
ENDBRANCH  19  21
ENDBRANCH  16  17
ENDBRANCH  15  16
ENDBRANCH  11  15
ENDBRANCH   5  10
ENDBRANCH   2   4
ENDBRANCH   1   2
BRANCH   1  32
ATOM     32  C   UNL A   1      31.792  30.138  26.811  1.00  0.00     0.275 C 
BRANCH  32  33
ATOM     33  C   UNL A   1      31.814  31.660  26.842  1.00  0.00     0.275 C 
BRANCH  33  34
ATOM     34  O   UNL A   1      33.043  32.116  27.396  1.00  0.00    -0.458 OA
BRANCH  34  35
ATOM     35  C   UNL A   1      33.001  33.357  27.925  1.00  0.00     0.338 C 
ATOM     36  O   UNL A   1      32.173  34.229  27.708  1.00  0.00    -0.246 OA
BRANCH  35  37
ATOM     37  C   UNL A   1      34.224  33.602  28.684  1.00  0.00     0.060 A 
ATOM     38  C   UNL A   1      35.286  34.170  27.972  1.00  0.00     0.016 A 
ATOM     39  C   UNL A   1      34.404  32.901  29.883  1.00  0.00     0.016 A 
ATOM     40  C   UNL A   1      36.559  33.791  28.316  1.00  0.00     0.010 A 
ATOM     41  C   UNL A   1      35.672  32.510  30.212  1.00  0.00     0.010 A 
ATOM     42  C   UNL A   1      36.711  32.876  29.360  1.00  0.00    -0.014 A 
BRANCH  42  43
ATOM     43  C   UNL A   1      38.023  32.325  29.594  1.00  0.00     0.031 A 
ATOM     44  C   UNL A   1      38.113  30.902  29.209  1.00  0.00     0.074 A 
ATOM     45  C   UNL A   1      39.042  33.114  29.983  1.00  0.00     0.049 A 
ATOM     46  N   UNL A   1      38.370  29.886  29.964  1.00  0.00    -0.248 NA
ATOM     47  C   UNL A   1      37.671  30.548  27.849  1.00  0.00     0.031 C 
ATOM     48  C   UNL A   1      39.063  34.579  30.091  1.00  0.00     0.029 A 
ATOM     49  N   UNL A   1      40.338  32.775  30.199  1.00  0.00    -0.354 N 
ATOM     50  C   UNL A   1      38.349  28.789  29.107  1.00  0.00     0.074 A 
ATOM     51  C   UNL A   1      37.701  29.219  27.899  1.00  0.00     0.031 C 
ATOM     52  C   UNL A   1      40.346  35.002  30.074  1.00  0.00     0.029 A 
ATOM     53  C   UNL A   1      41.220  33.842  30.082  1.00  0.00     0.049 A 
ATOM     54  H   UNL A   1      40.625  31.859  30.417  1.00  0.00     0.167 HD
ATOM     55  C   UNL A   1      39.118  27.695  29.342  1.00  0.00     0.034 A 
ATOM     56  C   UNL A   1      42.559  33.752  29.889  1.00  0.00     0.034 A 
ATOM     57  C   UNL A   1      39.560  27.644  30.710  1.00  0.00     0.049 A 
ATOM     58  C   UNL A   1      42.964  32.374  30.260  1.00  0.00     0.074 A 
ATOM     59  C   UNL A   1      38.925  27.571  31.933  1.00  0.00     0.029 A 
ATOM     60  N   UNL A   1      40.841  28.071  30.968  1.00  0.00    -0.354 N 
ATOM     61  N   UNL A   1      42.898  31.907  31.477  1.00  0.00    -0.248 NA
ATOM     62  C   UNL A   1      43.002  31.371  29.207  1.00  0.00     0.031 C 
ATOM     63  C   UNL A   1      39.702  28.393  32.800  1.00  0.00     0.029 A 
ATOM     64  C   UNL A   1      40.795  28.876  32.076  1.00  0.00     0.049 A 
ATOM     65  H   UNL A   1      41.645  27.840  30.451  1.00  0.00     0.167 HD
ATOM     66  C   UNL A   1      42.434  30.604  31.325  1.00  0.00     0.074 A 
ATOM     67  C   UNL A   1      42.622  30.298  29.908  1.00  0.00     0.031 C 
ATOM     68  C   UNL A   1      41.672  30.009  32.290  1.00  0.00     0.034 A 
BRANCH  55  69
ATOM     69  C   UNL A   1      39.778  26.885  28.255  1.00  0.00     0.023 A 
ATOM     70  C   UNL A   1      39.480  25.507  28.207  1.00  0.00     0.012 A 
ATOM     71  C   UNL A   1      40.862  27.335  27.462  1.00  0.00     0.148 A 
ATOM     72  C   UNL A   1      40.249  24.619  27.450  1.00  0.00     0.002 A 
ATOM     73  C   UNL A   1      41.570  26.462  26.646  1.00  0.00     0.091 A 
ATOM     74  F   UNL A   1      41.318  28.584  27.588  1.00  0.00    -0.205 F 
ATOM     75  C   UNL A   1      41.290  25.097  26.661  1.00  0.00     0.022 A 
BRANCH  73  76
ATOM     76  S   UNL A   1      42.890  27.046  25.575  1.00  0.00     0.127 S 
ATOM     77  O   UNL A   1      42.179  27.995  24.724  1.00  0.00    -0.237 OA
ATOM     78  O   UNL A   1      43.813  27.646  26.538  1.00  0.00    -0.237 OA
ATOM     79  O   UNL A   1      43.412  25.855  24.915  1.00  0.00    -0.744 OA
ENDBRANCH  73  76
ENDBRANCH  55  69
BRANCH  56  80
ATOM     80  C   UNL A   1      43.445  34.658  29.121  1.00  0.00     0.023 A 
ATOM     81  C   UNL A   1      43.645  34.444  27.745  1.00  0.00     0.012 A 
ATOM     82  C   UNL A   1      43.893  35.878  29.679  1.00  0.00     0.148 A 
ATOM     83  C   UNL A   1      44.259  35.418  26.947  1.00  0.00     0.002 A 
ATOM     84  C   UNL A   1      44.513  36.838  28.885  1.00  0.00     0.091 A 
ATOM     85  F   UNL A   1      43.632  36.133  30.968  1.00  0.00    -0.205 F 
ATOM     86  C   UNL A   1      44.689  36.615  27.514  1.00  0.00     0.022 A 
BRANCH  84  87
ATOM     87  S   UNL A   1      45.078  38.414  29.543  1.00  0.00     0.127 S 
ATOM     88  O   UNL A   1      43.828  38.999  30.032  1.00  0.00    -0.237 OA
ATOM     89  O   UNL A   1      46.005  37.991  30.589  1.00  0.00    -0.237 OA
ATOM     90  O   UNL A   1      45.674  39.126  28.420  1.00  0.00    -0.744 OA
ENDBRANCH  84  87
ENDBRANCH  56  80
BRANCH  68  91
ATOM     91  C   UNL A   1      41.511  30.729  33.608  1.00  0.00     0.023 A 
ATOM     92  C   UNL A   1      42.489  30.659  34.624  1.00  0.00     0.012 A 
ATOM     93  C   UNL A   1      40.457  31.646  33.748  1.00  0.00     0.148 A 
ATOM     94  C   UNL A   1      42.406  31.468  35.761  1.00  0.00     0.002 A 
ATOM     95  C   UNL A   1      40.403  32.483  34.858  1.00  0.00     0.091 A 
ATOM     96  F   UNL A   1      39.543  31.712  32.768  1.00  0.00    -0.205 F 
ATOM     97  C   UNL A   1      41.369  32.390  35.871  1.00  0.00     0.022 A 
BRANCH  95  98
ATOM     98  S   UNL A   1      39.173  33.781  34.998  1.00  0.00     0.127 S 
ATOM     99  O   UNL A   1      39.535  34.409  36.267  1.00  0.00    -0.237 OA
ATOM    100  O   UNL A   1      39.442  34.597  33.813  1.00  0.00    -0.237 OA
ATOM    101  O   UNL A   1      37.878  33.112  34.977  1.00  0.00    -0.744 OA
ENDBRANCH  95  98
ENDBRANCH  68  91
ENDBRANCH  42  43
ENDBRANCH  35  37
ENDBRANCH  34  35
ENDBRANCH  33  34
ENDBRANCH  32  33
ENDBRANCH   1  32
TORSDOF 20
ENDMDL
MODEL 3
REMARK VINA RESULT:     -11.8      3.059      7.306
REMARK SMILES O=C(CSc1nnnn1-c1ccc(C(=O)OCCOC(=O)c2ccc(-c3c4nc(c(-c5cccc(S(=O)(=O)[O-])c5F)c5ccc([nH]5)c(-c5cccc(S(=O)(=O)[O-])c5F)c5nc(c(-c6cccc(S(=O)(=O)[O-])c6F)c6ccc3[nH]6)C=C5)C=C4)cc2)cc1)Nc1nc(-c2ccccc2)cs1
REMARK SMILES IDX 16 1 14 2 15 3 13 4 10 5 11 6 86 7 12 8 85 9 9 10 5 11 6 12
REMARK SMILES IDX 7 13 8 14 4 15 3 16 2 17 1 18 87 19 88 21 89 22 98 23 90 24
REMARK SMILES IDX 97 25 91 26 92 27 96 28 93 29 95 30 94 31 17 32 18 33 19 34
REMARK SMILES IDX 20 35 21 36 22 37 23 38 84 39 24 40 83 41 25 42 26 43 27 44
REMARK SMILES IDX 77 45 28 46 82 47 76 48 78 49 29 50 81 51 75 52 74 53 30 55
REMARK SMILES IDX 62 56 42 57 61 58 43 59 46 60 60 61 79 62 44 63 45 64 59 66
REMARK SMILES IDX 80 67 47 68 31 69 32 70 40 71 33 72 35 73 41 74 34 75 36 76
REMARK SMILES IDX 37 77 38 78 39 79 63 80 64 81 72 82 65 83 67 84 73 85 66 86
REMARK SMILES IDX 68 87 69 88 70 89 71 90 48 91 49 92 57 93 50 94 52 95 58 96
REMARK SMILES IDX 51 97 53 98 54 99 55 100 56 101
REMARK H PARENT 87 20 78 54 46 65
REMARK Flexibility Score: inf
ROOT
ATOM      1  O   UNL A   1      34.015  31.969  28.324  1.00  0.00    -0.458 OA
ENDROOT
BRANCH   1   2
ATOM      2  C   UNL A   1      32.903  32.114  27.551  1.00  0.00     0.338 C 
ATOM      3  O   UNL A   1      32.173  33.076  27.510  1.00  0.00    -0.246 OA
BRANCH   2   4
ATOM      4  C   UNL A   1      32.706  30.908  26.694  1.00  0.00     0.060 A 
ATOM      5  C   UNL A   1      32.621  28.895  24.794  1.00  0.00     0.069 A 
ATOM      6  C   UNL A   1      33.685  28.925  25.698  1.00  0.00     0.029 A 
ATOM      7  C   UNL A   1      31.502  29.705  24.979  1.00  0.00     0.029 A 
ATOM      8  C   UNL A   1      33.733  29.954  26.640  1.00  0.00     0.018 A 
ATOM      9  C   UNL A   1      31.548  30.720  25.932  1.00  0.00     0.018 A 
BRANCH   5  10
ATOM     10  N   UNL A   1      32.722  28.100  23.645  1.00  0.00    -0.187 N 
ATOM     11  C   UNL A   1      31.756  27.422  22.911  1.00  0.00     0.214 A 
ATOM     12  N   UNL A   1      32.384  26.659  22.037  1.00  0.00    -0.101 NA
ATOM     13  N   UNL A   1      33.713  26.961  22.137  1.00  0.00    -0.022 NA
ATOM     14  N   UNL A   1      33.918  27.898  23.049  1.00  0.00    -0.039 NA
BRANCH  11  15
ATOM     15  S   UNL A   1      30.041  27.674  22.741  1.00  0.00    -0.074 SA
BRANCH  15  16
ATOM     16  C   UNL A   1      29.074  26.692  23.908  1.00  0.00     0.178 C 
BRANCH  16  17
ATOM     17  C   UNL A   1      29.914  25.847  24.869  1.00  0.00     0.236 C 
ATOM     18  O   UNL A   1      30.255  26.310  25.955  1.00  0.00    -0.274 OA
ATOM     19  N   UNL A   1      30.208  24.585  24.411  1.00  0.00    -0.301 N 
ATOM     20  H   UNL A   1      29.635  24.201  23.709  1.00  0.00     0.172 HD
BRANCH  19  21
ATOM     21  C   UNL A   1      31.248  23.835  24.875  1.00  0.00     0.189 A 
ATOM     22  N   UNL A   1      32.470  23.724  24.429  1.00  0.00    -0.220 NA
ATOM     23  S   UNL A   1      30.796  22.794  26.153  1.00  0.00    -0.105 S 
ATOM     24  C   UNL A   1      33.100  22.684  25.095  1.00  0.00     0.084 A 
ATOM     25  C   UNL A   1      32.347  22.070  26.078  1.00  0.00     0.097 A 
BRANCH  24  26
ATOM     26  C   UNL A   1      34.460  22.277  24.785  1.00  0.00     0.001 A 
ATOM     27  C   UNL A   1      35.284  23.115  24.029  1.00  0.00     0.010 A 
ATOM     28  C   UNL A   1      34.962  21.051  25.246  1.00  0.00     0.010 A 
ATOM     29  C   UNL A   1      36.605  22.748  23.762  1.00  0.00     0.001 A 
ATOM     30  C   UNL A   1      36.279  20.680  24.966  1.00  0.00     0.001 A 
ATOM     31  C   UNL A   1      37.101  21.531  24.231  1.00  0.00     0.000 A 
ENDBRANCH  24  26
ENDBRANCH  19  21
ENDBRANCH  16  17
ENDBRANCH  15  16
ENDBRANCH  11  15
ENDBRANCH   5  10
ENDBRANCH   2   4
ENDBRANCH   1   2
BRANCH   1  32
ATOM     32  C   UNL A   1      34.685  33.183  28.704  1.00  0.00     0.275 C 
BRANCH  32  33
ATOM     33  C   UNL A   1      34.751  33.311  30.220  1.00  0.00     0.275 C 
BRANCH  33  34
ATOM     34  O   UNL A   1      36.075  33.049  30.672  1.00  0.00    -0.458 OA
BRANCH  34  35
ATOM     35  C   UNL A   1      36.320  31.761  30.992  1.00  0.00     0.338 C 
ATOM     36  O   UNL A   1      35.869  31.131  31.937  1.00  0.00    -0.246 OA
BRANCH  35  37
ATOM     37  C   UNL A   1      37.380  31.242  30.132  1.00  0.00     0.060 A 
ATOM     38  C   UNL A   1      37.313  29.878  29.829  1.00  0.00     0.016 A 
ATOM     39  C   UNL A   1      38.562  31.986  30.024  1.00  0.00     0.016 A 
ATOM     40  C   UNL A   1      38.497  29.197  29.691  1.00  0.00     0.010 A 
ATOM     41  C   UNL A   1      39.740  31.302  29.906  1.00  0.00     0.010 A 
ATOM     42  C   UNL A   1      39.686  29.911  29.848  1.00  0.00    -0.014 A 
BRANCH  42  43
ATOM     43  C   UNL A   1      40.921  29.170  29.902  1.00  0.00     0.031 A 
ATOM     44  C   UNL A   1      41.366  28.916  31.288  1.00  0.00     0.074 A 
ATOM     45  C   UNL A   1      41.474  28.670  28.781  1.00  0.00     0.049 A 
ATOM     46  N   UNL A   1      42.450  29.317  31.863  1.00  0.00    -0.248 NA
ATOM     47  C   UNL A   1      40.388  28.302  32.202  1.00  0.00     0.031 C 
ATOM     48  C   UNL A   1      40.909  28.648  27.425  1.00  0.00     0.029 A 
ATOM     49  N   UNL A   1      42.594  27.914  28.656  1.00  0.00    -0.354 N 
ATOM     50  C   UNL A   1      42.385  28.795  33.152  1.00  0.00     0.074 A 
ATOM     51  C   UNL A   1      41.024  28.391  33.367  1.00  0.00     0.031 C 
ATOM     52  C   UNL A   1      41.540  27.696  26.702  1.00  0.00     0.029 A 
ATOM     53  C   UNL A   1      42.620  27.144  27.500  1.00  0.00     0.049 A 
ATOM     54  H   UNL A   1      43.319  27.913  29.322  1.00  0.00     0.167 HD
ATOM     55  C   UNL A   1      43.511  28.473  33.840  1.00  0.00     0.034 A 
ATOM     56  C   UNL A   1      43.404  26.058  27.284  1.00  0.00     0.034 A 
ATOM     57  C   UNL A   1      44.672  29.115  33.286  1.00  0.00     0.049 A 
ATOM     58  C   UNL A   1      44.503  26.105  28.279  1.00  0.00     0.074 A 
ATOM     59  C   UNL A   1      45.058  30.426  33.095  1.00  0.00     0.029 A 
ATOM     60  N   UNL A   1      45.471  28.357  32.464  1.00  0.00    -0.354 N 
ATOM     61  N   UNL A   1      45.426  27.029  28.288  1.00  0.00    -0.248 NA
ATOM     62  C   UNL A   1      44.313  25.400  29.536  1.00  0.00     0.031 C 
ATOM     63  C   UNL A   1      45.738  30.431  31.843  1.00  0.00     0.029 A 
ATOM     64  C   UNL A   1      45.778  29.118  31.367  1.00  0.00     0.049 A 
ATOM     65  H   UNL A   1      45.769  27.435  32.633  1.00  0.00     0.167 HD
ATOM     66  C   UNL A   1      45.606  27.327  29.635  1.00  0.00     0.074 A 
ATOM     67  C   UNL A   1      44.977  26.220  30.355  1.00  0.00     0.031 C 
ATOM     68  C   UNL A   1      45.978  28.578  30.037  1.00  0.00     0.034 A 
BRANCH  55  69
ATOM     69  C   UNL A   1      43.615  27.288  34.768  1.00  0.00     0.023 A 
ATOM     70  C   UNL A   1      43.836  27.557  36.135  1.00  0.00     0.012 A 
ATOM     71  C   UNL A   1      43.777  25.946  34.344  1.00  0.00     0.148 A 
ATOM     72  C   UNL A   1      44.244  26.555  37.020  1.00  0.00     0.002 A 
ATOM     73  C   UNL A   1      44.099  24.939  35.243  1.00  0.00     0.091 A 
ATOM     74  F   UNL A   1      43.760  25.643  33.043  1.00  0.00    -0.205 F 
ATOM     75  C   UNL A   1      44.367  25.243  36.578  1.00  0.00     0.022 A 
BRANCH  73  76
ATOM     76  S   UNL A   1      44.221  23.223  34.723  1.00  0.00     0.127 S 
ATOM     77  O   UNL A   1      42.863  22.961  34.259  1.00  0.00    -0.237 OA
ATOM     78  O   UNL A   1      45.233  23.301  33.670  1.00  0.00    -0.237 OA
ATOM     79  O   UNL A   1      44.651  22.487  35.906  1.00  0.00    -0.744 OA
ENDBRANCH  73  76
ENDBRANCH  55  69
BRANCH  56  80
ATOM     80  C   UNL A   1      43.096  24.839  26.500  1.00  0.00     0.023 A 
ATOM     81  C   UNL A   1      43.952  24.442  25.455  1.00  0.00     0.012 A 
ATOM     82  C   UNL A   1      42.107  23.927  26.934  1.00  0.00     0.148 A 
ATOM     83  C   UNL A   1      43.835  23.174  24.872  1.00  0.00     0.002 A 
ATOM     84  C   UNL A   1      41.986  22.673  26.344  1.00  0.00     0.091 A 
ATOM     85  F   UNL A   1      41.342  24.257  27.984  1.00  0.00    -0.205 F 
ATOM     86  C   UNL A   1      42.857  22.289  25.318  1.00  0.00     0.022 A 
BRANCH  84  87
ATOM     87  S   UNL A   1      40.760  21.471  26.879  1.00  0.00     0.127 S 
ATOM     88  O   UNL A   1      39.507  22.147  26.534  1.00  0.00    -0.237 OA
ATOM     89  O   UNL A   1      41.083  20.317  26.044  1.00  0.00    -0.237 OA
ATOM     90  O   UNL A   1      40.970  21.294  28.310  1.00  0.00    -0.744 OA
ENDBRANCH  84  87
ENDBRANCH  56  80
BRANCH  68  91
ATOM     91  C   UNL A   1      46.380  29.573  28.973  1.00  0.00     0.023 A 
ATOM     92  C   UNL A   1      47.674  29.582  28.407  1.00  0.00     0.012 A 
ATOM     93  C   UNL A   1      45.385  30.377  28.396  1.00  0.00     0.148 A 
ATOM     94  C   UNL A   1      47.972  30.391  27.306  1.00  0.00     0.002 A 
ATOM     95  C   UNL A   1      45.672  31.144  27.272  1.00  0.00     0.091 A 
ATOM     96  F   UNL A   1      44.156  30.347  28.935  1.00  0.00    -0.205 F 
ATOM     97  C   UNL A   1      46.966  31.162  26.731  1.00  0.00     0.022 A 
BRANCH  95  98
ATOM     98  S   UNL A   1      44.395  32.054  26.403  1.00  0.00     0.127 S 
ATOM     99  O   UNL A   1      45.121  32.571  25.245  1.00  0.00    -0.237 OA
ATOM    100  O   UNL A   1      43.418  31.009  26.096  1.00  0.00    -0.237 OA
ATOM    101  O   UNL A   1      43.911  33.062  27.339  1.00  0.00    -0.744 OA
ENDBRANCH  95  98
ENDBRANCH  68  91
ENDBRANCH  42  43
ENDBRANCH  35  37
ENDBRANCH  34  35
ENDBRANCH  33  34
ENDBRANCH  32  33
ENDBRANCH   1  32
TORSDOF 20
ENDMDL
