MODEL 1
REMARK VINA RESULT:     -13.0      0.000      0.000
REMARK SMILES CC[NH2+][C@@]1(C(=O)OCCOC(=O)c2ccc(-c3c4nc(c(-c5cccc(S(=O)(=O)[O-])c5F)c5ccc([nH]5)c(-c5cccc(S(=O)(=O)[O-])c5F)c5nc(c(-c6cccc(S(=O)(=O)[O-])c6F)c6ccc3[nH]6)C=C5)C=C4)cc2)CC[C@@H](n2cnc3ccccc32)C1
REMARK SMILES IDX 9 1 8 2 7 3 5 4 6 5 4 6 76 7 88 8 77 9 78 10 3 11 2 14 1 15
REMARK SMILES IDX 79 16 80 17 87 18 81 19 82 20 86 21 83 22 85 23 84 24 10 25
REMARK SMILES IDX 11 26 12 27 13 28 14 29 75 30 15 31 74 32 16 33 17 34 18 35
REMARK SMILES IDX 68 36 19 37 73 38 67 39 69 40 20 41 72 42 66 43 65 44 21 46
REMARK SMILES IDX 53 47 33 48 52 49 34 50 37 51 51 52 70 53 35 54 36 55 50 57
REMARK SMILES IDX 71 58 38 59 22 60 23 61 31 62 24 63 26 64 32 65 25 66 27 67
REMARK SMILES IDX 28 68 29 69 30 70 54 71 55 72 63 73 56 74 58 75 64 76 57 77
REMARK SMILES IDX 59 78 60 79 61 80 62 81 39 82 40 83 48 84 41 85 43 86 49 87
REMARK SMILES IDX 42 88 44 89 45 90 46 91 47 92
REMARK H PARENT 3 12 3 13 69 45 37 56
REMARK Flexibility Score: inf
ROOT
ATOM      1  C   UNL A   1      31.658  32.895  26.490  1.00  0.00     0.275 C 
ENDROOT
BRANCH   1   2
ATOM      2  C   UNL A   1      31.042  31.516  26.118  1.00  0.00     0.274 C 
BRANCH   2   3
ATOM      3  O   UNL A   1      32.017  30.539  25.652  1.00  0.00    -0.457 OA
BRANCH   3   4
ATOM      4  C   UNL A   1      31.977  29.319  26.296  1.00  0.00     0.368 C 
ATOM      5  O   UNL A   1      32.238  29.364  27.499  1.00  0.00    -0.245 OA
BRANCH   4   6
ATOM      6  C   UNL A   1      31.440  27.871  25.186  1.00  0.00     0.196 C 
ATOM      7  C   UNL A   1      31.124  26.727  26.444  1.00  0.00     0.083 C 
ATOM      8  C   UNL A   1      33.223  27.293  25.253  1.00  0.00     0.106 C 
ATOM      9  C   UNL A   1      32.196  25.604  26.406  1.00  0.00     0.033 C 
ATOM     10  C   UNL A   1      33.115  25.813  25.183  1.00  0.00     0.096 C 
BRANCH   6  11
ATOM     11  N   UNL A   1      30.318  28.107  23.385  1.00  0.00    -0.332 N 
ATOM     12  H   UNL A   1      30.913  28.719  22.828  1.00  0.00     0.347 HD
ATOM     13  H   UNL A   1      30.086  27.117  23.300  1.00  0.00     0.347 HD
BRANCH  11  14
ATOM     14  C   UNL A   1      28.766  28.649  23.003  1.00  0.00     0.257 C 
ATOM     15  C   UNL A   1      28.577  30.031  22.363  1.00  0.00     0.071 C 
ENDBRANCH  11  14
ENDBRANCH   6  11
BRANCH  10  16
ATOM     16  N   UNL A   1      32.580  25.620  23.837  1.00  0.00    -0.327 N 
ATOM     17  C   UNL A   1      33.360  25.962  22.741  1.00  0.00     0.200 A 
ATOM     18  C   UNL A   1      32.103  24.303  23.635  1.00  0.00     0.068 A 
ATOM     19  N   UNL A   1      34.163  24.981  22.360  1.00  0.00    -0.237 NA
ATOM     20  C   UNL A   1      33.681  23.879  23.028  1.00  0.00     0.088 A 
ATOM     21  C   UNL A   1      31.152  23.100  24.650  1.00  0.00     0.028 A 
ATOM     22  C   UNL A   1      34.461  22.341  23.473  1.00  0.00     0.030 A 
ATOM     23  C   UNL A   1      31.948  21.504  25.120  1.00  0.00     0.002 A 
ATOM     24  C   UNL A   1      33.678  21.189  24.590  1.00  0.00     0.002 A 
ENDBRANCH  10  16
ENDBRANCH   4   6
ENDBRANCH   3   4
ENDBRANCH   2   3
ENDBRANCH   1   2
BRANCH   1  25
ATOM     25  O   UNL A   1      32.172  33.025  27.854  1.00  0.00    -0.458 OA
BRANCH  25  26
ATOM     26  C   UNL A   1      33.242  33.857  28.025  1.00  0.00     0.338 C 
ATOM     27  O   UNL A   1      33.160  35.076  28.132  1.00  0.00    -0.246 OA
BRANCH  26  28
ATOM     28  C   UNL A   1      34.568  33.181  28.232  1.00  0.00     0.060 A 
ATOM     29  C   UNL A   1      34.539  31.935  28.831  1.00  0.00     0.016 A 
ATOM     30  C   UNL A   1      35.813  33.798  28.190  1.00  0.00     0.016 A 
ATOM     31  C   UNL A   1      35.584  31.370  29.530  1.00  0.00     0.010 A 
ATOM     32  C   UNL A   1      36.957  33.130  28.717  1.00  0.00     0.010 A 
ATOM     33  C   UNL A   1      36.840  31.911  29.413  1.00  0.00    -0.014 A 
BRANCH  33  34
ATOM     34  C   UNL A   1      37.921  31.161  30.101  1.00  0.00     0.031 A 
ATOM     35  C   UNL A   1      38.123  31.365  31.568  1.00  0.00     0.074 A 
ATOM     36  C   UNL A   1      38.583  30.165  29.473  1.00  0.00     0.049 A 
ATOM     37  N   UNL A   1      39.047  30.877  32.350  1.00  0.00    -0.248 NA
ATOM     38  C   UNL A   1      37.139  32.220  32.246  1.00  0.00     0.031 C 
ATOM     39  C   UNL A   1      38.333  29.714  28.100  1.00  0.00     0.029 A 
ATOM     40  N   UNL A   1      39.591  29.335  29.907  1.00  0.00    -0.354 N 
ATOM     41  C   UNL A   1      38.819  31.447  33.593  1.00  0.00     0.074 A 
ATOM     42  C   UNL A   1      37.636  32.273  33.472  1.00  0.00     0.031 C 
ATOM     43  C   UNL A   1      39.174  28.710  27.802  1.00  0.00     0.029 A 
ATOM     44  C   UNL A   1      40.077  28.497  28.926  1.00  0.00     0.049 A 
ATOM     45  H   UNL A   1      39.932  29.339  30.830  1.00  0.00     0.167 HD
ATOM     46  C   UNL A   1      39.556  31.319  34.719  1.00  0.00     0.034 A 
ATOM     47  C   UNL A   1      41.165  27.699  28.917  1.00  0.00     0.034 A 
ATOM     48  C   UNL A   1      40.729  30.493  34.817  1.00  0.00     0.049 A 
ATOM     49  C   UNL A   1      42.035  27.661  30.148  1.00  0.00     0.074 A 
ATOM     50  C   UNL A   1      41.570  30.321  35.901  1.00  0.00     0.029 A 
ATOM     51  N   UNL A   1      41.241  29.722  33.785  1.00  0.00    -0.354 N 
ATOM     52  N   UNL A   1      41.852  28.248  31.306  1.00  0.00    -0.248 NA
ATOM     53  C   UNL A   1      43.260  26.851  30.075  1.00  0.00     0.031 C 
ATOM     54  C   UNL A   1      42.632  29.506  35.499  1.00  0.00     0.029 A 
ATOM     55  C   UNL A   1      42.401  29.091  34.196  1.00  0.00     0.049 A 
ATOM     56  H   UNL A   1      40.838  29.635  32.890  1.00  0.00     0.167 HD
ATOM     57  C   UNL A   1      42.911  27.844  32.112  1.00  0.00     0.074 A 
ATOM     58  C   UNL A   1      43.727  26.955  31.312  1.00  0.00     0.031 C 
ATOM     59  C   UNL A   1      43.181  28.179  33.398  1.00  0.00     0.034 A 
BRANCH  46  60
ATOM     60  C   UNL A   1      39.178  32.192  35.883  1.00  0.00     0.023 A 
ATOM     61  C   UNL A   1      39.688  33.499  36.012  1.00  0.00     0.012 A 
ATOM     62  C   UNL A   1      38.319  31.680  36.876  1.00  0.00     0.148 A 
ATOM     63  C   UNL A   1      39.395  34.260  37.144  1.00  0.00     0.002 A 
ATOM     64  C   UNL A   1      37.982  32.466  37.967  1.00  0.00     0.091 A 
ATOM     65  F   UNL A   1      37.870  30.423  36.747  1.00  0.00    -0.205 F 
ATOM     66  C   UNL A   1      38.536  33.748  38.114  1.00  0.00     0.022 A 
BRANCH  64  67
ATOM     67  S   UNL A   1      36.822  31.923  39.222  1.00  0.00     0.127 S 
ATOM     68  O   UNL A   1      36.795  30.478  38.992  1.00  0.00    -0.237 OA
ATOM     69  O   UNL A   1      37.495  32.333  40.455  1.00  0.00    -0.237 OA
ATOM     70  O   UNL A   1      35.572  32.617  38.949  1.00  0.00    -0.744 OA
ENDBRANCH  64  67
ENDBRANCH  46  60
BRANCH  47  71
ATOM     71  C   UNL A   1      41.539  26.915  27.700  1.00  0.00     0.023 A 
ATOM     72  C   UNL A   1      42.040  27.577  26.560  1.00  0.00     0.012 A 
ATOM     73  C   UNL A   1      41.368  25.516  27.652  1.00  0.00     0.148 A 
ATOM     74  C   UNL A   1      42.327  26.868  25.391  1.00  0.00     0.002 A 
ATOM     75  C   UNL A   1      41.712  24.809  26.507  1.00  0.00     0.091 A 
ATOM     76  F   UNL A   1      40.867  24.903  28.733  1.00  0.00    -0.205 F 
ATOM     77  C   UNL A   1      42.173  25.484  25.367  1.00  0.00     0.022 A 
BRANCH  75  78
ATOM     78  S   UNL A   1      41.648  23.015  26.420  1.00  0.00     0.127 S 
ATOM     79  O   UNL A   1      42.279  22.631  27.680  1.00  0.00    -0.237 OA
ATOM     80  O   UNL A   1      40.207  22.774  26.354  1.00  0.00    -0.237 OA
ATOM     81  O   UNL A   1      42.380  22.649  25.216  1.00  0.00    -0.744 OA
ENDBRANCH  75  78
ENDBRANCH  47  71
BRANCH  59  82
ATOM     82  C   UNL A   1      44.357  27.512  34.064  1.00  0.00     0.023 A 
ATOM     83  C   UNL A   1      45.646  28.073  33.994  1.00  0.00     0.012 A 
ATOM     84  C   UNL A   1      44.150  26.344  34.827  1.00  0.00     0.148 A 
ATOM     85  C   UNL A   1      46.720  27.457  34.639  1.00  0.00     0.002 A 
ATOM     86  C   UNL A   1      45.209  25.774  35.517  1.00  0.00     0.091 A 
ATOM     87  F   UNL A   1      42.918  25.819  34.869  1.00  0.00    -0.205 F 
ATOM     88  C   UNL A   1      46.499  26.317  35.409  1.00  0.00     0.022 A 
BRANCH  86  89
ATOM     89  S   UNL A   1      44.995  24.371  36.617  1.00  0.00     0.127 S 
ATOM     90  O   UNL A   1      46.335  24.230  37.183  1.00  0.00    -0.237 OA
ATOM     91  O   UNL A   1      43.986  24.866  37.552  1.00  0.00    -0.237 OA
ATOM     92  O   UNL A   1      44.555  23.263  35.780  1.00  0.00    -0.744 OA
ENDBRANCH  86  89
ENDBRANCH  59  82
ENDBRANCH  33  34
ENDBRANCH  26  28
ENDBRANCH  25  26
ENDBRANCH   1  25
TORSDOF 17
ENDMDL
MODEL 2
REMARK VINA RESULT:     -13.0      5.495     11.326
REMARK SMILES CC[NH2+][C@@]1(C(=O)OCCOC(=O)c2ccc(-c3c4nc(c(-c5cccc(S(=O)(=O)[O-])c5F)c5ccc([nH]5)c(-c5cccc(S(=O)(=O)[O-])c5F)c5nc(c(-c6cccc(S(=O)(=O)[O-])c6F)c6ccc3[nH]6)C=C5)C=C4)cc2)CC[C@@H](n2cnc3ccccc32)C1
REMARK SMILES IDX 9 1 8 2 7 3 5 4 6 5 4 6 76 7 88 8 77 9 78 10 3 11 2 14 1 15
REMARK SMILES IDX 79 16 80 17 87 18 81 19 82 20 86 21 83 22 85 23 84 24 10 25
REMARK SMILES IDX 11 26 12 27 13 28 14 29 75 30 15 31 74 32 16 33 17 34 18 35
REMARK SMILES IDX 68 36 19 37 73 38 67 39 69 40 20 41 72 42 66 43 65 44 21 46
REMARK SMILES IDX 53 47 33 48 52 49 34 50 37 51 51 52 70 53 35 54 36 55 50 57
REMARK SMILES IDX 71 58 38 59 22 60 23 61 31 62 24 63 26 64 32 65 25 66 27 67
REMARK SMILES IDX 28 68 29 69 30 70 54 71 55 72 63 73 56 74 58 75 64 76 57 77
REMARK SMILES IDX 59 78 60 79 61 80 62 81 39 82 40 83 48 84 41 85 43 86 49 87
REMARK SMILES IDX 42 88 44 89 45 90 46 91 47 92
REMARK H PARENT 3 12 3 13 69 45 37 56
REMARK Flexibility Score: inf
ROOT
ATOM      1  C   UNL A   1      39.307  19.684  26.110  1.00  0.00     0.275 C 
ENDROOT
BRANCH   1   2
ATOM      2  C   UNL A   1      38.493  19.873  24.798  1.00  0.00     0.274 C 
BRANCH   2   3
ATOM      3  O   UNL A   1      37.074  20.123  25.014  1.00  0.00    -0.457 OA
BRANCH   3   4
ATOM      4  C   UNL A   1      36.691  21.445  24.923  1.00  0.00     0.368 C 
ATOM      5  O   UNL A   1      37.615  22.255  25.009  1.00  0.00    -0.245 OA
BRANCH   4   6
ATOM      6  C   UNL A   1      34.834  21.697  24.597  1.00  0.00     0.196 C 
ATOM      7  C   UNL A   1      34.980  22.948  23.411  1.00  0.00     0.083 C 
ATOM      8  C   UNL A   1      34.897  23.058  25.886  1.00  0.00     0.106 C 
ATOM      9  C   UNL A   1      34.469  24.289  24.004  1.00  0.00     0.033 C 
ATOM     10  C   UNL A   1      33.886  24.037  25.412  1.00  0.00     0.096 C 
BRANCH   6  11
ATOM     11  N   UNL A   1      33.404  20.112  24.587  1.00  0.00    -0.332 N 
ATOM     12  H   UNL A   1      33.129  20.051  25.567  1.00  0.00     0.347 HD
ATOM     13  H   UNL A   1      32.910  20.449  23.760  1.00  0.00     0.347 HD
BRANCH  11  14
ATOM     14  C   UNL A   1      33.409  18.496  24.100  1.00  0.00     0.257 C 
ATOM     15  C   UNL A   1      34.689  17.661  24.245  1.00  0.00     0.071 C 
ENDBRANCH  11  14
ENDBRANCH   6  11
BRANCH  10  16
ATOM     16  N   UNL A   1      32.647  23.274  25.554  1.00  0.00    -0.327 N 
ATOM     17  C   UNL A   1      32.155  23.010  26.824  1.00  0.00     0.200 A 
ATOM     18  C   UNL A   1      31.592  23.820  24.785  1.00  0.00     0.068 A 
ATOM     19  N   UNL A   1      31.388  23.984  27.286  1.00  0.00    -0.237 NA
ATOM     20  C   UNL A   1      31.130  24.759  26.180  1.00  0.00     0.088 A 
ATOM     21  C   UNL A   1      31.458  24.546  23.100  1.00  0.00     0.028 A 
ATOM     22  C   UNL A   1      30.643  26.465  26.027  1.00  0.00     0.030 A 
ATOM     23  C   UNL A   1      30.956  26.313  22.927  1.00  0.00     0.002 A 
ATOM     24  C   UNL A   1      30.646  27.296  24.447  1.00  0.00     0.002 A 
ENDBRANCH  10  16
ENDBRANCH   4   6
ENDBRANCH   3   4
ENDBRANCH   2   3
ENDBRANCH   1   2
BRANCH   1  25
ATOM     25  O   UNL A   1      40.532  18.890  26.000  1.00  0.00    -0.458 OA
BRANCH  25  26
ATOM     26  C   UNL A   1      41.700  19.587  25.871  1.00  0.00     0.338 C 
ATOM     27  O   UNL A   1      42.643  19.235  25.171  1.00  0.00    -0.246 OA
BRANCH  26  28
ATOM     28  C   UNL A   1      41.731  20.936  26.536  1.00  0.00     0.060 A 
ATOM     29  C   UNL A   1      41.487  22.029  25.725  1.00  0.00     0.016 A 
ATOM     30  C   UNL A   1      42.292  21.220  27.775  1.00  0.00     0.016 A 
ATOM     31  C   UNL A   1      41.919  23.313  25.979  1.00  0.00     0.010 A 
ATOM     32  C   UNL A   1      42.548  22.573  28.147  1.00  0.00     0.010 A 
ATOM     33  C   UNL A   1      42.379  23.630  27.233  1.00  0.00    -0.014 A 
BRANCH  33  34
ATOM     34  C   UNL A   1      42.704  25.063  27.446  1.00  0.00     0.031 A 
ATOM     35  C   UNL A   1      43.973  25.610  26.878  1.00  0.00     0.074 A 
ATOM     36  C   UNL A   1      41.789  25.913  27.964  1.00  0.00     0.049 A 
ATOM     37  N   UNL A   1      44.490  26.801  27.007  1.00  0.00    -0.248 NA
ATOM     38  C   UNL A   1      44.756  24.693  26.037  1.00  0.00     0.031 C 
ATOM     39  C   UNL A   1      40.425  25.551  28.361  1.00  0.00     0.029 A 
ATOM     40  N   UNL A   1      41.857  27.261  28.230  1.00  0.00    -0.354 N 
ATOM     41  C   UNL A   1      45.709  26.750  26.349  1.00  0.00     0.074 A 
ATOM     42  C   UNL A   1      45.828  25.425  25.777  1.00  0.00     0.031 C 
ATOM     43  C   UNL A   1      39.797  26.639  28.836  1.00  0.00     0.029 A 
ATOM     44  C   UNL A   1      40.733  27.757  28.855  1.00  0.00     0.049 A 
ATOM     45  H   UNL A   1      42.634  27.818  27.997  1.00  0.00     0.167 HD
ATOM     46  C   UNL A   1      46.656  27.711  26.268  1.00  0.00     0.034 A 
ATOM     47  C   UNL A   1      40.510  28.955  29.434  1.00  0.00     0.034 A 
ATOM     48  C   UNL A   1      46.519  29.020  26.845  1.00  0.00     0.049 A 
ATOM     49  C   UNL A   1      41.625  29.971  29.429  1.00  0.00     0.074 A 
ATOM     50  C   UNL A   1      47.433  30.057  26.852  1.00  0.00     0.029 A 
ATOM     51  N   UNL A   1      45.404  29.464  27.540  1.00  0.00    -0.354 N 
ATOM     52  N   UNL A   1      42.803  29.899  28.859  1.00  0.00    -0.248 NA
ATOM     53  C   UNL A   1      41.382  31.232  30.144  1.00  0.00     0.031 C 
ATOM     54  C   UNL A   1      46.901  31.099  27.617  1.00  0.00     0.029 A 
ATOM     55  C   UNL A   1      45.616  30.749  28.004  1.00  0.00     0.049 A 
ATOM     56  H   UNL A   1      44.582  28.941  27.683  1.00  0.00     0.167 HD
ATOM     57  C   UNL A   1      43.424  31.119  29.106  1.00  0.00     0.074 A 
ATOM     58  C   UNL A   1      42.486  31.914  29.872  1.00  0.00     0.031 C 
ATOM     59  C   UNL A   1      44.657  31.541  28.733  1.00  0.00     0.034 A 
BRANCH  46  60
ATOM     60  C   UNL A   1      47.966  27.324  25.639  1.00  0.00     0.023 A 
ATOM     61  C   UNL A   1      49.029  26.820  26.414  1.00  0.00     0.012 A 
ATOM     62  C   UNL A   1      48.140  27.497  24.251  1.00  0.00     0.148 A 
ATOM     63  C   UNL A   1      50.264  26.552  25.826  1.00  0.00     0.002 A 
ATOM     64  C   UNL A   1      49.351  27.167  23.663  1.00  0.00     0.091 A 
ATOM     65  F   UNL A   1      47.125  28.005  23.538  1.00  0.00    -0.205 F 
ATOM     66  C   UNL A   1      50.422  26.715  24.451  1.00  0.00     0.022 A 
BRANCH  64  67
ATOM     67  S   UNL A   1      49.619  27.268  21.893  1.00  0.00     0.127 S 
ATOM     68  O   UNL A   1      49.385  28.690  21.639  1.00  0.00    -0.237 OA
ATOM     69  O   UNL A   1      51.015  26.847  21.773  1.00  0.00    -0.237 OA
ATOM     70  O   UNL A   1      48.654  26.364  21.283  1.00  0.00    -0.744 OA
ENDBRANCH  64  67
ENDBRANCH  46  60
BRANCH  47  71
ATOM     71  C   UNL A   1      39.215  29.256  30.119  1.00  0.00     0.023 A 
ATOM     72  C   UNL A   1      38.918  28.657  31.360  1.00  0.00     0.012 A 
ATOM     73  C   UNL A   1      38.257  30.104  29.528  1.00  0.00     0.148 A 
ATOM     74  C   UNL A   1      37.683  28.871  31.979  1.00  0.00     0.002 A 
ATOM     75  C   UNL A   1      37.055  30.361  30.177  1.00  0.00     0.091 A 
ATOM     76  F   UNL A   1      38.542  30.646  28.335  1.00  0.00    -0.205 F 
ATOM     77  C   UNL A   1      36.756  29.729  31.393  1.00  0.00     0.022 A 
BRANCH  75  78
ATOM     78  S   UNL A   1      35.847  31.534  29.550  1.00  0.00     0.127 S 
ATOM     79  O   UNL A   1      35.060  31.823  30.746  1.00  0.00    -0.237 OA
ATOM     80  O   UNL A   1      36.705  32.629  29.097  1.00  0.00    -0.237 OA
ATOM     81  O   UNL A   1      35.136  30.842  28.485  1.00  0.00    -0.744 OA
ENDBRANCH  75  78
ENDBRANCH  47  71
BRANCH  59  82
ATOM     82  C   UNL A   1      45.040  32.961  29.059  1.00  0.00     0.023 A 
ATOM     83  C   UNL A   1      45.645  33.288  30.287  1.00  0.00     0.012 A 
ATOM     84  C   UNL A   1      44.853  33.969  28.090  1.00  0.00     0.148 A 
ATOM     85  C   UNL A   1      46.019  34.604  30.562  1.00  0.00     0.002 A 
ATOM     86  C   UNL A   1      45.286  35.262  28.346  1.00  0.00     0.091 A 
ATOM     87  F   UNL A   1      44.262  33.640  26.933  1.00  0.00    -0.205 F 
ATOM     88  C   UNL A   1      45.851  35.586  29.589  1.00  0.00     0.022 A 
BRANCH  86  89
ATOM     89  S   UNL A   1      45.207  36.563  27.112  1.00  0.00     0.127 S 
ATOM     90  O   UNL A   1      43.770  36.642  26.856  1.00  0.00    -0.237 OA
ATOM     91  O   UNL A   1      45.762  37.706  27.835  1.00  0.00    -0.237 OA
ATOM     92  O   UNL A   1      46.012  36.106  25.987  1.00  0.00    -0.744 OA
ENDBRANCH  86  89
ENDBRANCH  59  82
ENDBRANCH  33  34
ENDBRANCH  26  28
ENDBRANCH  25  26
ENDBRANCH   1  25
TORSDOF 17
ENDMDL
MODEL 3
REMARK VINA RESULT:     -13.0      5.173     10.574
REMARK SMILES CC[NH2+][C@@]1(C(=O)OCCOC(=O)c2ccc(-c3c4nc(c(-c5cccc(S(=O)(=O)[O-])c5F)c5ccc([nH]5)c(-c5cccc(S(=O)(=O)[O-])c5F)c5nc(c(-c6cccc(S(=O)(=O)[O-])c6F)c6ccc3[nH]6)C=C5)C=C4)cc2)CC[C@@H](n2cnc3ccccc32)C1
REMARK SMILES IDX 9 1 8 2 7 3 5 4 6 5 4 6 76 7 88 8 77 9 78 10 3 11 2 14 1 15
REMARK SMILES IDX 79 16 80 17 87 18 81 19 82 20 86 21 83 22 85 23 84 24 10 25
REMARK SMILES IDX 11 26 12 27 13 28 14 29 75 30 15 31 74 32 16 33 17 34 18 35
REMARK SMILES IDX 68 36 19 37 73 38 67 39 69 40 20 41 72 42 66 43 65 44 21 46
REMARK SMILES IDX 53 47 33 48 52 49 34 50 37 51 51 52 70 53 35 54 36 55 50 57
REMARK SMILES IDX 71 58 38 59 22 60 23 61 31 62 24 63 26 64 32 65 25 66 27 67
REMARK SMILES IDX 28 68 29 69 30 70 54 71 55 72 63 73 56 74 58 75 64 76 57 77
REMARK SMILES IDX 59 78 60 79 61 80 62 81 39 82 40 83 48 84 41 85 43 86 49 87
REMARK SMILES IDX 42 88 44 89 45 90 46 91 47 92
REMARK H PARENT 3 12 3 13 69 45 37 56
REMARK Flexibility Score: inf
ROOT
ATOM      1  C   UNL A   1      37.204  20.323  25.333  1.00  0.00     0.275 C 
ENDROOT
BRANCH   1   2
ATOM      2  C   UNL A   1      35.940  21.102  24.869  1.00  0.00     0.274 C 
BRANCH   2   3
ATOM      3  O   UNL A   1      36.181  22.514  24.602  1.00  0.00    -0.457 OA
BRANCH   3   4
ATOM      4  C   UNL A   1      35.292  23.104  23.726  1.00  0.00     0.368 C 
ATOM      5  O   UNL A   1      35.658  23.110  22.550  1.00  0.00    -0.245 OA
BRANCH   4   6
ATOM      6  C   UNL A   1      33.674  23.688  24.535  1.00  0.00     0.196 C 
ATOM      7  C   UNL A   1      32.693  23.680  23.111  1.00  0.00     0.083 C 
ATOM      8  C   UNL A   1      34.179  25.428  24.049  1.00  0.00     0.106 C 
ATOM      9  C   UNL A   1      32.344  25.139  22.711  1.00  0.00     0.033 C 
ATOM     10  C   UNL A   1      32.885  26.108  23.786  1.00  0.00     0.096 C 
BRANCH   6  11
ATOM     11  N   UNL A   1      33.052  23.118  26.497  1.00  0.00    -0.332 N 
ATOM     12  H   UNL A   1      33.518  22.221  26.628  1.00  0.00     0.347 HD
ATOM     13  H   UNL A   1      33.214  24.037  26.908  1.00  0.00     0.347 HD
BRANCH  11  14
ATOM     14  C   UNL A   1      31.566  22.882  27.262  1.00  0.00     0.257 C 
ATOM     15  C   UNL A   1      30.271  23.315  26.560  1.00  0.00     0.071 C 
ENDBRANCH  11  14
ENDBRANCH   6  11
BRANCH  10  16
ATOM     16  N   UNL A   1      32.281  26.119  25.116  1.00  0.00    -0.327 N 
ATOM     17  C   UNL A   1      32.971  26.700  26.170  1.00  0.00     0.200 A 
ATOM     18  C   UNL A   1      30.972  26.659  25.105  1.00  0.00     0.068 A 
ATOM     19  N   UNL A   1      32.755  28.002  26.265  1.00  0.00    -0.237 NA
ATOM     20  C   UNL A   1      31.669  28.220  25.449  1.00  0.00     0.088 A 
ATOM     21  C   UNL A   1      29.525  26.524  23.979  1.00  0.00     0.028 A 
ATOM     22  C   UNL A   1      31.089  29.692  24.632  1.00  0.00     0.030 A 
ATOM     23  C   UNL A   1      28.914  28.040  23.125  1.00  0.00     0.002 A 
ATOM     24  C   UNL A   1      29.798  29.627  23.400  1.00  0.00     0.002 A 
ENDBRANCH  10  16
ENDBRANCH   4   6
ENDBRANCH   3   4
ENDBRANCH   2   3
ENDBRANCH   1   2
BRANCH   1  25
ATOM     25  O   UNL A   1      38.488  20.999  25.133  1.00  0.00    -0.458 OA
BRANCH  25  26
ATOM     26  C   UNL A   1      39.440  20.794  26.091  1.00  0.00     0.338 C 
ATOM     27  O   UNL A   1      40.011  19.726  26.282  1.00  0.00    -0.246 OA
BRANCH  26  28
ATOM     28  C   UNL A   1      39.884  22.018  26.841  1.00  0.00     0.060 A 
ATOM     29  C   UNL A   1      39.370  23.227  26.409  1.00  0.00     0.016 A 
ATOM     30  C   UNL A   1      40.985  22.101  27.686  1.00  0.00     0.016 A 
ATOM     31  C   UNL A   1      39.968  24.454  26.602  1.00  0.00     0.010 A 
ATOM     32  C   UNL A   1      41.489  23.377  28.076  1.00  0.00     0.010 A 
ATOM     33  C   UNL A   1      40.989  24.567  27.513  1.00  0.00    -0.014 A 
BRANCH  33  34
ATOM     34  C   UNL A   1      41.484  25.948  27.743  1.00  0.00     0.031 A 
ATOM     35  C   UNL A   1      42.783  26.362  27.133  1.00  0.00     0.074 A 
ATOM     36  C   UNL A   1      40.694  26.882  28.318  1.00  0.00     0.049 A 
ATOM     37  N   UNL A   1      43.438  27.483  27.265  1.00  0.00    -0.248 NA
ATOM     38  C   UNL A   1      43.421  25.385  26.239  1.00  0.00     0.031 C 
ATOM     39  C   UNL A   1      39.315  26.667  28.767  1.00  0.00     0.029 A 
ATOM     40  N   UNL A   1      40.927  28.205  28.611  1.00  0.00    -0.354 N 
ATOM     41  C   UNL A   1      44.615  27.311  26.554  1.00  0.00     0.074 A 
ATOM     42  C   UNL A   1      44.559  25.997  25.949  1.00  0.00     0.031 C 
ATOM     43  C   UNL A   1      38.836  27.806  29.292  1.00  0.00     0.029 A 
ATOM     44  C   UNL A   1      39.893  28.809  29.295  1.00  0.00     0.049 A 
ATOM     45  H   UNL A   1      41.753  28.677  28.357  1.00  0.00     0.167 HD
ATOM     46  C   UNL A   1      45.662  28.160  26.453  1.00  0.00     0.034 A 
ATOM     47  C   UNL A   1      39.833  30.010  29.909  1.00  0.00     0.034 A 
ATOM     48  C   UNL A   1      45.699  29.461  27.064  1.00  0.00     0.049 A 
ATOM     49  C   UNL A   1      41.055  30.891  29.878  1.00  0.00     0.074 A 
ATOM     50  C   UNL A   1      46.726  30.386  27.053  1.00  0.00     0.029 A 
ATOM     51  N   UNL A   1      44.671  30.010  27.816  1.00  0.00    -0.354 N 
ATOM     52  N   UNL A   1      42.193  30.702  29.256  1.00  0.00    -0.248 NA
ATOM     53  C   UNL A   1      40.988  32.153  30.630  1.00  0.00     0.031 C 
ATOM     54  C   UNL A   1      46.349  31.461  27.864  1.00  0.00     0.029 A 
ATOM     55  C   UNL A   1      45.049  31.250  28.298  1.00  0.00     0.049 A 
ATOM     56  H   UNL A   1      43.802  29.579  27.983  1.00  0.00     0.167 HD
ATOM     57  C   UNL A   1      42.960  31.836  29.502  1.00  0.00     0.074 A 
ATOM     58  C   UNL A   1      42.151  32.712  30.325  1.00  0.00     0.031 C 
ATOM     59  C   UNL A   1      44.217  32.125  29.085  1.00  0.00     0.034 A 
BRANCH  46  60
ATOM     60  C   UNL A   1      46.893  27.644  25.760  1.00  0.00     0.023 A 
ATOM     61  C   UNL A   1      47.073  27.807  24.372  1.00  0.00     0.012 A 
ATOM     62  C   UNL A   1      47.870  26.961  26.511  1.00  0.00     0.148 A 
ATOM     63  C   UNL A   1      48.178  27.244  23.734  1.00  0.00     0.002 A 
ATOM     64  C   UNL A   1      48.998  26.459  25.880  1.00  0.00     0.091 A 
ATOM     65  F   UNL A   1      47.663  26.792  27.825  1.00  0.00    -0.205 F 
ATOM     66  C   UNL A   1      49.144  26.580  24.488  1.00  0.00     0.022 A 
BRANCH  64  67
ATOM     67  S   UNL A   1      50.328  25.662  26.780  1.00  0.00     0.127 S 
ATOM     68  O   UNL A   1      49.668  24.455  27.277  1.00  0.00    -0.237 OA
ATOM     69  O   UNL A   1      51.312  25.430  25.722  1.00  0.00    -0.237 OA
ATOM     70  O   UNL A   1      50.747  26.606  27.807  1.00  0.00    -0.744 OA
ENDBRANCH  64  67
ENDBRANCH  46  60
BRANCH  47  71
ATOM     71  C   UNL A   1      38.610  30.436  30.656  1.00  0.00     0.023 A 
ATOM     72  C   UNL A   1      38.437  30.058  32.003  1.00  0.00     0.012 A 
ATOM     73  C   UNL A   1      37.596  31.187  30.026  1.00  0.00     0.148 A 
ATOM     74  C   UNL A   1      37.267  30.387  32.693  1.00  0.00     0.002 A 
ATOM     75  C   UNL A   1      36.462  31.564  30.736  1.00  0.00     0.091 A 
ATOM     76  F   UNL A   1      37.761  31.518  28.738  1.00  0.00    -0.205 F 
ATOM     77  C   UNL A   1      36.285  31.148  32.064  1.00  0.00     0.022 A 
BRANCH  75  78
ATOM     78  S   UNL A   1      35.194  32.631  30.041  1.00  0.00     0.127 S 
ATOM     79  O   UNL A   1      34.280  32.785  31.170  1.00  0.00    -0.237 OA
ATOM     80  O   UNL A   1      35.966  33.827  29.705  1.00  0.00    -0.237 OA
ATOM     81  O   UNL A   1      34.656  31.914  28.894  1.00  0.00    -0.744 OA
ENDBRANCH  75  78
ENDBRANCH  47  71
BRANCH  59  82
ATOM     82  C   UNL A   1      44.773  33.484  29.425  1.00  0.00     0.023 A 
ATOM     83  C   UNL A   1      45.628  33.664  30.528  1.00  0.00     0.012 A 
ATOM     84  C   UNL A   1      44.488  34.579  28.584  1.00  0.00     0.148 A 
ATOM     85  C   UNL A   1      46.157  34.924  30.814  1.00  0.00     0.002 A 
ATOM     86  C   UNL A   1      45.069  35.814  28.837  1.00  0.00     0.091 A 
ATOM     87  F   UNL A   1      43.660  34.390  27.547  1.00  0.00    -0.205 F 
ATOM     88  C   UNL A   1      45.888  35.994  29.962  1.00  0.00     0.022 A 
BRANCH  86  89
ATOM     89  S   UNL A   1      44.863  37.216  27.734  1.00  0.00     0.127 S 
ATOM     90  O   UNL A   1      45.636  38.249  28.421  1.00  0.00    -0.237 OA
ATOM     91  O   UNL A   1      45.466  36.723  26.496  1.00  0.00    -0.237 OA
ATOM     92  O   UNL A   1      43.429  37.463  27.655  1.00  0.00    -0.744 OA
ENDBRANCH  86  89
ENDBRANCH  59  82
ENDBRANCH  33  34
ENDBRANCH  26  28
ENDBRANCH  25  26
ENDBRANCH   1  25
TORSDOF 17
ENDMDL
