MODEL 1
REMARK VINA RESULT:     -11.4      0.000      0.000
REMARK SMILES C[C@H](NC(=O)NCCc1ccccc1F)C(=O)OCCOC(=O)c1ccc(-c2c3nc(c(-c4cccc(S(=O)(=O)[O-])c4F)c4ccc([nH]4)c(-c4cccc(S(=O)(=O)[O-])c4F)c4nc(c(-c5cccc(S(=O)(=O)[O-])c5F)c5ccc2[nH]5)C=C4)C=C3)cc1
REMARK SMILES IDX 19 1 18 2 16 3 17 4 2 5 1 6 3 7 4 8 5 10 6 11 7 13 8 14 9 15
REMARK SMILES IDX 10 16 14 17 11 18 13 19 15 20 12 21 20 22 21 23 22 24 23 25
REMARK SMILES IDX 24 26 25 27 86 28 26 29 85 30 27 31 28 32 29 33 79 34 30 35
REMARK SMILES IDX 84 36 78 37 80 38 31 39 83 40 77 41 76 42 32 44 64 45 44 46
REMARK SMILES IDX 63 47 45 48 48 49 62 50 81 51 46 52 47 53 61 55 82 56 49 57
REMARK SMILES IDX 33 58 34 59 42 60 35 61 37 62 43 63 36 64 38 65 39 66 40 67
REMARK SMILES IDX 41 68 65 69 66 70 74 71 67 72 69 73 75 74 68 75 70 76 71 77
REMARK SMILES IDX 72 78 73 79 50 80 51 81 59 82 52 83 54 84 60 85 53 86 55 87
REMARK SMILES IDX 56 88 57 89 58 90
REMARK H PARENT 3 9 6 12 80 43 48 54
REMARK Flexibility Score: inf
ROOT
ATOM      1  C   UNL A   1      30.890  29.806  24.627  1.00  0.00     0.274 C 
ENDROOT
BRANCH   1   2
ATOM      2  O   UNL A   1      31.543  29.187  23.506  1.00  0.00    -0.461 OA
BRANCH   2   3
ATOM      3  C   UNL A   1      31.272  27.871  23.289  1.00  0.00     0.328 C 
ATOM      4  O   UNL A   1      30.148  27.381  23.303  1.00  0.00    -0.250 OA
BRANCH   3   5
ATOM      5  C   UNL A   1      32.533  27.077  22.897  1.00  0.00     0.190 C 
ATOM      6  C   UNL A   1      33.815  27.628  23.510  1.00  0.00     0.043 C 
BRANCH   5   7
ATOM      7  N   UNL A   1      32.633  26.675  21.498  1.00  0.00    -0.325 N 
ATOM      8  C   UNL A   1      32.777  25.529  20.839  1.00  0.00     0.315 C 
ATOM      9  H   UNL A   1      32.583  27.447  20.888  1.00  0.00     0.166 HD
ATOM     10  O   UNL A   1      32.903  25.575  19.613  1.00  0.00    -0.249 OA
ATOM     11  N   UNL A   1      32.822  24.326  21.414  1.00  0.00    -0.338 N 
ATOM     12  H   UNL A   1      33.124  23.622  20.795  1.00  0.00     0.165 HD
BRANCH  11  13
ATOM     13  C   UNL A   1      32.529  23.815  22.739  1.00  0.00     0.122 C 
BRANCH  13  14
ATOM     14  C   UNL A   1      33.167  22.442  22.975  1.00  0.00     0.060 C 
BRANCH  14  15
ATOM     15  C   UNL A   1      34.345  22.522  23.910  1.00  0.00    -0.010 A 
ATOM     16  C   UNL A   1      35.241  23.600  23.852  1.00  0.00     0.007 A 
ATOM     17  C   UNL A   1      34.540  21.542  24.887  1.00  0.00     0.126 A 
ATOM     18  C   UNL A   1      36.282  23.701  24.776  1.00  0.00     0.000 A 
ATOM     19  C   UNL A   1      35.586  21.629  25.798  1.00  0.00     0.039 A 
ATOM     20  F   UNL A   1      33.703  20.498  24.966  1.00  0.00    -0.207 F 
ATOM     21  C   UNL A   1      36.455  22.717  25.750  1.00  0.00     0.003 A 
ENDBRANCH  14  15
ENDBRANCH  13  14
ENDBRANCH  11  13
ENDBRANCH   5   7
ENDBRANCH   3   5
ENDBRANCH   2   3
ENDBRANCH   1   2
BRANCH   1  22
ATOM     22  C   UNL A   1      31.706  29.584  25.903  1.00  0.00     0.275 C 
BRANCH  22  23
ATOM     23  O   UNL A   1      32.973  30.264  25.845  1.00  0.00    -0.458 OA
BRANCH  23  24
ATOM     24  C   UNL A   1      33.190  31.173  26.823  1.00  0.00     0.338 C 
ATOM     25  O   UNL A   1      32.421  32.027  27.232  1.00  0.00    -0.246 OA
BRANCH  24  26
ATOM     26  C   UNL A   1      34.490  30.915  27.451  1.00  0.00     0.060 A 
ATOM     27  C   UNL A   1      34.786  29.620  27.883  1.00  0.00     0.016 A 
ATOM     28  C   UNL A   1      35.366  31.969  27.701  1.00  0.00     0.016 A 
ATOM     29  C   UNL A   1      35.944  29.373  28.607  1.00  0.00     0.010 A 
ATOM     30  C   UNL A   1      36.551  31.712  28.392  1.00  0.00     0.010 A 
ATOM     31  C   UNL A   1      36.839  30.416  28.859  1.00  0.00    -0.014 A 
BRANCH  31  32
ATOM     32  C   UNL A   1      38.086  30.168  29.615  1.00  0.00     0.031 A 
ATOM     33  C   UNL A   1      39.129  29.256  29.043  1.00  0.00     0.074 A 
ATOM     34  C   UNL A   1      38.247  30.731  30.828  1.00  0.00     0.049 A 
ATOM     35  N   UNL A   1      40.167  28.725  29.628  1.00  0.00    -0.248 NA
ATOM     36  C   UNL A   1      38.983  28.888  27.623  1.00  0.00     0.031 C 
ATOM     37  C   UNL A   1      37.318  31.674  31.455  1.00  0.00     0.029 A 
ATOM     38  N   UNL A   1      39.239  30.570  31.762  1.00  0.00    -0.354 N 
ATOM     39  C   UNL A   1      40.770  27.919  28.671  1.00  0.00     0.074 A 
ATOM     40  C   UNL A   1      39.990  28.042  27.459  1.00  0.00     0.031 C 
ATOM     41  C   UNL A   1      37.776  31.996  32.675  1.00  0.00     0.029 A 
ATOM     42  C   UNL A   1      38.988  31.232  32.941  1.00  0.00     0.049 A 
ATOM     43  H   UNL A   1      40.049  30.034  31.604  1.00  0.00     0.167 HD
ATOM     44  C   UNL A   1      41.878  27.153  28.799  1.00  0.00     0.034 A 
ATOM     45  C   UNL A   1      39.640  31.189  34.120  1.00  0.00     0.034 A 
ATOM     46  C   UNL A   1      42.660  27.077  30.003  1.00  0.00     0.049 A 
ATOM     47  C   UNL A   1      40.848  30.301  34.240  1.00  0.00     0.074 A 
ATOM     48  C   UNL A   1      43.790  26.318  30.246  1.00  0.00     0.029 A 
ATOM     49  N   UNL A   1      42.403  27.797  31.159  1.00  0.00    -0.354 N 
ATOM     50  N   UNL A   1      41.414  29.550  33.326  1.00  0.00    -0.248 NA
ATOM     51  C   UNL A   1      41.513  30.261  35.549  1.00  0.00     0.031 C 
ATOM     52  C   UNL A   1      44.218  26.582  31.551  1.00  0.00     0.029 A 
ATOM     53  C   UNL A   1      43.360  27.512  32.116  1.00  0.00     0.049 A 
ATOM     54  H   UNL A   1      41.650  28.420  31.281  1.00  0.00     0.167 HD
ATOM     55  C   UNL A   1      42.518  28.972  33.939  1.00  0.00     0.074 A 
ATOM     56  C   UNL A   1      42.554  29.478  35.297  1.00  0.00     0.031 C 
ATOM     57  C   UNL A   1      43.410  28.084  33.436  1.00  0.00     0.034 A 
BRANCH  44  58
ATOM     58  C   UNL A   1      42.338  26.361  27.607  1.00  0.00     0.023 A 
ATOM     59  C   UNL A   1      43.203  26.961  26.672  1.00  0.00     0.012 A 
ATOM     60  C   UNL A   1      42.002  24.999  27.469  1.00  0.00     0.148 A 
ATOM     61  C   UNL A   1      43.722  26.220  25.610  1.00  0.00     0.002 A 
ATOM     62  C   UNL A   1      42.552  24.259  26.429  1.00  0.00     0.091 A 
ATOM     63  F   UNL A   1      41.165  24.455  28.363  1.00  0.00    -0.205 F 
ATOM     64  C   UNL A   1      43.407  24.869  25.496  1.00  0.00     0.022 A 
BRANCH  62  65
ATOM     65  S   UNL A   1      42.266  22.496  26.228  1.00  0.00     0.127 S 
ATOM     66  O   UNL A   1      43.007  22.214  24.999  1.00  0.00    -0.237 OA
ATOM     67  O   UNL A   1      42.869  21.949  27.444  1.00  0.00    -0.237 OA
ATOM     68  O   UNL A   1      40.823  22.328  26.130  1.00  0.00    -0.744 OA
ENDBRANCH  62  65
ENDBRANCH  44  58
BRANCH  45  69
ATOM     69  C   UNL A   1      39.177  32.025  35.262  1.00  0.00     0.023 A 
ATOM     70  C   UNL A   1      38.246  31.486  36.171  1.00  0.00     0.012 A 
ATOM     71  C   UNL A   1      39.669  33.328  35.479  1.00  0.00     0.148 A 
ATOM     72  C   UNL A   1      37.797  32.235  37.260  1.00  0.00     0.002 A 
ATOM     73  C   UNL A   1      39.263  34.046  36.598  1.00  0.00     0.091 A 
ATOM     74  F   UNL A   1      40.534  33.839  34.591  1.00  0.00    -0.205 F 
ATOM     75  C   UNL A   1      38.314  33.509  37.481  1.00  0.00     0.022 A 
BRANCH  73  76
ATOM     76  S   UNL A   1      39.994  35.631  37.025  1.00  0.00     0.127 S 
ATOM     77  O   UNL A   1      39.653  36.444  35.860  1.00  0.00    -0.237 OA
ATOM     78  O   UNL A   1      39.277  35.983  38.251  1.00  0.00    -0.237 OA
ATOM     79  O   UNL A   1      41.412  35.357  37.224  1.00  0.00    -0.744 OA
ENDBRANCH  73  76
ENDBRANCH  45  69
BRANCH  57  80
ATOM     80  C   UNL A   1      44.522  27.627  34.339  1.00  0.00     0.023 A 
ATOM     81  C   UNL A   1      45.690  28.404  34.450  1.00  0.00     0.012 A 
ATOM     82  C   UNL A   1      44.368  26.482  35.145  1.00  0.00     0.148 A 
ATOM     83  C   UNL A   1      46.702  28.035  35.335  1.00  0.00     0.002 A 
ATOM     84  C   UNL A   1      45.360  26.145  36.057  1.00  0.00     0.091 A 
ATOM     85  F   UNL A   1      43.256  25.744  35.007  1.00  0.00    -0.205 F 
ATOM     86  C   UNL A   1      46.531  26.915  36.147  1.00  0.00     0.022 A 
BRANCH  84  87
ATOM     87  S   UNL A   1      45.175  24.777  37.205  1.00  0.00     0.127 S 
ATOM     88  O   UNL A   1      46.513  24.693  37.788  1.00  0.00    -0.237 OA
ATOM     89  O   UNL A   1      44.143  25.269  38.118  1.00  0.00    -0.237 OA
ATOM     90  O   UNL A   1      44.766  23.636  36.396  1.00  0.00    -0.744 OA
ENDBRANCH  84  87
ENDBRANCH  57  80
ENDBRANCH  31  32
ENDBRANCH  24  26
ENDBRANCH  23  24
ENDBRANCH  22  23
ENDBRANCH   1  22
TORSDOF 18
ENDMDL
MODEL 2
REMARK VINA RESULT:     -11.4      4.857     10.043
REMARK SMILES C[C@H](NC(=O)NCCc1ccccc1F)C(=O)OCCOC(=O)c1ccc(-c2c3nc(c(-c4cccc(S(=O)(=O)[O-])c4F)c4ccc([nH]4)c(-c4cccc(S(=O)(=O)[O-])c4F)c4nc(c(-c5cccc(S(=O)(=O)[O-])c5F)c5ccc2[nH]5)C=C4)C=C3)cc1
REMARK SMILES IDX 19 1 18 2 16 3 17 4 2 5 1 6 3 7 4 8 5 10 6 11 7 13 8 14 9 15
REMARK SMILES IDX 10 16 14 17 11 18 13 19 15 20 12 21 20 22 21 23 22 24 23 25
REMARK SMILES IDX 24 26 25 27 86 28 26 29 85 30 27 31 28 32 29 33 79 34 30 35
REMARK SMILES IDX 84 36 78 37 80 38 31 39 83 40 77 41 76 42 32 44 64 45 44 46
REMARK SMILES IDX 63 47 45 48 48 49 62 50 81 51 46 52 47 53 61 55 82 56 49 57
REMARK SMILES IDX 33 58 34 59 42 60 35 61 37 62 43 63 36 64 38 65 39 66 40 67
REMARK SMILES IDX 41 68 65 69 66 70 74 71 67 72 69 73 75 74 68 75 70 76 71 77
REMARK SMILES IDX 72 78 73 79 50 80 51 81 59 82 52 83 54 84 60 85 53 86 55 87
REMARK SMILES IDX 56 88 57 89 58 90
REMARK H PARENT 3 9 6 12 80 43 48 54
REMARK Flexibility Score: inf
ROOT
ATOM      1  C   UNL A   1      34.881  21.241  25.409  1.00  0.00     0.274 C 
ENDROOT
BRANCH   1   2
ATOM      2  O   UNL A   1      34.093  21.456  24.226  1.00  0.00    -0.461 OA
BRANCH   2   3
ATOM      3  C   UNL A   1      33.920  22.746  23.831  1.00  0.00     0.328 C 
ATOM      4  O   UNL A   1      34.664  23.672  24.134  1.00  0.00    -0.250 OA
BRANCH   3   5
ATOM      5  C   UNL A   1      32.744  22.898  22.847  1.00  0.00     0.190 C 
ATOM      6  C   UNL A   1      32.052  21.581  22.515  1.00  0.00     0.043 C 
BRANCH   5   7
ATOM      7  N   UNL A   1      32.962  23.790  21.713  1.00  0.00    -0.325 N 
ATOM      8  C   UNL A   1      32.721  25.069  21.440  1.00  0.00     0.315 C 
ATOM      9  H   UNL A   1      33.395  23.328  20.959  1.00  0.00     0.166 HD
ATOM     10  O   UNL A   1      32.983  25.482  20.308  1.00  0.00    -0.249 OA
ATOM     11  N   UNL A   1      32.187  25.938  22.301  1.00  0.00    -0.338 N 
ATOM     12  H   UNL A   1      31.908  26.776  21.867  1.00  0.00     0.165 HD
BRANCH  11  13
ATOM     13  C   UNL A   1      31.925  25.935  23.727  1.00  0.00     0.122 C 
BRANCH  13  14
ATOM     14  C   UNL A   1      30.783  26.887  24.099  1.00  0.00     0.060 C 
BRANCH  14  15
ATOM     15  C   UNL A   1      31.181  27.841  25.195  1.00  0.00    -0.010 A 
ATOM     16  C   UNL A   1      31.483  27.377  26.483  1.00  0.00     0.007 A 
ATOM     17  C   UNL A   1      31.300  29.208  24.931  1.00  0.00     0.126 A 
ATOM     18  C   UNL A   1      31.925  28.263  27.466  1.00  0.00     0.000 A 
ATOM     19  C   UNL A   1      31.723  30.098  25.911  1.00  0.00     0.039 A 
ATOM     20  F   UNL A   1      31.015  29.684  23.710  1.00  0.00    -0.207 F 
ATOM     21  C   UNL A   1      32.047  29.624  27.181  1.00  0.00     0.003 A 
ENDBRANCH  14  15
ENDBRANCH  13  14
ENDBRANCH  11  13
ENDBRANCH   5   7
ENDBRANCH   3   5
ENDBRANCH   2   3
ENDBRANCH   1   2
BRANCH   1  22
ATOM     22  C   UNL A   1      36.243  20.650  25.038  1.00  0.00     0.275 C 
BRANCH  22  23
ATOM     23  O   UNL A   1      37.289  21.634  25.129  1.00  0.00    -0.458 OA
BRANCH  23  24
ATOM     24  C   UNL A   1      38.425  21.220  25.736  1.00  0.00     0.338 C 
ATOM     25  O   UNL A   1      38.908  20.100  25.732  1.00  0.00    -0.246 OA
BRANCH  24  26
ATOM     26  C   UNL A   1      39.107  22.372  26.334  1.00  0.00     0.060 A 
ATOM     27  C   UNL A   1      38.663  23.659  26.019  1.00  0.00     0.016 A 
ATOM     28  C   UNL A   1      40.242  22.182  27.119  1.00  0.00     0.016 A 
ATOM     29  C   UNL A   1      39.374  24.769  26.453  1.00  0.00     0.010 A 
ATOM     30  C   UNL A   1      40.932  23.299  27.591  1.00  0.00     0.010 A 
ATOM     31  C   UNL A   1      40.509  24.597  27.250  1.00  0.00    -0.014 A 
BRANCH  31  32
ATOM     32  C   UNL A   1      41.270  25.769  27.734  1.00  0.00     0.031 A 
ATOM     33  C   UNL A   1      40.568  26.832  28.525  1.00  0.00     0.074 A 
ATOM     34  C   UNL A   1      42.575  25.887  27.419  1.00  0.00     0.049 A 
ATOM     35  N   UNL A   1      40.978  28.030  28.838  1.00  0.00    -0.248 NA
ATOM     36  C   UNL A   1      39.222  26.504  29.027  1.00  0.00     0.031 C 
ATOM     37  C   UNL A   1      43.366  24.887  26.699  1.00  0.00     0.029 A 
ATOM     38  N   UNL A   1      43.457  26.913  27.643  1.00  0.00    -0.354 N 
ATOM     39  C   UNL A   1      39.927  28.622  29.526  1.00  0.00     0.074 A 
ATOM     40  C   UNL A   1      38.862  27.646  29.599  1.00  0.00     0.031 C 
ATOM     41  C   UNL A   1      44.613  25.355  26.527  1.00  0.00     0.029 A 
ATOM     42  C   UNL A   1      44.687  26.709  27.061  1.00  0.00     0.049 A 
ATOM     43  H   UNL A   1      43.233  27.715  28.167  1.00  0.00     0.167 HD
ATOM     44  C   UNL A   1      39.867  29.868  30.050  1.00  0.00     0.034 A 
ATOM     45  C   UNL A   1      45.739  27.541  26.934  1.00  0.00     0.034 A 
ATOM     46  C   UNL A   1      40.953  30.809  29.999  1.00  0.00     0.049 A 
ATOM     47  C   UNL A   1      45.627  28.932  27.498  1.00  0.00     0.074 A 
ATOM     48  C   UNL A   1      40.991  32.103  30.484  1.00  0.00     0.029 A 
ATOM     49  N   UNL A   1      42.197  30.550  29.445  1.00  0.00    -0.354 N 
ATOM     50  N   UNL A   1      44.631  29.478  28.154  1.00  0.00    -0.248 NA
ATOM     51  C   UNL A   1      46.785  29.816  27.313  1.00  0.00     0.031 C 
ATOM     52  C   UNL A   1      42.260  32.627  30.223  1.00  0.00     0.029 A 
ATOM     53  C   UNL A   1      43.016  31.655  29.587  1.00  0.00     0.049 A 
ATOM     54  H   UNL A   1      42.458  29.704  29.014  1.00  0.00     0.167 HD
ATOM     55  C   UNL A   1      45.054  30.758  28.487  1.00  0.00     0.074 A 
ATOM     56  C   UNL A   1      46.404  30.899  27.980  1.00  0.00     0.031 C 
ATOM     57  C   UNL A   1      44.379  31.741  29.132  1.00  0.00     0.034 A 
BRANCH  44  58
ATOM     58  C   UNL A   1      38.605  30.283  30.756  1.00  0.00     0.023 A 
ATOM     59  C   UNL A   1      38.487  30.065  32.142  1.00  0.00     0.012 A 
ATOM     60  C   UNL A   1      37.589  30.979  30.072  1.00  0.00     0.148 A 
ATOM     61  C   UNL A   1      37.370  30.527  32.839  1.00  0.00     0.002 A 
ATOM     62  C   UNL A   1      36.496  31.468  30.780  1.00  0.00     0.091 A 
ATOM     63  F   UNL A   1      37.718  31.160  28.751  1.00  0.00    -0.205 F 
ATOM     64  C   UNL A   1      36.383  31.238  32.161  1.00  0.00     0.022 A 
BRANCH  62  65
ATOM     65  S   UNL A   1      35.202  32.454  30.017  1.00  0.00     0.127 S 
ATOM     66  O   UNL A   1      34.295  32.674  31.143  1.00  0.00    -0.237 OA
ATOM     67  O   UNL A   1      35.938  33.642  29.584  1.00  0.00    -0.237 OA
ATOM     68  O   UNL A   1      34.658  31.643  28.937  1.00  0.00    -0.744 OA
ENDBRANCH  62  65
ENDBRANCH  44  58
BRANCH  45  69
ATOM     69  C   UNL A   1      46.986  27.074  26.268  1.00  0.00     0.023 A 
ATOM     70  C   UNL A   1      47.179  27.357  24.902  1.00  0.00     0.012 A 
ATOM     71  C   UNL A   1      47.995  26.388  26.973  1.00  0.00     0.148 A 
ATOM     72  C   UNL A   1      48.340  26.946  24.245  1.00  0.00     0.002 A 
ATOM     73  C   UNL A   1      49.174  26.032  26.328  1.00  0.00     0.091 A 
ATOM     74  F   UNL A   1      47.786  26.101  28.266  1.00  0.00    -0.205 F 
ATOM     75  C   UNL A   1      49.342  26.295  24.960  1.00  0.00     0.022 A 
BRANCH  73  76
ATOM     76  S   UNL A   1      50.565  25.323  27.217  1.00  0.00     0.127 S 
ATOM     77  O   UNL A   1      51.501  25.037  26.133  1.00  0.00    -0.237 OA
ATOM     78  O   UNL A   1      50.962  26.420  28.099  1.00  0.00    -0.237 OA
ATOM     79  O   UNL A   1      50.021  24.166  27.917  1.00  0.00    -0.744 OA
ENDBRANCH  73  76
ENDBRANCH  45  69
BRANCH  57  80
ATOM     80  C   UNL A   1      45.097  33.043  29.362  1.00  0.00     0.023 A 
ATOM     81  C   UNL A   1      45.964  33.173  30.463  1.00  0.00     0.012 A 
ATOM     82  C   UNL A   1      44.984  34.098  28.436  1.00  0.00     0.148 A 
ATOM     83  C   UNL A   1      46.692  34.345  30.653  1.00  0.00     0.002 A 
ATOM     84  C   UNL A   1      45.747  35.246  28.607  1.00  0.00     0.091 A 
ATOM     85  F   UNL A   1      44.135  33.961  27.406  1.00  0.00    -0.205 F 
ATOM     86  C   UNL A   1      46.594  35.375  29.719  1.00  0.00     0.022 A 
BRANCH  84  87
ATOM     87  S   UNL A   1      45.752  36.576  27.400  1.00  0.00     0.127 S 
ATOM     88  O   UNL A   1      46.471  37.627  28.116  1.00  0.00    -0.237 OA
ATOM     89  O   UNL A   1      46.490  35.984  26.283  1.00  0.00    -0.237 OA
ATOM     90  O   UNL A   1      44.350  36.853  27.112  1.00  0.00    -0.744 OA
ENDBRANCH  84  87
ENDBRANCH  57  80
ENDBRANCH  31  32
ENDBRANCH  24  26
ENDBRANCH  23  24
ENDBRANCH  22  23
ENDBRANCH   1  22
TORSDOF 18
ENDMDL
MODEL 3
REMARK VINA RESULT:     -11.3      2.178      2.813
REMARK SMILES C[C@H](NC(=O)NCCc1ccccc1F)C(=O)OCCOC(=O)c1ccc(-c2c3nc(c(-c4cccc(S(=O)(=O)[O-])c4F)c4ccc([nH]4)c(-c4cccc(S(=O)(=O)[O-])c4F)c4nc(c(-c5cccc(S(=O)(=O)[O-])c5F)c5ccc2[nH]5)C=C4)C=C3)cc1
REMARK SMILES IDX 19 1 18 2 16 3 17 4 2 5 1 6 3 7 4 8 5 10 6 11 7 13 8 14 9 15
REMARK SMILES IDX 10 16 14 17 11 18 13 19 15 20 12 21 20 22 21 23 22 24 23 25
REMARK SMILES IDX 24 26 25 27 86 28 26 29 85 30 27 31 28 32 29 33 79 34 30 35
REMARK SMILES IDX 84 36 78 37 80 38 31 39 83 40 77 41 76 42 32 44 64 45 44 46
REMARK SMILES IDX 63 47 45 48 48 49 62 50 81 51 46 52 47 53 61 55 82 56 49 57
REMARK SMILES IDX 33 58 34 59 42 60 35 61 37 62 43 63 36 64 38 65 39 66 40 67
REMARK SMILES IDX 41 68 65 69 66 70 74 71 67 72 69 73 75 74 68 75 70 76 71 77
REMARK SMILES IDX 72 78 73 79 50 80 51 81 59 82 52 83 54 84 60 85 53 86 55 87
REMARK SMILES IDX 56 88 57 89 58 90
REMARK H PARENT 3 9 6 12 80 43 48 54
REMARK Flexibility Score: inf
ROOT
ATOM      1  C   UNL A   1      31.822  28.577  27.148  1.00  0.00     0.274 C 
ENDROOT
BRANCH   1   2
ATOM      2  O   UNL A   1      31.218  27.514  26.392  1.00  0.00    -0.461 OA
BRANCH   2   3
ATOM      3  C   UNL A   1      31.989  26.419  26.153  1.00  0.00     0.328 C 
ATOM      4  O   UNL A   1      33.171  26.318  26.466  1.00  0.00    -0.250 OA
BRANCH   3   5
ATOM      5  C   UNL A   1      31.175  25.257  25.551  1.00  0.00     0.190 C 
ATOM      6  C   UNL A   1      30.492  25.610  24.235  1.00  0.00     0.043 C 
BRANCH   5   7
ATOM      7  N   UNL A   1      30.365  24.484  26.486  1.00  0.00    -0.325 N 
ATOM      8  C   UNL A   1      30.347  23.229  26.926  1.00  0.00     0.315 C 
ATOM      9  H   UNL A   1      29.652  25.027  26.893  1.00  0.00     0.166 HD
ATOM     10  O   UNL A   1      29.439  22.894  27.690  1.00  0.00    -0.249 OA
ATOM     11  N   UNL A   1      31.231  22.292  26.578  1.00  0.00    -0.338 N 
ATOM     12  H   UNL A   1      30.949  21.388  26.846  1.00  0.00     0.165 HD
BRANCH  11  13
ATOM     13  C   UNL A   1      32.511  22.297  25.897  1.00  0.00     0.122 C 
BRANCH  13  14
ATOM     14  C   UNL A   1      32.372  21.925  24.417  1.00  0.00     0.060 C 
BRANCH  14  15
ATOM     15  C   UNL A   1      32.564  20.449  24.188  1.00  0.00    -0.010 A 
ATOM     16  C   UNL A   1      33.030  19.613  25.214  1.00  0.00     0.007 A 
ATOM     17  C   UNL A   1      32.236  19.877  22.956  1.00  0.00     0.126 A 
ATOM     18  C   UNL A   1      33.129  18.236  25.010  1.00  0.00     0.000 A 
ATOM     19  C   UNL A   1      32.348  18.508  22.743  1.00  0.00     0.039 A 
ATOM     20  F   UNL A   1      31.790  20.650  21.955  1.00  0.00    -0.207 F 
ATOM     21  C   UNL A   1      32.786  17.682  23.776  1.00  0.00     0.003 A 
ENDBRANCH  14  15
ENDBRANCH  13  14
ENDBRANCH  11  13
ENDBRANCH   5   7
ENDBRANCH   3   5
ENDBRANCH   2   3
ENDBRANCH   1   2
BRANCH   1  22
ATOM     22  C   UNL A   1      31.980  29.825  26.275  1.00  0.00     0.275 C 
BRANCH  22  23
ATOM     23  O   UNL A   1      33.342  30.289  26.259  1.00  0.00    -0.458 OA
BRANCH  23  24
ATOM     24  C   UNL A   1      33.654  31.209  27.201  1.00  0.00     0.338 C 
ATOM     25  O   UNL A   1      32.946  32.103  27.634  1.00  0.00    -0.246 OA
BRANCH  24  26
ATOM     26  C   UNL A   1      34.978  30.911  27.755  1.00  0.00     0.060 A 
ATOM     27  C   UNL A   1      35.254  29.610  28.183  1.00  0.00     0.016 A 
ATOM     28  C   UNL A   1      35.903  31.935  27.945  1.00  0.00     0.016 A 
ATOM     29  C   UNL A   1      36.443  29.329  28.843  1.00  0.00     0.010 A 
ATOM     30  C   UNL A   1      37.116  31.643  28.569  1.00  0.00     0.010 A 
ATOM     31  C   UNL A   1      37.386  30.342  29.032  1.00  0.00    -0.014 A 
BRANCH  31  32
ATOM     32  C   UNL A   1      38.665  30.057  29.719  1.00  0.00     0.031 A 
ATOM     33  C   UNL A   1      39.634  29.092  29.105  1.00  0.00     0.074 A 
ATOM     34  C   UNL A   1      38.921  30.635  30.908  1.00  0.00     0.049 A 
ATOM     35  N   UNL A   1      40.684  28.529  29.639  1.00  0.00    -0.248 NA
ATOM     36  C   UNL A   1      39.389  28.704  27.705  1.00  0.00     0.031 C 
ATOM     37  C   UNL A   1      38.069  31.627  31.569  1.00  0.00     0.029 A 
ATOM     38  N   UNL A   1      39.959  30.450  31.785  1.00  0.00    -0.354 N 
ATOM     39  C   UNL A   1      41.196  27.682  28.665  1.00  0.00     0.074 A 
ATOM     40  C   UNL A   1      40.350  27.814  27.499  1.00  0.00     0.031 C 
ATOM     41  C   UNL A   1      38.612  31.952  32.752  1.00  0.00     0.029 A 
ATOM     42  C   UNL A   1      39.806  31.144  32.963  1.00  0.00     0.049 A 
ATOM     43  H   UNL A   1      40.736  29.879  31.590  1.00  0.00     0.167 HD
ATOM     44  C   UNL A   1      42.277  26.873  28.744  1.00  0.00     0.034 A 
ATOM     45  C   UNL A   1      40.525  31.097  34.101  1.00  0.00     0.034 A 
ATOM     46  C   UNL A   1      43.127  26.787  29.901  1.00  0.00     0.049 A 
ATOM     47  C   UNL A   1      41.702  30.161  34.169  1.00  0.00     0.074 A 
ATOM     48  C   UNL A   1      44.238  25.987  30.093  1.00  0.00     0.029 A 
ATOM     49  N   UNL A   1      42.968  27.539  31.055  1.00  0.00    -0.354 N 
ATOM     50  N   UNL A   1      42.181  29.371  33.239  1.00  0.00    -0.248 NA
ATOM     51  C   UNL A   1      42.442  30.119  35.437  1.00  0.00     0.031 C 
ATOM     52  C   UNL A   1      44.753  26.257  31.364  1.00  0.00     0.029 A 
ATOM     53  C   UNL A   1      43.968  27.233  31.959  1.00  0.00     0.049 A 
ATOM     54  H   UNL A   1      42.249  28.194  31.208  1.00  0.00     0.167 HD
ATOM     55  C   UNL A   1      43.296  28.760  33.798  1.00  0.00     0.074 A 
ATOM     56  C   UNL A   1      43.434  29.289  35.141  1.00  0.00     0.031 C 
ATOM     57  C   UNL A   1      44.120  27.826  33.262  1.00  0.00     0.034 A 
BRANCH  44  58
ATOM     58  C   UNL A   1      42.633  26.041  27.544  1.00  0.00     0.023 A 
ATOM     59  C   UNL A   1      43.512  26.565  26.576  1.00  0.00     0.012 A 
ATOM     60  C   UNL A   1      42.186  24.709  27.428  1.00  0.00     0.148 A 
ATOM     61  C   UNL A   1      43.935  25.780  25.504  1.00  0.00     0.002 A 
ATOM     62  C   UNL A   1      42.640  23.922  26.376  1.00  0.00     0.091 A 
ATOM     63  F   UNL A   1      41.338  24.239  28.352  1.00  0.00    -0.205 F 
ATOM     64  C   UNL A   1      43.510  24.457  25.411  1.00  0.00     0.022 A 
BRANCH  62  65
ATOM     65  S   UNL A   1      42.209  22.186  26.199  1.00  0.00     0.127 S 
ATOM     66  O   UNL A   1      40.755  22.257  26.048  1.00  0.00    -0.237 OA
ATOM     67  O   UNL A   1      42.932  21.815  24.982  1.00  0.00    -0.237 OA
ATOM     68  O   UNL A   1      42.671  21.528  27.413  1.00  0.00    -0.744 OA
ENDBRANCH  62  65
ENDBRANCH  44  58
BRANCH  45  69
ATOM     69  C   UNL A   1      40.165  31.972  35.251  1.00  0.00     0.023 A 
ATOM     70  C   UNL A   1      40.799  33.223  35.384  1.00  0.00     0.012 A 
ATOM     71  C   UNL A   1      39.184  31.600  36.191  1.00  0.00     0.148 A 
ATOM     72  C   UNL A   1      40.481  34.075  36.442  1.00  0.00     0.002 A 
ATOM     73  C   UNL A   1      38.829  32.478  37.209  1.00  0.00     0.091 A 
ATOM     74  F   UNL A   1      38.608  30.396  36.069  1.00  0.00    -0.205 F 
ATOM     75  C   UNL A   1      39.487  33.709  37.346  1.00  0.00     0.022 A 
BRANCH  73  76
ATOM     76  S   UNL A   1      37.460  32.138  38.322  1.00  0.00     0.127 S 
ATOM     77  O   UNL A   1      37.985  32.613  39.600  1.00  0.00    -0.237 OA
ATOM     78  O   UNL A   1      36.387  32.956  37.756  1.00  0.00    -0.237 OA
ATOM     79  O   UNL A   1      37.230  30.702  38.217  1.00  0.00    -0.744 OA
ENDBRANCH  73  76
ENDBRANCH  45  69
BRANCH  57  80
ATOM     80  C   UNL A   1      45.265  27.340  34.108  1.00  0.00     0.023 A 
ATOM     81  C   UNL A   1      46.485  28.041  34.092  1.00  0.00     0.012 A 
ATOM     82  C   UNL A   1      45.098  26.250  34.984  1.00  0.00     0.148 A 
ATOM     83  C   UNL A   1      47.534  27.649  34.921  1.00  0.00     0.002 A 
ATOM     84  C   UNL A   1      46.133  25.894  35.840  1.00  0.00     0.091 A 
ATOM     85  F   UNL A   1      43.934  25.584  34.966  1.00  0.00    -0.205 F 
ATOM     86  C   UNL A   1      47.354  26.585  35.804  1.00  0.00     0.022 A 
BRANCH  84  87
ATOM     87  S   UNL A   1      45.947  24.600  37.072  1.00  0.00     0.127 S 
ATOM     88  O   UNL A   1      44.878  25.138  37.911  1.00  0.00    -0.237 OA
ATOM     89  O   UNL A   1      45.561  23.445  36.261  1.00  0.00    -0.237 OA
ATOM     90  O   UNL A   1      47.250  24.475  37.712  1.00  0.00    -0.744 OA
ENDBRANCH  84  87
ENDBRANCH  57  80
ENDBRANCH  31  32
ENDBRANCH  24  26
ENDBRANCH  23  24
ENDBRANCH  22  23
ENDBRANCH   1  22
TORSDOF 18
ENDMDL
