MODEL 1
REMARK VINA RESULT:     -11.7      0.000      0.000
REMARK SMILES Cc1cc(OCC(=O)Nc2sccc2C(=O)OCCOC(=O)c2ccc(-c3c4nc(c(-c5cccc(S(=O)(=O)[O-])c5F)c5ccc([nH]5)c(-c5cccc(S(=O)(=O)[O-])c5F)c5nc(c(-c6cccc(S(=O)(=O)[O-])c6F)c6ccc3[nH]6)C=C5)C=C4)cc2)ccc1Cl
REMARK SMILES IDX 18 1 17 2 15 3 16 4 14 5 10 6 11 7 12 8 13 9 9 10 7 11 8 12
REMARK SMILES IDX 6 14 5 15 4 16 1 17 2 18 3 19 88 20 87 21 89 22 86 23 19 24
REMARK SMILES IDX 20 25 21 26 22 27 23 28 24 29 85 30 25 31 84 32 26 33 27 34
REMARK SMILES IDX 28 35 78 36 29 37 83 38 77 39 79 40 30 41 82 42 76 43 75 44
REMARK SMILES IDX 31 46 63 47 43 48 62 49 44 50 47 51 61 52 80 53 45 54 46 55
REMARK SMILES IDX 60 57 81 58 48 59 32 60 33 61 41 62 34 63 36 64 42 65 35 66
REMARK SMILES IDX 37 67 38 68 39 69 40 70 64 71 65 72 73 73 66 74 68 75 74 76
REMARK SMILES IDX 67 77 69 78 70 79 71 80 72 81 49 82 50 83 58 84 51 85 53 86
REMARK SMILES IDX 59 87 52 88 54 89 55 90 56 91 57 92
REMARK H PARENT 9 13 79 45 47 56
REMARK Flexibility Score: inf
ROOT
ATOM      1  C   UNL A   1      36.164  20.274  24.999  1.00  0.00     0.275 C 
ENDROOT
BRANCH   1   2
ATOM      2  O   UNL A   1      35.821  21.334  25.913  1.00  0.00    -0.458 OA
BRANCH   2   3
ATOM      3  C   UNL A   1      35.354  22.504  25.383  1.00  0.00     0.341 C 
ATOM      4  O   UNL A   1      35.885  23.125  24.472  1.00  0.00    -0.246 OA
BRANCH   3   5
ATOM      5  C   UNL A   1      34.081  22.904  25.975  1.00  0.00     0.094 A 
ATOM      6  C   UNL A   1      33.006  22.070  26.205  1.00  0.00     0.110 A 
ATOM      7  S   UNL A   1      31.551  22.919  26.461  1.00  0.00    -0.126 S 
ATOM      8  C   UNL A   1      32.380  24.406  26.580  1.00  0.00     0.068 A 
ATOM      9  C   UNL A   1      33.728  24.253  26.336  1.00  0.00     0.029 A 
BRANCH   6  10
ATOM     10  N   UNL A   1      32.829  20.713  26.194  1.00  0.00    -0.314 N 
ATOM     11  C   UNL A   1      32.503  19.905  25.143  1.00  0.00     0.262 C 
ATOM     12  O   UNL A   1      32.182  18.738  25.403  1.00  0.00    -0.271 OA
ATOM     13  H   UNL A   1      32.955  20.259  27.059  1.00  0.00     0.170 HD
BRANCH  11  14
ATOM     14  C   UNL A   1      32.757  20.342  23.674  1.00  0.00     0.329 C 
BRANCH  14  15
ATOM     15  O   UNL A   1      31.843  21.035  22.857  1.00  0.00    -0.484 OA
BRANCH  15  16
ATOM     16  C   UNL A   1      31.902  22.390  22.727  1.00  0.00     0.120 A 
ATOM     17  C   UNL A   1      30.143  25.571  23.806  1.00  0.00     0.046 C 
ATOM     18  C   UNL A   1      31.186  24.674  23.199  1.00  0.00    -0.029 A 
ATOM     19  C   UNL A   1      30.907  23.296  23.089  1.00  0.00     0.051 A 
ATOM     20  C   UNL A   1      32.468  25.135  22.868  1.00  0.00     0.044 A 
ATOM     21  C   UNL A   1      33.434  24.247  22.395  1.00  0.00     0.024 A 
ATOM     22  Cl  UNL A   1      32.926  26.784  23.102  1.00  0.00    -0.084 Cl
ATOM     23  C   UNL A   1      33.149  22.880  22.327  1.00  0.00     0.048 A 
ENDBRANCH  15  16
ENDBRANCH  14  15
ENDBRANCH  11  14
ENDBRANCH   6  10
ENDBRANCH   3   5
ENDBRANCH   2   3
ENDBRANCH   1   2
BRANCH   1  24
ATOM     24  C   UNL A   1      37.652  19.950  24.915  1.00  0.00     0.275 C 
BRANCH  24  25
ATOM     25  O   UNL A   1      38.421  21.118  25.238  1.00  0.00    -0.458 OA
BRANCH  25  26
ATOM     26  C   UNL A   1      39.436  20.869  26.090  1.00  0.00     0.338 C 
ATOM     27  O   UNL A   1      40.058  19.821  26.188  1.00  0.00    -0.246 OA
BRANCH  26  28
ATOM     28  C   UNL A   1      39.849  22.106  26.774  1.00  0.00     0.060 A 
ATOM     29  C   UNL A   1      39.266  23.283  26.294  1.00  0.00     0.016 A 
ATOM     30  C   UNL A   1      40.805  22.147  27.792  1.00  0.00     0.016 A 
ATOM     31  C   UNL A   1      39.676  24.513  26.774  1.00  0.00     0.010 A 
ATOM     32  C   UNL A   1      41.241  23.390  28.260  1.00  0.00     0.010 A 
ATOM     33  C   UNL A   1      40.714  24.571  27.706  1.00  0.00    -0.014 A 
BRANCH  33  34
ATOM     34  C   UNL A   1      41.407  25.867  27.857  1.00  0.00     0.031 A 
ATOM     35  C   UNL A   1      40.697  26.953  28.618  1.00  0.00     0.074 A 
ATOM     36  C   UNL A   1      42.676  26.020  27.446  1.00  0.00     0.049 A 
ATOM     37  N   UNL A   1      41.096  28.163  28.899  1.00  0.00    -0.248 NA
ATOM     38  C   UNL A   1      39.359  26.624  29.142  1.00  0.00     0.031 C 
ATOM     39  C   UNL A   1      43.472  24.996  26.771  1.00  0.00     0.029 A 
ATOM     40  N   UNL A   1      43.520  27.093  27.550  1.00  0.00    -0.354 N 
ATOM     41  C   UNL A   1      40.042  28.753  29.588  1.00  0.00     0.074 A 
ATOM     42  C   UNL A   1      38.989  27.770  29.690  1.00  0.00     0.031 C 
ATOM     43  C   UNL A   1      44.693  25.496  26.512  1.00  0.00     0.029 A 
ATOM     44  C   UNL A   1      44.750  26.881  26.976  1.00  0.00     0.049 A 
ATOM     45  H   UNL A   1      43.270  27.936  27.994  1.00  0.00     0.167 HD
ATOM     46  C   UNL A   1      39.967  30.000  30.104  1.00  0.00     0.034 A 
ATOM     47  C   UNL A   1      45.791  27.722  26.830  1.00  0.00     0.034 A 
ATOM     48  C   UNL A   1      41.041  30.950  30.039  1.00  0.00     0.049 A 
ATOM     49  C   UNL A   1      45.676  29.114  27.394  1.00  0.00     0.074 A 
ATOM     50  C   UNL A   1      41.081  32.242  30.528  1.00  0.00     0.029 A 
ATOM     51  N   UNL A   1      42.272  30.701  29.451  1.00  0.00    -0.354 N 
ATOM     52  N   UNL A   1      44.691  29.649  28.077  1.00  0.00    -0.248 NA
ATOM     53  C   UNL A   1      46.819  30.014  27.186  1.00  0.00     0.031 C 
ATOM     54  C   UNL A   1      42.338  32.778  30.226  1.00  0.00     0.029 A 
ATOM     55  C   UNL A   1      43.082  31.815  29.560  1.00  0.00     0.049 A 
ATOM     56  H   UNL A   1      42.531  29.854  29.018  1.00  0.00     0.167 HD
ATOM     57  C   UNL A   1      45.098  30.940  28.392  1.00  0.00     0.074 A 
ATOM     58  C   UNL A   1      46.434  31.095  27.851  1.00  0.00     0.031 C 
ATOM     59  C   UNL A   1      44.426  31.917  29.049  1.00  0.00     0.034 A 
BRANCH  46  60
ATOM     60  C   UNL A   1      38.683  30.389  30.783  1.00  0.00     0.023 A 
ATOM     61  C   UNL A   1      38.465  30.028  32.128  1.00  0.00     0.012 A 
ATOM     62  C   UNL A   1      37.694  31.114  30.092  1.00  0.00     0.148 A 
ATOM     63  C   UNL A   1      37.268  30.357  32.764  1.00  0.00     0.002 A 
ATOM     64  C   UNL A   1      36.518  31.469  30.744  1.00  0.00     0.091 A 
ATOM     65  F   UNL A   1      37.905  31.415  28.802  1.00  0.00    -0.205 F 
ATOM     66  C   UNL A   1      36.301  31.084  32.077  1.00  0.00     0.022 A 
BRANCH  64  67
ATOM     67  S   UNL A   1      35.243  32.455  29.953  1.00  0.00     0.127 S 
ATOM     68  O   UNL A   1      34.801  31.564  28.883  1.00  0.00    -0.237 OA
ATOM     69  O   UNL A   1      34.274  32.637  31.034  1.00  0.00    -0.237 OA
ATOM     70  O   UNL A   1      35.901  33.681  29.521  1.00  0.00    -0.744 OA
ENDBRANCH  64  67
ENDBRANCH  46  60
BRANCH  47  71
ATOM     71  C   UNL A   1      47.031  27.255  26.145  1.00  0.00     0.023 A 
ATOM     72  C   UNL A   1      47.241  27.569  24.790  1.00  0.00     0.012 A 
ATOM     73  C   UNL A   1      48.028  26.548  26.847  1.00  0.00     0.148 A 
ATOM     74  C   UNL A   1      48.415  27.178  24.143  1.00  0.00     0.002 A 
ATOM     75  C   UNL A   1      49.218  26.213  26.214  1.00  0.00     0.091 A 
ATOM     76  F   UNL A   1      47.798  26.230  28.129  1.00  0.00    -0.205 F 
ATOM     77  C   UNL A   1      49.409  26.515  24.858  1.00  0.00     0.022 A 
BRANCH  75  78
ATOM     78  S   UNL A   1      50.600  25.487  27.105  1.00  0.00     0.127 S 
ATOM     79  O   UNL A   1      51.604  25.365  26.051  1.00  0.00    -0.237 OA
ATOM     80  O   UNL A   1      50.887  26.509  28.113  1.00  0.00    -0.237 OA
ATOM     81  O   UNL A   1      50.094  24.237  27.653  1.00  0.00    -0.744 OA
ENDBRANCH  75  78
ENDBRANCH  47  71
BRANCH  59  82
ATOM     82  C   UNL A   1      45.122  33.238  29.222  1.00  0.00     0.023 A 
ATOM     83  C   UNL A   1      45.978  33.427  30.325  1.00  0.00     0.012 A 
ATOM     84  C   UNL A   1      45.005  34.251  28.251  1.00  0.00     0.148 A 
ATOM     85  C   UNL A   1      46.689  34.616  30.471  1.00  0.00     0.002 A 
ATOM     86  C   UNL A   1      45.748  35.416  28.382  1.00  0.00     0.091 A 
ATOM     87  F   UNL A   1      44.169  34.057  27.220  1.00  0.00    -0.205 F 
ATOM     88  C   UNL A   1      46.585  35.605  29.495  1.00  0.00     0.022 A 
BRANCH  86  89
ATOM     89  S   UNL A   1      45.739  36.698  27.124  1.00  0.00     0.127 S 
ATOM     90  O   UNL A   1      46.596  37.716  27.728  1.00  0.00    -0.237 OA
ATOM     91  O   UNL A   1      46.327  36.012  25.971  1.00  0.00    -0.237 OA
ATOM     92  O   UNL A   1      44.342  37.071  26.950  1.00  0.00    -0.744 OA
ENDBRANCH  86  89
ENDBRANCH  59  82
ENDBRANCH  33  34
ENDBRANCH  26  28
ENDBRANCH  25  26
ENDBRANCH  24  25
ENDBRANCH   1  24
TORSDOF 18
ENDMDL
MODEL 2
REMARK VINA RESULT:     -11.3      1.204      7.977
REMARK SMILES Cc1cc(OCC(=O)Nc2sccc2C(=O)OCCOC(=O)c2ccc(-c3c4nc(c(-c5cccc(S(=O)(=O)[O-])c5F)c5ccc([nH]5)c(-c5cccc(S(=O)(=O)[O-])c5F)c5nc(c(-c6cccc(S(=O)(=O)[O-])c6F)c6ccc3[nH]6)C=C5)C=C4)cc2)ccc1Cl
REMARK SMILES IDX 18 1 17 2 15 3 16 4 14 5 10 6 11 7 12 8 13 9 9 10 7 11 8 12
REMARK SMILES IDX 6 14 5 15 4 16 1 17 2 18 3 19 88 20 87 21 89 22 86 23 19 24
REMARK SMILES IDX 20 25 21 26 22 27 23 28 24 29 85 30 25 31 84 32 26 33 27 34
REMARK SMILES IDX 28 35 78 36 29 37 83 38 77 39 79 40 30 41 82 42 76 43 75 44
REMARK SMILES IDX 31 46 63 47 43 48 62 49 44 50 47 51 61 52 80 53 45 54 46 55
REMARK SMILES IDX 60 57 81 58 48 59 32 60 33 61 41 62 34 63 36 64 42 65 35 66
REMARK SMILES IDX 37 67 38 68 39 69 40 70 64 71 65 72 73 73 66 74 68 75 74 76
REMARK SMILES IDX 67 77 69 78 70 79 71 80 72 81 49 82 50 83 58 84 51 85 53 86
REMARK SMILES IDX 59 87 52 88 54 89 55 90 56 91 57 92
REMARK H PARENT 9 13 79 45 47 56
REMARK Flexibility Score: inf
ROOT
ATOM      1  C   UNL A   1      36.052  21.072  25.017  1.00  0.00     0.275 C 
ENDROOT
BRANCH   1   2
ATOM      2  O   UNL A   1      35.839  22.492  24.895  1.00  0.00    -0.458 OA
BRANCH   2   3
ATOM      3  C   UNL A   1      35.692  23.008  23.638  1.00  0.00     0.341 C 
ATOM      4  O   UNL A   1      36.528  22.941  22.747  1.00  0.00    -0.246 OA
BRANCH   3   5
ATOM      5  C   UNL A   1      34.368  23.589  23.437  1.00  0.00     0.094 A 
ATOM      6  C   UNL A   1      33.178  22.891  23.433  1.00  0.00     0.110 A 
ATOM      7  S   UNL A   1      31.899  23.764  22.722  1.00  0.00    -0.126 S 
ATOM      8  C   UNL A   1      32.827  25.197  22.691  1.00  0.00     0.068 A 
ATOM      9  C   UNL A   1      34.113  24.974  23.132  1.00  0.00     0.029 A 
BRANCH   6  10
ATOM     10  N   UNL A   1      32.811  21.624  23.799  1.00  0.00    -0.314 N 
ATOM     11  C   UNL A   1      32.195  21.214  24.947  1.00  0.00     0.262 C 
ATOM     12  O   UNL A   1      32.154  19.996  25.163  1.00  0.00    -0.271 OA
ATOM     13  H   UNL A   1      33.017  20.915  23.148  1.00  0.00     0.170 HD
BRANCH  11  14
ATOM     14  C   UNL A   1      31.369  22.196  25.821  1.00  0.00     0.329 C 
BRANCH  14  15
ATOM     15  O   UNL A   1      31.903  23.149  26.709  1.00  0.00    -0.484 OA
BRANCH  15  16
ATOM     16  C   UNL A   1      31.760  24.485  26.480  1.00  0.00     0.120 A 
ATOM     17  C   UNL A   1      33.769  27.632  25.821  1.00  0.00     0.046 C 
ATOM     18  C   UNL A   1      32.579  26.723  25.963  1.00  0.00    -0.029 A 
ATOM     19  C   UNL A   1      32.774  25.439  26.510  1.00  0.00     0.051 A 
ATOM     20  C   UNL A   1      31.318  27.057  25.447  1.00  0.00     0.044 A 
ATOM     21  C   UNL A   1      30.267  26.143  25.519  1.00  0.00     0.024 A 
ATOM     22  Cl  UNL A   1      31.037  28.558  24.643  1.00  0.00    -0.084 Cl
ATOM     23  C   UNL A   1      30.490  24.863  26.033  1.00  0.00     0.048 A 
ENDBRANCH  15  16
ENDBRANCH  14  15
ENDBRANCH  11  14
ENDBRANCH   6  10
ENDBRANCH   3   5
ENDBRANCH   2   3
ENDBRANCH   1   2
BRANCH   1  24
ATOM     24  C   UNL A   1      37.511  20.629  24.963  1.00  0.00     0.275 C 
BRANCH  24  25
ATOM     25  O   UNL A   1      38.364  21.739  25.279  1.00  0.00    -0.458 OA
BRANCH  25  26
ATOM     26  C   UNL A   1      39.388  21.408  26.093  1.00  0.00     0.338 C 
ATOM     27  O   UNL A   1      40.013  20.358  26.079  1.00  0.00    -0.246 OA
BRANCH  26  28
ATOM     28  C   UNL A   1      39.804  22.571  26.895  1.00  0.00     0.060 A 
ATOM     29  C   UNL A   1      39.091  23.750  26.661  1.00  0.00     0.016 A 
ATOM     30  C   UNL A   1      40.876  22.551  27.791  1.00  0.00     0.016 A 
ATOM     31  C   UNL A   1      39.478  24.934  27.262  1.00  0.00     0.010 A 
ATOM     32  C   UNL A   1      41.287  23.751  28.379  1.00  0.00     0.010 A 
ATOM     33  C   UNL A   1      40.619  24.949  28.066  1.00  0.00    -0.014 A 
BRANCH  33  34
ATOM     34  C   UNL A   1      41.241  26.264  28.321  1.00  0.00     0.031 A 
ATOM     35  C   UNL A   1      42.607  26.514  27.743  1.00  0.00     0.074 A 
ATOM     36  C   UNL A   1      40.554  27.244  28.930  1.00  0.00     0.049 A 
ATOM     37  N   UNL A   1      43.353  27.582  27.810  1.00  0.00    -0.248 NA
ATOM     38  C   UNL A   1      43.209  25.408  26.974  1.00  0.00     0.031 C 
ATOM     39  C   UNL A   1      39.195  27.120  29.453  1.00  0.00     0.029 A 
ATOM     40  N   UNL A   1      40.905  28.540  29.199  1.00  0.00    -0.354 N 
ATOM     41  C   UNL A   1      44.527  27.262  27.137  1.00  0.00     0.074 A 
ATOM     42  C   UNL A   1      44.396  25.905  26.662  1.00  0.00     0.031 C 
ATOM     43  C   UNL A   1      38.826  28.296  29.989  1.00  0.00     0.029 A 
ATOM     44  C   UNL A   1      39.935  29.241  29.874  1.00  0.00     0.049 A 
ATOM     45  H   UNL A   1      41.768  28.932  28.933  1.00  0.00     0.167 HD
ATOM     46  C   UNL A   1      45.611  28.039  26.921  1.00  0.00     0.034 A 
ATOM     47  C   UNL A   1      39.957  30.498  30.357  1.00  0.00     0.034 A 
ATOM     48  C   UNL A   1      45.708  29.403  27.356  1.00  0.00     0.049 A 
ATOM     49  C   UNL A   1      41.185  31.337  30.123  1.00  0.00     0.074 A 
ATOM     50  C   UNL A   1      46.756  30.289  27.192  1.00  0.00     0.029 A 
ATOM     51  N   UNL A   1      44.707  30.082  28.037  1.00  0.00    -0.354 N 
ATOM     52  N   UNL A   1      42.273  31.039  29.453  1.00  0.00    -0.248 NA
ATOM     53  C   UNL A   1      41.185  32.692  30.693  1.00  0.00     0.031 C 
ATOM     54  C   UNL A   1      46.390  31.503  27.784  1.00  0.00     0.029 A 
ATOM     55  C   UNL A   1      45.110  31.375  28.305  1.00  0.00     0.049 A 
ATOM     56  H   UNL A   1      43.836  29.697  28.291  1.00  0.00     0.167 HD
ATOM     57  C   UNL A   1      43.081  32.168  29.508  1.00  0.00     0.074 A 
ATOM     58  C   UNL A   1      42.342  33.169  30.252  1.00  0.00     0.031 C 
ATOM     59  C   UNL A   1      44.328  32.359  29.009  1.00  0.00     0.034 A 
BRANCH  46  60
ATOM     60  C   UNL A   1      46.764  27.423  26.178  1.00  0.00     0.023 A 
ATOM     61  C   UNL A   1      46.790  27.460  24.770  1.00  0.00     0.012 A 
ATOM     62  C   UNL A   1      47.823  26.809  26.874  1.00  0.00     0.148 A 
ATOM     63  C   UNL A   1      47.838  26.869  24.064  1.00  0.00     0.002 A 
ATOM     64  C   UNL A   1      48.882  26.252  26.164  1.00  0.00     0.091 A 
ATOM     65  F   UNL A   1      47.761  26.750  28.212  1.00  0.00    -0.205 F 
ATOM     66  C   UNL A   1      48.887  26.274  24.761  1.00  0.00     0.022 A 
BRANCH  64  67
ATOM     67  S   UNL A   1      50.302  25.517  26.981  1.00  0.00     0.127 S 
ATOM     68  O   UNL A   1      51.197  25.269  25.853  1.00  0.00    -0.237 OA
ATOM     69  O   UNL A   1      50.735  26.589  27.878  1.00  0.00    -0.237 OA
ATOM     70  O   UNL A   1      49.799  24.330  27.660  1.00  0.00    -0.744 OA
ENDBRANCH  64  67
ENDBRANCH  46  60
BRANCH  47  71
ATOM     71  C   UNL A   1      38.768  31.034  31.081  1.00  0.00     0.023 A 
ATOM     72  C   UNL A   1      38.670  30.877  32.476  1.00  0.00     0.012 A 
ATOM     73  C   UNL A   1      37.762  31.748  30.399  1.00  0.00     0.148 A 
ATOM     74  C   UNL A   1      37.587  31.410  33.177  1.00  0.00     0.002 A 
ATOM     75  C   UNL A   1      36.717  32.325  31.110  1.00  0.00     0.091 A 
ATOM     76  F   UNL A   1      37.854  31.862  29.067  1.00  0.00    -0.205 F 
ATOM     77  C   UNL A   1      36.620  32.147  32.498  1.00  0.00     0.022 A 
BRANCH  75  78
ATOM     78  S   UNL A   1      35.514  33.407  30.327  1.00  0.00     0.127 S 
ATOM     79  O   UNL A   1      34.490  32.457  29.902  1.00  0.00    -0.237 OA
ATOM     80  O   UNL A   1      35.122  34.282  31.432  1.00  0.00    -0.237 OA
ATOM     81  O   UNL A   1      36.239  34.084  29.261  1.00  0.00    -0.744 OA
ENDBRANCH  75  78
ENDBRANCH  47  71
BRANCH  59  82
ATOM     82  C   UNL A   1      44.970  33.697  29.248  1.00  0.00     0.023 A 
ATOM     83  C   UNL A   1      45.770  33.884  30.393  1.00  0.00     0.012 A 
ATOM     84  C   UNL A   1      44.860  34.732  28.300  1.00  0.00     0.148 A 
ATOM     85  C   UNL A   1      46.431  35.092  30.601  1.00  0.00     0.002 A 
ATOM     86  C   UNL A   1      45.556  35.917  28.494  1.00  0.00     0.091 A 
ATOM     87  F   UNL A   1      44.077  34.538  27.227  1.00  0.00    -0.205 F 
ATOM     88  C   UNL A   1      46.336  36.103  29.647  1.00  0.00     0.022 A 
BRANCH  86  89
ATOM     89  S   UNL A   1      45.558  37.232  27.270  1.00  0.00     0.127 S 
ATOM     90  O   UNL A   1      44.133  37.365  26.972  1.00  0.00    -0.237 OA
ATOM     91  O   UNL A   1      46.133  38.355  28.013  1.00  0.00    -0.237 OA
ATOM     92  O   UNL A   1      46.389  36.751  26.175  1.00  0.00    -0.744 OA
ENDBRANCH  86  89
ENDBRANCH  59  82
ENDBRANCH  33  34
ENDBRANCH  26  28
ENDBRANCH  25  26
ENDBRANCH  24  25
ENDBRANCH   1  24
TORSDOF 18
ENDMDL
MODEL 3
REMARK VINA RESULT:     -11.3      4.947      7.908
REMARK SMILES Cc1cc(OCC(=O)Nc2sccc2C(=O)OCCOC(=O)c2ccc(-c3c4nc(c(-c5cccc(S(=O)(=O)[O-])c5F)c5ccc([nH]5)c(-c5cccc(S(=O)(=O)[O-])c5F)c5nc(c(-c6cccc(S(=O)(=O)[O-])c6F)c6ccc3[nH]6)C=C5)C=C4)cc2)ccc1Cl
REMARK SMILES IDX 18 1 17 2 15 3 16 4 14 5 10 6 11 7 12 8 13 9 9 10 7 11 8 12
REMARK SMILES IDX 6 14 5 15 4 16 1 17 2 18 3 19 88 20 87 21 89 22 86 23 19 24
REMARK SMILES IDX 20 25 21 26 22 27 23 28 24 29 85 30 25 31 84 32 26 33 27 34
REMARK SMILES IDX 28 35 78 36 29 37 83 38 77 39 79 40 30 41 82 42 76 43 75 44
REMARK SMILES IDX 31 46 63 47 43 48 62 49 44 50 47 51 61 52 80 53 45 54 46 55
REMARK SMILES IDX 60 57 81 58 48 59 32 60 33 61 41 62 34 63 36 64 42 65 35 66
REMARK SMILES IDX 37 67 38 68 39 69 40 70 64 71 65 72 73 73 66 74 68 75 74 76
REMARK SMILES IDX 67 77 69 78 70 79 71 80 72 81 49 82 50 83 58 84 51 85 53 86
REMARK SMILES IDX 59 87 52 88 54 89 55 90 56 91 57 92
REMARK H PARENT 9 13 79 45 47 56
REMARK Flexibility Score: inf
ROOT
ATOM      1  C   UNL A   1      31.789  29.904  25.615  1.00  0.00     0.275 C 
ENDROOT
BRANCH   1   2
ATOM      2  O   UNL A   1      33.059  29.545  25.037  1.00  0.00    -0.458 OA
BRANCH   2   3
ATOM      3  C   UNL A   1      33.435  28.232  25.091  1.00  0.00     0.341 C 
ATOM      4  O   UNL A   1      34.091  27.724  25.991  1.00  0.00    -0.246 OA
BRANCH   3   5
ATOM      5  C   UNL A   1      32.889  27.461  23.979  1.00  0.00     0.094 A 
ATOM      6  C   UNL A   1      31.791  26.628  24.042  1.00  0.00     0.110 A 
ATOM      7  S   UNL A   1      31.704  25.544  22.730  1.00  0.00    -0.126 S 
ATOM      8  C   UNL A   1      32.945  26.369  21.899  1.00  0.00     0.068 A 
ATOM      9  C   UNL A   1      33.468  27.392  22.661  1.00  0.00     0.029 A 
BRANCH   6  10
ATOM     10  N   UNL A   1      30.799  26.422  24.962  1.00  0.00    -0.314 N 
ATOM     11  C   UNL A   1      30.716  25.454  25.921  1.00  0.00     0.262 C 
ATOM     12  O   UNL A   1      29.630  25.323  26.501  1.00  0.00    -0.271 OA
ATOM     13  H   UNL A   1      30.047  27.057  24.929  1.00  0.00     0.170 HD
BRANCH  11  14
ATOM     14  C   UNL A   1      31.979  24.715  26.442  1.00  0.00     0.329 C 
BRANCH  14  15
ATOM     15  O   UNL A   1      32.248  23.342  26.279  1.00  0.00    -0.484 OA
BRANCH  15  16
ATOM     16  C   UNL A   1      33.443  22.912  25.785  1.00  0.00     0.120 A 
ATOM     17  C   UNL A   1      37.152  23.697  25.834  1.00  0.00     0.046 C 
ATOM     18  C   UNL A   1      35.871  22.956  25.564  1.00  0.00    -0.029 A 
ATOM     19  C   UNL A   1      34.648  23.609  25.821  1.00  0.00     0.051 A 
ATOM     20  C   UNL A   1      35.855  21.602  25.199  1.00  0.00     0.044 A 
ATOM     21  C   UNL A   1      34.641  20.930  25.049  1.00  0.00     0.024 A 
ATOM     22  Cl  UNL A   1      37.313  20.701  24.996  1.00  0.00    -0.084 Cl
ATOM     23  C   UNL A   1      33.442  21.585  25.342  1.00  0.00     0.048 A 
ENDBRANCH  15  16
ENDBRANCH  14  15
ENDBRANCH  11  14
ENDBRANCH   6  10
ENDBRANCH   3   5
ENDBRANCH   2   3
ENDBRANCH   1   2
BRANCH   1  24
ATOM     24  C   UNL A   1      31.781  31.211  26.400  1.00  0.00     0.275 C 
BRANCH  24  25
ATOM     25  O   UNL A   1      32.707  31.124  27.493  1.00  0.00    -0.458 OA
BRANCH  25  26
ATOM     26  C   UNL A   1      33.473  32.226  27.631  1.00  0.00     0.338 C 
ATOM     27  O   UNL A   1      33.074  33.379  27.713  1.00  0.00    -0.246 OA
BRANCH  26  28
ATOM     28  C   UNL A   1      34.876  31.850  27.874  1.00  0.00     0.060 A 
ATOM     29  C   UNL A   1      35.144  30.478  27.855  1.00  0.00     0.016 A 
ATOM     30  C   UNL A   1      35.885  32.770  28.173  1.00  0.00     0.016 A 
ATOM     31  C   UNL A   1      36.397  30.004  28.197  1.00  0.00     0.010 A 
ATOM     32  C   UNL A   1      37.145  32.293  28.545  1.00  0.00     0.010 A 
ATOM     33  C   UNL A   1      37.378  30.908  28.611  1.00  0.00    -0.014 A 
BRANCH  33  34
ATOM     34  C   UNL A   1      38.519  30.355  29.370  1.00  0.00     0.031 A 
ATOM     35  C   UNL A   1      38.666  30.771  30.808  1.00  0.00     0.074 A 
ATOM     36  C   UNL A   1      39.312  29.415  28.832  1.00  0.00     0.049 A 
ATOM     37  N   UNL A   1      39.565  30.416  31.684  1.00  0.00    -0.248 NA
ATOM     38  C   UNL A   1      37.653  31.706  31.331  1.00  0.00     0.031 C 
ATOM     39  C   UNL A   1      39.196  28.892  27.472  1.00  0.00     0.029 A 
ATOM     40  N   UNL A   1      40.365  28.726  29.373  1.00  0.00    -0.354 N 
ATOM     41  C   UNL A   1      39.255  31.119  32.843  1.00  0.00     0.074 A 
ATOM     42  C   UNL A   1      38.084  31.916  32.565  1.00  0.00     0.031 C 
ATOM     43  C   UNL A   1      40.149  27.964  27.280  1.00  0.00     0.029 A 
ATOM     44  C   UNL A   1      40.958  27.854  28.493  1.00  0.00     0.049 A 
ATOM     45  H   UNL A   1      40.666  28.843  30.303  1.00  0.00     0.167 HD
ATOM     46  C   UNL A   1      39.884  31.090  34.039  1.00  0.00     0.034 A 
ATOM     47  C   UNL A   1      42.044  27.073  28.651  1.00  0.00     0.034 A 
ATOM     48  C   UNL A   1      41.019  30.256  34.317  1.00  0.00     0.049 A 
ATOM     49  C   UNL A   1      42.741  27.073  29.986  1.00  0.00     0.074 A 
ATOM     50  C   UNL A   1      41.738  30.140  35.492  1.00  0.00     0.029 A 
ATOM     51  N   UNL A   1      41.594  29.385  33.403  1.00  0.00    -0.354 N 
ATOM     52  N   UNL A   1      42.418  27.711  31.086  1.00  0.00    -0.248 NA
ATOM     53  C   UNL A   1      43.941  26.234  30.111  1.00  0.00     0.031 C 
ATOM     54  C   UNL A   1      42.755  29.202  35.283  1.00  0.00     0.029 A 
ATOM     55  C   UNL A   1      42.661  28.727  33.982  1.00  0.00     0.049 A 
ATOM     56  H   UNL A   1      41.286  29.254  32.476  1.00  0.00     0.167 HD
ATOM     57  C   UNL A   1      43.362  27.343  32.037  1.00  0.00     0.074 A 
ATOM     58  C   UNL A   1      44.253  26.400  31.390  1.00  0.00     0.031 C 
ATOM     59  C   UNL A   1      43.498  27.759  33.320  1.00  0.00     0.034 A 
BRANCH  46  60
ATOM     60  C   UNL A   1      39.347  31.982  35.123  1.00  0.00     0.023 A 
ATOM     61  C   UNL A   1      38.305  31.525  35.954  1.00  0.00     0.012 A 
ATOM     62  C   UNL A   1      39.875  33.272  35.321  1.00  0.00     0.148 A 
ATOM     63  C   UNL A   1      37.775  32.350  36.946  1.00  0.00     0.002 A 
ATOM     64  C   UNL A   1      39.366  34.076  36.336  1.00  0.00     0.091 A 
ATOM     65  F   UNL A   1      40.840  33.703  34.497  1.00  0.00    -0.205 F 
ATOM     66  C   UNL A   1      38.312  33.620  37.143  1.00  0.00     0.022 A 
BRANCH  64  67
ATOM     67  S   UNL A   1      40.036  35.703  36.698  1.00  0.00     0.127 S 
ATOM     68  O   UNL A   1      39.652  36.453  35.503  1.00  0.00    -0.237 OA
ATOM     69  O   UNL A   1      39.309  36.076  37.911  1.00  0.00    -0.237 OA
ATOM     70  O   UNL A   1      41.467  35.508  36.888  1.00  0.00    -0.744 OA
ENDBRANCH  64  67
ENDBRANCH  46  60
BRANCH  47  71
ATOM     71  C   UNL A   1      42.510  26.214  27.525  1.00  0.00     0.023 A 
ATOM     72  C   UNL A   1      43.473  26.706  26.624  1.00  0.00     0.012 A 
ATOM     73  C   UNL A   1      42.043  24.893  27.375  1.00  0.00     0.148 A 
ATOM     74  C   UNL A   1      43.954  25.902  25.589  1.00  0.00     0.002 A 
ATOM     75  C   UNL A   1      42.569  24.079  26.379  1.00  0.00     0.091 A 
ATOM     76  F   UNL A   1      41.103  24.450  28.223  1.00  0.00    -0.205 F 
ATOM     77  C   UNL A   1      43.514  24.585  25.476  1.00  0.00     0.022 A 
BRANCH  75  78
ATOM     78  S   UNL A   1      42.159  22.333  26.260  1.00  0.00     0.127 S 
ATOM     79  O   UNL A   1      40.707  22.375  26.114  1.00  0.00    -0.237 OA
ATOM     80  O   UNL A   1      42.887  21.928  25.057  1.00  0.00    -0.237 OA
ATOM     81  O   UNL A   1      42.661  21.733  27.488  1.00  0.00    -0.744 OA
ENDBRANCH  75  78
ENDBRANCH  47  71
BRANCH  59  82
ATOM     82  C   UNL A   1      44.647  27.196  34.111  1.00  0.00     0.023 A 
ATOM     83  C   UNL A   1      45.868  27.898  34.148  1.00  0.00     0.012 A 
ATOM     84  C   UNL A   1      44.489  26.033  34.887  1.00  0.00     0.148 A 
ATOM     85  C   UNL A   1      46.924  27.434  34.929  1.00  0.00     0.002 A 
ATOM     86  C   UNL A   1      45.532  25.600  35.695  1.00  0.00     0.091 A 
ATOM     87  F   UNL A   1      43.323  25.370  34.821  1.00  0.00    -0.205 F 
ATOM     88  C   UNL A   1      46.753  26.294  35.712  1.00  0.00     0.022 A 
BRANCH  86  89
ATOM     89  S   UNL A   1      45.360  24.194  36.800  1.00  0.00     0.127 S 
ATOM     90  O   UNL A   1      45.076  23.110  35.863  1.00  0.00    -0.237 OA
ATOM     91  O   UNL A   1      46.681  24.125  37.430  1.00  0.00    -0.237 OA
ATOM     92  O   UNL A   1      44.279  24.540  37.713  1.00  0.00    -0.744 OA
ENDBRANCH  86  89
ENDBRANCH  59  82
ENDBRANCH  33  34
ENDBRANCH  26  28
ENDBRANCH  25  26
ENDBRANCH  24  25
ENDBRANCH   1  24
TORSDOF 18
ENDMDL
