MODEL 1
REMARK VINA RESULT:     -12.2      0.000      0.000
REMARK SMILES Cc1c(CC(=O)N[C@H](CO)C(=O)OCCOC(=O)c2ccc(-c3c4nc(c(-c5cccc(S(=O)(=O)[O-])c5F)c5ccc([nH]5)c(-c5cccc(S(=O)(=O)[O-])c5F)c5nc(c(-c6cccc(S(=O)(=O)[O-])c6F)c6ccc3[nH]6)C=C5)C=C4)cc2)cc(-c2ccc(S(C)(=O)=O)cc2)n1-c1ccc(F)cc1
REMARK SMILES IDX 14 1 13 2 11 3 12 4 8 5 7 6 5 7 6 8 4 10 3 11 1 12 2 13
REMARK SMILES IDX 94 14 82 15 83 16 95 17 96 18 101 19 97 20 100 21 98 22
REMARK SMILES IDX 99 23 84 24 85 25 93 26 86 27 92 28 87 29 88 30 89 31 90 32
REMARK SMILES IDX 91 33 9 34 10 35 15 37 16 38 17 39 18 40 19 41 20 42 81 43
REMARK SMILES IDX 21 44 80 45 22 46 23 47 24 48 74 49 25 50 79 51 73 52 75 53
REMARK SMILES IDX 26 54 78 55 72 56 71 57 27 59 59 60 39 61 58 62 40 63 43 64
REMARK SMILES IDX 57 65 76 66 41 67 42 68 56 70 77 71 44 72 28 73 29 74 37 75
REMARK SMILES IDX 30 76 32 77 38 78 31 79 33 80 34 81 35 82 36 83 60 84 61 85
REMARK SMILES IDX 69 86 62 87 64 88 70 89 63 90 65 91 66 92 67 93 68 94 45 95
REMARK SMILES IDX 46 96 54 97 47 98 49 99 55 100 48 101 50 102 51 103 52 104
REMARK SMILES IDX 53 105
REMARK H PARENT 7 9 10 36 75 58 43 69
REMARK Flexibility Score: inf
ROOT
ATOM      1  C   UNL A   1      30.403  31.506  24.970  1.00  0.00     0.274 C 
ENDROOT
BRANCH   1   2
ATOM      2  O   UNL A   1      30.391  30.174  24.422  1.00  0.00    -0.460 OA
BRANCH   2   3
ATOM      3  C   UNL A   1      29.468  29.968  23.444  1.00  0.00     0.331 C 
ATOM      4  O   UNL A   1      28.478  30.667  23.250  1.00  0.00    -0.250 OA
BRANCH   3   5
ATOM      5  C   UNL A   1      29.743  28.704  22.643  1.00  0.00     0.218 C 
BRANCH   5   6
ATOM      6  N   UNL A   1      29.046  27.523  23.175  1.00  0.00    -0.341 N 
ATOM      7  C   UNL A   1      29.322  26.765  24.274  1.00  0.00     0.225 C 
ATOM      8  O   UNL A   1      28.411  26.040  24.691  1.00  0.00    -0.275 OA
ATOM      9  H   UNL A   1      28.260  27.237  22.657  1.00  0.00     0.164 HD
BRANCH   7  10
ATOM     10  C   UNL A   1      30.674  26.826  24.984  1.00  0.00     0.137 C 
BRANCH  10  11
ATOM     11  C   UNL A   1      31.685  25.759  24.608  1.00  0.00    -0.017 A 
ATOM     12  C   UNL A   1      33.920  27.082  24.374  1.00  0.00     0.065 C 
ATOM     13  C   UNL A   1      33.062  25.859  24.422  1.00  0.00     0.024 A 
ATOM     14  N   UNL A   1      33.572  24.580  24.183  1.00  0.00    -0.314 N 
ATOM     15  C   UNL A   1      31.349  24.400  24.285  1.00  0.00     0.033 A 
ATOM     16  C   UNL A   1      32.510  23.666  24.084  1.00  0.00     0.053 A 
BRANCH  14  17
ATOM     17  C   UNL A   1      34.944  24.175  24.245  1.00  0.00     0.046 A 
ATOM     18  C   UNL A   1      35.507  23.493  23.151  1.00  0.00     0.029 A 
ATOM     19  C   UNL A   1      35.570  24.125  25.500  1.00  0.00     0.029 A 
ATOM     20  C   UNL A   1      36.604  22.655  23.346  1.00  0.00     0.041 A 
ATOM     21  C   UNL A   1      36.692  23.314  25.675  1.00  0.00     0.041 A 
ATOM     22  C   UNL A   1      37.173  22.558  24.608  1.00  0.00     0.123 A 
ATOM     23  F   UNL A   1      38.167  21.686  24.817  1.00  0.00    -0.207 F 
ENDBRANCH  14  17
BRANCH  16  24
ATOM     24  C   UNL A   1      32.690  22.186  24.062  1.00  0.00    -0.001 A 
ATOM     25  C   UNL A   1      33.354  21.552  25.133  1.00  0.00     0.011 A 
ATOM     26  C   UNL A   1      32.287  21.381  22.995  1.00  0.00     0.011 A 
ATOM     27  C   UNL A   1      33.613  20.182  25.164  1.00  0.00     0.021 A 
ATOM     28  C   UNL A   1      32.578  19.996  22.996  1.00  0.00     0.021 A 
ATOM     29  C   UNL A   1      33.237  19.401  24.084  1.00  0.00     0.067 A 
BRANCH  29  30
ATOM     30  S   UNL A   1      33.426  17.634  24.232  1.00  0.00     0.175 S 
ATOM     31  C   UNL A   1      32.460  17.140  25.604  1.00  0.00     0.163 C 
ATOM     32  O   UNL A   1      32.766  17.029  23.094  1.00  0.00    -0.224 OA
ATOM     33  O   UNL A   1      34.802  17.369  24.598  1.00  0.00    -0.224 OA
ENDBRANCH  29  30
ENDBRANCH  16  24
ENDBRANCH  10  11
ENDBRANCH   7  10
ENDBRANCH   5   6
BRANCH   5  34
ATOM     34  C   UNL A   1      31.269  28.477  22.555  1.00  0.00     0.193 C 
BRANCH  34  35
ATOM     35  O   UNL A   1      31.960  29.650  22.098  1.00  0.00    -0.394 OA
ATOM     36  H   UNL A   1      32.145  30.231  22.852  1.00  0.00     0.210 HD
ENDBRANCH  34  35
ENDBRANCH   5  34
ENDBRANCH   3   5
ENDBRANCH   2   3
ENDBRANCH   1   2
BRANCH   1  37
ATOM     37  C   UNL A   1      30.980  31.623  26.399  1.00  0.00     0.275 C 
BRANCH  37  38
ATOM     38  O   UNL A   1      32.399  31.301  26.505  1.00  0.00    -0.458 OA
BRANCH  38  39
ATOM     39  C   UNL A   1      33.194  32.026  27.351  1.00  0.00     0.338 C 
ATOM     40  O   UNL A   1      33.001  33.198  27.635  1.00  0.00    -0.246 OA
BRANCH  39  41
ATOM     41  C   UNL A   1      34.352  31.198  27.878  1.00  0.00     0.060 A 
ATOM     42  C   UNL A   1      35.273  31.716  28.782  1.00  0.00     0.016 A 
ATOM     43  C   UNL A   1      34.622  29.908  27.407  1.00  0.00     0.016 A 
ATOM     44  C   UNL A   1      36.373  30.916  29.252  1.00  0.00     0.010 A 
ATOM     45  C   UNL A   1      35.770  29.131  27.840  1.00  0.00     0.010 A 
ATOM     46  C   UNL A   1      36.684  29.584  28.798  1.00  0.00    -0.014 A 
BRANCH  46  47
ATOM     47  C   UNL A   1      38.183  29.055  28.968  1.00  0.00     0.031 A 
ATOM     48  C   UNL A   1      38.227  28.733  30.420  1.00  0.00     0.074 A 
ATOM     49  C   UNL A   1      39.400  28.932  28.288  1.00  0.00     0.049 A 
ATOM     50  N   UNL A   1      37.625  29.518  31.280  1.00  0.00    -0.248 NA
ATOM     51  C   UNL A   1      38.633  27.451  30.993  1.00  0.00     0.031 C 
ATOM     52  C   UNL A   1      39.705  29.308  26.896  1.00  0.00     0.029 A 
ATOM     53  N   UNL A   1      40.696  28.445  28.685  1.00  0.00    -0.354 N 
ATOM     54  C   UNL A   1      38.096  29.118  32.484  1.00  0.00     0.074 A 
ATOM     55  C   UNL A   1      38.374  27.704  32.283  1.00  0.00     0.031 C 
ATOM     56  C   UNL A   1      40.973  28.949  26.530  1.00  0.00     0.029 A 
ATOM     57  C   UNL A   1      41.707  28.360  27.653  1.00  0.00     0.049 A 
ATOM     58  H   UNL A   1      40.885  28.182  29.615  1.00  0.00     0.167 HD
ATOM     59  C   UNL A   1      38.828  30.072  33.132  1.00  0.00     0.034 A 
ATOM     60  C   UNL A   1      43.046  27.963  27.698  1.00  0.00     0.034 A 
ATOM     61  C   UNL A   1      40.177  29.670  33.406  1.00  0.00     0.049 A 
ATOM     62  C   UNL A   1      43.483  28.222  29.081  1.00  0.00     0.074 A 
ATOM     63  C   UNL A   1      40.769  28.477  33.771  1.00  0.00     0.029 A 
ATOM     64  N   UNL A   1      41.179  30.468  32.903  1.00  0.00    -0.354 N 
ATOM     65  N   UNL A   1      43.795  29.427  29.458  1.00  0.00    -0.248 NA
ATOM     66  C   UNL A   1      43.814  27.169  30.035  1.00  0.00     0.031 C 
ATOM     67  C   UNL A   1      41.989  28.423  33.058  1.00  0.00     0.029 A 
ATOM     68  C   UNL A   1      42.235  29.671  32.505  1.00  0.00     0.049 A 
ATOM     69  H   UNL A   1      41.150  31.450  32.839  1.00  0.00     0.167 HD
ATOM     70  C   UNL A   1      43.877  29.331  30.810  1.00  0.00     0.074 A 
ATOM     71  C   UNL A   1      44.160  27.935  31.074  1.00  0.00     0.031 C 
ATOM     72  C   UNL A   1      43.137  30.217  31.518  1.00  0.00     0.034 A 
BRANCH  59  73
ATOM     73  C   UNL A   1      38.373  31.499  32.827  1.00  0.00     0.023 A 
ATOM     74  C   UNL A   1      39.337  32.392  32.334  1.00  0.00     0.012 A 
ATOM     75  C   UNL A   1      37.106  32.020  33.231  1.00  0.00     0.148 A 
ATOM     76  C   UNL A   1      39.073  33.765  32.278  1.00  0.00     0.002 A 
ATOM     77  C   UNL A   1      36.867  33.395  33.214  1.00  0.00     0.091 A 
ATOM     78  F   UNL A   1      36.174  31.160  33.671  1.00  0.00    -0.205 F 
ATOM     79  C   UNL A   1      37.856  34.266  32.739  1.00  0.00     0.022 A 
BRANCH  77  80
ATOM     80  S   UNL A   1      35.390  34.166  33.914  1.00  0.00     0.127 S 
ATOM     81  O   UNL A   1      35.549  33.904  35.349  1.00  0.00    -0.237 OA
ATOM     82  O   UNL A   1      35.551  35.571  33.558  1.00  0.00    -0.237 OA
ATOM     83  O   UNL A   1      34.248  33.495  33.306  1.00  0.00    -0.744 OA
ENDBRANCH  77  80
ENDBRANCH  59  73
BRANCH  60  84
ATOM     84  C   UNL A   1      44.354  27.655  26.870  1.00  0.00     0.023 A 
ATOM     85  C   UNL A   1      45.361  28.686  26.820  1.00  0.00     0.012 A 
ATOM     86  C   UNL A   1      44.837  26.363  26.552  1.00  0.00     0.148 A 
ATOM     87  C   UNL A   1      46.736  28.454  26.637  1.00  0.00     0.002 A 
ATOM     88  C   UNL A   1      46.225  26.141  26.301  1.00  0.00     0.091 A 
ATOM     89  F   UNL A   1      43.983  25.333  26.593  1.00  0.00    -0.205 F 
ATOM     90  C   UNL A   1      47.172  27.174  26.388  1.00  0.00     0.022 A 
BRANCH  88  91
ATOM     91  S   UNL A   1      46.939  24.526  25.899  1.00  0.00     0.127 S 
ATOM     92  O   UNL A   1      46.763  24.446  24.448  1.00  0.00    -0.237 OA
ATOM     93  O   UNL A   1      48.327  24.691  26.327  1.00  0.00    -0.237 OA
ATOM     94  O   UNL A   1      46.150  23.561  26.652  1.00  0.00    -0.744 OA
ENDBRANCH  88  91
ENDBRANCH  60  84
BRANCH  72  95
ATOM     95  C   UNL A   1      43.045  31.646  31.002  1.00  0.00     0.023 A 
ATOM     96  C   UNL A   1      42.089  32.118  30.073  1.00  0.00     0.012 A 
ATOM     97  C   UNL A   1      43.958  32.581  31.514  1.00  0.00     0.148 A 
ATOM     98  C   UNL A   1      42.067  33.452  29.651  1.00  0.00     0.002 A 
ATOM     99  C   UNL A   1      43.900  33.922  31.143  1.00  0.00     0.091 A 
ATOM    100  F   UNL A   1      44.888  32.140  32.378  1.00  0.00    -0.205 F 
ATOM    101  C   UNL A   1      42.962  34.363  30.202  1.00  0.00     0.022 A 
BRANCH  99 102
ATOM    102  S   UNL A   1      44.998  35.111  31.913  1.00  0.00     0.127 S 
ATOM    103  O   UNL A   1      46.310  34.655  31.456  1.00  0.00    -0.237 OA
ATOM    104  O   UNL A   1      44.574  36.393  31.359  1.00  0.00    -0.237 OA
ATOM    105  O   UNL A   1      44.755  34.972  33.347  1.00  0.00    -0.744 OA
ENDBRANCH  99 102
ENDBRANCH  72  95
ENDBRANCH  46  47
ENDBRANCH  39  41
ENDBRANCH  38  39
ENDBRANCH  37  38
ENDBRANCH   1  37
TORSDOF 22
ENDMDL
MODEL 2
REMARK VINA RESULT:     -11.8      2.213      2.885
REMARK SMILES Cc1c(CC(=O)N[C@H](CO)C(=O)OCCOC(=O)c2ccc(-c3c4nc(c(-c5cccc(S(=O)(=O)[O-])c5F)c5ccc([nH]5)c(-c5cccc(S(=O)(=O)[O-])c5F)c5nc(c(-c6cccc(S(=O)(=O)[O-])c6F)c6ccc3[nH]6)C=C5)C=C4)cc2)cc(-c2ccc(S(C)(=O)=O)cc2)n1-c1ccc(F)cc1
REMARK SMILES IDX 14 1 13 2 11 3 12 4 8 5 7 6 5 7 6 8 4 10 3 11 1 12 2 13
REMARK SMILES IDX 94 14 82 15 83 16 95 17 96 18 101 19 97 20 100 21 98 22
REMARK SMILES IDX 99 23 84 24 85 25 93 26 86 27 92 28 87 29 88 30 89 31 90 32
REMARK SMILES IDX 91 33 9 34 10 35 15 37 16 38 17 39 18 40 19 41 20 42 81 43
REMARK SMILES IDX 21 44 80 45 22 46 23 47 24 48 74 49 25 50 79 51 73 52 75 53
REMARK SMILES IDX 26 54 78 55 72 56 71 57 27 59 59 60 39 61 58 62 40 63 43 64
REMARK SMILES IDX 57 65 76 66 41 67 42 68 56 70 77 71 44 72 28 73 29 74 37 75
REMARK SMILES IDX 30 76 32 77 38 78 31 79 33 80 34 81 35 82 36 83 60 84 61 85
REMARK SMILES IDX 69 86 62 87 64 88 70 89 63 90 65 91 66 92 67 93 68 94 45 95
REMARK SMILES IDX 46 96 54 97 47 98 49 99 55 100 48 101 50 102 51 103 52 104
REMARK SMILES IDX 53 105
REMARK H PARENT 7 9 10 36 75 58 43 69
REMARK Flexibility Score: inf
ROOT
ATOM      1  C   UNL A   1      32.629  33.275  27.180  1.00  0.00     0.274 C 
ENDROOT
BRANCH   1   2
ATOM      2  O   UNL A   1      32.088  31.947  27.322  1.00  0.00    -0.460 OA
BRANCH   2   3
ATOM      3  C   UNL A   1      31.411  31.488  26.235  1.00  0.00     0.331 C 
ATOM      4  O   UNL A   1      30.533  32.103  25.638  1.00  0.00    -0.250 OA
BRANCH   3   5
ATOM      5  C   UNL A   1      31.801  30.064  25.868  1.00  0.00     0.218 C 
BRANCH   5   6
ATOM      6  N   UNL A   1      31.625  29.115  26.978  1.00  0.00    -0.341 N 
ATOM      7  C   UNL A   1      31.419  27.768  26.955  1.00  0.00     0.225 C 
ATOM      8  O   UNL A   1      31.632  27.155  28.008  1.00  0.00    -0.275 OA
ATOM      9  H   UNL A   1      31.662  29.516  27.876  1.00  0.00     0.164 HD
BRANCH   7  10
ATOM     10  C   UNL A   1      30.980  27.036  25.687  1.00  0.00     0.137 C 
BRANCH  10  11
ATOM     11  C   UNL A   1      31.883  25.916  25.205  1.00  0.00    -0.017 A 
ATOM     12  C   UNL A   1      34.176  27.098  24.821  1.00  0.00     0.065 C 
ATOM     13  C   UNL A   1      33.245  25.932  24.910  1.00  0.00     0.024 A 
ATOM     14  N   UNL A   1      33.647  24.630  24.602  1.00  0.00    -0.314 N 
ATOM     15  C   UNL A   1      31.432  24.592  24.880  1.00  0.00     0.033 A 
ATOM     16  C   UNL A   1      32.522  23.790  24.568  1.00  0.00     0.053 A 
BRANCH  14  17
ATOM     17  C   UNL A   1      34.990  24.135  24.543  1.00  0.00     0.046 A 
ATOM     18  C   UNL A   1      35.461  23.575  23.342  1.00  0.00     0.029 A 
ATOM     19  C   UNL A   1      35.660  23.877  25.748  1.00  0.00     0.029 A 
ATOM     20  C   UNL A   1      36.505  22.650  23.370  1.00  0.00     0.041 A 
ATOM     21  C   UNL A   1      36.730  22.980  25.759  1.00  0.00     0.041 A 
ATOM     22  C   UNL A   1      37.115  22.348  24.579  1.00  0.00     0.123 A 
ATOM     23  F   UNL A   1      38.055  21.395  24.622  1.00  0.00    -0.207 F 
ENDBRANCH  14  17
BRANCH  16  24
ATOM     24  C   UNL A   1      32.600  22.303  24.498  1.00  0.00    -0.001 A 
ATOM     25  C   UNL A   1      32.411  21.655  23.260  1.00  0.00     0.011 A 
ATOM     26  C   UNL A   1      32.790  21.493  25.620  1.00  0.00     0.011 A 
ATOM     27  C   UNL A   1      32.411  20.268  23.119  1.00  0.00     0.021 A 
ATOM     28  C   UNL A   1      32.754  20.084  25.497  1.00  0.00     0.021 A 
ATOM     29  C   UNL A   1      32.569  19.476  24.244  1.00  0.00     0.067 A 
BRANCH  29  30
ATOM     30  S   UNL A   1      32.738  17.717  24.004  1.00  0.00     0.175 S 
ATOM     31  C   UNL A   1      34.437  17.347  24.195  1.00  0.00     0.163 C 
ATOM     32  O   UNL A   1      32.101  17.062  25.128  1.00  0.00    -0.224 OA
ATOM     33  O   UNL A   1      32.421  17.430  22.620  1.00  0.00    -0.224 OA
ENDBRANCH  29  30
ENDBRANCH  16  24
ENDBRANCH  10  11
ENDBRANCH   7  10
ENDBRANCH   5   6
BRANCH   5  34
ATOM     34  C   UNL A   1      33.249  30.053  25.329  1.00  0.00     0.193 C 
BRANCH  34  35
ATOM     35  O   UNL A   1      34.216  30.115  26.389  1.00  0.00    -0.394 OA
ATOM     36  H   UNL A   1      34.567  29.226  26.559  1.00  0.00     0.210 HD
ENDBRANCH  34  35
ENDBRANCH   5  34
ENDBRANCH   3   5
ENDBRANCH   2   3
ENDBRANCH   1   2
BRANCH   1  37
ATOM     37  C   UNL A   1      32.863  34.034  28.505  1.00  0.00     0.275 C 
BRANCH  37  38
ATOM     38  O   UNL A   1      34.251  34.048  28.956  1.00  0.00    -0.458 OA
BRANCH  38  39
ATOM     39  C   UNL A   1      34.638  33.216  29.971  1.00  0.00     0.338 C 
ATOM     40  O   UNL A   1      34.155  33.233  31.093  1.00  0.00    -0.246 OA
BRANCH  39  41
ATOM     41  C   UNL A   1      35.751  32.281  29.535  1.00  0.00     0.060 A 
ATOM     42  C   UNL A   1      35.556  30.909  29.423  1.00  0.00     0.016 A 
ATOM     43  C   UNL A   1      37.061  32.728  29.324  1.00  0.00     0.016 A 
ATOM     44  C   UNL A   1      36.634  30.042  29.025  1.00  0.00     0.010 A 
ATOM     45  C   UNL A   1      38.157  31.838  28.984  1.00  0.00     0.010 A 
ATOM     46  C   UNL A   1      37.994  30.462  28.794  1.00  0.00    -0.014 A 
BRANCH  46  47
ATOM     47  C   UNL A   1      39.155  29.368  28.910  1.00  0.00     0.031 A 
ATOM     48  C   UNL A   1      39.126  29.049  30.363  1.00  0.00     0.074 A 
ATOM     49  C   UNL A   1      40.188  28.766  28.182  1.00  0.00     0.049 A 
ATOM     50  N   UNL A   1      38.930  30.006  31.237  1.00  0.00    -0.248 NA
ATOM     51  C   UNL A   1      39.000  27.709  30.934  1.00  0.00     0.031 C 
ATOM     52  C   UNL A   1      40.561  28.993  26.775  1.00  0.00     0.029 A 
ATOM     53  N   UNL A   1      41.190  27.793  28.533  1.00  0.00    -0.354 N 
ATOM     54  C   UNL A   1      39.249  29.443  32.426  1.00  0.00     0.074 A 
ATOM     55  C   UNL A   1      38.920  28.039  32.230  1.00  0.00     0.031 C 
ATOM     56  C   UNL A   1      41.558  28.152  26.363  1.00  0.00     0.029 A 
ATOM     57  C   UNL A   1      42.036  27.310  27.462  1.00  0.00     0.049 A 
ATOM     58  H   UNL A   1      41.295  27.471  29.458  1.00  0.00     0.167 HD
ATOM     59  C   UNL A   1      40.331  30.014  33.031  1.00  0.00     0.034 A 
ATOM     60  C   UNL A   1      43.100  26.404  27.458  1.00  0.00     0.034 A 
ATOM     61  C   UNL A   1      41.411  29.098  33.256  1.00  0.00     0.049 A 
ATOM     62  C   UNL A   1      43.661  26.456  28.819  1.00  0.00     0.074 A 
ATOM     63  C   UNL A   1      41.483  27.765  33.612  1.00  0.00     0.029 A 
ATOM     64  N   UNL A   1      42.629  29.423  32.704  1.00  0.00    -0.354 N 
ATOM     65  N   UNL A   1      44.451  27.428  29.168  1.00  0.00    -0.248 NA
ATOM     66  C   UNL A   1      43.576  25.354  29.772  1.00  0.00     0.031 C 
ATOM     67  C   UNL A   1      42.545  27.225  32.850  1.00  0.00     0.029 A 
ATOM     68  C   UNL A   1      43.252  28.268  32.272  1.00  0.00     0.049 A 
ATOM     69  H   UNL A   1      42.998  30.333  32.629  1.00  0.00     0.167 HD
ATOM     70  C   UNL A   1      44.543  27.301  30.517  1.00  0.00     0.074 A 
ATOM     71  C   UNL A   1      44.247  25.908  30.786  1.00  0.00     0.031 C 
ATOM     72  C   UNL A   1      44.256  28.407  31.243  1.00  0.00     0.034 A 
BRANCH  59  73
ATOM     73  C   UNL A   1      40.482  31.505  32.728  1.00  0.00     0.023 A 
ATOM     74  C   UNL A   1      41.093  31.858  31.515  1.00  0.00     0.012 A 
ATOM     75  C   UNL A   1      40.252  32.529  33.697  1.00  0.00     0.148 A 
ATOM     76  C   UNL A   1      41.502  33.174  31.281  1.00  0.00     0.002 A 
ATOM     77  C   UNL A   1      40.703  33.830  33.474  1.00  0.00     0.091 A 
ATOM     78  F   UNL A   1      39.637  32.196  34.843  1.00  0.00    -0.205 F 
ATOM     79  C   UNL A   1      41.332  34.150  32.264  1.00  0.00     0.022 A 
BRANCH  77  80
ATOM     80  S   UNL A   1      40.665  35.135  34.724  1.00  0.00     0.127 S 
ATOM     81  O   UNL A   1      41.062  34.416  35.939  1.00  0.00    -0.237 OA
ATOM     82  O   UNL A   1      41.671  36.077  34.249  1.00  0.00    -0.237 OA
ATOM     83  O   UNL A   1      39.298  35.641  34.748  1.00  0.00    -0.744 OA
ENDBRANCH  77  80
ENDBRANCH  59  73
BRANCH  60  84
ATOM     84  C   UNL A   1      44.134  25.596  26.582  1.00  0.00     0.023 A 
ATOM     85  C   UNL A   1      45.533  25.772  26.883  1.00  0.00     0.012 A 
ATOM     86  C   UNL A   1      43.846  24.416  25.853  1.00  0.00     0.148 A 
ATOM     87  C   UNL A   1      46.531  24.811  26.641  1.00  0.00     0.002 A 
ATOM     88  C   UNL A   1      44.874  23.473  25.550  1.00  0.00     0.091 A 
ATOM     89  F   UNL A   1      42.571  24.151  25.544  1.00  0.00    -0.205 F 
ATOM     90  C   UNL A   1      46.198  23.651  25.981  1.00  0.00     0.022 A 
BRANCH  88  91
ATOM     91  S   UNL A   1      44.603  21.933  24.637  1.00  0.00     0.127 S 
ATOM     92  O   UNL A   1      44.383  22.403  23.267  1.00  0.00    -0.237 OA
ATOM     93  O   UNL A   1      45.871  21.233  24.834  1.00  0.00    -0.237 OA
ATOM     94  O   UNL A   1      43.435  21.323  25.255  1.00  0.00    -0.744 OA
ENDBRANCH  88  91
ENDBRANCH  60  84
BRANCH  72  95
ATOM     95  C   UNL A   1      44.730  29.753  30.714  1.00  0.00     0.023 A 
ATOM     96  C   UNL A   1      44.027  30.560  29.791  1.00  0.00     0.012 A 
ATOM     97  C   UNL A   1      45.946  30.252  31.207  1.00  0.00     0.148 A 
ATOM     98  C   UNL A   1      44.529  31.792  29.356  1.00  0.00     0.002 A 
ATOM     99  C   UNL A   1      46.418  31.505  30.823  1.00  0.00     0.091 A 
ATOM    100  F   UNL A   1      46.638  29.483  32.065  1.00  0.00    -0.205 F 
ATOM    101  C   UNL A   1      45.719  32.276  29.888  1.00  0.00     0.022 A 
BRANCH  99 102
ATOM    102  S   UNL A   1      47.908  32.165  31.570  1.00  0.00     0.127 S 
ATOM    103  O   UNL A   1      47.398  33.333  32.287  1.00  0.00    -0.237 OA
ATOM    104  O   UNL A   1      48.379  31.083  32.430  1.00  0.00    -0.237 OA
ATOM    105  O   UNL A   1      48.793  32.460  30.445  1.00  0.00    -0.744 OA
ENDBRANCH  99 102
ENDBRANCH  72  95
ENDBRANCH  46  47
ENDBRANCH  39  41
ENDBRANCH  38  39
ENDBRANCH  37  38
ENDBRANCH   1  37
TORSDOF 22
ENDMDL
MODEL 3
REMARK VINA RESULT:     -11.4      2.501      3.765
REMARK SMILES Cc1c(CC(=O)N[C@H](CO)C(=O)OCCOC(=O)c2ccc(-c3c4nc(c(-c5cccc(S(=O)(=O)[O-])c5F)c5ccc([nH]5)c(-c5cccc(S(=O)(=O)[O-])c5F)c5nc(c(-c6cccc(S(=O)(=O)[O-])c6F)c6ccc3[nH]6)C=C5)C=C4)cc2)cc(-c2ccc(S(C)(=O)=O)cc2)n1-c1ccc(F)cc1
REMARK SMILES IDX 14 1 13 2 11 3 12 4 8 5 7 6 5 7 6 8 4 10 3 11 1 12 2 13
REMARK SMILES IDX 94 14 82 15 83 16 95 17 96 18 101 19 97 20 100 21 98 22
REMARK SMILES IDX 99 23 84 24 85 25 93 26 86 27 92 28 87 29 88 30 89 31 90 32
REMARK SMILES IDX 91 33 9 34 10 35 15 37 16 38 17 39 18 40 19 41 20 42 81 43
REMARK SMILES IDX 21 44 80 45 22 46 23 47 24 48 74 49 25 50 79 51 73 52 75 53
REMARK SMILES IDX 26 54 78 55 72 56 71 57 27 59 59 60 39 61 58 62 40 63 43 64
REMARK SMILES IDX 57 65 76 66 41 67 42 68 56 70 77 71 44 72 28 73 29 74 37 75
REMARK SMILES IDX 30 76 32 77 38 78 31 79 33 80 34 81 35 82 36 83 60 84 61 85
REMARK SMILES IDX 69 86 62 87 64 88 70 89 63 90 65 91 66 92 67 93 68 94 45 95
REMARK SMILES IDX 46 96 54 97 47 98 49 99 55 100 48 101 50 102 51 103 52 104
REMARK SMILES IDX 53 105
REMARK H PARENT 7 9 10 36 75 58 43 69
REMARK Flexibility Score: inf
ROOT
ATOM      1  C   UNL A   1      32.821  29.273  26.316  1.00  0.00     0.274 C 
ENDROOT
BRANCH   1   2
ATOM      2  O   UNL A   1      31.615  28.861  25.644  1.00  0.00    -0.460 OA
BRANCH   2   3
ATOM      3  C   UNL A   1      31.359  27.527  25.699  1.00  0.00     0.331 C 
ATOM      4  O   UNL A   1      31.092  26.901  26.720  1.00  0.00    -0.250 OA
BRANCH   3   5
ATOM      5  C   UNL A   1      31.518  26.849  24.346  1.00  0.00     0.218 C 
BRANCH   5   6
ATOM      6  N   UNL A   1      32.583  27.446  23.526  1.00  0.00    -0.341 N 
ATOM      7  C   UNL A   1      33.201  26.967  22.409  1.00  0.00     0.225 C 
ATOM      8  O   UNL A   1      33.820  27.789  21.722  1.00  0.00    -0.275 OA
ATOM      9  H   UNL A   1      32.898  28.326  23.832  1.00  0.00     0.164 HD
BRANCH   7  10
ATOM     10  C   UNL A   1      33.110  25.497  21.998  1.00  0.00     0.137 C 
BRANCH  10  11
ATOM     11  C   UNL A   1      33.666  24.484  22.981  1.00  0.00    -0.017 A 
ATOM     12  C   UNL A   1      31.662  22.867  23.396  1.00  0.00     0.065 C 
ATOM     13  C   UNL A   1      33.076  23.339  23.512  1.00  0.00     0.024 A 
ATOM     14  N   UNL A   1      34.023  22.676  24.297  1.00  0.00    -0.314 N 
ATOM     15  C   UNL A   1      34.945  24.595  23.624  1.00  0.00     0.033 A 
ATOM     16  C   UNL A   1      35.186  23.457  24.384  1.00  0.00     0.053 A 
BRANCH  14  17
ATOM     17  C   UNL A   1      33.955  21.326  24.771  1.00  0.00     0.046 A 
ATOM     18  C   UNL A   1      33.735  20.287  23.850  1.00  0.00     0.029 A 
ATOM     19  C   UNL A   1      33.732  21.110  26.139  1.00  0.00     0.029 A 
ATOM     20  C   UNL A   1      33.162  19.090  24.277  1.00  0.00     0.041 A 
ATOM     21  C   UNL A   1      33.195  19.893  26.562  1.00  0.00     0.041 A 
ATOM     22  C   UNL A   1      32.879  18.912  25.624  1.00  0.00     0.123 A 
ATOM     23  F   UNL A   1      32.246  17.802  26.024  1.00  0.00    -0.207 F 
ENDBRANCH  14  17
BRANCH  16  24
ATOM     24  C   UNL A   1      36.476  22.964  24.945  1.00  0.00    -0.001 A 
ATOM     25  C   UNL A   1      36.950  21.687  24.580  1.00  0.00     0.011 A 
ATOM     26  C   UNL A   1      37.228  23.679  25.881  1.00  0.00     0.011 A 
ATOM     27  C   UNL A   1      38.115  21.128  25.102  1.00  0.00     0.021 A 
ATOM     28  C   UNL A   1      38.392  23.108  26.448  1.00  0.00     0.021 A 
ATOM     29  C   UNL A   1      38.834  21.835  26.052  1.00  0.00     0.067 A 
BRANCH  29  30
ATOM     30  S   UNL A   1      40.406  21.170  26.568  1.00  0.00     0.175 S 
ATOM     31  C   UNL A   1      41.638  22.190  25.860  1.00  0.00     0.163 C 
ATOM     32  O   UNL A   1      40.528  21.398  27.993  1.00  0.00    -0.224 OA
ATOM     33  O   UNL A   1      40.559  19.871  25.946  1.00  0.00    -0.224 OA
ENDBRANCH  29  30
ENDBRANCH  16  24
ENDBRANCH  10  11
ENDBRANCH   7  10
ENDBRANCH   5   6
BRANCH   5  34
ATOM     34  C   UNL A   1      30.159  26.851  23.610  1.00  0.00     0.193 C 
BRANCH  34  35
ATOM     35  O   UNL A   1      29.261  25.865  24.140  1.00  0.00    -0.394 OA
ATOM     36  H   UNL A   1      29.630  25.498  24.959  1.00  0.00     0.210 HD
ENDBRANCH  34  35
ENDBRANCH   5  34
ENDBRANCH   3   5
ENDBRANCH   2   3
ENDBRANCH   1   2
BRANCH   1  37
ATOM     37  C   UNL A   1      32.805  30.716  26.869  1.00  0.00     0.275 C 
BRANCH  37  38
ATOM     38  O   UNL A   1      33.556  30.897  28.107  1.00  0.00    -0.458 OA
BRANCH  38  39
ATOM     39  C   UNL A   1      34.504  31.881  28.183  1.00  0.00     0.338 C 
ATOM     40  O   UNL A   1      34.250  33.076  28.204  1.00  0.00    -0.246 OA
BRANCH  39  41
ATOM     41  C   UNL A   1      35.908  31.305  28.219  1.00  0.00     0.060 A 
ATOM     42  C   UNL A   1      36.229  30.114  27.579  1.00  0.00     0.016 A 
ATOM     43  C   UNL A   1      36.930  31.881  28.982  1.00  0.00     0.016 A 
ATOM     44  C   UNL A   1      37.564  29.580  27.645  1.00  0.00     0.010 A 
ATOM     45  C   UNL A   1      38.257  31.301  29.094  1.00  0.00     0.010 A 
ATOM     46  C   UNL A   1      38.646  30.142  28.414  1.00  0.00    -0.014 A 
BRANCH  46  47
ATOM     47  C   UNL A   1      39.855  29.184  28.835  1.00  0.00     0.031 A 
ATOM     48  C   UNL A   1      39.448  28.768  30.205  1.00  0.00     0.074 A 
ATOM     49  C   UNL A   1      41.122  28.753  28.427  1.00  0.00     0.049 A 
ATOM     50  N   UNL A   1      38.887  29.637  31.010  1.00  0.00    -0.248 NA
ATOM     51  C   UNL A   1      39.337  27.388  30.674  1.00  0.00     0.031 C 
ATOM     52  C   UNL A   1      41.854  29.114  27.200  1.00  0.00     0.029 A 
ATOM     53  N   UNL A   1      42.097  27.881  29.029  1.00  0.00    -0.354 N 
ATOM     54  C   UNL A   1      38.918  29.037  32.223  1.00  0.00     0.074 A 
ATOM     55  C   UNL A   1      38.843  27.620  31.898  1.00  0.00     0.031 C 
ATOM     56  C   UNL A   1      43.027  28.421  27.076  1.00  0.00     0.029 A 
ATOM     57  C   UNL A   1      43.271  27.569  28.242  1.00  0.00     0.049 A 
ATOM     58  H   UNL A   1      41.971  27.512  29.934  1.00  0.00     0.167 HD
ATOM     59  C   UNL A   1      39.696  29.688  33.137  1.00  0.00     0.034 A 
ATOM     60  C   UNL A   1      44.398  26.793  28.525  1.00  0.00     0.034 A 
ATOM     61  C   UNL A   1      40.773  28.889  33.643  1.00  0.00     0.049 A 
ATOM     62  C   UNL A   1      44.531  26.819  29.993  1.00  0.00     0.074 A 
ATOM     63  C   UNL A   1      40.911  27.553  33.965  1.00  0.00     0.029 A 
ATOM     64  N   UNL A   1      42.046  29.387  33.485  1.00  0.00    -0.354 N 
ATOM     65  N   UNL A   1      45.054  27.851  30.587  1.00  0.00    -0.248 NA
ATOM     66  C   UNL A   1      44.317  25.655  30.845  1.00  0.00     0.031 C 
ATOM     67  C   UNL A   1      42.208  27.188  33.536  1.00  0.00     0.029 A 
ATOM     68  C   UNL A   1      42.911  28.342  33.223  1.00  0.00     0.049 A 
ATOM     69  H   UNL A   1      42.301  30.336  33.549  1.00  0.00     0.167 HD
ATOM     70  C   UNL A   1      44.768  27.647  31.899  1.00  0.00     0.074 A 
ATOM     71  C   UNL A   1      44.588  26.214  32.028  1.00  0.00     0.031 C 
ATOM     72  C   UNL A   1      44.143  28.662  32.541  1.00  0.00     0.034 A 
BRANCH  59  73
ATOM     73  C   UNL A   1      39.734  31.203  32.935  1.00  0.00     0.023 A 
ATOM     74  C   UNL A   1      40.854  31.738  32.281  1.00  0.00     0.012 A 
ATOM     75  C   UNL A   1      38.824  32.101  33.571  1.00  0.00     0.148 A 
ATOM     76  C   UNL A   1      41.091  33.116  32.288  1.00  0.00     0.002 A 
ATOM     77  C   UNL A   1      39.091  33.470  33.612  1.00  0.00     0.091 A 
ATOM     78  F   UNL A   1      37.736  31.590  34.168  1.00  0.00    -0.205 F 
ATOM     79  C   UNL A   1      40.230  33.975  32.971  1.00  0.00     0.022 A 
BRANCH  77  80
ATOM     80  S   UNL A   1      38.128  34.653  34.581  1.00  0.00     0.127 S 
ATOM     81  O   UNL A   1      37.054  35.019  33.651  1.00  0.00    -0.237 OA
ATOM     82  O   UNL A   1      37.671  33.857  35.714  1.00  0.00    -0.237 OA
ATOM     83  O   UNL A   1      39.032  35.747  34.911  1.00  0.00    -0.744 OA
ENDBRANCH  77  80
ENDBRANCH  59  73
BRANCH  60  84
ATOM     84  C   UNL A   1      45.737  26.169  27.970  1.00  0.00     0.023 A 
ATOM     85  C   UNL A   1      45.722  24.766  27.637  1.00  0.00     0.012 A 
ATOM     86  C   UNL A   1      46.788  26.894  27.358  1.00  0.00     0.148 A 
ATOM     87  C   UNL A   1      46.551  24.163  26.674  1.00  0.00     0.002 A 
ATOM     88  C   UNL A   1      47.670  26.264  26.430  1.00  0.00     0.091 A 
ATOM     89  F   UNL A   1      46.873  28.211  27.586  1.00  0.00    -0.205 F 
ATOM     90  C   UNL A   1      47.522  24.918  26.059  1.00  0.00     0.022 A 
BRANCH  88  91
ATOM     91  S   UNL A   1      49.032  27.109  25.587  1.00  0.00     0.127 S 
ATOM     92  O   UNL A   1      48.334  28.011  24.668  1.00  0.00    -0.237 OA
ATOM     93  O   UNL A   1      49.705  27.784  26.695  1.00  0.00    -0.237 OA
ATOM     94  O   UNL A   1      49.788  26.053  24.929  1.00  0.00    -0.744 OA
ENDBRANCH  88  91
ENDBRANCH  60  84
BRANCH  72  95
ATOM     95  C   UNL A   1      44.572  30.086  32.214  1.00  0.00     0.023 A 
ATOM     96  C   UNL A   1      45.529  30.836  32.936  1.00  0.00     0.012 A 
ATOM     97  C   UNL A   1      44.001  30.692  31.084  1.00  0.00     0.148 A 
ATOM     98  C   UNL A   1      45.873  32.141  32.567  1.00  0.00     0.002 A 
ATOM     99  C   UNL A   1      44.388  31.967  30.678  1.00  0.00     0.091 A 
ATOM    100  F   UNL A   1      43.072  29.999  30.404  1.00  0.00    -0.205 F 
ATOM    101  C   UNL A   1      45.317  32.702  31.423  1.00  0.00     0.022 A 
BRANCH  99 102
ATOM    102  S   UNL A   1      43.733  32.658  29.159  1.00  0.00     0.127 S 
ATOM    103  O   UNL A   1      44.224  31.713  28.158  1.00  0.00    -0.237 OA
ATOM    104  O   UNL A   1      42.286  32.634  29.357  1.00  0.00    -0.237 OA
ATOM    105  O   UNL A   1      44.301  34.002  29.082  1.00  0.00    -0.744 OA
ENDBRANCH  99 102
ENDBRANCH  72  95
ENDBRANCH  46  47
ENDBRANCH  39  41
ENDBRANCH  38  39
ENDBRANCH  37  38
ENDBRANCH   1  37
TORSDOF 22
ENDMDL
