MODEL 1
REMARK VINA RESULT:     -11.2      0.000      0.000
REMARK SMILES C[C@]12CC[C@H]3[C@@H](CCC4=CC(=O)C=C[C@@]43C)[C@@H]1CC[C@H]2O[C@@H]1O[C@H](C(=O)OCCOC(=O)c2ccc(-c3c4nc(c(-c5cccc(S(=O)(=O)[O-])c5F)c5ccc([nH]5)c(-c5cccc(S(=O)(=O)[O-])c5F)c5nc(c(-c6cccc(S(=O)(=O)[O-])c6F)c6ccc3[nH]6)C=C5)C=C4)cc2)[C@@H](O)[C@H](O)[C@H]1O
REMARK SMILES IDX 29 1 28 2 27 3 25 4 26 5 24 6 22 7 23 8 100 9 98 10 96 11
REMARK SMILES IDX 21 12 20 13 1 14 2 15 3 16 17 17 4 18 6 19 18 20 19 21 5 22
REMARK SMILES IDX 7 23 15 24 8 25 9 26 14 27 16 28 10 29 13 30 11 31 12 32
REMARK SMILES IDX 101 33 99 35 97 37 30 39 31 40 32 41 33 42 34 43 95 44 35 45
REMARK SMILES IDX 94 46 36 47 37 48 38 49 88 50 39 51 93 52 87 53 89 54 40 55
REMARK SMILES IDX 92 56 86 57 85 58 41 60 73 61 53 62 72 63 54 64 57 65 71 66
REMARK SMILES IDX 90 67 55 68 56 69 70 71 91 72 58 73 42 74 43 75 51 76 44 77
REMARK SMILES IDX 46 78 52 79 45 80 47 81 48 82 49 83 50 84 74 85 75 86 83 87
REMARK SMILES IDX 76 88 78 89 84 90 77 91 79 92 80 93 81 94 82 95 59 96 60 97
REMARK SMILES IDX 68 98 61 99 63 100 69 101 62 102 64 103 65 104 66 105 67 106
REMARK H PARENT 101 34 99 36 97 38 89 59 57 70
REMARK Flexibility Score: inf
ROOT
ATOM      1  C   UNL A   1      34.523  32.501  28.817  1.00  0.00     0.275 C 
ENDROOT
BRANCH   1   2
ATOM      2  C   UNL A   1      35.167  33.613  27.989  1.00  0.00     0.274 C 
BRANCH   2   3
ATOM      3  O   UNL A   1      34.819  34.899  28.542  1.00  0.00    -0.460 OA
BRANCH   3   4
ATOM      4  C   UNL A   1      33.598  35.011  29.109  1.00  0.00     0.338 C 
ATOM      5  O   UNL A   1      32.533  34.768  28.548  1.00  0.00    -0.249 OA
BRANCH   4   6
ATOM      6  C   UNL A   1      33.640  35.507  30.558  1.00  0.00     0.262 C 
ATOM      7  C   UNL A   1      34.670  35.435  32.734  1.00  0.00     0.282 C 
ATOM      8  O   UNL A   1      34.723  35.046  31.360  1.00  0.00    -0.332 OA
ATOM      9  C   UNL A   1      34.269  36.914  32.982  1.00  0.00     0.202 C 
ATOM     10  C   UNL A   1      33.246  37.465  31.984  1.00  0.00     0.180 C 
ATOM     11  C   UNL A   1      33.624  37.038  30.559  1.00  0.00     0.186 C 
BRANCH   7  12
ATOM     12  O   UNL A   1      35.814  34.988  33.486  1.00  0.00    -0.346 OA
BRANCH  12  13
ATOM     13  C   UNL A   1      36.440  33.701  33.487  1.00  0.00     0.127 C 
ATOM     14  C   UNL A   1      37.751  31.906  32.240  1.00  0.00     0.014 C 
ATOM     15  C   UNL A   1      37.589  33.443  32.469  1.00  0.00    -0.003 C 
ATOM     16  C   UNL A   1      37.468  34.114  31.103  1.00  0.00     0.010 C 
ATOM     17  C   UNL A   1      38.767  34.033  33.250  1.00  0.00     0.001 C 
ATOM     18  C   UNL A   1      38.781  34.003  30.302  1.00  0.00     0.006 C 
ATOM     19  C   UNL A   1      40.118  33.959  32.539  1.00  0.00    -0.003 C 
ATOM     20  C   UNL A   1      38.597  33.458  34.663  1.00  0.00     0.007 C 
ATOM     21  C   UNL A   1      37.072  33.201  34.803  1.00  0.00     0.033 C 
ATOM     22  C   UNL A   1      40.015  34.526  31.079  1.00  0.00     0.006 C 
ATOM     23  C   UNL A   1      41.158  34.798  33.310  1.00  0.00     0.009 C 
ATOM     24  C   UNL A   1      41.397  34.407  30.327  1.00  0.00     0.010 C 
ATOM     25  C   UNL A   1      42.524  34.818  32.630  1.00  0.00     0.032 C 
ATOM     26  C   UNL A   1      42.443  35.163  31.162  1.00  0.00    -0.056 C 
ATOM     27  C   UNL A   1      41.337  34.948  28.902  1.00  0.00    -0.012 C 
ATOM     28  C   UNL A   1      41.855  32.942  30.168  1.00  0.00     0.021 C 
ATOM     29  C   UNL A   1      43.245  36.117  30.654  1.00  0.00     0.052 C 
ATOM     30  C   UNL A   1      42.155  35.879  28.395  1.00  0.00     0.048 C 
ATOM     31  C   UNL A   1      43.175  36.530  29.236  1.00  0.00     0.178 C 
ATOM     32  O   UNL A   1      43.900  37.410  28.793  1.00  0.00    -0.290 OA
ENDBRANCH  12  13
ENDBRANCH   7  12
BRANCH   9  33
ATOM     33  O   UNL A   1      33.828  37.111  34.335  1.00  0.00    -0.385 OA
ATOM     34  H   UNL A   1      32.882  37.328  34.338  1.00  0.00     0.211 HD
ENDBRANCH   9  33
BRANCH  10  35
ATOM     35  O   UNL A   1      33.202  38.898  32.101  1.00  0.00    -0.387 OA
ATOM     36  H   UNL A   1      32.313  39.174  32.372  1.00  0.00     0.211 HD
ENDBRANCH  10  35
BRANCH  11  37
ATOM     37  O   UNL A   1      32.733  37.662  29.636  1.00  0.00    -0.387 OA
ATOM     38  H   UNL A   1      32.449  38.520  29.991  1.00  0.00     0.211 HD
ENDBRANCH  11  37
ENDBRANCH   4   6
ENDBRANCH   3   4
ENDBRANCH   2   3
ENDBRANCH   1   2
BRANCH   1  39
ATOM     39  O   UNL A   1      35.539  31.683  29.390  1.00  0.00    -0.458 OA
BRANCH  39  40
ATOM     40  C   UNL A   1      35.609  30.432  28.888  1.00  0.00     0.338 C 
ATOM     41  O   UNL A   1      34.862  29.887  28.096  1.00  0.00    -0.246 OA
BRANCH  40  42
ATOM     42  C   UNL A   1      36.943  29.965  29.249  1.00  0.00     0.060 A 
ATOM     43  C   UNL A   1      38.037  30.656  28.723  1.00  0.00     0.016 A 
ATOM     44  C   UNL A   1      37.091  28.945  30.190  1.00  0.00     0.016 A 
ATOM     45  C   UNL A   1      39.309  30.338  29.156  1.00  0.00     0.010 A 
ATOM     46  C   UNL A   1      38.365  28.614  30.614  1.00  0.00     0.010 A 
ATOM     47  C   UNL A   1      39.468  29.296  30.075  1.00  0.00    -0.014 A 
BRANCH  47  48
ATOM     48  C   UNL A   1      40.810  28.754  30.303  1.00  0.00     0.031 A 
ATOM     49  C   UNL A   1      41.617  29.389  31.393  1.00  0.00     0.074 A 
ATOM     50  C   UNL A   1      41.258  27.742  29.544  1.00  0.00     0.049 A 
ATOM     51  N   UNL A   1      42.852  29.172  31.737  1.00  0.00    -0.248 NA
ATOM     52  C   UNL A   1      40.942  30.430  32.194  1.00  0.00     0.031 C 
ATOM     53  C   UNL A   1      40.500  27.087  28.475  1.00  0.00     0.029 A 
ATOM     54  N   UNL A   1      42.467  27.108  29.539  1.00  0.00    -0.354 N 
ATOM     55  C   UNL A   1      43.119  30.080  32.752  1.00  0.00     0.074 A 
ATOM     56  C   UNL A   1      41.924  30.856  32.972  1.00  0.00     0.031 C 
ATOM     57  C   UNL A   1      41.277  26.155  27.898  1.00  0.00     0.029 A 
ATOM     58  C   UNL A   1      42.590  26.180  28.533  1.00  0.00     0.049 A 
ATOM     59  H   UNL A   1      43.180  27.298  30.192  1.00  0.00     0.167 HD
ATOM     60  C   UNL A   1      44.271  30.239  33.439  1.00  0.00     0.034 A 
ATOM     61  C   UNL A   1      43.669  25.465  28.164  1.00  0.00     0.034 A 
ATOM     62  C   UNL A   1      45.429  29.427  33.198  1.00  0.00     0.049 A 
ATOM     63  C   UNL A   1      44.930  25.647  28.965  1.00  0.00     0.074 A 
ATOM     64  C   UNL A   1      46.650  29.451  33.839  1.00  0.00     0.029 A 
ATOM     65  N   UNL A   1      45.499  28.439  32.224  1.00  0.00    -0.354 N 
ATOM     66  N   UNL A   1      45.154  26.455  29.976  1.00  0.00    -0.248 NA
ATOM     67  C   UNL A   1      46.072  24.799  28.607  1.00  0.00     0.031 C 
ATOM     68  C   UNL A   1      47.470  28.496  33.233  1.00  0.00     0.029 A 
ATOM     69  C   UNL A   1      46.744  27.843  32.247  1.00  0.00     0.049 A 
ATOM     70  H   UNL A   1      44.769  28.199  31.609  1.00  0.00     0.167 HD
ATOM     71  C   UNL A   1      46.446  26.183  30.405  1.00  0.00     0.074 A 
ATOM     72  C   UNL A   1      46.946  25.122  29.550  1.00  0.00     0.031 C 
ATOM     73  C   UNL A   1      47.164  26.753  31.403  1.00  0.00     0.034 A 
BRANCH  60  74
ATOM     74  C   UNL A   1      44.327  31.317  34.485  1.00  0.00     0.023 A 
ATOM     75  C   UNL A   1      44.812  32.601  34.158  1.00  0.00     0.012 A 
ATOM     76  C   UNL A   1      43.867  31.066  35.792  1.00  0.00     0.148 A 
ATOM     77  C   UNL A   1      44.865  33.607  35.123  1.00  0.00     0.002 A 
ATOM     78  C   UNL A   1      43.875  32.087  36.733  1.00  0.00     0.091 A 
ATOM     79  F   UNL A   1      43.440  29.831  36.091  1.00  0.00    -0.205 F 
ATOM     80  C   UNL A   1      44.384  33.354  36.405  1.00  0.00     0.022 A 
BRANCH  78  81
ATOM     81  S   UNL A   1      43.209  31.886  38.389  1.00  0.00     0.127 S 
ATOM     82  O   UNL A   1      43.324  33.244  38.921  1.00  0.00    -0.237 OA
ATOM     83  O   UNL A   1      41.839  31.453  38.114  1.00  0.00    -0.237 OA
ATOM     84  O   UNL A   1      44.046  30.892  39.045  1.00  0.00    -0.744 OA
ENDBRANCH  78  81
ENDBRANCH  60  74
BRANCH  61  85
ATOM     85  C   UNL A   1      43.590  24.513  27.020  1.00  0.00     0.023 A 
ATOM     86  C   UNL A   1      44.193  24.844  25.791  1.00  0.00     0.012 A 
ATOM     87  C   UNL A   1      42.939  23.271  27.151  1.00  0.00     0.148 A 
ATOM     88  C   UNL A   1      44.113  23.974  24.702  1.00  0.00     0.002 A 
ATOM     89  C   UNL A   1      42.912  22.384  26.079  1.00  0.00     0.091 A 
ATOM     90  F   UNL A   1      42.361  22.976  28.323  1.00  0.00    -0.205 F 
ATOM     91  C   UNL A   1      43.482  22.741  24.848  1.00  0.00     0.022 A 
BRANCH  89  92
ATOM     92  S   UNL A   1      42.233  20.727  26.223  1.00  0.00     0.127 S 
ATOM     93  O   UNL A   1      40.831  20.948  25.879  1.00  0.00    -0.237 OA
ATOM     94  O   UNL A   1      43.006  19.995  25.218  1.00  0.00    -0.237 OA
ATOM     95  O   UNL A   1      42.494  20.316  27.595  1.00  0.00    -0.744 OA
ENDBRANCH  89  92
ENDBRANCH  61  85
BRANCH  73  96
ATOM     96  C   UNL A   1      48.532  26.190  31.668  1.00  0.00     0.023 A 
ATOM     97  C   UNL A   1      49.641  26.643  30.931  1.00  0.00     0.012 A 
ATOM     98  C   UNL A   1      48.715  25.260  32.709  1.00  0.00     0.148 A 
ATOM     99  C   UNL A   1      50.914  26.145  31.201  1.00  0.00     0.002 A 
ATOM    100  C   UNL A   1      49.992  24.815  33.012  1.00  0.00     0.091 A 
ATOM    101  F   UNL A   1      47.637  24.832  33.383  1.00  0.00    -0.205 F 
ATOM    102  C   UNL A   1      51.091  25.243  32.249  1.00  0.00     0.022 A 
BRANCH 100 103
ATOM    103  S   UNL A   1      50.322  23.746  34.415  1.00  0.00     0.127 S 
ATOM    104  O   UNL A   1      49.547  22.555  34.069  1.00  0.00    -0.237 OA
ATOM    105  O   UNL A   1      51.772  23.575  34.340  1.00  0.00    -0.237 OA
ATOM    106  O   UNL A   1      49.861  24.473  35.590  1.00  0.00    -0.744 OA
ENDBRANCH 100 103
ENDBRANCH  73  96
ENDBRANCH  47  48
ENDBRANCH  40  42
ENDBRANCH  39  40
ENDBRANCH   1  39
TORSDOF 19
ENDMDL
MODEL 2
REMARK VINA RESULT:     -11.0      0.848      7.169
REMARK SMILES C[C@]12CC[C@H]3[C@@H](CCC4=CC(=O)C=C[C@@]43C)[C@@H]1CC[C@H]2O[C@@H]1O[C@H](C(=O)OCCOC(=O)c2ccc(-c3c4nc(c(-c5cccc(S(=O)(=O)[O-])c5F)c5ccc([nH]5)c(-c5cccc(S(=O)(=O)[O-])c5F)c5nc(c(-c6cccc(S(=O)(=O)[O-])c6F)c6ccc3[nH]6)C=C5)C=C4)cc2)[C@@H](O)[C@H](O)[C@H]1O
REMARK SMILES IDX 29 1 28 2 27 3 25 4 26 5 24 6 22 7 23 8 100 9 98 10 96 11
REMARK SMILES IDX 21 12 20 13 1 14 2 15 3 16 17 17 4 18 6 19 18 20 19 21 5 22
REMARK SMILES IDX 7 23 15 24 8 25 9 26 14 27 16 28 10 29 13 30 11 31 12 32
REMARK SMILES IDX 101 33 99 35 97 37 30 39 31 40 32 41 33 42 34 43 95 44 35 45
REMARK SMILES IDX 94 46 36 47 37 48 38 49 88 50 39 51 93 52 87 53 89 54 40 55
REMARK SMILES IDX 92 56 86 57 85 58 41 60 73 61 53 62 72 63 54 64 57 65 71 66
REMARK SMILES IDX 90 67 55 68 56 69 70 71 91 72 58 73 42 74 43 75 51 76 44 77
REMARK SMILES IDX 46 78 52 79 45 80 47 81 48 82 49 83 50 84 74 85 75 86 83 87
REMARK SMILES IDX 76 88 78 89 84 90 77 91 79 92 80 93 81 94 82 95 59 96 60 97
REMARK SMILES IDX 68 98 61 99 63 100 69 101 62 102 64 103 65 104 66 105 67 106
REMARK H PARENT 101 34 99 36 97 38 89 59 57 70
REMARK Flexibility Score: inf
ROOT
ATOM      1  C   UNL A   1      34.541  31.973  28.925  1.00  0.00     0.275 C 
ENDROOT
BRANCH   1   2
ATOM      2  C   UNL A   1      35.059  32.953  27.872  1.00  0.00     0.274 C 
BRANCH   2   3
ATOM      3  O   UNL A   1      34.804  34.308  28.298  1.00  0.00    -0.460 OA
BRANCH   3   4
ATOM      4  C   UNL A   1      33.610  34.551  28.882  1.00  0.00     0.338 C 
ATOM      5  O   UNL A   1      32.519  34.450  28.327  1.00  0.00    -0.249 OA
BRANCH   4   6
ATOM      6  C   UNL A   1      33.723  35.005  30.340  1.00  0.00     0.262 C 
ATOM      7  C   UNL A   1      34.921  34.953  32.430  1.00  0.00     0.282 C 
ATOM      8  O   UNL A   1      34.899  34.611  31.042  1.00  0.00    -0.332 OA
ATOM      9  C   UNL A   1      34.423  36.386  32.760  1.00  0.00     0.202 C 
ATOM     10  C   UNL A   1      33.286  36.881  31.861  1.00  0.00     0.180 C 
ATOM     11  C   UNL A   1      33.586  36.530  30.397  1.00  0.00     0.186 C 
BRANCH   7  12
ATOM     12  O   UNL A   1      36.150  34.579  33.079  1.00  0.00    -0.346 OA
BRANCH  12  13
ATOM     13  C   UNL A   1      36.875  33.348  32.988  1.00  0.00     0.127 C 
ATOM     14  C   UNL A   1      38.336  31.767  31.624  1.00  0.00     0.014 C 
ATOM     15  C   UNL A   1      38.052  33.263  31.973  1.00  0.00    -0.003 C 
ATOM     16  C   UNL A   1      37.896  34.032  30.664  1.00  0.00     0.010 C 
ATOM     17  C   UNL A   1      39.171  33.875  32.821  1.00  0.00     0.001 C 
ATOM     18  C   UNL A   1      39.224  34.088  29.881  1.00  0.00     0.006 C 
ATOM     19  C   UNL A   1      40.533  33.963  32.131  1.00  0.00    -0.003 C 
ATOM     20  C   UNL A   1      39.029  33.175  34.179  1.00  0.00     0.007 C 
ATOM     21  C   UNL A   1      37.527  32.792  34.270  1.00  0.00     0.033 C 
ATOM     22  C   UNL A   1      40.404  34.638  30.720  1.00  0.00     0.006 C 
ATOM     23  C   UNL A   1      41.495  34.813  32.987  1.00  0.00     0.009 C 
ATOM     24  C   UNL A   1      41.799  34.687  29.986  1.00  0.00     0.010 C 
ATOM     25  C   UNL A   1      42.863  34.993  32.336  1.00  0.00     0.032 C 
ATOM     26  C   UNL A   1      42.773  35.451  30.899  1.00  0.00    -0.056 C 
ATOM     27  C   UNL A   1      41.715  35.337  28.609  1.00  0.00    -0.012 C 
ATOM     28  C   UNL A   1      42.372  33.280  29.718  1.00  0.00     0.021 C 
ATOM     29  C   UNL A   1      43.505  36.501  30.484  1.00  0.00     0.052 C 
ATOM     30  C   UNL A   1      42.464  36.367  28.194  1.00  0.00     0.048 C 
ATOM     31  C   UNL A   1      43.420  37.023  29.104  1.00  0.00     0.178 C 
ATOM     32  O   UNL A   1      44.080  37.989  28.747  1.00  0.00    -0.290 OA
ENDBRANCH  12  13
ENDBRANCH   7  12
BRANCH   9  33
ATOM     33  O   UNL A   1      34.073  36.506  34.148  1.00  0.00    -0.385 OA
ATOM     34  H   UNL A   1      33.836  35.632  34.499  1.00  0.00     0.211 HD
ENDBRANCH   9  33
BRANCH  10  35
ATOM     35  O   UNL A   1      33.138  38.301  32.033  1.00  0.00    -0.387 OA
ATOM     36  H   UNL A   1      32.845  38.489  32.938  1.00  0.00     0.211 HD
ENDBRANCH  10  35
BRANCH  11  37
ATOM     37  O   UNL A   1      32.581  37.106  29.566  1.00  0.00    -0.387 OA
ATOM     38  H   UNL A   1      32.753  36.869  28.640  1.00  0.00     0.211 HD
ENDBRANCH  11  37
ENDBRANCH   4   6
ENDBRANCH   3   4
ENDBRANCH   2   3
ENDBRANCH   1   2
BRANCH   1  39
ATOM     39  O   UNL A   1      35.616  31.167  29.397  1.00  0.00    -0.458 OA
BRANCH  39  40
ATOM     40  C   UNL A   1      35.720  29.958  28.806  1.00  0.00     0.338 C 
ATOM     41  O   UNL A   1      34.920  29.394  28.083  1.00  0.00    -0.246 OA
BRANCH  40  42
ATOM     42  C   UNL A   1      37.124  29.594  28.958  1.00  0.00     0.060 A 
ATOM     43  C   UNL A   1      37.466  28.760  30.026  1.00  0.00     0.016 A 
ATOM     44  C   UNL A   1      38.049  29.971  27.984  1.00  0.00     0.016 A 
ATOM     45  C   UNL A   1      38.757  28.276  30.119  1.00  0.00     0.010 A 
ATOM     46  C   UNL A   1      39.346  29.499  28.084  1.00  0.00     0.010 A 
ATOM     47  C   UNL A   1      39.698  28.675  29.165  1.00  0.00    -0.014 A 
BRANCH  47  48
ATOM     48  C   UNL A   1      41.117  28.421  29.423  1.00  0.00     0.031 A 
ATOM     49  C   UNL A   1      41.766  27.340  28.616  1.00  0.00     0.074 A 
ATOM     50  C   UNL A   1      41.764  29.141  30.352  1.00  0.00     0.049 A 
ATOM     51  N   UNL A   1      42.967  26.851  28.708  1.00  0.00    -0.248 NA
ATOM     52  C   UNL A   1      40.935  26.707  27.571  1.00  0.00     0.031 C 
ATOM     53  C   UNL A   1      41.172  30.212  31.157  1.00  0.00     0.029 A 
ATOM     54  N   UNL A   1      43.054  29.061  30.793  1.00  0.00    -0.354 N 
ATOM     55  C   UNL A   1      43.021  25.823  27.777  1.00  0.00     0.074 A 
ATOM     56  C   UNL A   1      41.735  25.750  27.128  1.00  0.00     0.031 C 
ATOM     57  C   UNL A   1      42.096  30.673  32.017  1.00  0.00     0.029 A 
ATOM     58  C   UNL A   1      43.323  29.904  31.843  1.00  0.00     0.049 A 
ATOM     59  H   UNL A   1      43.725  28.457  30.397  1.00  0.00     0.167 HD
ATOM     60  C   UNL A   1      44.067  25.016  27.494  1.00  0.00     0.034 A 
ATOM     61  C   UNL A   1      44.438  30.002  32.591  1.00  0.00     0.034 A 
ATOM     62  C   UNL A   1      45.335  25.141  28.152  1.00  0.00     0.049 A 
ATOM     63  C   UNL A   1      45.594  29.107  32.234  1.00  0.00     0.074 A 
ATOM     64  C   UNL A   1      46.492  24.419  27.943  1.00  0.00     0.029 A 
ATOM     65  N   UNL A   1      45.604  26.059  29.159  1.00  0.00    -0.354 N 
ATOM     66  N   UNL A   1      45.665  28.186  31.300  1.00  0.00    -0.248 NA
ATOM     67  C   UNL A   1      46.832  29.283  33.000  1.00  0.00     0.031 C 
ATOM     68  C   UNL A   1      47.453  24.881  28.846  1.00  0.00     0.029 A 
ATOM     69  C   UNL A   1      46.910  25.924  29.583  1.00  0.00     0.049 A 
ATOM     70  H   UNL A   1      44.957  26.710  29.517  1.00  0.00     0.167 HD
ATOM     71  C   UNL A   1      46.967  27.705  31.334  1.00  0.00     0.074 A 
ATOM     72  C   UNL A   1      47.651  28.450  32.374  1.00  0.00     0.031 C 
ATOM     73  C   UNL A   1      47.550  26.734  30.588  1.00  0.00     0.034 A 
BRANCH  60  74
ATOM     74  C   UNL A   1      43.873  23.948  26.453  1.00  0.00     0.023 A 
ATOM     75  C   UNL A   1      44.460  24.085  25.177  1.00  0.00     0.012 A 
ATOM     76  C   UNL A   1      43.132  22.789  26.750  1.00  0.00     0.148 A 
ATOM     77  C   UNL A   1      44.287  23.098  24.206  1.00  0.00     0.002 A 
ATOM     78  C   UNL A   1      43.007  21.788  25.797  1.00  0.00     0.091 A 
ATOM     79  F   UNL A   1      42.555  22.694  27.957  1.00  0.00    -0.205 F 
ATOM     80  C   UNL A   1      43.572  21.945  24.521  1.00  0.00     0.022 A 
BRANCH  78  81
ATOM     81  S   UNL A   1      42.172  20.232  26.126  1.00  0.00     0.127 S 
ATOM     82  O   UNL A   1      42.676  19.390  25.041  1.00  0.00    -0.237 OA
ATOM     83  O   UNL A   1      42.683  19.889  27.453  1.00  0.00    -0.237 OA
ATOM     84  O   UNL A   1      40.745  20.519  26.074  1.00  0.00    -0.744 OA
ENDBRANCH  78  81
ENDBRANCH  60  74
BRANCH  61  85
ATOM     85  C   UNL A   1      44.516  30.985  33.708  1.00  0.00     0.023 A 
ATOM     86  C   UNL A   1      44.979  32.292  33.459  1.00  0.00     0.012 A 
ATOM     87  C   UNL A   1      44.113  30.639  35.012  1.00  0.00     0.148 A 
ATOM     88  C   UNL A   1      45.079  33.221  34.496  1.00  0.00     0.002 A 
ATOM     89  C   UNL A   1      44.160  31.586  36.029  1.00  0.00     0.091 A 
ATOM     90  F   UNL A   1      43.685  29.388  35.234  1.00  0.00    -0.205 F 
ATOM     91  C   UNL A   1      44.660  32.873  35.778  1.00  0.00     0.022 A 
BRANCH  89  92
ATOM     92  S   UNL A   1      43.522  31.258  37.676  1.00  0.00     0.127 S 
ATOM     93  O   UNL A   1      43.721  32.546  38.335  1.00  0.00    -0.237 OA
ATOM     94  O   UNL A   1      42.126  30.917  37.398  1.00  0.00    -0.237 OA
ATOM     95  O   UNL A   1      44.316  30.151  38.189  1.00  0.00    -0.744 OA
ENDBRANCH  89  92
ENDBRANCH  61  85
BRANCH  73  96
ATOM     96  C   UNL A   1      49.013  26.481  30.822  1.00  0.00     0.023 A 
ATOM     97  C   UNL A   1      49.982  27.273  30.178  1.00  0.00     0.012 A 
ATOM     98  C   UNL A   1      49.413  25.499  31.749  1.00  0.00     0.148 A 
ATOM     99  C   UNL A   1      51.336  27.059  30.424  1.00  0.00     0.002 A 
ATOM    100  C   UNL A   1      50.759  25.334  32.032  1.00  0.00     0.091 A 
ATOM    101  F   UNL A   1      48.467  24.748  32.334  1.00  0.00    -0.205 F 
ATOM    102  C   UNL A   1      51.724  26.102  31.359  1.00  0.00     0.022 A 
BRANCH 100 103
ATOM    103  S   UNL A   1      51.334  24.208  33.305  1.00  0.00     0.127 S 
ATOM    104  O   UNL A   1      50.533  24.626  34.455  1.00  0.00    -0.237 OA
ATOM    105  O   UNL A   1      50.973  22.904  32.750  1.00  0.00    -0.237 OA
ATOM    106  O   UNL A   1      52.768  24.437  33.425  1.00  0.00    -0.744 OA
ENDBRANCH 100 103
ENDBRANCH  73  96
ENDBRANCH  47  48
ENDBRANCH  40  42
ENDBRANCH  39  40
ENDBRANCH   1  39
TORSDOF 19
ENDMDL
MODEL 3
REMARK VINA RESULT:     -10.8      5.828     12.726
REMARK SMILES C[C@]12CC[C@H]3[C@@H](CCC4=CC(=O)C=C[C@@]43C)[C@@H]1CC[C@H]2O[C@@H]1O[C@H](C(=O)OCCOC(=O)c2ccc(-c3c4nc(c(-c5cccc(S(=O)(=O)[O-])c5F)c5ccc([nH]5)c(-c5cccc(S(=O)(=O)[O-])c5F)c5nc(c(-c6cccc(S(=O)(=O)[O-])c6F)c6ccc3[nH]6)C=C5)C=C4)cc2)[C@@H](O)[C@H](O)[C@H]1O
REMARK SMILES IDX 29 1 28 2 27 3 25 4 26 5 24 6 22 7 23 8 100 9 98 10 96 11
REMARK SMILES IDX 21 12 20 13 1 14 2 15 3 16 17 17 4 18 6 19 18 20 19 21 5 22
REMARK SMILES IDX 7 23 15 24 8 25 9 26 14 27 16 28 10 29 13 30 11 31 12 32
REMARK SMILES IDX 101 33 99 35 97 37 30 39 31 40 32 41 33 42 34 43 95 44 35 45
REMARK SMILES IDX 94 46 36 47 37 48 38 49 88 50 39 51 93 52 87 53 89 54 40 55
REMARK SMILES IDX 92 56 86 57 85 58 41 60 73 61 53 62 72 63 54 64 57 65 71 66
REMARK SMILES IDX 90 67 55 68 56 69 70 71 91 72 58 73 42 74 43 75 51 76 44 77
REMARK SMILES IDX 46 78 52 79 45 80 47 81 48 82 49 83 50 84 74 85 75 86 83 87
REMARK SMILES IDX 76 88 78 89 84 90 77 91 79 92 80 93 81 94 82 95 59 96 60 97
REMARK SMILES IDX 68 98 61 99 63 100 69 101 62 102 64 103 65 104 66 105 67 106
REMARK H PARENT 101 34 99 36 97 38 89 59 57 70
REMARK Flexibility Score: inf
ROOT
ATOM      1  C   UNL A   1      43.710  18.307  25.371  1.00  0.00     0.275 C 
ENDROOT
BRANCH   1   2
ATOM      2  C   UNL A   1      42.726  18.878  26.393  1.00  0.00     0.274 C 
BRANCH   2   3
ATOM      3  O   UNL A   1      41.986  19.968  25.804  1.00  0.00    -0.460 OA
BRANCH   3   4
ATOM      4  C   UNL A   1      40.640  19.854  25.786  1.00  0.00     0.338 C 
ATOM      5  O   UNL A   1      40.021  18.794  25.747  1.00  0.00    -0.249 OA
BRANCH   4   6
ATOM      6  C   UNL A   1      39.913  21.202  25.796  1.00  0.00     0.262 C 
ATOM      7  C   UNL A   1      37.924  22.477  25.322  1.00  0.00     0.282 C 
ATOM      8  O   UNL A   1      38.541  21.190  25.412  1.00  0.00    -0.332 OA
ATOM      9  C   UNL A   1      38.260  23.448  26.486  1.00  0.00     0.202 C 
ATOM     10  C   UNL A   1      39.686  23.311  27.029  1.00  0.00     0.180 C 
ATOM     11  C   UNL A   1      40.045  21.827  27.187  1.00  0.00     0.186 C 
BRANCH   7  12
ATOM     12  O   UNL A   1      36.527  22.405  24.983  1.00  0.00    -0.346 OA
BRANCH  12  13
ATOM     13  C   UNL A   1      35.426  21.986  25.797  1.00  0.00     0.127 C 
ATOM     14  C   UNL A   1      33.511  22.595  27.364  1.00  0.00     0.014 C 
ATOM     15  C   UNL A   1      34.287  23.011  26.074  1.00  0.00    -0.003 C 
ATOM     16  C   UNL A   1      34.692  24.476  26.218  1.00  0.00     0.010 C 
ATOM     17  C   UNL A   1      33.446  22.813  24.810  1.00  0.00     0.001 C 
ATOM     18  C   UNL A   1      33.461  25.404  26.216  1.00  0.00     0.006 C 
ATOM     19  C   UNL A   1      32.193  23.685  24.722  1.00  0.00    -0.003 C 
ATOM     20  C   UNL A   1      33.345  21.287  24.671  1.00  0.00     0.007 C 
ATOM     21  C   UNL A   1      34.628  20.743  25.356  1.00  0.00     0.033 C 
ATOM     22  C   UNL A   1      32.541  25.193  24.987  1.00  0.00     0.006 C 
ATOM     23  C   UNL A   1      31.580  23.573  23.310  1.00  0.00     0.009 C 
ATOM     24  C   UNL A   1      31.243  26.089  24.944  1.00  0.00     0.010 C 
ATOM     25  C   UNL A   1      30.354  24.461  23.126  1.00  0.00     0.032 C 
ATOM     26  C   UNL A   1      30.589  25.886  23.567  1.00  0.00    -0.056 C 
ATOM     27  C   UNL A   1      31.540  27.563  25.199  1.00  0.00    -0.012 C 
ATOM     28  C   UNL A   1      30.225  25.702  26.037  1.00  0.00     0.021 C 
ATOM     29  C   UNL A   1      30.258  26.903  22.750  1.00  0.00     0.052 C 
ATOM     30  C   UNL A   1      31.184  28.572  24.394  1.00  0.00     0.048 C 
ATOM     31  C   UNL A   1      30.511  28.314  23.108  1.00  0.00     0.178 C 
ATOM     32  O   UNL A   1      30.218  29.227  22.347  1.00  0.00    -0.290 OA
ENDBRANCH  12  13
ENDBRANCH   7  12
BRANCH   9  33
ATOM     33  O   UNL A   1      37.973  24.808  26.124  1.00  0.00    -0.385 OA
ATOM     34  H   UNL A   1      38.512  25.407  26.666  1.00  0.00     0.211 HD
ENDBRANCH   9  33
BRANCH  10  35
ATOM     35  O   UNL A   1      39.776  24.003  28.287  1.00  0.00    -0.387 OA
ATOM     36  H   UNL A   1      40.690  23.973  28.609  1.00  0.00     0.211 HD
ENDBRANCH  10  35
BRANCH  11  37
ATOM     37  O   UNL A   1      41.325  21.724  27.808  1.00  0.00    -0.387 OA
ATOM     38  H   UNL A   1      41.931  21.246  27.219  1.00  0.00     0.211 HD
ENDBRANCH  11  37
ENDBRANCH   4   6
ENDBRANCH   3   4
ENDBRANCH   2   3
ENDBRANCH   1   2
BRANCH   1  39
ATOM     39  O   UNL A   1      44.848  19.158  25.277  1.00  0.00    -0.458 OA
BRANCH  39  40
ATOM     40  C   UNL A   1      44.899  19.915  24.160  1.00  0.00     0.338 C 
ATOM     41  O   UNL A   1      44.684  19.587  23.009  1.00  0.00    -0.246 OA
BRANCH  40  42
ATOM     42  C   UNL A   1      44.962  21.288  24.650  1.00  0.00     0.060 A 
ATOM     43  C   UNL A   1      44.471  22.296  23.817  1.00  0.00     0.016 A 
ATOM     44  C   UNL A   1      45.382  21.541  25.956  1.00  0.00     0.016 A 
ATOM     45  C   UNL A   1      44.378  23.587  24.301  1.00  0.00     0.010 A 
ATOM     46  C   UNL A   1      45.305  22.835  26.438  1.00  0.00     0.010 A 
ATOM     47  C   UNL A   1      44.827  23.855  25.599  1.00  0.00    -0.014 A 
BRANCH  47  48
ATOM     48  C   UNL A   1      45.018  25.249  26.006  1.00  0.00     0.031 A 
ATOM     49  C   UNL A   1      46.417  25.779  25.956  1.00  0.00     0.074 A 
ATOM     50  C   UNL A   1      43.965  25.976  26.405  1.00  0.00     0.049 A 
ATOM     51  N   UNL A   1      46.876  26.932  26.347  1.00  0.00    -0.248 NA
ATOM     52  C   UNL A   1      47.448  24.875  25.405  1.00  0.00     0.031 C 
ATOM     53  C   UNL A   1      42.580  25.501  26.462  1.00  0.00     0.029 A 
ATOM     54  N   UNL A   1      43.899  27.261  26.864  1.00  0.00    -0.354 N 
ATOM     55  C   UNL A   1      48.248  26.873  26.142  1.00  0.00     0.074 A 
ATOM     56  C   UNL A   1      48.555  25.575  25.595  1.00  0.00     0.031 C 
ATOM     57  C   UNL A   1      41.803  26.479  26.956  1.00  0.00     0.029 A 
ATOM     58  C   UNL A   1      42.643  27.626  27.282  1.00  0.00     0.049 A 
ATOM     59  H   UNL A   1      44.677  27.865  26.893  1.00  0.00     0.167 HD
ATOM     60  C   UNL A   1      49.164  27.834  26.391  1.00  0.00     0.034 A 
ATOM     61  C   UNL A   1      42.245  28.759  27.891  1.00  0.00     0.034 A 
ATOM     62  C   UNL A   1      48.807  29.120  26.916  1.00  0.00     0.049 A 
ATOM     63  C   UNL A   1      43.285  29.820  28.131  1.00  0.00     0.074 A 
ATOM     64  C   UNL A   1      49.621  30.201  27.183  1.00  0.00     0.029 A 
ATOM     65  N   UNL A   1      47.512  29.491  27.256  1.00  0.00    -0.354 N 
ATOM     66  N   UNL A   1      44.571  29.788  27.865  1.00  0.00    -0.248 NA
ATOM     67  C   UNL A   1      42.823  31.082  28.716  1.00  0.00     0.031 C 
ATOM     68  C   UNL A   1      48.822  31.217  27.715  1.00  0.00     0.029 A 
ATOM     69  C   UNL A   1      47.503  30.786  27.732  1.00  0.00     0.049 A 
ATOM     70  H   UNL A   1      46.719  28.915  27.171  1.00  0.00     0.167 HD
ATOM     71  C   UNL A   1      45.064  31.040  28.207  1.00  0.00     0.074 A 
ATOM     72  C   UNL A   1      43.931  31.809  28.686  1.00  0.00     0.031 C 
ATOM     73  C   UNL A   1      46.332  31.517  28.144  1.00  0.00     0.034 A 
BRANCH  60  74
ATOM     74  C   UNL A   1      50.608  27.524  26.107  1.00  0.00     0.023 A 
ATOM     75  C   UNL A   1      51.447  27.047  27.135  1.00  0.00     0.012 A 
ATOM     76  C   UNL A   1      51.128  27.677  24.808  1.00  0.00     0.148 A 
ATOM     77  C   UNL A   1      52.787  26.755  26.881  1.00  0.00     0.002 A 
ATOM     78  C   UNL A   1      52.448  27.336  24.550  1.00  0.00     0.091 A 
ATOM     79  F   UNL A   1      50.322  28.164  23.853  1.00  0.00    -0.205 F 
ATOM     80  C   UNL A   1      53.283  26.887  25.586  1.00  0.00     0.022 A 
BRANCH  78  81
ATOM     81  S   UNL A   1      53.163  27.398  22.903  1.00  0.00     0.127 S 
ATOM     82  O   UNL A   1      52.124  26.749  22.104  1.00  0.00    -0.237 OA
ATOM     83  O   UNL A   1      53.291  28.839  22.683  1.00  0.00    -0.237 OA
ATOM     84  O   UNL A   1      54.425  26.675  22.981  1.00  0.00    -0.744 OA
ENDBRANCH  78  81
ENDBRANCH  60  74
BRANCH  61  85
ATOM     85  C   UNL A   1      40.819  28.948  28.280  1.00  0.00     0.023 A 
ATOM     86  C   UNL A   1      39.866  29.295  27.302  1.00  0.00     0.012 A 
ATOM     87  C   UNL A   1      40.397  28.765  29.611  1.00  0.00     0.148 A 
ATOM     88  C   UNL A   1      38.529  29.496  27.650  1.00  0.00     0.002 A 
ATOM     89  C   UNL A   1      39.054  28.911  29.942  1.00  0.00     0.091 A 
ATOM     90  F   UNL A   1      41.318  28.445  30.532  1.00  0.00    -0.205 F 
ATOM     91  C   UNL A   1      38.121  29.294  28.967  1.00  0.00     0.022 A 
BRANCH  89  92
ATOM     92  S   UNL A   1      38.425  28.546  31.585  1.00  0.00     0.127 S 
ATOM     93  O   UNL A   1      37.031  28.964  31.470  1.00  0.00    -0.237 OA
ATOM     94  O   UNL A   1      38.630  27.099  31.673  1.00  0.00    -0.237 OA
ATOM     95  O   UNL A   1      39.250  29.323  32.499  1.00  0.00    -0.744 OA
ENDBRANCH  89  92
ENDBRANCH  61  85
BRANCH  73  96
ATOM     96  C   UNL A   1      46.539  32.954  28.532  1.00  0.00     0.023 A 
ATOM     97  C   UNL A   1      46.698  33.308  29.885  1.00  0.00     0.012 A 
ATOM     98  C   UNL A   1      46.652  33.939  27.532  1.00  0.00     0.148 A 
ATOM     99  C   UNL A   1      46.926  34.636  30.239  1.00  0.00     0.002 A 
ATOM    100  C   UNL A   1      46.939  35.246  27.889  1.00  0.00     0.091 A 
ATOM    101  F   UNL A   1      46.479  33.575  26.252  1.00  0.00    -0.205 F 
ATOM    102  C   UNL A   1      47.060  35.601  29.243  1.00  0.00     0.022 A 
BRANCH 100 103
ATOM    103  S   UNL A   1      47.242  36.524  26.666  1.00  0.00     0.127 S 
ATOM    104  O   UNL A   1      47.342  37.718  27.504  1.00  0.00    -0.237 OA
ATOM    105  O   UNL A   1      48.504  36.088  26.070  1.00  0.00    -0.237 OA
ATOM    106  O   UNL A   1      46.103  36.489  25.759  1.00  0.00    -0.744 OA
ENDBRANCH 100 103
ENDBRANCH  73  96
ENDBRANCH  47  48
ENDBRANCH  40  42
ENDBRANCH  39  40
ENDBRANCH   1  39
TORSDOF 19
ENDMDL
