MODEL 1
REMARK VINA RESULT:     -11.8      0.000      0.000
REMARK SMILES COCCNC(=O)c1cccc(NC(=O)[C@@H]2CCCC[C@H]2C(=O)OCCOC(=O)c2ccc(-c3c4nc(c(-c5cccc(S(=O)(=O)[O-])c5F)c5ccc([nH]5)c(-c5cccc(S(=O)(=O)[O-])c5F)c5nc(c(-c6cccc(S(=O)(=O)[O-])c6F)c6ccc3[nH]6)C=C5)C=C4)cc2)c1
REMARK SMILES IDX 24 1 22 2 23 3 21 4 16 5 17 6 18 7 20 8 19 9 14 10 13 11
REMARK SMILES IDX 15 13 12 14 8 15 9 16 93 17 10 18 11 19 6 20 5 21 7 23 4 24
REMARK SMILES IDX 3 25 2 26 1 27 25 28 26 29 27 30 28 31 29 32 30 33 31 34
REMARK SMILES IDX 92 35 32 36 91 37 33 38 34 39 35 40 85 41 36 42 90 43 84 44
REMARK SMILES IDX 86 45 37 46 89 47 83 48 82 49 38 51 70 52 50 53 69 54 51 55
REMARK SMILES IDX 54 56 68 57 87 58 52 59 53 60 67 62 88 63 55 64 39 65 40 66
REMARK SMILES IDX 48 67 41 68 43 69 49 70 42 71 44 72 45 73 46 74 47 75 71 76
REMARK SMILES IDX 72 77 80 78 73 79 75 80 81 81 74 82 76 83 77 84 78 85 79 86
REMARK SMILES IDX 56 87 57 88 65 89 58 90 60 91 66 92 59 93 61 94 62 95 63 96
REMARK SMILES IDX 64 97
REMARK H PARENT 13 12 5 22 86 50 54 61
REMARK Flexibility Score: inf
ROOT
ATOM      1  O   UNL A   1      35.509  22.085  25.366  1.00  0.00    -0.462 OA
ENDROOT
BRANCH   1   2
ATOM      2  C   UNL A   1      34.855  22.917  24.511  1.00  0.00     0.309 C 
ATOM      3  O   UNL A   1      35.325  23.340  23.461  1.00  0.00    -0.252 OA
BRANCH   2   4
ATOM      4  C   UNL A   1      33.488  23.355  25.022  1.00  0.00     0.111 C 
ATOM      5  C   UNL A   1      32.321  22.452  24.572  1.00  0.00     0.093 C 
ATOM      6  C   UNL A   1      31.007  22.890  25.239  1.00  0.00     0.014 C 
ATOM      7  C   UNL A   1      31.119  22.914  26.756  1.00  0.00     0.001 C 
ATOM      8  C   UNL A   1      33.583  23.393  26.556  1.00  0.00     0.016 C 
ATOM      9  C   UNL A   1      32.270  23.804  27.208  1.00  0.00     0.001 C 
BRANCH   5  10
ATOM     10  C   UNL A   1      32.087  22.512  23.073  1.00  0.00     0.228 C 
ATOM     11  N   UNL A   1      31.777  23.656  22.405  1.00  0.00    -0.326 N 
ATOM     12  H   UNL A   1      31.695  23.509  21.434  1.00  0.00     0.169 HD
ATOM     13  O   UNL A   1      32.233  21.494  22.390  1.00  0.00    -0.274 OA
BRANCH  11  14
ATOM     14  C   UNL A   1      31.545  24.999  22.758  1.00  0.00     0.041 A 
ATOM     15  C   UNL A   1      32.488  27.253  22.828  1.00  0.00     0.041 A 
ATOM     16  C   UNL A   1      31.264  27.755  23.276  1.00  0.00     0.014 A 
ATOM     17  C   UNL A   1      32.627  25.878  22.586  1.00  0.00     0.040 A 
ATOM     18  C   UNL A   1      30.204  26.887  23.503  1.00  0.00     0.003 A 
ATOM     19  C   UNL A   1      30.355  25.518  23.267  1.00  0.00     0.026 A 
BRANCH  15  20
ATOM     20  C   UNL A   1      33.642  28.181  22.799  1.00  0.00     0.251 C 
ATOM     21  N   UNL A   1      34.003  28.930  23.884  1.00  0.00    -0.350 N 
ATOM     22  H   UNL A   1      34.520  29.739  23.667  1.00  0.00     0.163 HD
ATOM     23  O   UNL A   1      34.284  28.301  21.756  1.00  0.00    -0.269 OA
BRANCH  21  24
ATOM     24  C   UNL A   1      33.754  28.735  25.307  1.00  0.00     0.144 C 
BRANCH  24  25
ATOM     25  C   UNL A   1      32.879  29.844  25.908  1.00  0.00     0.181 C 
BRANCH  25  26
ATOM     26  O   UNL A   1      32.462  29.575  27.250  1.00  0.00    -0.383 OA
ATOM     27  C   UNL A   1      31.855  28.303  27.429  1.00  0.00     0.194 C 
ENDBRANCH  25  26
ENDBRANCH  24  25
ENDBRANCH  21  24
ENDBRANCH  15  20
ENDBRANCH  11  14
ENDBRANCH   5  10
ENDBRANCH   2   4
ENDBRANCH   1   2
BRANCH   1  28
ATOM     28  C   UNL A   1      35.600  20.709  24.947  1.00  0.00     0.274 C 
BRANCH  28  29
ATOM     29  C   UNL A   1      37.051  20.239  24.956  1.00  0.00     0.275 C 
BRANCH  29  30
ATOM     30  O   UNL A   1      37.908  21.345  25.277  1.00  0.00    -0.458 OA
BRANCH  30  31
ATOM     31  C   UNL A   1      39.054  21.042  25.929  1.00  0.00     0.338 C 
ATOM     32  O   UNL A   1      39.555  19.934  26.064  1.00  0.00    -0.246 OA
BRANCH  31  33
ATOM     33  C   UNL A   1      39.620  22.279  26.491  1.00  0.00     0.060 A 
ATOM     34  C   UNL A   1      39.136  23.521  26.073  1.00  0.00     0.016 A 
ATOM     35  C   UNL A   1      40.692  22.207  27.378  1.00  0.00     0.016 A 
ATOM     36  C   UNL A   1      39.764  24.694  26.479  1.00  0.00     0.010 A 
ATOM     37  C   UNL A   1      41.273  23.388  27.847  1.00  0.00     0.010 A 
ATOM     38  C   UNL A   1      40.835  24.640  27.377  1.00  0.00    -0.014 A 
BRANCH  38  39
ATOM     39  C   UNL A   1      41.522  25.884  27.808  1.00  0.00     0.031 A 
ATOM     40  C   UNL A   1      40.764  26.923  28.587  1.00  0.00     0.074 A 
ATOM     41  C   UNL A   1      42.804  26.101  27.461  1.00  0.00     0.049 A 
ATOM     42  N   UNL A   1      41.115  28.145  28.892  1.00  0.00    -0.248 NA
ATOM     43  C   UNL A   1      39.426  26.544  29.074  1.00  0.00     0.031 C 
ATOM     44  C   UNL A   1      43.648  25.166  26.713  1.00  0.00     0.029 A 
ATOM     45  N   UNL A   1      43.614  27.192  27.662  1.00  0.00    -0.354 N 
ATOM     46  C   UNL A   1      40.019  28.704  29.539  1.00  0.00     0.074 A 
ATOM     47  C   UNL A   1      38.995  27.684  29.598  1.00  0.00     0.031 C 
ATOM     48  C   UNL A   1      44.848  25.729  26.503  1.00  0.00     0.029 A 
ATOM     49  C   UNL A   1      44.840  27.081  27.049  1.00  0.00     0.049 A 
ATOM     50  H   UNL A   1      43.343  27.974  28.193  1.00  0.00     0.167 HD
ATOM     51  C   UNL A   1      39.885  29.953  30.043  1.00  0.00     0.034 A 
ATOM     52  C   UNL A   1      45.831  27.983  26.904  1.00  0.00     0.034 A 
ATOM     53  C   UNL A   1      40.933  30.936  30.052  1.00  0.00     0.049 A 
ATOM     54  C   UNL A   1      45.665  29.352  27.504  1.00  0.00     0.074 A 
ATOM     55  C   UNL A   1      40.917  32.206  30.599  1.00  0.00     0.029 A 
ATOM     56  N   UNL A   1      42.190  30.756  29.495  1.00  0.00    -0.354 N 
ATOM     57  N   UNL A   1      44.657  29.837  28.186  1.00  0.00    -0.248 NA
ATOM     58  C   UNL A   1      46.782  30.293  27.332  1.00  0.00     0.031 C 
ATOM     59  C   UNL A   1      42.163  32.798  30.369  1.00  0.00     0.029 A 
ATOM     60  C   UNL A   1      42.958  31.892  29.684  1.00  0.00     0.049 A 
ATOM     61  H   UNL A   1      42.492  29.940  29.033  1.00  0.00     0.167 HD
ATOM     62  C   UNL A   1      45.022  31.128  28.544  1.00  0.00     0.074 A 
ATOM     63  C   UNL A   1      46.359  31.342  28.027  1.00  0.00     0.031 C 
ATOM     64  C   UNL A   1      44.309  32.064  29.217  1.00  0.00     0.034 A 
BRANCH  51  65
ATOM     65  C   UNL A   1      38.565  30.325  30.662  1.00  0.00     0.023 A 
ATOM     66  C   UNL A   1      38.312  30.005  32.011  1.00  0.00     0.012 A 
ATOM     67  C   UNL A   1      37.609  31.059  29.933  1.00  0.00     0.148 A 
ATOM     68  C   UNL A   1      37.118  30.392  32.618  1.00  0.00     0.002 A 
ATOM     69  C   UNL A   1      36.438  31.474  30.555  1.00  0.00     0.091 A 
ATOM     70  F   UNL A   1      37.861  31.332  28.644  1.00  0.00    -0.205 F 
ATOM     71  C   UNL A   1      36.188  31.136  31.896  1.00  0.00     0.022 A 
BRANCH  69  72
ATOM     72  S   UNL A   1      35.211  32.494  29.729  1.00  0.00     0.127 S 
ATOM     73  O   UNL A   1      34.752  31.601  28.666  1.00  0.00    -0.237 OA
ATOM     74  O   UNL A   1      34.235  32.728  30.793  1.00  0.00    -0.237 OA
ATOM     75  O   UNL A   1      35.917  33.687  29.282  1.00  0.00    -0.744 OA
ENDBRANCH  69  72
ENDBRANCH  51  65
BRANCH  52  76
ATOM     76  C   UNL A   1      47.075  27.607  26.176  1.00  0.00     0.023 A 
ATOM     77  C   UNL A   1      48.120  26.971  26.874  1.00  0.00     0.012 A 
ATOM     78  C   UNL A   1      47.214  27.835  24.792  1.00  0.00     0.148 A 
ATOM     79  C   UNL A   1      49.289  26.592  26.212  1.00  0.00     0.002 A 
ATOM     80  C   UNL A   1      48.357  27.402  24.129  1.00  0.00     0.091 A 
ATOM     81  F   UNL A   1      46.222  28.465  24.146  1.00  0.00    -0.205 F 
ATOM     82  C   UNL A   1      49.402  26.794  24.839  1.00  0.00     0.022 A 
BRANCH  80  83
ATOM     83  S   UNL A   1      48.505  27.503  22.341  1.00  0.00     0.127 S 
ATOM     84  O   UNL A   1      49.728  28.284  22.184  1.00  0.00    -0.237 OA
ATOM     85  O   UNL A   1      48.622  26.094  21.958  1.00  0.00    -0.237 OA
ATOM     86  O   UNL A   1      47.274  28.139  21.893  1.00  0.00    -0.744 OA
ENDBRANCH  80  83
ENDBRANCH  52  76
BRANCH  64  87
ATOM     87  C   UNL A   1      44.962  33.397  29.456  1.00  0.00     0.023 A 
ATOM     88  C   UNL A   1      45.783  33.573  30.586  1.00  0.00     0.012 A 
ATOM     89  C   UNL A   1      44.826  34.446  28.526  1.00  0.00     0.148 A 
ATOM     90  C   UNL A   1      46.443  34.783  30.800  1.00  0.00     0.002 A 
ATOM     91  C   UNL A   1      45.519  35.635  28.725  1.00  0.00     0.091 A 
ATOM     92  F   UNL A   1      44.021  34.266  27.469  1.00  0.00    -0.205 F 
ATOM     93  C   UNL A   1      46.320  35.807  29.865  1.00  0.00     0.022 A 
BRANCH  91  94
ATOM     94  S   UNL A   1      45.484  36.970  27.523  1.00  0.00     0.127 S 
ATOM     95  O   UNL A   1      46.370  36.456  26.479  1.00  0.00    -0.237 OA
ATOM     96  O   UNL A   1      44.070  37.024  27.152  1.00  0.00    -0.237 OA
ATOM     97  O   UNL A   1      45.962  38.151  28.231  1.00  0.00    -0.744 OA
ENDBRANCH  91  94
ENDBRANCH  64  87
ENDBRANCH  38  39
ENDBRANCH  31  33
ENDBRANCH  30  31
ENDBRANCH  29  30
ENDBRANCH  28  29
ENDBRANCH   1  28
TORSDOF 20
ENDMDL
MODEL 2
REMARK VINA RESULT:     -11.7      1.749      2.516
REMARK SMILES COCCNC(=O)c1cccc(NC(=O)[C@@H]2CCCC[C@H]2C(=O)OCCOC(=O)c2ccc(-c3c4nc(c(-c5cccc(S(=O)(=O)[O-])c5F)c5ccc([nH]5)c(-c5cccc(S(=O)(=O)[O-])c5F)c5nc(c(-c6cccc(S(=O)(=O)[O-])c6F)c6ccc3[nH]6)C=C5)C=C4)cc2)c1
REMARK SMILES IDX 24 1 22 2 23 3 21 4 16 5 17 6 18 7 20 8 19 9 14 10 13 11
REMARK SMILES IDX 15 13 12 14 8 15 9 16 93 17 10 18 11 19 6 20 5 21 7 23 4 24
REMARK SMILES IDX 3 25 2 26 1 27 25 28 26 29 27 30 28 31 29 32 30 33 31 34
REMARK SMILES IDX 92 35 32 36 91 37 33 38 34 39 35 40 85 41 36 42 90 43 84 44
REMARK SMILES IDX 86 45 37 46 89 47 83 48 82 49 38 51 70 52 50 53 69 54 51 55
REMARK SMILES IDX 54 56 68 57 87 58 52 59 53 60 67 62 88 63 55 64 39 65 40 66
REMARK SMILES IDX 48 67 41 68 43 69 49 70 42 71 44 72 45 73 46 74 47 75 71 76
REMARK SMILES IDX 72 77 80 78 73 79 75 80 81 81 74 82 76 83 77 84 78 85 79 86
REMARK SMILES IDX 56 87 57 88 65 89 58 90 60 91 66 92 59 93 61 94 62 95 63 96
REMARK SMILES IDX 64 97
REMARK H PARENT 13 12 5 22 86 50 54 61
REMARK Flexibility Score: inf
ROOT
ATOM      1  O   UNL A   1      34.717  22.633  26.093  1.00  0.00    -0.462 OA
ENDROOT
BRANCH   1   2
ATOM      2  C   UNL A   1      33.461  22.550  26.608  1.00  0.00     0.309 C 
ATOM      3  O   UNL A   1      33.206  22.492  27.806  1.00  0.00    -0.252 OA
BRANCH   2   4
ATOM      4  C   UNL A   1      32.377  22.451  25.543  1.00  0.00     0.111 C 
ATOM      5  C   UNL A   1      31.627  23.772  25.271  1.00  0.00     0.093 C 
ATOM      6  C   UNL A   1      30.650  23.609  24.095  1.00  0.00     0.014 C 
ATOM      7  C   UNL A   1      31.349  23.115  22.838  1.00  0.00     0.001 C 
ATOM      8  C   UNL A   1      33.062  21.945  24.263  1.00  0.00     0.016 C 
ATOM      9  C   UNL A   1      32.091  21.810  23.098  1.00  0.00     0.001 C 
BRANCH   5  10
ATOM     10  C   UNL A   1      30.802  24.224  26.461  1.00  0.00     0.228 C 
ATOM     11  N   UNL A   1      30.623  25.529  26.802  1.00  0.00    -0.326 N 
ATOM     12  H   UNL A   1      30.030  25.632  27.582  1.00  0.00     0.169 HD
ATOM     13  O   UNL A   1      30.203  23.387  27.144  1.00  0.00    -0.274 OA
BRANCH  11  14
ATOM     14  C   UNL A   1      31.075  26.770  26.314  1.00  0.00     0.041 A 
ATOM     15  C   UNL A   1      30.973  28.362  24.462  1.00  0.00     0.041 A 
ATOM     16  C   UNL A   1      31.752  29.265  25.191  1.00  0.00     0.014 A 
ATOM     17  C   UNL A   1      30.652  27.116  25.020  1.00  0.00     0.040 A 
ATOM     18  C   UNL A   1      32.222  28.911  26.449  1.00  0.00     0.003 A 
ATOM     19  C   UNL A   1      31.904  27.664  26.992  1.00  0.00     0.026 A 
BRANCH  15  20
ATOM     20  C   UNL A   1      30.670  28.699  23.053  1.00  0.00     0.251 C 
ATOM     21  N   UNL A   1      31.209  28.006  22.005  1.00  0.00    -0.350 N 
ATOM     22  H   UNL A   1      31.239  28.507  21.158  1.00  0.00     0.163 HD
ATOM     23  O   UNL A   1      29.927  29.651  22.814  1.00  0.00    -0.269 OA
BRANCH  21  24
ATOM     24  C   UNL A   1      31.744  26.652  21.927  1.00  0.00     0.144 C 
BRANCH  24  25
ATOM     25  C   UNL A   1      33.279  26.627  21.922  1.00  0.00     0.181 C 
BRANCH  25  26
ATOM     26  O   UNL A   1      33.833  25.583  22.729  1.00  0.00    -0.383 OA
ATOM     27  C   UNL A   1      34.024  25.937  24.092  1.00  0.00     0.194 C 
ENDBRANCH  25  26
ENDBRANCH  24  25
ENDBRANCH  21  24
ENDBRANCH  15  20
ENDBRANCH  11  14
ENDBRANCH   5  10
ENDBRANCH   2   4
ENDBRANCH   1   2
BRANCH   1  28
ATOM     28  C   UNL A   1      35.629  21.598  26.509  1.00  0.00     0.274 C 
BRANCH  28  29
ATOM     29  C   UNL A   1      36.280  20.935  25.298  1.00  0.00     0.275 C 
BRANCH  29  30
ATOM     30  O   UNL A   1      37.527  21.585  25.012  1.00  0.00    -0.458 OA
BRANCH  30  31
ATOM     31  C   UNL A   1      38.588  21.194  25.752  1.00  0.00     0.338 C 
ATOM     32  O   UNL A   1      38.969  20.046  25.946  1.00  0.00    -0.246 OA
BRANCH  31  33
ATOM     33  C   UNL A   1      39.230  22.386  26.329  1.00  0.00     0.060 A 
ATOM     34  C   UNL A   1      38.732  23.658  26.035  1.00  0.00     0.016 A 
ATOM     35  C   UNL A   1      40.381  22.246  27.101  1.00  0.00     0.016 A 
ATOM     36  C   UNL A   1      39.419  24.795  26.446  1.00  0.00     0.010 A 
ATOM     37  C   UNL A   1      41.027  23.388  27.580  1.00  0.00     0.010 A 
ATOM     38  C   UNL A   1      40.570  24.672  27.231  1.00  0.00    -0.014 A 
BRANCH  38  39
ATOM     39  C   UNL A   1      41.320  25.878  27.665  1.00  0.00     0.031 A 
ATOM     40  C   UNL A   1      40.624  26.937  28.475  1.00  0.00     0.074 A 
ATOM     41  C   UNL A   1      42.603  26.044  27.295  1.00  0.00     0.049 A 
ATOM     42  N   UNL A   1      41.034  28.138  28.791  1.00  0.00    -0.248 NA
ATOM     43  C   UNL A   1      39.280  26.609  28.984  1.00  0.00     0.031 C 
ATOM     44  C   UNL A   1      43.390  25.085  26.517  1.00  0.00     0.029 A 
ATOM     45  N   UNL A   1      43.464  27.095  27.496  1.00  0.00    -0.354 N 
ATOM     46  C   UNL A   1      39.977  28.733  29.468  1.00  0.00     0.074 A 
ATOM     47  C   UNL A   1      38.910  27.758  29.533  1.00  0.00     0.031 C 
ATOM     48  C   UNL A   1      44.609  25.598  26.290  1.00  0.00     0.029 A 
ATOM     49  C   UNL A   1      44.672  26.941  26.856  1.00  0.00     0.049 A 
ATOM     50  H   UNL A   1      43.239  27.880  28.044  1.00  0.00     0.167 HD
ATOM     51  C   UNL A   1      39.908  29.979  29.994  1.00  0.00     0.034 A 
ATOM     52  C   UNL A   1      45.699  27.800  26.704  1.00  0.00     0.034 A 
ATOM     53  C   UNL A   1      40.999  30.915  29.995  1.00  0.00     0.049 A 
ATOM     54  C   UNL A   1      45.605  29.166  27.328  1.00  0.00     0.074 A 
ATOM     55  C   UNL A   1      41.049  32.176  30.561  1.00  0.00     0.029 A 
ATOM     56  N   UNL A   1      42.235  30.689  29.410  1.00  0.00    -0.354 N 
ATOM     57  N   UNL A   1      44.632  29.683  28.037  1.00  0.00    -0.248 NA
ATOM     58  C   UNL A   1      46.758  30.060  27.146  1.00  0.00     0.031 C 
ATOM     59  C   UNL A   1      42.315  32.717  30.314  1.00  0.00     0.029 A 
ATOM     60  C   UNL A   1      43.056  31.788  29.600  1.00  0.00     0.049 A 
ATOM     61  H   UNL A   1      42.492  29.868  28.930  1.00  0.00     0.167 HD
ATOM     62  C   UNL A   1      45.061  30.951  28.406  1.00  0.00     0.074 A 
ATOM     63  C   UNL A   1      46.396  31.115  27.865  1.00  0.00     0.031 C 
ATOM     64  C   UNL A   1      44.403  31.907  29.108  1.00  0.00     0.034 A 
BRANCH  51  65
ATOM     65  C   UNL A   1      38.618  30.399  30.645  1.00  0.00     0.023 A 
ATOM     66  C   UNL A   1      38.411  30.137  32.014  1.00  0.00     0.012 A 
ATOM     67  C   UNL A   1      37.647  31.119  29.922  1.00  0.00     0.148 A 
ATOM     68  C   UNL A   1      37.247  30.570  32.649  1.00  0.00     0.002 A 
ATOM     69  C   UNL A   1      36.507  31.579  30.569  1.00  0.00     0.091 A 
ATOM     70  F   UNL A   1      37.855  31.335  28.615  1.00  0.00    -0.205 F 
ATOM     71  C   UNL A   1      36.302  31.300  31.931  1.00  0.00     0.022 A 
BRANCH  69  72
ATOM     72  S   UNL A   1      35.267  32.586  29.748  1.00  0.00     0.127 S 
ATOM     73  O   UNL A   1      36.072  33.705  29.260  1.00  0.00    -0.237 OA
ATOM     74  O   UNL A   1      34.780  31.686  28.703  1.00  0.00    -0.237 OA
ATOM     75  O   UNL A   1      34.282  32.921  30.766  1.00  0.00    -0.744 OA
ENDBRANCH  69  72
ENDBRANCH  51  65
BRANCH  52  76
ATOM     76  C   UNL A   1      46.910  27.382  25.945  1.00  0.00     0.023 A 
ATOM     77  C   UNL A   1      47.017  27.705  24.579  1.00  0.00     0.012 A 
ATOM     78  C   UNL A   1      47.973  26.703  26.574  1.00  0.00     0.148 A 
ATOM     79  C   UNL A   1      48.149  27.341  23.849  1.00  0.00     0.002 A 
ATOM     80  C   UNL A   1      49.122  26.395  25.854  1.00  0.00     0.091 A 
ATOM     81  F   UNL A   1      47.846  26.378  27.869  1.00  0.00    -0.205 F 
ATOM     82  C   UNL A   1      49.207  26.699  24.488  1.00  0.00     0.022 A 
BRANCH  80  83
ATOM     83  S   UNL A   1      50.575  25.698  26.650  1.00  0.00     0.127 S 
ATOM     84  O   UNL A   1      51.501  25.571  25.528  1.00  0.00    -0.237 OA
ATOM     85  O   UNL A   1      50.925  26.734  27.623  1.00  0.00    -0.237 OA
ATOM     86  O   UNL A   1      50.118  24.451  27.250  1.00  0.00    -0.744 OA
ENDBRANCH  80  83
ENDBRANCH  52  76
BRANCH  64  87
ATOM     87  C   UNL A   1      45.119  33.207  29.352  1.00  0.00     0.023 A 
ATOM     88  C   UNL A   1      45.936  33.344  30.492  1.00  0.00     0.012 A 
ATOM     89  C   UNL A   1      45.045  34.260  28.421  1.00  0.00     0.148 A 
ATOM     90  C   UNL A   1      46.652  34.519  30.712  1.00  0.00     0.002 A 
ATOM     91  C   UNL A   1      45.794  35.413  28.626  1.00  0.00     0.091 A 
ATOM     92  F   UNL A   1      44.244  34.119  27.355  1.00  0.00    -0.205 F 
ATOM     93  C   UNL A   1      46.590  35.548  29.774  1.00  0.00     0.022 A 
BRANCH  91  94
ATOM     94  S   UNL A   1      45.839  36.747  27.423  1.00  0.00     0.127 S 
ATOM     95  O   UNL A   1      46.335  36.059  26.232  1.00  0.00    -0.237 OA
ATOM     96  O   UNL A   1      44.435  37.155  27.352  1.00  0.00    -0.237 OA
ATOM     97  O   UNL A   1      46.727  37.756  27.984  1.00  0.00    -0.744 OA
ENDBRANCH  91  94
ENDBRANCH  64  87
ENDBRANCH  38  39
ENDBRANCH  31  33
ENDBRANCH  30  31
ENDBRANCH  29  30
ENDBRANCH  28  29
ENDBRANCH   1  28
TORSDOF 20
ENDMDL
MODEL 3
REMARK VINA RESULT:     -11.3      2.773      7.887
REMARK SMILES COCCNC(=O)c1cccc(NC(=O)[C@@H]2CCCC[C@H]2C(=O)OCCOC(=O)c2ccc(-c3c4nc(c(-c5cccc(S(=O)(=O)[O-])c5F)c5ccc([nH]5)c(-c5cccc(S(=O)(=O)[O-])c5F)c5nc(c(-c6cccc(S(=O)(=O)[O-])c6F)c6ccc3[nH]6)C=C5)C=C4)cc2)c1
REMARK SMILES IDX 24 1 22 2 23 3 21 4 16 5 17 6 18 7 20 8 19 9 14 10 13 11
REMARK SMILES IDX 15 13 12 14 8 15 9 16 93 17 10 18 11 19 6 20 5 21 7 23 4 24
REMARK SMILES IDX 3 25 2 26 1 27 25 28 26 29 27 30 28 31 29 32 30 33 31 34
REMARK SMILES IDX 92 35 32 36 91 37 33 38 34 39 35 40 85 41 36 42 90 43 84 44
REMARK SMILES IDX 86 45 37 46 89 47 83 48 82 49 38 51 70 52 50 53 69 54 51 55
REMARK SMILES IDX 54 56 68 57 87 58 52 59 53 60 67 62 88 63 55 64 39 65 40 66
REMARK SMILES IDX 48 67 41 68 43 69 49 70 42 71 44 72 45 73 46 74 47 75 71 76
REMARK SMILES IDX 72 77 80 78 73 79 75 80 81 81 74 82 76 83 77 84 78 85 79 86
REMARK SMILES IDX 56 87 57 88 65 89 58 90 60 91 66 92 59 93 61 94 62 95 63 96
REMARK SMILES IDX 64 97
REMARK H PARENT 13 12 5 22 86 50 54 61
REMARK Flexibility Score: inf
ROOT
ATOM      1  O   UNL A   1      35.267  23.561  25.733  1.00  0.00    -0.462 OA
ENDROOT
BRANCH   1   2
ATOM      2  C   UNL A   1      34.197  23.062  26.409  1.00  0.00     0.309 C 
ATOM      3  O   UNL A   1      34.190  22.813  27.609  1.00  0.00    -0.252 OA
BRANCH   2   4
ATOM      4  C   UNL A   1      33.006  22.754  25.510  1.00  0.00     0.111 C 
ATOM      5  C   UNL A   1      32.031  23.934  25.317  1.00  0.00     0.093 C 
ATOM      6  C   UNL A   1      30.939  23.575  24.296  1.00  0.00     0.014 C 
ATOM      7  C   UNL A   1      31.528  23.135  22.964  1.00  0.00     0.001 C 
ATOM      8  C   UNL A   1      33.580  22.299  24.158  1.00  0.00     0.016 C 
ATOM      9  C   UNL A   1      32.492  21.969  23.146  1.00  0.00     0.001 C 
BRANCH   5  10
ATOM     10  C   UNL A   1      31.316  24.310  26.601  1.00  0.00     0.228 C 
ATOM     11  N   UNL A   1      31.080  25.594  26.984  1.00  0.00    -0.326 N 
ATOM     12  H   UNL A   1      30.575  25.644  27.829  1.00  0.00     0.169 HD
ATOM     13  O   UNL A   1      30.864  23.423  27.332  1.00  0.00    -0.274 OA
BRANCH  11  14
ATOM     14  C   UNL A   1      31.380  26.870  26.471  1.00  0.00     0.041 A 
ATOM     15  C   UNL A   1      31.254  28.334  24.517  1.00  0.00     0.041 A 
ATOM     16  C   UNL A   1      31.772  29.391  25.271  1.00  0.00     0.014 A 
ATOM     17  C   UNL A   1      31.075  27.078  25.115  1.00  0.00     0.040 A 
ATOM     18  C   UNL A   1      32.128  29.182  26.597  1.00  0.00     0.003 A 
ATOM     19  C   UNL A   1      31.954  27.925  27.181  1.00  0.00     0.026 A 
BRANCH  15  20
ATOM     20  C   UNL A   1      31.084  28.547  23.062  1.00  0.00     0.251 C 
ATOM     21  N   UNL A   1      32.141  28.536  22.194  1.00  0.00    -0.350 N 
ATOM     22  H   UNL A   1      31.983  29.026  21.354  1.00  0.00     0.163 HD
ATOM     23  O   UNL A   1      29.957  28.766  22.620  1.00  0.00    -0.269 OA
BRANCH  21  24
ATOM     24  C   UNL A   1      33.459  27.924  22.299  1.00  0.00     0.144 C 
BRANCH  24  25
ATOM     25  C   UNL A   1      33.388  26.398  22.449  1.00  0.00     0.181 C 
BRANCH  25  26
ATOM     26  O   UNL A   1      33.650  25.695  21.231  1.00  0.00    -0.383 OA
ATOM     27  C   UNL A   1      32.524  25.573  20.373  1.00  0.00     0.194 C 
ENDBRANCH  25  26
ENDBRANCH  24  25
ENDBRANCH  21  24
ENDBRANCH  15  20
ENDBRANCH  11  14
ENDBRANCH   5  10
ENDBRANCH   2   4
ENDBRANCH   1   2
BRANCH   1  28
ATOM     28  C   UNL A   1      36.542  23.412  26.389  1.00  0.00     0.274 C 
BRANCH  28  29
ATOM     29  C   UNL A   1      37.306  22.222  25.817  1.00  0.00     0.275 C 
BRANCH  29  30
ATOM     30  O   UNL A   1      38.661  22.610  25.547  1.00  0.00    -0.458 OA
BRANCH  30  31
ATOM     31  C   UNL A   1      39.534  22.478  26.571  1.00  0.00     0.338 C 
ATOM     32  O   UNL A   1      39.850  21.443  27.142  1.00  0.00    -0.246 OA
BRANCH  31  33
ATOM     33  C   UNL A   1      40.054  23.809  26.926  1.00  0.00     0.060 A 
ATOM     34  C   UNL A   1      40.535  24.049  28.216  1.00  0.00     0.016 A 
ATOM     35  C   UNL A   1      39.990  24.846  25.998  1.00  0.00     0.016 A 
ATOM     36  C   UNL A   1      40.884  25.336  28.609  1.00  0.00     0.010 A 
ATOM     37  C   UNL A   1      40.415  26.124  26.370  1.00  0.00     0.010 A 
ATOM     38  C   UNL A   1      40.835  26.387  27.687  1.00  0.00    -0.014 A 
BRANCH  38  39
ATOM     39  C   UNL A   1      41.193  27.768  28.098  1.00  0.00     0.031 A 
ATOM     40  C   UNL A   1      42.636  28.193  28.109  1.00  0.00     0.074 A 
ATOM     41  C   UNL A   1      40.233  28.621  28.503  1.00  0.00     0.049 A 
ATOM     42  N   UNL A   1      43.173  29.276  28.607  1.00  0.00    -0.248 NA
ATOM     43  C   UNL A   1      43.605  27.270  27.494  1.00  0.00     0.031 C 
ATOM     44  C   UNL A   1      38.798  28.329  28.529  1.00  0.00     0.029 A 
ATOM     45  N   UNL A   1      40.322  29.897  29.003  1.00  0.00    -0.354 N 
ATOM     46  C   UNL A   1      44.544  29.132  28.433  1.00  0.00     0.074 A 
ATOM     47  C   UNL A   1      44.758  27.865  27.769  1.00  0.00     0.031 C 
ATOM     48  C   UNL A   1      38.144  29.386  29.037  1.00  0.00     0.029 A 
ATOM     49  C   UNL A   1      39.114  30.404  29.422  1.00  0.00     0.049 A 
ATOM     50  H   UNL A   1      41.167  30.398  29.055  1.00  0.00     0.167 HD
ATOM     51  C   UNL A   1      45.533  29.986  28.789  1.00  0.00     0.034 A 
ATOM     52  C   UNL A   1      38.824  31.543  30.082  1.00  0.00     0.034 A 
ATOM     53  C   UNL A   1      45.309  31.279  29.377  1.00  0.00     0.049 A 
ATOM     54  C   UNL A   1      39.941  32.486  30.435  1.00  0.00     0.074 A 
ATOM     55  C   UNL A   1      46.241  32.244  29.711  1.00  0.00     0.029 A 
ATOM     56  N   UNL A   1      44.065  31.792  29.708  1.00  0.00    -0.354 N 
ATOM     57  N   UNL A   1      41.223  32.375  30.188  1.00  0.00    -0.248 NA
ATOM     58  C   UNL A   1      39.570  33.721  31.141  1.00  0.00     0.031 C 
ATOM     59  C   UNL A   1      45.561  33.340  30.252  1.00  0.00     0.029 A 
ATOM     60  C   UNL A   1      44.204  33.060  30.246  1.00  0.00     0.049 A 
ATOM     61  H   UNL A   1      43.208  31.323  29.580  1.00  0.00     0.167 HD
ATOM     62  C   UNL A   1      41.810  33.531  30.686  1.00  0.00     0.074 A 
ATOM     63  C   UNL A   1      40.739  34.345  31.225  1.00  0.00     0.031 C 
ATOM     64  C   UNL A   1      43.120  33.880  30.719  1.00  0.00     0.034 A 
BRANCH  51  65
ATOM     65  C   UNL A   1      46.954  29.568  28.524  1.00  0.00     0.023 A 
ATOM     66  C   UNL A   1      47.595  29.987  27.341  1.00  0.00     0.012 A 
ATOM     67  C   UNL A   1      47.677  28.829  29.481  1.00  0.00     0.148 A 
ATOM     68  C   UNL A   1      48.930  29.659  27.106  1.00  0.00     0.002 A 
ATOM     69  C   UNL A   1      49.017  28.537  29.256  1.00  0.00     0.091 A 
ATOM     70  F   UNL A   1      47.040  28.421  30.588  1.00  0.00    -0.205 F 
ATOM     71  C   UNL A   1      49.643  28.946  28.066  1.00  0.00     0.022 A 
BRANCH  69  72
ATOM     72  S   UNL A   1      50.038  27.685  30.464  1.00  0.00     0.127 S 
ATOM     73  O   UNL A   1      49.731  28.426  31.686  1.00  0.00    -0.237 OA
ATOM     74  O   UNL A   1      49.496  26.326  30.423  1.00  0.00    -0.237 OA
ATOM     75  O   UNL A   1      51.408  27.804  29.987  1.00  0.00    -0.744 OA
ENDBRANCH  69  72
ENDBRANCH  51  65
BRANCH  52  76
ATOM     76  C   UNL A   1      37.411  31.857  30.431  1.00  0.00     0.023 A 
ATOM     77  C   UNL A   1      36.919  31.511  31.705  1.00  0.00     0.012 A 
ATOM     78  C   UNL A   1      36.564  32.533  29.529  1.00  0.00     0.148 A 
ATOM     79  C   UNL A   1      35.604  31.812  32.064  1.00  0.00     0.002 A 
ATOM     80  C   UNL A   1      35.275  32.879  29.916  1.00  0.00     0.091 A 
ATOM     81  F   UNL A   1      37.038  32.832  28.311  1.00  0.00    -0.205 F 
ATOM     82  C   UNL A   1      34.787  32.507  31.176  1.00  0.00     0.022 A 
BRANCH  80  83
ATOM     83  S   UNL A   1      34.220  33.898  28.876  1.00  0.00     0.127 S 
ATOM     84  O   UNL A   1      33.159  34.278  29.804  1.00  0.00    -0.237 OA
ATOM     85  O   UNL A   1      35.120  34.987  28.491  1.00  0.00    -0.237 OA
ATOM     86  O   UNL A   1      33.828  33.034  27.771  1.00  0.00    -0.744 OA
ENDBRANCH  80  83
ENDBRANCH  52  76
BRANCH  64  87
ATOM     87  C   UNL A   1      43.471  35.205  31.337  1.00  0.00     0.023 A 
ATOM     88  C   UNL A   1      43.742  35.275  32.717  1.00  0.00     0.012 A 
ATOM     89  C   UNL A   1      43.610  36.359  30.543  1.00  0.00     0.148 A 
ATOM     90  C   UNL A   1      44.123  36.481  33.304  1.00  0.00     0.002 A 
ATOM     91  C   UNL A   1      44.030  37.549  31.127  1.00  0.00     0.091 A 
ATOM     92  F   UNL A   1      43.326  36.277  29.235  1.00  0.00    -0.205 F 
ATOM     93  C   UNL A   1      44.278  37.614  32.507  1.00  0.00     0.022 A 
BRANCH  91  94
ATOM     94  S   UNL A   1      44.339  39.030  30.157  1.00  0.00     0.127 S 
ATOM     95  O   UNL A   1      45.378  38.572  29.235  1.00  0.00    -0.237 OA
ATOM     96  O   UNL A   1      43.038  39.278  29.536  1.00  0.00    -0.237 OA
ATOM     97  O   UNL A   1      44.750  40.050  31.113  1.00  0.00    -0.744 OA
ENDBRANCH  91  94
ENDBRANCH  64  87
ENDBRANCH  38  39
ENDBRANCH  31  33
ENDBRANCH  30  31
ENDBRANCH  29  30
ENDBRANCH  28  29
ENDBRANCH   1  28
TORSDOF 20
ENDMDL
