MODEL 1
REMARK VINA RESULT:     -13.1      0.000      0.000
REMARK SMILES Cc1c(CC(=O)OCCOC(=O)c2ccc(-c3c4nc(c(-c5cccc(S(=O)(=O)[O-])c5F)c5ccc([nH]5)c(-c5cccc(S(=O)(=O)[O-])c5F)c5nc(c(-c6cccc(S(=O)(=O)[O-])c6F)c6ccc3[nH]6)C=C5)C=C4)cc2)c2cc(O)ccc2n1C(=O)c1ccc(Cl)cc1
REMARK SMILES IDX 8 1 7 2 5 3 6 4 4 5 3 6 1 7 2 8 83 9 76 10 82 11 77 12 81 13
REMARK SMILES IDX 78 14 80 15 84 16 85 17 86 18 87 19 92 20 88 21 91 22 89 23
REMARK SMILES IDX 90 24 79 25 9 27 10 28 11 29 12 30 13 31 14 32 75 33 15 34
REMARK SMILES IDX 74 35 16 36 17 37 18 38 68 39 19 40 73 41 67 42 69 43 20 44
REMARK SMILES IDX 72 45 66 46 65 47 21 49 53 50 33 51 52 52 34 53 37 54 51 55
REMARK SMILES IDX 70 56 35 57 36 58 50 60 71 61 38 62 22 63 23 64 31 65 24 66
REMARK SMILES IDX 26 67 32 68 25 69 27 70 28 71 29 72 30 73 54 74 55 75 63 76
REMARK SMILES IDX 56 77 58 78 64 79 57 80 59 81 60 82 61 83 62 84 39 85 40 86
REMARK SMILES IDX 48 87 41 88 43 89 49 90 42 91 44 92 45 93 46 94 47 95
REMARK H PARENT 79 26 69 48 37 59
REMARK Flexibility Score: inf
ROOT
ATOM      1  C   UNL A   1      31.848  28.436  24.877  1.00  0.00     0.274 C 
ENDROOT
BRANCH   1   2
ATOM      2  O   UNL A   1      30.696  27.601  25.136  1.00  0.00    -0.462 OA
BRANCH   2   3
ATOM      3  C   UNL A   1      30.826  26.752  26.185  1.00  0.00     0.310 C 
ATOM      4  O   UNL A   1      31.154  27.109  27.314  1.00  0.00    -0.252 OA
BRANCH   3   5
ATOM      5  C   UNL A   1      30.651  25.297  25.857  1.00  0.00     0.160 C 
BRANCH   5   6
ATOM      6  C   UNL A   1      31.658  24.531  25.040  1.00  0.00    -0.008 A 
ATOM      7  C   UNL A   1      31.948  22.648  26.810  1.00  0.00     0.065 C 
ATOM      8  C   UNL A   1      32.237  23.362  25.524  1.00  0.00     0.028 A 
ATOM      9  N   UNL A   1      33.189  22.922  24.619  1.00  0.00    -0.280 N 
ATOM     10  C   UNL A   1      32.056  24.622  23.660  1.00  0.00     0.008 A 
ATOM     11  C   UNL A   1      32.925  23.552  23.396  1.00  0.00     0.057 A 
ATOM     12  C   UNL A   1      31.740  25.468  22.572  1.00  0.00     0.056 A 
ATOM     13  C   UNL A   1      33.389  23.294  22.082  1.00  0.00     0.031 A 
ATOM     14  C   UNL A   1      32.198  25.202  21.278  1.00  0.00     0.116 A 
ATOM     15  C   UNL A   1      33.019  24.126  21.028  1.00  0.00     0.048 A 
BRANCH   9  16
ATOM     16  C   UNL A   1      34.233  22.005  24.900  1.00  0.00     0.262 C 
ATOM     17  O   UNL A   1      35.322  22.419  25.292  1.00  0.00    -0.268 OA
BRANCH  16  18
ATOM     18  C   UNL A   1      34.125  20.558  24.705  1.00  0.00     0.040 A 
ATOM     19  C   UNL A   1      35.238  19.740  24.924  1.00  0.00     0.015 A 
ATOM     20  C   UNL A   1      32.924  20.044  24.212  1.00  0.00     0.015 A 
ATOM     21  C   UNL A   1      35.164  18.392  24.577  1.00  0.00     0.021 A 
ATOM     22  C   UNL A   1      32.856  18.695  23.873  1.00  0.00     0.021 A 
ATOM     23  C   UNL A   1      33.978  17.880  24.043  1.00  0.00     0.041 A 
ATOM     24  Cl  UNL A   1      33.910  16.230  23.559  1.00  0.00    -0.084 Cl
ENDBRANCH  16  18
ENDBRANCH   9  16
BRANCH  14  25
ATOM     25  O   UNL A   1      31.801  26.028  20.268  1.00  0.00    -0.508 OA
ATOM     26  H   UNL A   1      31.575  26.918  20.452  1.00  0.00     0.293 HD
ENDBRANCH  14  25
ENDBRANCH   5   6
ENDBRANCH   3   5
ENDBRANCH   2   3
ENDBRANCH   1   2
BRANCH   1  27
ATOM     27  C   UNL A   1      31.528  29.903  25.171  1.00  0.00     0.275 C 
BRANCH  27  28
ATOM     28  O   UNL A   1      31.943  30.203  26.512  1.00  0.00    -0.458 OA
BRANCH  28  29
ATOM     29  C   UNL A   1      32.201  31.502  26.805  1.00  0.00     0.338 C 
ATOM     30  O   UNL A   1      31.448  32.450  26.676  1.00  0.00    -0.246 OA
BRANCH  29  31
ATOM     31  C   UNL A   1      33.437  31.474  27.608  1.00  0.00     0.060 A 
ATOM     32  C   UNL A   1      33.935  32.656  28.156  1.00  0.00     0.016 A 
ATOM     33  C   UNL A   1      34.221  30.317  27.572  1.00  0.00     0.016 A 
ATOM     34  C   UNL A   1      35.271  32.715  28.523  1.00  0.00     0.010 A 
ATOM     35  C   UNL A   1      35.566  30.395  27.879  1.00  0.00     0.010 A 
ATOM     36  C   UNL A   1      36.099  31.607  28.300  1.00  0.00    -0.014 A 
BRANCH  36  37
ATOM     37  C   UNL A   1      37.453  31.621  28.819  1.00  0.00     0.031 A 
ATOM     38  C   UNL A   1      38.093  30.298  28.661  1.00  0.00     0.074 A 
ATOM     39  C   UNL A   1      38.156  32.662  29.299  1.00  0.00     0.049 A 
ATOM     40  N   UNL A   1      38.104  29.350  29.535  1.00  0.00    -0.248 NA
ATOM     41  C   UNL A   1      38.579  29.910  27.330  1.00  0.00     0.031 C 
ATOM     42  C   UNL A   1      37.872  34.093  29.227  1.00  0.00     0.029 A 
ATOM     43  N   UNL A   1      39.368  32.614  29.919  1.00  0.00    -0.354 N 
ATOM     44  C   UNL A   1      38.822  28.325  28.940  1.00  0.00     0.074 A 
ATOM     45  C   UNL A   1      38.878  28.626  27.534  1.00  0.00     0.031 C 
ATOM     46  C   UNL A   1      38.975  34.784  29.619  1.00  0.00     0.029 A 
ATOM     47  C   UNL A   1      39.971  33.849  30.119  1.00  0.00     0.049 A 
ATOM     48  H   UNL A   1      39.785  31.769  30.204  1.00  0.00     0.167 HD
ATOM     49  C   UNL A   1      39.556  27.462  29.687  1.00  0.00     0.034 A 
ATOM     50  C   UNL A   1      41.210  34.041  30.637  1.00  0.00     0.034 A 
ATOM     51  C   UNL A   1      39.258  27.581  31.091  1.00  0.00     0.049 A 
ATOM     52  C   UNL A   1      41.515  32.837  31.449  1.00  0.00     0.074 A 
ATOM     53  C   UNL A   1      38.137  27.425  31.878  1.00  0.00     0.029 A 
ATOM     54  N   UNL A   1      40.150  28.328  31.820  1.00  0.00    -0.354 N 
ATOM     55  N   UNL A   1      40.889  32.517  32.547  1.00  0.00    -0.248 NA
ATOM     56  C   UNL A   1      42.348  31.789  30.877  1.00  0.00     0.031 C 
ATOM     57  C   UNL A   1      38.251  28.417  32.898  1.00  0.00     0.029 A 
ATOM     58  C   UNL A   1      39.450  29.107  32.702  1.00  0.00     0.049 A 
ATOM     59  H   UNL A   1      41.130  28.308  31.725  1.00  0.00     0.167 HD
ATOM     60  C   UNL A   1      40.901  31.131  32.561  1.00  0.00     0.074 A 
ATOM     61  C   UNL A   1      41.938  30.752  31.611  1.00  0.00     0.031 C 
ATOM     62  C   UNL A   1      39.875  30.427  33.122  1.00  0.00     0.034 A 
BRANCH  49  63
ATOM     63  C   UNL A   1      40.819  26.802  29.206  1.00  0.00     0.023 A 
ATOM     64  C   UNL A   1      41.983  27.595  29.140  1.00  0.00     0.012 A 
ATOM     65  C   UNL A   1      40.865  25.534  28.583  1.00  0.00     0.148 A 
ATOM     66  C   UNL A   1      43.131  27.149  28.479  1.00  0.00     0.002 A 
ATOM     67  C   UNL A   1      42.036  25.057  28.011  1.00  0.00     0.091 A 
ATOM     68  F   UNL A   1      39.740  24.833  28.406  1.00  0.00    -0.205 F 
ATOM     69  C   UNL A   1      43.166  25.872  27.932  1.00  0.00     0.022 A 
BRANCH  67  70
ATOM     70  S   UNL A   1      42.137  23.391  27.350  1.00  0.00     0.127 S 
ATOM     71  O   UNL A   1      43.487  23.377  26.794  1.00  0.00    -0.237 OA
ATOM     72  O   UNL A   1      41.952  22.579  28.553  1.00  0.00    -0.237 OA
ATOM     73  O   UNL A   1      41.042  23.292  26.393  1.00  0.00    -0.744 OA
ENDBRANCH  67  70
ENDBRANCH  49  63
BRANCH  50  74
ATOM     74  C   UNL A   1      42.254  35.070  30.397  1.00  0.00     0.023 A 
ATOM     75  C   UNL A   1      43.163  35.368  31.439  1.00  0.00     0.012 A 
ATOM     76  C   UNL A   1      42.579  35.502  29.096  1.00  0.00     0.148 A 
ATOM     77  C   UNL A   1      44.390  35.990  31.182  1.00  0.00     0.002 A 
ATOM     78  C   UNL A   1      43.799  36.131  28.846  1.00  0.00     0.091 A 
ATOM     79  F   UNL A   1      41.746  35.209  28.089  1.00  0.00    -0.205 F 
ATOM     80  C   UNL A   1      44.716  36.355  29.882  1.00  0.00     0.022 A 
BRANCH  78  81
ATOM     81  S   UNL A   1      44.294  36.628  27.190  1.00  0.00     0.127 S 
ATOM     82  O   UNL A   1      44.000  35.428  26.405  1.00  0.00    -0.237 OA
ATOM     83  O   UNL A   1      43.405  37.758  26.934  1.00  0.00    -0.237 OA
ATOM     84  O   UNL A   1      45.714  36.942  27.287  1.00  0.00    -0.744 OA
ENDBRANCH  78  81
ENDBRANCH  50  74
BRANCH  62  85
ATOM     85  C   UNL A   1      38.954  31.156  34.064  1.00  0.00     0.023 A 
ATOM     86  C   UNL A   1      39.253  31.336  35.430  1.00  0.00     0.012 A 
ATOM     87  C   UNL A   1      37.848  31.824  33.511  1.00  0.00     0.148 A 
ATOM     88  C   UNL A   1      38.459  32.164  36.228  1.00  0.00     0.002 A 
ATOM     89  C   UNL A   1      37.088  32.680  34.296  1.00  0.00     0.091 A 
ATOM     90  F   UNL A   1      37.585  31.638  32.208  1.00  0.00    -0.205 F 
ATOM     91  C   UNL A   1      37.387  32.848  35.658  1.00  0.00     0.022 A 
BRANCH  89  92
ATOM     92  S   UNL A   1      35.770  33.682  33.604  1.00  0.00     0.127 S 
ATOM     93  O   UNL A   1      35.273  34.392  34.781  1.00  0.00    -0.237 OA
ATOM     94  O   UNL A   1      36.491  34.519  32.643  1.00  0.00    -0.237 OA
ATOM     95  O   UNL A   1      34.826  32.751  32.997  1.00  0.00    -0.744 OA
ENDBRANCH  89  92
ENDBRANCH  62  85
ENDBRANCH  36  37
ENDBRANCH  29  31
ENDBRANCH  28  29
ENDBRANCH  27  28
ENDBRANCH   1  27
TORSDOF 18
ENDMDL
MODEL 2
REMARK VINA RESULT:     -13.1      4.156     10.085
REMARK SMILES Cc1c(CC(=O)OCCOC(=O)c2ccc(-c3c4nc(c(-c5cccc(S(=O)(=O)[O-])c5F)c5ccc([nH]5)c(-c5cccc(S(=O)(=O)[O-])c5F)c5nc(c(-c6cccc(S(=O)(=O)[O-])c6F)c6ccc3[nH]6)C=C5)C=C4)cc2)c2cc(O)ccc2n1C(=O)c1ccc(Cl)cc1
REMARK SMILES IDX 8 1 7 2 5 3 6 4 4 5 3 6 1 7 2 8 83 9 76 10 82 11 77 12 81 13
REMARK SMILES IDX 78 14 80 15 84 16 85 17 86 18 87 19 92 20 88 21 91 22 89 23
REMARK SMILES IDX 90 24 79 25 9 27 10 28 11 29 12 30 13 31 14 32 75 33 15 34
REMARK SMILES IDX 74 35 16 36 17 37 18 38 68 39 19 40 73 41 67 42 69 43 20 44
REMARK SMILES IDX 72 45 66 46 65 47 21 49 53 50 33 51 52 52 34 53 37 54 51 55
REMARK SMILES IDX 70 56 35 57 36 58 50 60 71 61 38 62 22 63 23 64 31 65 24 66
REMARK SMILES IDX 26 67 32 68 25 69 27 70 28 71 29 72 30 73 54 74 55 75 63 76
REMARK SMILES IDX 56 77 58 78 64 79 57 80 59 81 60 82 61 83 62 84 39 85 40 86
REMARK SMILES IDX 48 87 41 88 43 89 49 90 42 91 44 92 45 93 46 94 47 95
REMARK H PARENT 79 26 69 48 37 59
REMARK Flexibility Score: inf
ROOT
ATOM      1  C   UNL A   1      34.561  21.711  24.342  1.00  0.00     0.274 C 
ENDROOT
BRANCH   1   2
ATOM      2  O   UNL A   1      33.292  21.031  24.213  1.00  0.00    -0.462 OA
BRANCH   2   3
ATOM      3  C   UNL A   1      32.585  21.341  23.099  1.00  0.00     0.310 C 
ATOM      4  O   UNL A   1      31.932  20.522  22.457  1.00  0.00    -0.252 OA
BRANCH   3   5
ATOM      5  C   UNL A   1      32.736  22.755  22.615  1.00  0.00     0.160 C 
BRANCH   5   6
ATOM      6  C   UNL A   1      32.185  23.929  23.381  1.00  0.00    -0.008 A 
ATOM      7  C   UNL A   1      32.512  25.607  21.421  1.00  0.00     0.065 C 
ATOM      8  C   UNL A   1      32.133  25.197  22.813  1.00  0.00     0.028 A 
ATOM      9  N   UNL A   1      31.676  26.098  23.761  1.00  0.00    -0.280 N 
ATOM     10  C   UNL A   1      31.442  24.020  24.611  1.00  0.00     0.008 A 
ATOM     11  C   UNL A   1      31.049  25.358  24.772  1.00  0.00     0.057 A 
ATOM     12  C   UNL A   1      31.007  23.106  25.598  1.00  0.00     0.056 A 
ATOM     13  C   UNL A   1      30.189  25.744  25.830  1.00  0.00     0.031 A 
ATOM     14  C   UNL A   1      30.153  23.496  26.635  1.00  0.00     0.116 A 
ATOM     15  C   UNL A   1      29.746  24.804  26.757  1.00  0.00     0.048 A 
BRANCH   9  16
ATOM     16  C   UNL A   1      31.829  27.506  23.704  1.00  0.00     0.262 C 
ATOM     17  O   UNL A   1      32.952  28.003  23.748  1.00  0.00    -0.268 OA
BRANCH  16  18
ATOM     18  C   UNL A   1      30.710  28.448  23.643  1.00  0.00     0.040 A 
ATOM     19  C   UNL A   1      29.601  28.163  22.838  1.00  0.00     0.015 A 
ATOM     20  C   UNL A   1      30.826  29.660  24.328  1.00  0.00     0.015 A 
ATOM     21  C   UNL A   1      28.624  29.141  22.665  1.00  0.00     0.021 A 
ATOM     22  C   UNL A   1      29.841  30.630  24.154  1.00  0.00     0.021 A 
ATOM     23  C   UNL A   1      28.755  30.372  23.314  1.00  0.00     0.041 A 
ATOM     24  Cl  UNL A   1      27.578  31.599  23.048  1.00  0.00    -0.084 Cl
ENDBRANCH  16  18
ENDBRANCH   9  16
BRANCH  14  25
ATOM     25  O   UNL A   1      29.726  22.545  27.513  1.00  0.00    -0.508 OA
ATOM     26  H   UNL A   1      29.563  21.672  27.216  1.00  0.00     0.293 HD
ENDBRANCH  14  25
ENDBRANCH   5   6
ENDBRANCH   3   5
ENDBRANCH   2   3
ENDBRANCH   1   2
BRANCH   1  27
ATOM     27  C   UNL A   1      35.606  20.788  24.973  1.00  0.00     0.275 C 
BRANCH  27  28
ATOM     28  O   UNL A   1      36.907  21.358  24.769  1.00  0.00    -0.458 OA
BRANCH  28  29
ATOM     29  C   UNL A   1      37.972  20.650  25.220  1.00  0.00     0.338 C 
ATOM     30  O   UNL A   1      38.211  19.472  25.023  1.00  0.00    -0.246 OA
BRANCH  29  31
ATOM     31  C   UNL A   1      38.928  21.664  25.702  1.00  0.00     0.060 A 
ATOM     32  C   UNL A   1      40.197  21.273  26.127  1.00  0.00     0.016 A 
ATOM     33  C   UNL A   1      38.446  22.947  25.975  1.00  0.00     0.016 A 
ATOM     34  C   UNL A   1      40.915  22.118  26.960  1.00  0.00     0.010 A 
ATOM     35  C   UNL A   1      39.134  23.761  26.855  1.00  0.00     0.010 A 
ATOM     36  C   UNL A   1      40.339  23.321  27.388  1.00  0.00    -0.014 A 
BRANCH  36  37
ATOM     37  C   UNL A   1      41.147  24.266  28.135  1.00  0.00     0.031 A 
ATOM     38  C   UNL A   1      40.487  25.586  28.208  1.00  0.00     0.074 A 
ATOM     39  C   UNL A   1      42.297  24.045  28.796  1.00  0.00     0.049 A 
ATOM     40  N   UNL A   1      40.659  26.567  27.389  1.00  0.00    -0.248 NA
ATOM     41  C   UNL A   1      39.370  25.759  29.146  1.00  0.00     0.031 C 
ATOM     42  C   UNL A   1      42.940  22.784  29.158  1.00  0.00     0.029 A 
ATOM     43  N   UNL A   1      43.110  24.983  29.359  1.00  0.00    -0.354 N 
ATOM     44  C   UNL A   1      39.840  27.578  27.868  1.00  0.00     0.074 A 
ATOM     45  C   UNL A   1      38.915  26.958  28.781  1.00  0.00     0.031 C 
ATOM     46  C   UNL A   1      43.945  23.035  30.038  1.00  0.00     0.029 A 
ATOM     47  C   UNL A   1      44.116  24.473  30.169  1.00  0.00     0.049 A 
ATOM     48  H   UNL A   1      42.993  25.948  29.203  1.00  0.00     0.167 HD
ATOM     49  C   UNL A   1      40.168  28.883  27.695  1.00  0.00     0.034 A 
ATOM     50  C   UNL A   1      44.988  25.216  30.896  1.00  0.00     0.034 A 
ATOM     51  C   UNL A   1      41.250  29.044  26.759  1.00  0.00     0.049 A 
ATOM     52  C   UNL A   1      45.057  26.544  30.237  1.00  0.00     0.074 A 
ATOM     53  C   UNL A   1      41.458  28.739  25.429  1.00  0.00     0.029 A 
ATOM     54  N   UNL A   1      42.490  29.231  27.318  1.00  0.00    -0.354 N 
ATOM     55  N   UNL A   1      45.564  26.748  29.053  1.00  0.00    -0.248 NA
ATOM     56  C   UNL A   1      44.277  27.646  30.781  1.00  0.00     0.031 C 
ATOM     57  C   UNL A   1      42.834  28.373  25.338  1.00  0.00     0.029 A 
ATOM     58  C   UNL A   1      43.406  28.502  26.606  1.00  0.00     0.049 A 
ATOM     59  H   UNL A   1      42.689  29.794  28.101  1.00  0.00     0.167 HD
ATOM     60  C   UNL A   1      44.821  27.798  28.535  1.00  0.00     0.074 A 
ATOM     61  C   UNL A   1      44.168  28.404  29.688  1.00  0.00     0.031 C 
ATOM     62  C   UNL A   1      44.580  27.891  27.196  1.00  0.00     0.034 A 
BRANCH  49  63
ATOM     63  C   UNL A   1      39.797  29.976  28.660  1.00  0.00     0.023 A 
ATOM     64  C   UNL A   1      40.641  30.177  29.771  1.00  0.00     0.012 A 
ATOM     65  C   UNL A   1      38.545  30.633  28.671  1.00  0.00     0.148 A 
ATOM     66  C   UNL A   1      40.253  30.987  30.843  1.00  0.00     0.002 A 
ATOM     67  C   UNL A   1      38.205  31.510  29.692  1.00  0.00     0.091 A 
ATOM     68  F   UNL A   1      37.609  30.308  27.773  1.00  0.00    -0.205 F 
ATOM     69  C   UNL A   1      39.044  31.671  30.794  1.00  0.00     0.022 A 
BRANCH  67  70
ATOM     70  S   UNL A   1      36.680  32.457  29.634  1.00  0.00     0.127 S 
ATOM     71  O   UNL A   1      35.681  31.397  29.545  1.00  0.00    -0.237 OA
ATOM     72  O   UNL A   1      36.720  33.168  30.912  1.00  0.00    -0.237 OA
ATOM     73  O   UNL A   1      36.811  33.323  28.469  1.00  0.00    -0.744 OA
ENDBRANCH  67  70
ENDBRANCH  49  63
BRANCH  50  74
ATOM     74  C   UNL A   1      45.665  24.988  32.198  1.00  0.00     0.023 A 
ATOM     75  C   UNL A   1      46.904  25.627  32.439  1.00  0.00     0.012 A 
ATOM     76  C   UNL A   1      44.975  24.448  33.303  1.00  0.00     0.148 A 
ATOM     77  C   UNL A   1      47.393  25.803  33.738  1.00  0.00     0.002 A 
ATOM     78  C   UNL A   1      45.473  24.618  34.595  1.00  0.00     0.091 A 
ATOM     79  F   UNL A   1      43.788  23.861  33.103  1.00  0.00    -0.205 F 
ATOM     80  C   UNL A   1      46.668  25.315  34.818  1.00  0.00     0.022 A 
BRANCH  78  81
ATOM     81  S   UNL A   1      44.590  24.019  36.043  1.00  0.00     0.127 S 
ATOM     82  O   UNL A   1      43.233  24.511  35.804  1.00  0.00    -0.237 OA
ATOM     83  O   UNL A   1      44.747  22.573  35.918  1.00  0.00    -0.237 OA
ATOM     84  O   UNL A   1      45.253  24.637  37.185  1.00  0.00    -0.744 OA
ENDBRANCH  78  81
ENDBRANCH  50  74
BRANCH  62  85
ATOM     85  C   UNL A   1      45.451  27.088  26.266  1.00  0.00     0.023 A 
ATOM     86  C   UNL A   1      46.744  27.504  25.890  1.00  0.00     0.012 A 
ATOM     87  C   UNL A   1      45.014  25.801  25.909  1.00  0.00     0.148 A 
ATOM     88  C   UNL A   1      47.583  26.651  25.168  1.00  0.00     0.002 A 
ATOM     89  C   UNL A   1      45.866  24.940  25.231  1.00  0.00     0.091 A 
ATOM     90  F   UNL A   1      43.780  25.428  26.281  1.00  0.00    -0.205 F 
ATOM     91  C   UNL A   1      47.150  25.364  24.853  1.00  0.00     0.022 A 
BRANCH  89  92
ATOM     92  S   UNL A   1      45.421  23.234  24.897  1.00  0.00     0.127 S 
ATOM     93  O   UNL A   1      45.271  22.687  26.244  1.00  0.00    -0.237 OA
ATOM     94  O   UNL A   1      44.168  23.381  24.154  1.00  0.00    -0.237 OA
ATOM     95  O   UNL A   1      46.516  22.672  24.118  1.00  0.00    -0.744 OA
ENDBRANCH  89  92
ENDBRANCH  62  85
ENDBRANCH  36  37
ENDBRANCH  29  31
ENDBRANCH  28  29
ENDBRANCH  27  28
ENDBRANCH   1  27
TORSDOF 18
ENDMDL
MODEL 3
REMARK VINA RESULT:     -13.0      1.090      2.004
REMARK SMILES Cc1c(CC(=O)OCCOC(=O)c2ccc(-c3c4nc(c(-c5cccc(S(=O)(=O)[O-])c5F)c5ccc([nH]5)c(-c5cccc(S(=O)(=O)[O-])c5F)c5nc(c(-c6cccc(S(=O)(=O)[O-])c6F)c6ccc3[nH]6)C=C5)C=C4)cc2)c2cc(O)ccc2n1C(=O)c1ccc(Cl)cc1
REMARK SMILES IDX 8 1 7 2 5 3 6 4 4 5 3 6 1 7 2 8 83 9 76 10 82 11 77 12 81 13
REMARK SMILES IDX 78 14 80 15 84 16 85 17 86 18 87 19 92 20 88 21 91 22 89 23
REMARK SMILES IDX 90 24 79 25 9 27 10 28 11 29 12 30 13 31 14 32 75 33 15 34
REMARK SMILES IDX 74 35 16 36 17 37 18 38 68 39 19 40 73 41 67 42 69 43 20 44
REMARK SMILES IDX 72 45 66 46 65 47 21 49 53 50 33 51 52 52 34 53 37 54 51 55
REMARK SMILES IDX 70 56 35 57 36 58 50 60 71 61 38 62 22 63 23 64 31 65 24 66
REMARK SMILES IDX 26 67 32 68 25 69 27 70 28 71 29 72 30 73 54 74 55 75 63 76
REMARK SMILES IDX 56 77 58 78 64 79 57 80 59 81 60 82 61 83 62 84 39 85 40 86
REMARK SMILES IDX 48 87 41 88 43 89 49 90 42 91 44 92 45 93 46 94 47 95
REMARK H PARENT 79 26 69 48 37 59
REMARK Flexibility Score: inf
ROOT
ATOM      1  C   UNL A   1      31.607  27.917  25.360  1.00  0.00     0.274 C 
ENDROOT
BRANCH   1   2
ATOM      2  O   UNL A   1      32.954  27.409  25.495  1.00  0.00    -0.462 OA
BRANCH   2   3
ATOM      3  C   UNL A   1      33.655  27.325  24.338  1.00  0.00     0.310 C 
ATOM      4  O   UNL A   1      34.357  28.233  23.900  1.00  0.00    -0.252 OA
BRANCH   3   5
ATOM      5  C   UNL A   1      33.434  26.070  23.543  1.00  0.00     0.160 C 
BRANCH   5   6
ATOM      6  C   UNL A   1      33.596  24.699  24.146  1.00  0.00    -0.008 A 
ATOM      7  C   UNL A   1      31.378  23.786  23.141  1.00  0.00     0.065 C 
ATOM      8  C   UNL A   1      32.630  23.715  23.963  1.00  0.00     0.028 A 
ATOM      9  N   UNL A   1      32.981  22.595  24.699  1.00  0.00    -0.280 N 
ATOM     10  C   UNL A   1      34.717  24.037  24.761  1.00  0.00     0.008 A 
ATOM     11  C   UNL A   1      34.345  22.706  25.000  1.00  0.00     0.057 A 
ATOM     12  C   UNL A   1      36.039  24.401  25.105  1.00  0.00     0.056 A 
ATOM     13  C   UNL A   1      35.284  21.761  25.483  1.00  0.00     0.031 A 
ATOM     14  C   UNL A   1      36.960  23.460  25.576  1.00  0.00     0.116 A 
ATOM     15  C   UNL A   1      36.591  22.148  25.769  1.00  0.00     0.048 A 
BRANCH   9  16
ATOM     16  C   UNL A   1      32.106  21.544  25.072  1.00  0.00     0.262 C 
ATOM     17  O   UNL A   1      31.105  21.789  25.740  1.00  0.00    -0.268 OA
BRANCH  16  18
ATOM     18  C   UNL A   1      32.340  20.134  24.752  1.00  0.00     0.040 A 
ATOM     19  C   UNL A   1      32.760  19.253  25.754  1.00  0.00     0.015 A 
ATOM     20  C   UNL A   1      32.222  19.729  23.421  1.00  0.00     0.015 A 
ATOM     21  C   UNL A   1      33.134  17.958  25.399  1.00  0.00     0.021 A 
ATOM     22  C   UNL A   1      32.593  18.431  23.076  1.00  0.00     0.021 A 
ATOM     23  C   UNL A   1      33.060  17.558  24.062  1.00  0.00     0.041 A 
ATOM     24  Cl  UNL A   1      33.580  15.979  23.620  1.00  0.00    -0.084 Cl
ENDBRANCH  16  18
ENDBRANCH   9  16
BRANCH  14  25
ATOM     25  O   UNL A   1      38.235  23.872  25.828  1.00  0.00    -0.508 OA
ATOM     26  H   UNL A   1      38.874  23.260  26.135  1.00  0.00     0.293 HD
ENDBRANCH  14  25
ENDBRANCH   5   6
ENDBRANCH   3   5
ENDBRANCH   2   3
ENDBRANCH   1   2
BRANCH   1  27
ATOM     27  C   UNL A   1      31.608  29.447  25.327  1.00  0.00     0.275 C 
BRANCH  27  28
ATOM     28  O   UNL A   1      31.818  29.936  26.659  1.00  0.00    -0.458 OA
BRANCH  28  29
ATOM     29  C   UNL A   1      32.120  31.251  26.797  1.00  0.00     0.338 C 
ATOM     30  O   UNL A   1      31.399  32.202  26.557  1.00  0.00    -0.246 OA
BRANCH  29  31
ATOM     31  C   UNL A   1      33.358  31.276  27.597  1.00  0.00     0.060 A 
ATOM     32  C   UNL A   1      33.856  32.491  28.066  1.00  0.00     0.016 A 
ATOM     33  C   UNL A   1      34.142  30.119  27.636  1.00  0.00     0.016 A 
ATOM     34  C   UNL A   1      35.193  32.574  28.425  1.00  0.00     0.010 A 
ATOM     35  C   UNL A   1      35.488  30.217  27.934  1.00  0.00     0.010 A 
ATOM     36  C   UNL A   1      36.021  31.454  28.274  1.00  0.00    -0.014 A 
BRANCH  36  37
ATOM     37  C   UNL A   1      37.377  31.502  28.788  1.00  0.00     0.031 A 
ATOM     38  C   UNL A   1      38.045  30.192  28.641  1.00  0.00     0.074 A 
ATOM     39  C   UNL A   1      38.058  32.563  29.255  1.00  0.00     0.049 A 
ATOM     40  N   UNL A   1      38.078  29.253  29.524  1.00  0.00    -0.248 NA
ATOM     41  C   UNL A   1      38.534  29.801  27.312  1.00  0.00     0.031 C 
ATOM     42  C   UNL A   1      37.743  33.987  29.170  1.00  0.00     0.029 A 
ATOM     43  N   UNL A   1      39.273  32.548  29.871  1.00  0.00    -0.354 N 
ATOM     44  C   UNL A   1      38.817  28.239  28.937  1.00  0.00     0.074 A 
ATOM     45  C   UNL A   1      38.861  28.527  27.527  1.00  0.00     0.031 C 
ATOM     46  C   UNL A   1      38.833  34.706  29.551  1.00  0.00     0.029 A 
ATOM     47  C   UNL A   1      39.850  33.797  30.057  1.00  0.00     0.049 A 
ATOM     48  H   UNL A   1      39.709  31.714  30.163  1.00  0.00     0.167 HD
ATOM     49  C   UNL A   1      39.571  27.399  29.690  1.00  0.00     0.034 A 
ATOM     50  C   UNL A   1      41.086  34.021  30.569  1.00  0.00     0.034 A 
ATOM     51  C   UNL A   1      39.276  27.526  31.094  1.00  0.00     0.049 A 
ATOM     52  C   UNL A   1      41.419  32.832  31.391  1.00  0.00     0.074 A 
ATOM     53  C   UNL A   1      38.160  27.353  31.886  1.00  0.00     0.029 A 
ATOM     54  N   UNL A   1      40.153  28.299  31.812  1.00  0.00    -0.354 N 
ATOM     55  N   UNL A   1      40.805  32.510  32.495  1.00  0.00    -0.248 NA
ATOM     56  C   UNL A   1      42.273  31.797  30.827  1.00  0.00     0.031 C 
ATOM     57  C   UNL A   1      38.256  28.358  32.896  1.00  0.00     0.029 A 
ATOM     58  C   UNL A   1      39.439  29.072  32.689  1.00  0.00     0.049 A 
ATOM     59  H   UNL A   1      41.133  28.299  31.714  1.00  0.00     0.167 HD
ATOM     60  C   UNL A   1      40.846  31.125  32.523  1.00  0.00     0.074 A 
ATOM     61  C   UNL A   1      41.888  30.758  31.572  1.00  0.00     0.031 C 
ATOM     62  C   UNL A   1      39.838  30.404  33.094  1.00  0.00     0.034 A 
BRANCH  49  63
ATOM     63  C   UNL A   1      40.847  26.761  29.211  1.00  0.00     0.023 A 
ATOM     64  C   UNL A   1      41.991  27.580  29.126  1.00  0.00     0.012 A 
ATOM     65  C   UNL A   1      40.919  25.486  28.607  1.00  0.00     0.148 A 
ATOM     66  C   UNL A   1      43.146  27.152  28.465  1.00  0.00     0.002 A 
ATOM     67  C   UNL A   1      42.098  25.028  28.035  1.00  0.00     0.091 A 
ATOM     68  F   UNL A   1      39.809  24.755  28.447  1.00  0.00    -0.205 F 
ATOM     69  C   UNL A   1      43.207  25.867  27.937  1.00  0.00     0.022 A 
BRANCH  67  70
ATOM     70  S   UNL A   1      42.234  23.355  27.398  1.00  0.00     0.127 S 
ATOM     71  O   UNL A   1      41.299  23.390  26.278  1.00  0.00    -0.237 OA
ATOM     72  O   UNL A   1      43.648  23.290  27.026  1.00  0.00    -0.237 OA
ATOM     73  O   UNL A   1      41.875  22.490  28.515  1.00  0.00    -0.744 OA
ENDBRANCH  67  70
ENDBRANCH  49  63
BRANCH  50  74
ATOM     74  C   UNL A   1      42.107  35.070  30.315  1.00  0.00     0.023 A 
ATOM     75  C   UNL A   1      43.008  35.402  31.353  1.00  0.00     0.012 A 
ATOM     76  C   UNL A   1      42.423  35.491  29.008  1.00  0.00     0.148 A 
ATOM     77  C   UNL A   1      44.221  36.048  31.088  1.00  0.00     0.002 A 
ATOM     78  C   UNL A   1      43.629  36.144  28.750  1.00  0.00     0.091 A 
ATOM     79  F   UNL A   1      41.598  35.165  28.005  1.00  0.00    -0.205 F 
ATOM     80  C   UNL A   1      44.540  36.403  29.783  1.00  0.00     0.022 A 
BRANCH  78  81
ATOM     81  S   UNL A   1      44.113  36.629  27.087  1.00  0.00     0.127 S 
ATOM     82  O   UNL A   1      43.001  37.486  26.677  1.00  0.00    -0.237 OA
ATOM     83  O   UNL A   1      45.370  37.332  27.330  1.00  0.00    -0.237 OA
ATOM     84  O   UNL A   1      44.214  35.384  26.334  1.00  0.00    -0.744 OA
ENDBRANCH  78  81
ENDBRANCH  50  74
BRANCH  62  85
ATOM     85  C   UNL A   1      38.904  31.123  34.032  1.00  0.00     0.023 A 
ATOM     86  C   UNL A   1      39.186  31.288  35.403  1.00  0.00     0.012 A 
ATOM     87  C   UNL A   1      37.804  31.795  33.472  1.00  0.00     0.148 A 
ATOM     88  C   UNL A   1      38.381  32.107  36.200  1.00  0.00     0.002 A 
ATOM     89  C   UNL A   1      37.034  32.643  34.256  1.00  0.00     0.091 A 
ATOM     90  F   UNL A   1      37.558  31.623  32.164  1.00  0.00    -0.205 F 
ATOM     91  C   UNL A   1      37.315  32.797  35.623  1.00  0.00     0.022 A 
BRANCH  89  92
ATOM     92  S   UNL A   1      35.724  33.650  33.558  1.00  0.00     0.127 S 
ATOM     93  O   UNL A   1      35.160  34.288  34.746  1.00  0.00    -0.237 OA
ATOM     94  O   UNL A   1      36.465  34.551  32.675  1.00  0.00    -0.237 OA
ATOM     95  O   UNL A   1      34.829  32.733  32.863  1.00  0.00    -0.744 OA
ENDBRANCH  89  92
ENDBRANCH  62  85
ENDBRANCH  36  37
ENDBRANCH  29  31
ENDBRANCH  28  29
ENDBRANCH  27  28
ENDBRANCH   1  27
TORSDOF 18
ENDMDL
