MODEL 1
REMARK VINA RESULT:     -10.4      0.000      0.000
REMARK SMILES Cc1cc(C[NH+]2C[C@@H](C)[C@H](C)C2)oc1C(=O)OCCOC(=O)c1ccc(-c2c3nc(c(-c4cccc(S(=O)(=O)[O-])c4F)c4ccc([nH]4)c(-c4cccc(S(=O)(=O)[O-])c4F)c4nc(c(-c5cccc(S(=O)(=O)[O-])c5F)c5ccc2[nH]5)C=C4)C=C3)cc1
REMARK SMILES IDX 19 1 18 2 17 3 15 4 16 5 14 6 1 7 2 8 3 9 4 10 13 11 5 12
REMARK SMILES IDX 6 13 7 14 12 15 8 17 10 18 9 19 11 20 20 21 21 22 22 23
REMARK SMILES IDX 23 24 24 25 85 26 25 27 84 28 26 29 27 30 28 31 78 32 29 33
REMARK SMILES IDX 83 34 77 35 79 36 30 37 82 38 76 39 75 40 31 42 63 43 43 44
REMARK SMILES IDX 62 45 44 46 47 47 61 48 80 49 45 50 46 51 60 53 81 54 48 55
REMARK SMILES IDX 32 56 33 57 41 58 34 59 36 60 42 61 35 62 37 63 38 64 39 65
REMARK SMILES IDX 40 66 64 67 65 68 73 69 66 70 68 71 74 72 67 73 69 74 70 75
REMARK SMILES IDX 71 76 72 77 49 78 50 79 58 80 51 81 53 82 59 83 52 84 54 85
REMARK SMILES IDX 55 86 56 87 57 88
REMARK H PARENT 6 16 79 41 47 52
REMARK Flexibility Score: inf
ROOT
ATOM      1  C   UNL A   1      34.116  33.398  27.977  1.00  0.00     0.275 C 
ENDROOT
BRANCH   1   2
ATOM      2  C   UNL A   1      33.995  34.707  28.765  1.00  0.00     0.275 C 
BRANCH   2   3
ATOM      3  O   UNL A   1      32.946  34.637  29.749  1.00  0.00    -0.456 OA
BRANCH   3   4
ATOM      4  C   UNL A   1      32.869  35.692  30.615  1.00  0.00     0.374 C 
ATOM      5  O   UNL A   1      32.191  36.690  30.416  1.00  0.00    -0.242 OA
BRANCH   4   6
ATOM      6  C   UNL A   1      33.624  35.419  31.821  1.00  0.00     0.215 A 
ATOM      7  C   UNL A   1      33.724  37.573  33.268  1.00  0.00     0.049 C 
ATOM      8  C   UNL A   1      34.031  36.164  32.922  1.00  0.00     0.003 A 
ATOM      9  C   UNL A   1      34.844  35.290  33.708  1.00  0.00     0.056 A 
ATOM     10  C   UNL A   1      34.909  34.086  33.044  1.00  0.00     0.159 A 
ATOM     11  O   UNL A   1      34.111  34.143  31.944  1.00  0.00    -0.448 OA
BRANCH  10  12
ATOM     12  C   UNL A   1      35.637  32.793  33.249  1.00  0.00     0.338 C 
BRANCH  12  13
ATOM     13  N   UNL A   1      36.939  32.683  32.590  1.00  0.00    -0.328 N 
ATOM     14  C   UNL A   1      36.936  32.858  31.136  1.00  0.00     0.266 C 
ATOM     15  C   UNL A   1      38.033  33.445  33.184  1.00  0.00     0.266 C 
ATOM     16  H   UNL A   1      37.132  31.699  32.777  1.00  0.00     0.348 HD
ATOM     17  C   UNL A   1      38.379  33.265  30.828  1.00  0.00     0.049 C 
ATOM     18  C   UNL A   1      38.702  34.171  32.017  1.00  0.00     0.049 C 
ATOM     19  C   UNL A   1      38.524  33.946  29.475  1.00  0.00     0.014 C 
ATOM     20  C   UNL A   1      40.187  34.407  32.244  1.00  0.00     0.014 C 
ENDBRANCH  12  13
ENDBRANCH  10  12
ENDBRANCH   4   6
ENDBRANCH   3   4
ENDBRANCH   2   3
ENDBRANCH   1   2
BRANCH   1  21
ATOM     21  O   UNL A   1      34.506  32.298  28.819  1.00  0.00    -0.458 OA
BRANCH  21  22
ATOM     22  C   UNL A   1      34.640  31.103  28.195  1.00  0.00     0.338 C 
ATOM     23  O   UNL A   1      33.879  30.622  27.372  1.00  0.00    -0.246 OA
BRANCH  22  24
ATOM     24  C   UNL A   1      35.936  30.497  28.554  1.00  0.00     0.060 A 
ATOM     25  C   UNL A   1      35.967  29.624  29.645  1.00  0.00     0.016 A 
ATOM     26  C   UNL A   1      37.112  30.802  27.866  1.00  0.00     0.016 A 
ATOM     27  C   UNL A   1      37.165  29.041  30.047  1.00  0.00     0.010 A 
ATOM     28  C   UNL A   1      38.320  30.225  28.277  1.00  0.00     0.010 A 
ATOM     29  C   UNL A   1      38.353  29.345  29.373  1.00  0.00    -0.014 A 
BRANCH  29  30
ATOM     30  C   UNL A   1      39.631  28.766  29.849  1.00  0.00     0.031 A 
ATOM     31  C   UNL A   1      40.299  29.330  31.070  1.00  0.00     0.074 A 
ATOM     32  C   UNL A   1      40.183  27.730  29.191  1.00  0.00     0.049 A 
ATOM     33  N   UNL A   1      41.416  28.966  31.641  1.00  0.00    -0.248 NA
ATOM     34  C   UNL A   1      39.619  30.454  31.736  1.00  0.00     0.031 C 
ATOM     35  C   UNL A   1      39.625  27.098  27.996  1.00  0.00     0.029 A 
ATOM     36  N   UNL A   1      41.343  27.035  29.429  1.00  0.00    -0.354 N 
ATOM     37  C   UNL A   1      41.592  29.827  32.715  1.00  0.00     0.074 A 
ATOM     38  C   UNL A   1      40.467  30.738  32.715  1.00  0.00     0.031 C 
ATOM     39  C   UNL A   1      40.450  26.116  27.596  1.00  0.00     0.029 A 
ATOM     40  C   UNL A   1      41.601  26.062  28.493  1.00  0.00     0.049 A 
ATOM     41  H   UNL A   1      41.933  27.217  30.195  1.00  0.00     0.167 HD
ATOM     42  C   UNL A   1      42.590  29.845  33.630  1.00  0.00     0.034 A 
ATOM     43  C   UNL A   1      42.652  25.227  28.371  1.00  0.00     0.034 A 
ATOM     44  C   UNL A   1      43.687  28.916  33.651  1.00  0.00     0.049 A 
ATOM     45  C   UNL A   1      43.748  25.271  29.403  1.00  0.00     0.074 A 
ATOM     46  C   UNL A   1      44.722  28.828  34.566  1.00  0.00     0.029 A 
ATOM     47  N   UNL A   1      43.894  27.917  32.714  1.00  0.00    -0.354 N 
ATOM     48  N   UNL A   1      43.839  26.013  30.480  1.00  0.00    -0.248 NA
ATOM     49  C   UNL A   1      44.875  24.345  29.218  1.00  0.00     0.031 C 
ATOM     50  C   UNL A   1      45.560  27.777  34.177  1.00  0.00     0.029 A 
ATOM     51  C   UNL A   1      45.044  27.210  33.022  1.00  0.00     0.049 A 
ATOM     52  H   UNL A   1      43.310  27.735  31.942  1.00  0.00     0.167 HD
ATOM     53  C   UNL A   1      45.014  25.627  31.113  1.00  0.00     0.074 A 
ATOM     54  C   UNL A   1      45.591  24.568  30.312  1.00  0.00     0.031 C 
ATOM     55  C   UNL A   1      45.576  26.120  32.245  1.00  0.00     0.034 A 
BRANCH  42  56
ATOM     56  C   UNL A   1      42.518  30.884  34.715  1.00  0.00     0.023 A 
ATOM     57  C   UNL A   1      41.942  30.545  35.957  1.00  0.00     0.012 A 
ATOM     58  C   UNL A   1      43.064  32.168  34.532  1.00  0.00     0.148 A 
ATOM     59  C   UNL A   1      41.892  31.477  36.993  1.00  0.00     0.002 A 
ATOM     60  C   UNL A   1      43.040  33.082  35.580  1.00  0.00     0.091 A 
ATOM     61  F   UNL A   1      43.582  32.480  33.334  1.00  0.00    -0.205 F 
ATOM     62  C   UNL A   1      42.450  32.740  36.807  1.00  0.00     0.022 A 
BRANCH  60  63
ATOM     63  S   UNL A   1      43.787  34.710  35.451  1.00  0.00     0.127 S 
ATOM     64  O   UNL A   1      42.990  35.318  34.386  1.00  0.00    -0.237 OA
ATOM     65  O   UNL A   1      43.551  35.270  36.782  1.00  0.00    -0.237 OA
ATOM     66  O   UNL A   1      45.190  34.479  35.136  1.00  0.00    -0.744 OA
ENDBRANCH  60  63
ENDBRANCH  42  56
BRANCH  43  67
ATOM     67  C   UNL A   1      42.689  24.238  27.258  1.00  0.00     0.023 A 
ATOM     68  C   UNL A   1      43.336  24.576  26.055  1.00  0.00     0.012 A 
ATOM     69  C   UNL A   1      42.116  22.958  27.393  1.00  0.00     0.148 A 
ATOM     70  C   UNL A   1      43.396  23.665  24.999  1.00  0.00     0.002 A 
ATOM     71  C   UNL A   1      42.223  22.038  26.356  1.00  0.00     0.091 A 
ATOM     72  F   UNL A   1      41.476  22.662  28.534  1.00  0.00    -0.205 F 
ATOM     73  C   UNL A   1      42.851  22.394  25.153  1.00  0.00     0.022 A 
BRANCH  71  74
ATOM     74  S   UNL A   1      41.655  20.341  26.528  1.00  0.00     0.127 S 
ATOM     75  O   UNL A   1      40.205  20.503  26.486  1.00  0.00    -0.237 OA
ATOM     76  O   UNL A   1      42.238  19.698  25.350  1.00  0.00    -0.237 OA
ATOM     77  O   UNL A   1      42.211  19.879  27.794  1.00  0.00    -0.744 OA
ENDBRANCH  71  74
ENDBRANCH  43  67
BRANCH  55  78
ATOM     78  C   UNL A   1      46.878  25.515  32.698  1.00  0.00     0.023 A 
ATOM     79  C   UNL A   1      48.090  26.047  32.213  1.00  0.00     0.012 A 
ATOM     80  C   UNL A   1      46.908  24.486  33.658  1.00  0.00     0.148 A 
ATOM     81  C   UNL A   1      49.312  25.547  32.661  1.00  0.00     0.002 A 
ATOM     82  C   UNL A   1      48.131  24.020  34.129  1.00  0.00     0.091 A 
ATOM     83  F   UNL A   1      45.746  23.978  34.091  1.00  0.00    -0.205 F 
ATOM     84  C   UNL A   1      49.333  24.543  33.627  1.00  0.00     0.022 A 
BRANCH  82  85
ATOM     85  S   UNL A   1      48.243  22.790  35.436  1.00  0.00     0.127 S 
ATOM     86  O   UNL A   1      47.460  23.413  36.501  1.00  0.00    -0.237 OA
ATOM     87  O   UNL A   1      47.613  21.619  34.823  1.00  0.00    -0.237 OA
ATOM     88  O   UNL A   1      49.665  22.632  35.706  1.00  0.00    -0.744 OA
ENDBRANCH  82  85
ENDBRANCH  55  78
ENDBRANCH  29  30
ENDBRANCH  22  24
ENDBRANCH  21  22
ENDBRANCH   1  21
TORSDOF 16
ENDMDL
MODEL 2
REMARK VINA RESULT:     -10.3      3.809     12.131
REMARK SMILES Cc1cc(C[NH+]2C[C@@H](C)[C@H](C)C2)oc1C(=O)OCCOC(=O)c1ccc(-c2c3nc(c(-c4cccc(S(=O)(=O)[O-])c4F)c4ccc([nH]4)c(-c4cccc(S(=O)(=O)[O-])c4F)c4nc(c(-c5cccc(S(=O)(=O)[O-])c5F)c5ccc2[nH]5)C=C4)C=C3)cc1
REMARK SMILES IDX 19 1 18 2 17 3 15 4 16 5 14 6 1 7 2 8 3 9 4 10 13 11 5 12
REMARK SMILES IDX 6 13 7 14 12 15 8 17 10 18 9 19 11 20 20 21 21 22 22 23
REMARK SMILES IDX 23 24 24 25 85 26 25 27 84 28 26 29 27 30 28 31 78 32 29 33
REMARK SMILES IDX 83 34 77 35 79 36 30 37 82 38 76 39 75 40 31 42 63 43 43 44
REMARK SMILES IDX 62 45 44 46 47 47 61 48 80 49 45 50 46 51 60 53 81 54 48 55
REMARK SMILES IDX 32 56 33 57 41 58 34 59 36 60 42 61 35 62 37 63 38 64 39 65
REMARK SMILES IDX 40 66 64 67 65 68 73 69 66 70 68 71 74 72 67 73 69 74 70 75
REMARK SMILES IDX 71 76 72 77 49 78 50 79 58 80 51 81 53 82 59 83 52 84 54 85
REMARK SMILES IDX 55 86 56 87 57 88
REMARK H PARENT 6 16 79 41 47 52
REMARK Flexibility Score: inf
ROOT
ATOM      1  C   UNL A   1      39.965  20.594  26.228  1.00  0.00     0.275 C 
ENDROOT
BRANCH   1   2
ATOM      2  C   UNL A   1      41.165  19.700  26.558  1.00  0.00     0.275 C 
BRANCH   2   3
ATOM      3  O   UNL A   1      41.952  19.417  25.385  1.00  0.00    -0.456 OA
BRANCH   3   4
ATOM      4  C   UNL A   1      43.186  18.876  25.613  1.00  0.00     0.374 C 
ATOM      5  O   UNL A   1      43.370  17.723  25.975  1.00  0.00    -0.242 OA
BRANCH   4   6
ATOM      6  C   UNL A   1      44.229  19.826  25.279  1.00  0.00     0.215 A 
ATOM      7  C   UNL A   1      46.535  18.638  25.417  1.00  0.00     0.049 C 
ATOM      8  C   UNL A   1      45.617  19.786  25.217  1.00  0.00     0.003 A 
ATOM      9  C   UNL A   1      46.034  21.119  24.914  1.00  0.00     0.056 A 
ATOM     10  C   UNL A   1      44.898  21.893  24.831  1.00  0.00     0.159 A 
ATOM     11  O   UNL A   1      43.807  21.095  24.978  1.00  0.00    -0.448 OA
BRANCH  10  12
ATOM     12  C   UNL A   1      44.613  23.350  24.636  1.00  0.00     0.338 C 
BRANCH  12  13
ATOM     13  N   UNL A   1      44.354  24.118  25.854  1.00  0.00    -0.328 N 
ATOM     14  C   UNL A   1      43.234  23.654  26.676  1.00  0.00     0.266 C 
ATOM     15  C   UNL A   1      45.509  24.404  26.699  1.00  0.00     0.266 C 
ATOM     16  H   UNL A   1      44.074  25.003  25.431  1.00  0.00     0.348 HD
ATOM     17  C   UNL A   1      43.558  24.216  28.062  1.00  0.00     0.049 C 
ATOM     18  C   UNL A   1      45.075  24.038  28.118  1.00  0.00     0.049 C 
ATOM     19  C   UNL A   1      42.810  23.503  29.179  1.00  0.00     0.014 C 
ATOM     20  C   UNL A   1      45.770  24.876  29.180  1.00  0.00     0.014 C 
ENDBRANCH  12  13
ENDBRANCH  10  12
ENDBRANCH   4   6
ENDBRANCH   3   4
ENDBRANCH   2   3
ENDBRANCH   1   2
BRANCH   1  21
ATOM     21  O   UNL A   1      40.194  21.964  26.606  1.00  0.00    -0.458 OA
BRANCH  21  22
ATOM     22  C   UNL A   1      39.160  22.812  26.390  1.00  0.00     0.338 C 
ATOM     23  O   UNL A   1      38.069  22.525  25.925  1.00  0.00    -0.246 OA
BRANCH  22  24
ATOM     24  C   UNL A   1      39.489  24.145  26.928  1.00  0.00     0.060 A 
ATOM     25  C   UNL A   1      40.055  25.078  26.055  1.00  0.00     0.016 A 
ATOM     26  C   UNL A   1      39.285  24.472  28.270  1.00  0.00     0.016 A 
ATOM     27  C   UNL A   1      40.409  26.344  26.510  1.00  0.00     0.010 A 
ATOM     28  C   UNL A   1      39.652  25.742  28.732  1.00  0.00     0.010 A 
ATOM     29  C   UNL A   1      40.220  26.683  27.855  1.00  0.00    -0.014 A 
BRANCH  29  30
ATOM     30  C   UNL A   1      40.659  28.012  28.342  1.00  0.00     0.031 A 
ATOM     31  C   UNL A   1      42.118  28.364  28.344  1.00  0.00     0.074 A 
ATOM     32  C   UNL A   1      39.745  28.903  28.770  1.00  0.00     0.049 A 
ATOM     33  N   UNL A   1      42.699  29.469  28.730  1.00  0.00    -0.248 NA
ATOM     34  C   UNL A   1      43.047  27.336  27.845  1.00  0.00     0.031 C 
ATOM     35  C   UNL A   1      38.301  28.674  28.812  1.00  0.00     0.029 A 
ATOM     36  N   UNL A   1      39.898  30.175  29.263  1.00  0.00    -0.354 N 
ATOM     37  C   UNL A   1      44.060  29.265  28.550  1.00  0.00     0.074 A 
ATOM     38  C   UNL A   1      44.221  27.926  28.022  1.00  0.00     0.031 C 
ATOM     39  C   UNL A   1      37.701  29.765  29.317  1.00  0.00     0.029 A 
ATOM     40  C   UNL A   1      38.717  30.760  29.650  1.00  0.00     0.049 A 
ATOM     41  H   UNL A   1      40.771  30.625  29.332  1.00  0.00     0.167 HD
ATOM     42  C   UNL A   1      45.082  30.122  28.783  1.00  0.00     0.034 A 
ATOM     43  C   UNL A   1      38.483  31.960  30.218  1.00  0.00     0.034 A 
ATOM     44  C   UNL A   1      44.918  31.464  29.271  1.00  0.00     0.049 A 
ATOM     45  C   UNL A   1      39.639  32.892  30.468  1.00  0.00     0.074 A 
ATOM     46  C   UNL A   1      45.891  32.423  29.496  1.00  0.00     0.029 A 
ATOM     47  N   UNL A   1      43.704  32.039  29.613  1.00  0.00    -0.354 N 
ATOM     48  N   UNL A   1      40.908  32.728  30.181  1.00  0.00    -0.248 NA
ATOM     49  C   UNL A   1      39.329  34.185  31.096  1.00  0.00     0.031 C 
ATOM     50  C   UNL A   1      45.265  33.576  29.981  1.00  0.00     0.029 A 
ATOM     51  C   UNL A   1      43.901  33.336  30.054  1.00  0.00     0.049 A 
ATOM     52  H   UNL A   1      42.829  31.590  29.550  1.00  0.00     0.167 HD
ATOM     53  C   UNL A   1      41.542  33.903  30.568  1.00  0.00     0.074 A 
ATOM     54  C   UNL A   1      40.515  34.780  31.088  1.00  0.00     0.031 C 
ATOM     55  C   UNL A   1      42.861  34.218  30.516  1.00  0.00     0.034 A 
BRANCH  42  56
ATOM     56  C   UNL A   1      46.474  29.645  28.472  1.00  0.00     0.023 A 
ATOM     57  C   UNL A   1      47.058  29.980  27.234  1.00  0.00     0.012 A 
ATOM     58  C   UNL A   1      47.222  28.917  29.417  1.00  0.00     0.148 A 
ATOM     59  C   UNL A   1      48.359  29.580  26.932  1.00  0.00     0.002 A 
ATOM     60  C   UNL A   1      48.530  28.548  29.122  1.00  0.00     0.091 A 
ATOM     61  F   UNL A   1      46.638  28.583  30.577  1.00  0.00    -0.205 F 
ATOM     62  C   UNL A   1      49.097  28.874  27.879  1.00  0.00     0.022 A 
BRANCH  60  63
ATOM     63  S   UNL A   1      49.576  27.690  30.304  1.00  0.00     0.127 S 
ATOM     64  O   UNL A   1      50.798  27.491  29.526  1.00  0.00    -0.237 OA
ATOM     65  O   UNL A   1      49.696  28.670  31.384  1.00  0.00    -0.237 OA
ATOM     66  O   UNL A   1      48.854  26.479  30.667  1.00  0.00    -0.744 OA
ENDBRANCH  60  63
ENDBRANCH  42  56
BRANCH  43  67
ATOM     67  C   UNL A   1      37.086  32.371  30.535  1.00  0.00     0.023 A 
ATOM     68  C   UNL A   1      36.593  32.189  31.841  1.00  0.00     0.012 A 
ATOM     69  C   UNL A   1      36.258  32.968  29.564  1.00  0.00     0.148 A 
ATOM     70  C   UNL A   1      35.293  32.576  32.170  1.00  0.00     0.002 A 
ATOM     71  C   UNL A   1      34.981  33.396  29.912  1.00  0.00     0.091 A 
ATOM     72  F   UNL A   1      36.732  33.106  28.318  1.00  0.00    -0.205 F 
ATOM     73  C   UNL A   1      34.492  33.189  31.211  1.00  0.00     0.022 A 
BRANCH  71  74
ATOM     74  S   UNL A   1      33.939  34.306  28.765  1.00  0.00     0.127 S 
ATOM     75  O   UNL A   1      33.601  33.278  27.785  1.00  0.00    -0.237 OA
ATOM     76  O   UNL A   1      32.830  34.729  29.622  1.00  0.00    -0.237 OA
ATOM     77  O   UNL A   1      34.768  35.403  28.282  1.00  0.00    -0.744 OA
ENDBRANCH  71  74
ENDBRANCH  43  67
BRANCH  55  78
ATOM     78  C   UNL A   1      43.274  35.573  31.025  1.00  0.00     0.023 A 
ATOM     79  C   UNL A   1      43.506  36.614  30.103  1.00  0.00     0.012 A 
ATOM     80  C   UNL A   1      43.352  35.840  32.405  1.00  0.00     0.148 A 
ATOM     81  C   UNL A   1      43.832  37.894  30.548  1.00  0.00     0.002 A 
ATOM     82  C   UNL A   1      43.639  37.129  32.842  1.00  0.00     0.091 A 
ATOM     83  F   UNL A   1      43.150  34.832  33.266  1.00  0.00    -0.205 F 
ATOM     84  C   UNL A   1      43.886  38.155  31.916  1.00  0.00     0.022 A 
BRANCH  82  85
ATOM     85  S   UNL A   1      43.641  37.566  34.585  1.00  0.00     0.127 S 
ATOM     86  O   UNL A   1      44.763  36.778  35.090  1.00  0.00    -0.237 OA
ATOM     87  O   UNL A   1      43.878  39.010  34.549  1.00  0.00    -0.237 OA
ATOM     88  O   UNL A   1      42.326  37.188  35.087  1.00  0.00    -0.744 OA
ENDBRANCH  82  85
ENDBRANCH  55  78
ENDBRANCH  29  30
ENDBRANCH  22  24
ENDBRANCH  21  22
ENDBRANCH   1  21
TORSDOF 16
ENDMDL
MODEL 3
REMARK VINA RESULT:     -10.2      2.104      2.422
REMARK SMILES Cc1cc(C[NH+]2C[C@@H](C)[C@H](C)C2)oc1C(=O)OCCOC(=O)c1ccc(-c2c3nc(c(-c4cccc(S(=O)(=O)[O-])c4F)c4ccc([nH]4)c(-c4cccc(S(=O)(=O)[O-])c4F)c4nc(c(-c5cccc(S(=O)(=O)[O-])c5F)c5ccc2[nH]5)C=C4)C=C3)cc1
REMARK SMILES IDX 19 1 18 2 17 3 15 4 16 5 14 6 1 7 2 8 3 9 4 10 13 11 5 12
REMARK SMILES IDX 6 13 7 14 12 15 8 17 10 18 9 19 11 20 20 21 21 22 22 23
REMARK SMILES IDX 23 24 24 25 85 26 25 27 84 28 26 29 27 30 28 31 78 32 29 33
REMARK SMILES IDX 83 34 77 35 79 36 30 37 82 38 76 39 75 40 31 42 63 43 43 44
REMARK SMILES IDX 62 45 44 46 47 47 61 48 80 49 45 50 46 51 60 53 81 54 48 55
REMARK SMILES IDX 32 56 33 57 41 58 34 59 36 60 42 61 35 62 37 63 38 64 39 65
REMARK SMILES IDX 40 66 64 67 65 68 73 69 66 70 68 71 74 72 67 73 69 74 70 75
REMARK SMILES IDX 71 76 72 77 49 78 50 79 58 80 51 81 53 82 59 83 52 84 54 85
REMARK SMILES IDX 55 86 56 87 57 88
REMARK H PARENT 6 16 79 41 47 52
REMARK Flexibility Score: inf
ROOT
ATOM      1  C   UNL A   1      33.625  32.720  27.631  1.00  0.00     0.275 C 
ENDROOT
BRANCH   1   2
ATOM      2  C   UNL A   1      33.687  34.162  28.149  1.00  0.00     0.275 C 
BRANCH   2   3
ATOM      3  O   UNL A   1      33.110  34.276  29.464  1.00  0.00    -0.456 OA
BRANCH   3   4
ATOM      4  C   UNL A   1      33.143  35.523  30.023  1.00  0.00     0.374 C 
ATOM      5  O   UNL A   1      32.737  36.532  29.464  1.00  0.00    -0.242 OA
BRANCH   4   6
ATOM      6  C   UNL A   1      33.635  35.460  31.385  1.00  0.00     0.215 A 
ATOM      7  C   UNL A   1      33.655  37.854  32.392  1.00  0.00     0.049 C 
ATOM      8  C   UNL A   1      33.895  36.390  32.384  1.00  0.00     0.003 A 
ATOM      9  C   UNL A   1      34.470  35.652  33.465  1.00  0.00     0.056 A 
ATOM     10  C   UNL A   1      34.549  34.337  33.065  1.00  0.00     0.159 A 
ATOM     11  O   UNL A   1      33.977  34.212  31.838  1.00  0.00    -0.448 OA
BRANCH  10  12
ATOM     12  C   UNL A   1      35.111  33.078  33.649  1.00  0.00     0.338 C 
BRANCH  12  13
ATOM     13  N   UNL A   1      36.567  33.031  33.785  1.00  0.00    -0.328 N 
ATOM     14  C   UNL A   1      37.331  33.263  32.558  1.00  0.00     0.266 C 
ATOM     15  C   UNL A   1      37.141  33.800  34.885  1.00  0.00     0.266 C 
ATOM     16  H   UNL A   1      36.676  32.047  34.029  1.00  0.00     0.348 HD
ATOM     17  C   UNL A   1      38.696  33.724  33.074  1.00  0.00     0.049 C 
ATOM     18  C   UNL A   1      38.295  34.590  34.268  1.00  0.00     0.049 C 
ATOM     19  C   UNL A   1      39.509  34.461  32.020  1.00  0.00     0.014 C 
ATOM     20  C   UNL A   1      39.418  34.860  35.258  1.00  0.00     0.014 C 
ENDBRANCH  12  13
ENDBRANCH  10  12
ENDBRANCH   4   6
ENDBRANCH   3   4
ENDBRANCH   2   3
ENDBRANCH   1   2
BRANCH   1  21
ATOM     21  O   UNL A   1      34.403  31.823  28.444  1.00  0.00    -0.458 OA
BRANCH  21  22
ATOM     22  C   UNL A   1      34.539  30.565  27.960  1.00  0.00     0.338 C 
ATOM     23  O   UNL A   1      33.727  29.953  27.286  1.00  0.00    -0.246 OA
BRANCH  22  24
ATOM     24  C   UNL A   1      35.895  30.063  28.254  1.00  0.00     0.060 A 
ATOM     25  C   UNL A   1      36.115  29.478  29.505  1.00  0.00     0.016 A 
ATOM     26  C   UNL A   1      36.946  30.193  27.344  1.00  0.00     0.016 A 
ATOM     27  C   UNL A   1      37.379  29.008  29.849  1.00  0.00     0.010 A 
ATOM     28  C   UNL A   1      38.220  29.730  27.694  1.00  0.00     0.010 A 
ATOM     29  C   UNL A   1      38.445  29.141  28.950  1.00  0.00    -0.014 A 
BRANCH  29  30
ATOM     30  C   UNL A   1      39.799  28.693  29.353  1.00  0.00     0.031 A 
ATOM     31  C   UNL A   1      40.532  29.417  30.444  1.00  0.00     0.074 A 
ATOM     32  C   UNL A   1      40.361  27.632  28.745  1.00  0.00     0.049 A 
ATOM     33  N   UNL A   1      41.720  29.182  30.936  1.00  0.00    -0.248 NA
ATOM     34  C   UNL A   1      39.838  30.558  31.064  1.00  0.00     0.031 C 
ATOM     35  C   UNL A   1      39.743  26.849  27.675  1.00  0.00     0.029 A 
ATOM     36  N   UNL A   1      41.583  27.038  28.933  1.00  0.00    -0.354 N 
ATOM     37  C   UNL A   1      41.930  30.156  31.902  1.00  0.00     0.074 A 
ATOM     38  C   UNL A   1      40.748  30.991  31.925  1.00  0.00     0.031 C 
ATOM     39  C   UNL A   1      40.597  25.885  27.291  1.00  0.00     0.029 A 
ATOM     40  C   UNL A   1      41.825  25.993  28.073  1.00  0.00     0.049 A 
ATOM     41  H   UNL A   1      42.226  27.332  29.619  1.00  0.00     0.167 HD
ATOM     42  C   UNL A   1      43.003  30.328  32.710  1.00  0.00     0.034 A 
ATOM     43  C   UNL A   1      42.917  25.216  27.929  1.00  0.00     0.034 A 
ATOM     44  C   UNL A   1      44.161  29.475  32.712  1.00  0.00     0.049 A 
ATOM     45  C   UNL A   1      44.096  25.432  28.841  1.00  0.00     0.074 A 
ATOM     46  C   UNL A   1      45.278  29.544  33.526  1.00  0.00     0.029 A 
ATOM     47  N   UNL A   1      44.353  28.401  31.857  1.00  0.00    -0.354 N 
ATOM     48  N   UNL A   1      44.231  26.283  29.829  1.00  0.00    -0.248 NA
ATOM     49  C   UNL A   1      45.265  24.564  28.635  1.00  0.00     0.031 C 
ATOM     50  C   UNL A   1      46.150  28.513  33.158  1.00  0.00     0.029 A 
ATOM     51  C   UNL A   1      45.574  27.802  32.118  1.00  0.00     0.049 A 
ATOM     52  H   UNL A   1      43.715  28.108  31.167  1.00  0.00     0.167 HD
ATOM     53  C   UNL A   1      45.483  26.036  30.379  1.00  0.00     0.074 A 
ATOM     54  C   UNL A   1      46.059  24.939  29.629  1.00  0.00     0.031 C 
ATOM     55  C   UNL A   1      46.109  26.674  31.399  1.00  0.00     0.034 A 
BRANCH  42  56
ATOM     56  C   UNL A   1      42.956  31.464  33.694  1.00  0.00     0.023 A 
ATOM     57  C   UNL A   1      43.452  32.727  33.313  1.00  0.00     0.012 A 
ATOM     58  C   UNL A   1      42.376  31.301  34.966  1.00  0.00     0.148 A 
ATOM     59  C   UNL A   1      43.390  33.807  34.193  1.00  0.00     0.002 A 
ATOM     60  C   UNL A   1      42.290  32.390  35.827  1.00  0.00     0.091 A 
ATOM     61  F   UNL A   1      41.937  30.084  35.320  1.00  0.00    -0.205 F 
ATOM     62  C   UNL A   1      42.800  33.641  35.444  1.00  0.00     0.022 A 
BRANCH  60  63
ATOM     63  S   UNL A   1      41.492  32.284  37.433  1.00  0.00     0.127 S 
ATOM     64  O   UNL A   1      40.138  31.876  37.063  1.00  0.00    -0.237 OA
ATOM     65  O   UNL A   1      42.277  31.247  38.104  1.00  0.00    -0.237 OA
ATOM     66  O   UNL A   1      41.613  33.608  38.026  1.00  0.00    -0.744 OA
ENDBRANCH  60  63
ENDBRANCH  42  56
BRANCH  43  67
ATOM     67  C   UNL A   1      42.923  24.125  26.915  1.00  0.00     0.023 A 
ATOM     68  C   UNL A   1      43.614  24.311  25.704  1.00  0.00     0.012 A 
ATOM     69  C   UNL A   1      42.277  22.896  27.156  1.00  0.00     0.148 A 
ATOM     70  C   UNL A   1      43.646  23.301  24.741  1.00  0.00     0.002 A 
ATOM     71  C   UNL A   1      42.356  21.876  26.214  1.00  0.00     0.091 A 
ATOM     72  F   UNL A   1      41.599  22.745  28.302  1.00  0.00    -0.205 F 
ATOM     73  C   UNL A   1      43.028  22.081  25.000  1.00  0.00     0.022 A 
BRANCH  71  74
ATOM     74  S   UNL A   1      41.692  20.236  26.531  1.00  0.00     0.127 S 
ATOM     75  O   UNL A   1      40.255  20.490  26.541  1.00  0.00    -0.237 OA
ATOM     76  O   UNL A   1      42.175  19.477  25.377  1.00  0.00    -0.237 OA
ATOM     77  O   UNL A   1      42.278  19.825  27.801  1.00  0.00    -0.744 OA
ENDBRANCH  71  74
ENDBRANCH  43  67
BRANCH  55  78
ATOM     78  C   UNL A   1      47.487  26.200  31.778  1.00  0.00     0.023 A 
ATOM     79  C   UNL A   1      47.635  25.305  32.856  1.00  0.00     0.012 A 
ATOM     80  C   UNL A   1      48.617  26.570  31.025  1.00  0.00     0.148 A 
ATOM     81  C   UNL A   1      48.891  24.803  33.192  1.00  0.00     0.002 A 
ATOM     82  C   UNL A   1      49.861  26.034  31.341  1.00  0.00     0.091 A 
ATOM     83  F   UNL A   1      48.460  27.440  30.017  1.00  0.00    -0.205 F 
ATOM     84  C   UNL A   1      50.001  25.156  32.428  1.00  0.00     0.022 A 
BRANCH  82  85
ATOM     85  S   UNL A   1      51.323  26.372  30.353  1.00  0.00     0.127 S 
ATOM     86  O   UNL A   1      51.324  27.833  30.309  1.00  0.00    -0.237 OA
ATOM     87  O   UNL A   1      52.394  25.786  31.162  1.00  0.00    -0.237 OA
ATOM     88  O   UNL A   1      51.101  25.701  29.079  1.00  0.00    -0.744 OA
ENDBRANCH  82  85
ENDBRANCH  55  78
ENDBRANCH  29  30
ENDBRANCH  22  24
ENDBRANCH  21  22
ENDBRANCH   1  21
TORSDOF 16
ENDMDL
