MODEL 1
REMARK VINA RESULT:     -11.9      0.000      0.000
REMARK SMILES O=C(COc1cc(-c2ccncc2)nc(Nc2ccccc2Br)n1)OCCOC(=O)c1ccc(-c2c3nc(c(-c4cccc(S(=O)(=O)[O-])c4F)c4ccc([nH]4)c(-c4cccc(S(=O)(=O)[O-])c4F)c4nc(c(-c5cccc(S(=O)(=O)[O-])c5F)c5ccc2[nH]5)C=C4)C=C3)cc1
REMARK SMILES IDX 26 1 25 2 2 3 1 4 3 5 4 6 5 7 6 8 24 9 7 10 15 11 14 12 8 13
REMARK SMILES IDX 9 14 13 15 10 16 12 17 11 18 16 19 17 21 18 22 22 23 19 24
REMARK SMILES IDX 21 25 23 26 20 27 27 28 28 29 29 30 30 31 31 32 32 33 93 34
REMARK SMILES IDX 33 35 92 36 34 37 35 38 36 39 86 40 37 41 91 42 85 43 87 44
REMARK SMILES IDX 38 45 90 46 84 47 83 48 39 50 71 51 51 52 70 53 52 54 55 55
REMARK SMILES IDX 69 56 88 57 53 58 54 59 68 61 89 62 56 63 40 64 41 65 49 66
REMARK SMILES IDX 42 67 44 68 50 69 43 70 45 71 46 72 47 73 48 74 72 75 73 76
REMARK SMILES IDX 81 77 74 78 76 79 82 80 75 81 77 82 78 83 79 84 80 85 57 86
REMARK SMILES IDX 58 87 66 88 59 89 61 90 67 91 60 92 62 93 63 94 64 95 65 96
REMARK H PARENT 16 20 87 49 55 60
REMARK Flexibility Score: inf
ROOT
ATOM      1  C   UNL A   1      37.382  20.763  24.566  1.00  0.00     0.274 C 
ENDROOT
BRANCH   1   2
ATOM      2  O   UNL A   1      37.389  22.194  24.754  1.00  0.00    -0.460 OA
BRANCH   2   3
ATOM      3  C   UNL A   1      36.649  23.042  23.995  1.00  0.00     0.344 C 
ATOM      4  O   UNL A   1      36.656  22.945  22.769  1.00  0.00    -0.248 OA
BRANCH   3   5
ATOM      5  C   UNL A   1      35.722  24.012  24.710  1.00  0.00     0.353 C 
BRANCH   5   6
ATOM      6  O   UNL A   1      34.978  23.327  25.719  1.00  0.00    -0.466 OA
BRANCH   6   7
ATOM      7  C   UNL A   1      33.952  22.641  25.124  1.00  0.00     0.219 A 
ATOM      8  C   UNL A   1      33.863  21.287  25.245  1.00  0.00     0.097 A 
ATOM      9  N   UNL A   1      33.117  23.374  24.398  1.00  0.00    -0.177 NA
ATOM     10  C   UNL A   1      32.897  20.682  24.474  1.00  0.00     0.080 A 
ATOM     11  C   UNL A   1      32.195  22.720  23.675  1.00  0.00     0.231 A 
ATOM     12  N   UNL A   1      32.060  21.380  23.675  1.00  0.00    -0.212 NA
BRANCH  10  13
ATOM     13  C   UNL A   1      32.813  19.218  24.456  1.00  0.00     0.004 A 
ATOM     14  C   UNL A   1      32.814  18.491  25.655  1.00  0.00     0.030 A 
ATOM     15  C   UNL A   1      32.860  18.501  23.258  1.00  0.00     0.030 A 
ATOM     16  C   UNL A   1      32.887  17.110  25.608  1.00  0.00     0.111 A 
ATOM     17  C   UNL A   1      32.935  17.117  23.312  1.00  0.00     0.111 A 
ATOM     18  N   UNL A   1      32.950  16.405  24.461  1.00  0.00    -0.265 NA
ENDBRANCH  10  13
BRANCH  11  19
ATOM     19  N   UNL A   1      31.386  23.470  22.817  1.00  0.00    -0.323 N 
ATOM     20  H   UNL A   1      31.026  23.039  22.008  1.00  0.00     0.170 HD
BRANCH  19  21
ATOM     21  C   UNL A   1      31.067  24.821  23.063  1.00  0.00     0.055 A 
ATOM     22  C   UNL A   1      30.198  25.135  24.116  1.00  0.00     0.027 A 
ATOM     23  C   UNL A   1      31.600  25.873  22.294  1.00  0.00     0.041 A 
ATOM     24  C   UNL A   1      29.940  26.465  24.451  1.00  0.00     0.002 A 
ATOM     25  C   UNL A   1      31.368  27.201  22.653  1.00  0.00     0.018 A 
ATOM     26  Br  UNL A   1      32.634  25.511  20.738  1.00  0.00    -0.049 Br
ATOM     27  C   UNL A   1      30.544  27.494  23.737  1.00  0.00     0.001 A 
ENDBRANCH  19  21
ENDBRANCH  11  19
ENDBRANCH   6   7
ENDBRANCH   5   6
ENDBRANCH   3   5
ENDBRANCH   2   3
ENDBRANCH   1   2
BRANCH   1  28
ATOM     28  C   UNL A   1      38.451  20.105  25.437  1.00  0.00     0.275 C 
BRANCH  28  29
ATOM     29  O   UNL A   1      39.578  20.989  25.585  1.00  0.00    -0.458 OA
BRANCH  29  30
ATOM     30  C   UNL A   1      40.163  21.013  26.810  1.00  0.00     0.338 C 
ATOM     31  O   UNL A   1      40.521  20.051  27.466  1.00  0.00    -0.246 OA
BRANCH  30  32
ATOM     32  C   UNL A   1      40.473  22.417  27.151  1.00  0.00     0.060 A 
ATOM     33  C   UNL A   1      39.747  23.442  26.527  1.00  0.00     0.016 A 
ATOM     34  C   UNL A   1      41.464  22.724  28.086  1.00  0.00     0.016 A 
ATOM     35  C   UNL A   1      40.029  24.779  26.825  1.00  0.00     0.010 A 
ATOM     36  C   UNL A   1      41.750  24.058  28.375  1.00  0.00     0.010 A 
ATOM     37  C   UNL A   1      41.052  25.092  27.730  1.00  0.00    -0.014 A 
BRANCH  37  38
ATOM     38  C   UNL A   1      41.504  26.491  27.929  1.00  0.00     0.031 A 
ATOM     39  C   UNL A   1      42.905  26.858  27.549  1.00  0.00     0.074 A 
ATOM     40  C   UNL A   1      40.715  27.399  28.526  1.00  0.00     0.049 A 
ATOM     41  N   UNL A   1      43.544  27.978  27.748  1.00  0.00    -0.248 NA
ATOM     42  C   UNL A   1      43.696  25.816  26.875  1.00  0.00     0.031 C 
ATOM     43  C   UNL A   1      39.345  27.157  28.956  1.00  0.00     0.029 A 
ATOM     44  N   UNL A   1      40.964  28.697  28.904  1.00  0.00    -0.354 N 
ATOM     45  C   UNL A   1      44.828  27.766  27.269  1.00  0.00     0.074 A 
ATOM     46  C   UNL A   1      44.875  26.410  26.762  1.00  0.00     0.031 C 
ATOM     47  C   UNL A   1      38.876  28.266  29.553  1.00  0.00     0.029 A 
ATOM     48  C   UNL A   1      39.927  29.271  29.598  1.00  0.00     0.049 A 
ATOM     49  H   UNL A   1      41.803  29.168  28.698  1.00  0.00     0.167 HD
ATOM     50  C   UNL A   1      45.876  28.623  27.253  1.00  0.00     0.034 A 
ATOM     51  C   UNL A   1      39.831  30.457  30.231  1.00  0.00     0.034 A 
ATOM     52  C   UNL A   1      45.825  29.971  27.746  1.00  0.00     0.049 A 
ATOM     53  C   UNL A   1      41.002  31.398  30.193  1.00  0.00     0.074 A 
ATOM     54  C   UNL A   1      46.817  30.935  27.712  1.00  0.00     0.029 A 
ATOM     55  N   UNL A   1      44.732  30.543  28.379  1.00  0.00    -0.354 N 
ATOM     56  N   UNL A   1      42.168  31.232  29.619  1.00  0.00    -0.248 NA
ATOM     57  C   UNL A   1      40.839  32.696  30.861  1.00  0.00     0.031 C 
ATOM     58  C   UNL A   1      46.332  32.082  28.350  1.00  0.00     0.029 A 
ATOM     59  C   UNL A   1      45.029  31.841  28.758  1.00  0.00     0.049 A 
ATOM     60  H   UNL A   1      43.871  30.092  28.537  1.00  0.00     0.167 HD
ATOM     61  C   UNL A   1      42.870  32.411  29.833  1.00  0.00     0.074 A 
ATOM     62  C   UNL A   1      41.991  33.291  30.577  1.00  0.00     0.031 C 
ATOM     63  C   UNL A   1      44.132  32.726  29.457  1.00  0.00     0.034 A 
BRANCH  50  64
ATOM     64  C   UNL A   1      47.166  28.112  26.677  1.00  0.00     0.023 A 
ATOM     65  C   UNL A   1      48.213  27.727  27.539  1.00  0.00     0.012 A 
ATOM     66  C   UNL A   1      47.338  28.010  25.285  1.00  0.00     0.148 A 
ATOM     67  C   UNL A   1      49.428  27.282  27.020  1.00  0.00     0.002 A 
ATOM     68  C   UNL A   1      48.537  27.527  24.776  1.00  0.00     0.091 A 
ATOM     69  F   UNL A   1      46.343  28.414  24.482  1.00  0.00    -0.205 F 
ATOM     70  C   UNL A   1      49.586  27.173  25.640  1.00  0.00     0.022 A 
BRANCH  68  71
ATOM     71  S   UNL A   1      48.799  27.292  23.015  1.00  0.00     0.127 S 
ATOM     72  O   UNL A   1      48.058  28.420  22.454  1.00  0.00    -0.237 OA
ATOM     73  O   UNL A   1      50.254  27.398  22.898  1.00  0.00    -0.237 OA
ATOM     74  O   UNL A   1      48.266  25.971  22.710  1.00  0.00    -0.744 OA
ENDBRANCH  68  71
ENDBRANCH  50  64
BRANCH  51  75
ATOM     75  C   UNL A   1      38.569  30.828  30.932  1.00  0.00     0.023 A 
ATOM     76  C   UNL A   1      38.419  30.513  32.296  1.00  0.00     0.012 A 
ATOM     77  C   UNL A   1      37.532  31.514  30.267  1.00  0.00     0.148 A 
ATOM     78  C   UNL A   1      37.254  30.860  32.981  1.00  0.00     0.002 A 
ATOM     79  C   UNL A   1      36.387  31.884  30.963  1.00  0.00     0.091 A 
ATOM     80  F   UNL A   1      37.694  31.801  28.968  1.00  0.00    -0.205 F 
ATOM     81  C   UNL A   1      36.243  31.552  32.319  1.00  0.00     0.022 A 
BRANCH  79  82
ATOM     82  S   UNL A   1      35.062  32.833  30.207  1.00  0.00     0.127 S 
ATOM     83  O   UNL A   1      34.184  33.084  31.346  1.00  0.00    -0.237 OA
ATOM     84  O   UNL A   1      35.772  34.011  29.707  1.00  0.00    -0.237 OA
ATOM     85  O   UNL A   1      34.513  31.977  29.162  1.00  0.00    -0.744 OA
ENDBRANCH  79  82
ENDBRANCH  51  75
BRANCH  63  86
ATOM     86  C   UNL A   1      44.651  34.092  29.814  1.00  0.00     0.023 A 
ATOM     87  C   UNL A   1      45.402  34.268  30.992  1.00  0.00     0.012 A 
ATOM     88  C   UNL A   1      44.485  35.176  28.929  1.00  0.00     0.148 A 
ATOM     89  C   UNL A   1      45.969  35.505  31.291  1.00  0.00     0.002 A 
ATOM     90  C   UNL A   1      45.092  36.393  29.210  1.00  0.00     0.091 A 
ATOM     91  F   UNL A   1      43.749  34.990  27.824  1.00  0.00    -0.205 F 
ATOM     92  C   UNL A   1      45.827  36.563  30.395  1.00  0.00     0.022 A 
BRANCH  90  93
ATOM     93  S   UNL A   1      45.043  37.780  28.070  1.00  0.00     0.127 S 
ATOM     94  O   UNL A   1      45.878  37.293  26.972  1.00  0.00    -0.237 OA
ATOM     95  O   UNL A   1      43.617  37.873  27.756  1.00  0.00    -0.237 OA
ATOM     96  O   UNL A   1      45.577  38.921  28.800  1.00  0.00    -0.744 OA
ENDBRANCH  90  93
ENDBRANCH  63  86
ENDBRANCH  37  38
ENDBRANCH  30  32
ENDBRANCH  29  30
ENDBRANCH  28  29
ENDBRANCH   1  28
TORSDOF 19
ENDMDL
MODEL 2
REMARK VINA RESULT:     -11.8      5.226      8.119
REMARK SMILES O=C(COc1cc(-c2ccncc2)nc(Nc2ccccc2Br)n1)OCCOC(=O)c1ccc(-c2c3nc(c(-c4cccc(S(=O)(=O)[O-])c4F)c4ccc([nH]4)c(-c4cccc(S(=O)(=O)[O-])c4F)c4nc(c(-c5cccc(S(=O)(=O)[O-])c5F)c5ccc2[nH]5)C=C4)C=C3)cc1
REMARK SMILES IDX 26 1 25 2 2 3 1 4 3 5 4 6 5 7 6 8 24 9 7 10 15 11 14 12 8 13
REMARK SMILES IDX 9 14 13 15 10 16 12 17 11 18 16 19 17 21 18 22 22 23 19 24
REMARK SMILES IDX 21 25 23 26 20 27 27 28 28 29 29 30 30 31 31 32 32 33 93 34
REMARK SMILES IDX 33 35 92 36 34 37 35 38 36 39 86 40 37 41 91 42 85 43 87 44
REMARK SMILES IDX 38 45 90 46 84 47 83 48 39 50 71 51 51 52 70 53 52 54 55 55
REMARK SMILES IDX 69 56 88 57 53 58 54 59 68 61 89 62 56 63 40 64 41 65 49 66
REMARK SMILES IDX 42 67 44 68 50 69 43 70 45 71 46 72 47 73 48 74 72 75 73 76
REMARK SMILES IDX 81 77 74 78 76 79 82 80 75 81 77 82 78 83 79 84 80 85 57 86
REMARK SMILES IDX 58 87 66 88 59 89 61 90 67 91 60 92 62 93 63 94 64 95 65 96
REMARK H PARENT 16 20 87 49 55 60
REMARK Flexibility Score: inf
ROOT
ATOM      1  C   UNL A   1      43.005  20.191  26.113  1.00  0.00     0.274 C 
ENDROOT
BRANCH   1   2
ATOM      2  O   UNL A   1      43.343  19.576  24.852  1.00  0.00    -0.460 OA
BRANCH   2   3
ATOM      3  C   UNL A   1      44.612  19.519  24.376  1.00  0.00     0.344 C 
ATOM      4  O   UNL A   1      44.907  18.721  23.487  1.00  0.00    -0.248 OA
BRANCH   3   5
ATOM      5  C   UNL A   1      45.609  20.552  24.877  1.00  0.00     0.353 C 
BRANCH   5   6
ATOM      6  O   UNL A   1      45.454  21.774  24.153  1.00  0.00    -0.466 OA
BRANCH   6   7
ATOM      7  C   UNL A   1      45.782  22.820  24.975  1.00  0.00     0.219 A 
ATOM      8  C   UNL A   1      45.379  22.830  26.277  1.00  0.00     0.097 A 
ATOM      9  N   UNL A   1      46.450  23.813  24.402  1.00  0.00    -0.177 NA
ATOM     10  C   UNL A   1      45.617  23.998  26.965  1.00  0.00     0.080 A 
ATOM     11  C   UNL A   1      46.653  24.920  25.132  1.00  0.00     0.231 A 
ATOM     12  N   UNL A   1      46.243  25.058  26.407  1.00  0.00    -0.212 NA
BRANCH  10  13
ATOM     13  C   UNL A   1      45.109  24.134  28.334  1.00  0.00     0.004 A 
ATOM     14  C   UNL A   1      45.744  24.991  29.245  1.00  0.00     0.030 A 
ATOM     15  C   UNL A   1      44.070  23.331  28.809  1.00  0.00     0.030 A 
ATOM     16  C   UNL A   1      45.340  24.988  30.569  1.00  0.00     0.111 A 
ATOM     17  C   UNL A   1      43.739  23.395  30.154  1.00  0.00     0.111 A 
ATOM     18  N   UNL A   1      44.352  24.207  31.045  1.00  0.00    -0.265 NA
ENDBRANCH  10  13
BRANCH  11  19
ATOM     19  N   UNL A   1      47.251  26.016  24.504  1.00  0.00    -0.323 N 
ATOM     20  H   UNL A   1      46.686  26.629  23.981  1.00  0.00     0.170 HD
BRANCH  19  21
ATOM     21  C   UNL A   1      48.634  26.277  24.590  1.00  0.00     0.055 A 
ATOM     22  C   UNL A   1      49.350  25.801  25.695  1.00  0.00     0.027 A 
ATOM     23  C   UNL A   1      49.329  26.992  23.594  1.00  0.00     0.041 A 
ATOM     24  C   UNL A   1      50.736  25.954  25.764  1.00  0.00     0.002 A 
ATOM     25  C   UNL A   1      50.718  27.112  23.649  1.00  0.00     0.018 A 
ATOM     26  Br  UNL A   1      48.390  27.825  22.164  1.00  0.00    -0.049 Br
ATOM     27  C   UNL A   1      51.420  26.585  24.729  1.00  0.00     0.001 A 
ENDBRANCH  19  21
ENDBRANCH  11  19
ENDBRANCH   6   7
ENDBRANCH   5   6
ENDBRANCH   3   5
ENDBRANCH   2   3
ENDBRANCH   1   2
BRANCH   1  28
ATOM     28  C   UNL A   1      41.508  20.495  26.175  1.00  0.00     0.275 C 
BRANCH  28  29
ATOM     29  O   UNL A   1      41.287  21.732  26.876  1.00  0.00    -0.458 OA
BRANCH  29  30
ATOM     30  C   UNL A   1      40.125  22.378  26.598  1.00  0.00     0.338 C 
ATOM     31  O   UNL A   1      39.074  21.870  26.249  1.00  0.00    -0.246 OA
BRANCH  30  32
ATOM     32  C   UNL A   1      40.282  23.800  26.968  1.00  0.00     0.060 A 
ATOM     33  C   UNL A   1      40.238  24.771  25.958  1.00  0.00     0.016 A 
ATOM     34  C   UNL A   1      40.459  24.176  28.302  1.00  0.00     0.016 A 
ATOM     35  C   UNL A   1      40.395  26.123  26.281  1.00  0.00     0.010 A 
ATOM     36  C   UNL A   1      40.623  25.524  28.621  1.00  0.00     0.010 A 
ATOM     37  C   UNL A   1      40.616  26.502  27.612  1.00  0.00    -0.014 A 
BRANCH  37  38
ATOM     38  C   UNL A   1      40.971  27.897  27.968  1.00  0.00     0.031 A 
ATOM     39  C   UNL A   1      42.412  28.305  27.943  1.00  0.00     0.074 A 
ATOM     40  C   UNL A   1      40.040  28.764  28.401  1.00  0.00     0.049 A 
ATOM     41  N   UNL A   1      42.956  29.425  28.331  1.00  0.00    -0.248 NA
ATOM     42  C   UNL A   1      43.366  27.309  27.430  1.00  0.00     0.031 C 
ATOM     43  C   UNL A   1      38.614  28.479  28.488  1.00  0.00     0.029 A 
ATOM     44  N   UNL A   1      40.159  30.047  28.879  1.00  0.00    -0.354 N 
ATOM     45  C   UNL A   1      44.322  29.257  28.157  1.00  0.00     0.074 A 
ATOM     46  C   UNL A   1      44.522  27.927  27.621  1.00  0.00     0.031 C 
ATOM     47  C   UNL A   1      37.990  29.551  29.003  1.00  0.00     0.029 A 
ATOM     48  C   UNL A   1      38.973  30.571  29.335  1.00  0.00     0.049 A 
ATOM     49  H   UNL A   1      41.010  30.541  28.895  1.00  0.00     0.167 HD
ATOM     50  C   UNL A   1      45.320  30.132  28.422  1.00  0.00     0.034 A 
ATOM     51  C   UNL A   1      38.700  31.725  29.975  1.00  0.00     0.034 A 
ATOM     52  C   UNL A   1      45.120  31.455  28.944  1.00  0.00     0.049 A 
ATOM     53  C   UNL A   1      39.822  32.686  30.251  1.00  0.00     0.074 A 
ATOM     54  C   UNL A   1      46.066  32.435  29.183  1.00  0.00     0.029 A 
ATOM     55  N   UNL A   1      43.894  31.979  29.326  1.00  0.00    -0.354 N 
ATOM     56  N   UNL A   1      41.094  32.566  29.959  1.00  0.00    -0.248 NA
ATOM     57  C   UNL A   1      39.472  33.949  30.915  1.00  0.00     0.031 C 
ATOM     58  C   UNL A   1      45.415  33.544  29.735  1.00  0.00     0.029 A 
ATOM     59  C   UNL A   1      44.059  33.262  29.817  1.00  0.00     0.049 A 
ATOM     60  H   UNL A   1      43.033  31.506  29.260  1.00  0.00     0.167 HD
ATOM     61  C   UNL A   1      41.694  33.745  30.379  1.00  0.00     0.074 A 
ATOM     62  C   UNL A   1      40.643  34.576  30.932  1.00  0.00     0.031 C 
ATOM     63  C   UNL A   1      43.000  34.099  30.322  1.00  0.00     0.034 A 
BRANCH  50  64
ATOM     64  C   UNL A   1      46.723  29.670  28.144  1.00  0.00     0.023 A 
ATOM     65  C   UNL A   1      47.327  29.975  26.908  1.00  0.00     0.012 A 
ATOM     66  C   UNL A   1      47.441  28.940  29.108  1.00  0.00     0.148 A 
ATOM     67  C   UNL A   1      48.615  29.526  26.621  1.00  0.00     0.002 A 
ATOM     68  C   UNL A   1      48.740  28.531  28.831  1.00  0.00     0.091 A 
ATOM     69  F   UNL A   1      46.836  28.630  30.263  1.00  0.00    -0.205 F 
ATOM     70  C   UNL A   1      49.324  28.812  27.586  1.00  0.00     0.022 A 
BRANCH  68  71
ATOM     71  S   UNL A   1      49.745  27.667  30.042  1.00  0.00     0.127 S 
ATOM     72  O   UNL A   1      50.988  27.462  29.301  1.00  0.00    -0.237 OA
ATOM     73  O   UNL A   1      49.836  28.643  31.128  1.00  0.00    -0.237 OA
ATOM     74  O   UNL A   1      49.004  26.459  30.381  1.00  0.00    -0.744 OA
ENDBRANCH  68  71
ENDBRANCH  50  64
BRANCH  51  75
ATOM     75  C   UNL A   1      37.300  32.041  30.376  1.00  0.00     0.023 A 
ATOM     76  C   UNL A   1      36.835  31.633  31.640  1.00  0.00     0.012 A 
ATOM     77  C   UNL A   1      36.439  32.768  29.528  1.00  0.00     0.148 A 
ATOM     78  C   UNL A   1      35.534  31.928  32.047  1.00  0.00     0.002 A 
ATOM     79  C   UNL A   1      35.153  33.084  29.952  1.00  0.00     0.091 A 
ATOM     80  F   UNL A   1      36.900  33.143  28.327  1.00  0.00    -0.205 F 
ATOM     81  C   UNL A   1      34.696  32.659  31.209  1.00  0.00     0.022 A 
BRANCH  79  82
ATOM     82  S   UNL A   1      34.028  34.077  28.963  1.00  0.00     0.127 S 
ATOM     83  O   UNL A   1      34.929  35.079  28.401  1.00  0.00    -0.237 OA
ATOM     84  O   UNL A   1      33.518  33.101  28.000  1.00  0.00    -0.237 OA
ATOM     85  O   UNL A   1      33.026  34.579  29.895  1.00  0.00    -0.744 OA
ENDBRANCH  79  82
ENDBRANCH  51  75
BRANCH  63  86
ATOM     86  C   UNL A   1      43.385  35.456  30.847  1.00  0.00     0.023 A 
ATOM     87  C   UNL A   1      43.809  35.594  32.182  1.00  0.00     0.012 A 
ATOM     88  C   UNL A   1      43.426  36.571  29.986  1.00  0.00     0.148 A 
ATOM     89  C   UNL A   1      44.257  36.825  32.658  1.00  0.00     0.002 A 
ATOM     90  C   UNL A   1      43.917  37.783  30.454  1.00  0.00     0.091 A 
ATOM     91  F   UNL A   1      42.997  36.420  28.725  1.00  0.00    -0.205 F 
ATOM     92  C   UNL A   1      44.325  37.915  31.791  1.00  0.00     0.022 A 
BRANCH  90  93
ATOM     93  S   UNL A   1      44.130  39.212  29.387  1.00  0.00     0.127 S 
ATOM     94  O   UNL A   1      45.028  38.686  28.359  1.00  0.00    -0.237 OA
ATOM     95  O   UNL A   1      42.763  39.466  28.931  1.00  0.00    -0.237 OA
ATOM     96  O   UNL A   1      44.692  40.261  30.227  1.00  0.00    -0.744 OA
ENDBRANCH  90  93
ENDBRANCH  63  86
ENDBRANCH  37  38
ENDBRANCH  30  32
ENDBRANCH  29  30
ENDBRANCH  28  29
ENDBRANCH   1  28
TORSDOF 19
ENDMDL
MODEL 3
REMARK VINA RESULT:     -11.8      1.531      7.525
REMARK SMILES O=C(COc1cc(-c2ccncc2)nc(Nc2ccccc2Br)n1)OCCOC(=O)c1ccc(-c2c3nc(c(-c4cccc(S(=O)(=O)[O-])c4F)c4ccc([nH]4)c(-c4cccc(S(=O)(=O)[O-])c4F)c4nc(c(-c5cccc(S(=O)(=O)[O-])c5F)c5ccc2[nH]5)C=C4)C=C3)cc1
REMARK SMILES IDX 26 1 25 2 2 3 1 4 3 5 4 6 5 7 6 8 24 9 7 10 15 11 14 12 8 13
REMARK SMILES IDX 9 14 13 15 10 16 12 17 11 18 16 19 17 21 18 22 22 23 19 24
REMARK SMILES IDX 21 25 23 26 20 27 27 28 28 29 29 30 30 31 31 32 32 33 93 34
REMARK SMILES IDX 33 35 92 36 34 37 35 38 36 39 86 40 37 41 91 42 85 43 87 44
REMARK SMILES IDX 38 45 90 46 84 47 83 48 39 50 71 51 51 52 70 53 52 54 55 55
REMARK SMILES IDX 69 56 88 57 53 58 54 59 68 61 89 62 56 63 40 64 41 65 49 66
REMARK SMILES IDX 42 67 44 68 50 69 43 70 45 71 46 72 47 73 48 74 72 75 73 76
REMARK SMILES IDX 81 77 74 78 76 79 82 80 75 81 77 82 78 83 79 84 80 85 57 86
REMARK SMILES IDX 58 87 66 88 59 89 61 90 67 91 60 92 62 93 63 94 64 95 65 96
REMARK H PARENT 16 20 87 49 55 60
REMARK Flexibility Score: inf
ROOT
ATOM      1  C   UNL A   1      37.884  20.141  25.163  1.00  0.00     0.274 C 
ENDROOT
BRANCH   1   2
ATOM      2  O   UNL A   1      38.248  21.530  25.021  1.00  0.00    -0.460 OA
BRANCH   2   3
ATOM      3  C   UNL A   1      37.722  22.513  25.794  1.00  0.00     0.344 C 
ATOM      4  O   UNL A   1      38.459  23.300  26.387  1.00  0.00    -0.248 OA
BRANCH   3   5
ATOM      5  C   UNL A   1      36.211  22.689  25.793  1.00  0.00     0.353 C 
BRANCH   5   6
ATOM      6  O   UNL A   1      35.705  22.572  24.462  1.00  0.00    -0.466 OA
BRANCH   6   7
ATOM      7  C   UNL A   1      34.532  21.865  24.495  1.00  0.00     0.219 A 
ATOM      8  C   UNL A   1      34.545  20.510  24.641  1.00  0.00     0.097 A 
ATOM      9  N   UNL A   1      33.427  22.579  24.322  1.00  0.00    -0.177 NA
ATOM     10  C   UNL A   1      33.328  19.884  24.494  1.00  0.00     0.080 A 
ATOM     11  C   UNL A   1      32.274  21.905  24.193  1.00  0.00     0.231 A 
ATOM     12  N   UNL A   1      32.183  20.563  24.259  1.00  0.00    -0.212 NA
BRANCH  10  13
ATOM     13  C   UNL A   1      33.273  18.418  24.518  1.00  0.00     0.004 A 
ATOM     14  C   UNL A   1      32.572  17.750  25.533  1.00  0.00     0.030 A 
ATOM     15  C   UNL A   1      34.014  17.647  23.620  1.00  0.00     0.030 A 
ATOM     16  C   UNL A   1      32.661  16.372  25.620  1.00  0.00     0.111 A 
ATOM     17  C   UNL A   1      34.045  16.271  23.791  1.00  0.00     0.111 A 
ATOM     18  N   UNL A   1      33.385  15.616  24.772  1.00  0.00    -0.265 NA
ENDBRANCH  10  13
BRANCH  11  19
ATOM     19  N   UNL A   1      31.121  22.635  23.892  1.00  0.00    -0.323 N 
ATOM     20  H   UNL A   1      30.370  22.175  23.450  1.00  0.00     0.170 HD
BRANCH  19  21
ATOM     21  C   UNL A   1      30.990  24.005  24.197  1.00  0.00     0.055 A 
ATOM     22  C   UNL A   1      31.307  24.955  23.218  1.00  0.00     0.027 A 
ATOM     23  C   UNL A   1      30.540  24.458  25.453  1.00  0.00     0.041 A 
ATOM     24  C   UNL A   1      31.095  26.314  23.451  1.00  0.00     0.002 A 
ATOM     25  C   UNL A   1      30.296  25.814  25.671  1.00  0.00     0.018 A 
ATOM     26  Br  UNL A   1      30.271  23.235  26.886  1.00  0.00    -0.049 Br
ATOM     27  C   UNL A   1      30.566  26.739  24.666  1.00  0.00     0.001 A 
ENDBRANCH  19  21
ENDBRANCH  11  19
ENDBRANCH   6   7
ENDBRANCH   5   6
ENDBRANCH   3   5
ENDBRANCH   2   3
ENDBRANCH   1   2
BRANCH   1  28
ATOM     28  C   UNL A   1      39.132  19.275  25.332  1.00  0.00     0.275 C 
BRANCH  28  29
ATOM     29  O   UNL A   1      39.897  19.732  26.461  1.00  0.00    -0.458 OA
BRANCH  29  30
ATOM     30  C   UNL A   1      41.226  19.918  26.249  1.00  0.00     0.338 C 
ATOM     31  O   UNL A   1      41.989  19.151  25.688  1.00  0.00    -0.246 OA
BRANCH  30  32
ATOM     32  C   UNL A   1      41.573  21.299  26.643  1.00  0.00     0.060 A 
ATOM     33  C   UNL A   1      41.642  22.289  25.653  1.00  0.00     0.016 A 
ATOM     34  C   UNL A   1      41.818  21.621  27.980  1.00  0.00     0.016 A 
ATOM     35  C   UNL A   1      41.979  23.602  25.999  1.00  0.00     0.010 A 
ATOM     36  C   UNL A   1      42.163  22.928  28.322  1.00  0.00     0.010 A 
ATOM     37  C   UNL A   1      42.268  23.920  27.333  1.00  0.00    -0.014 A 
BRANCH  37  38
ATOM     38  C   UNL A   1      42.809  25.248  27.709  1.00  0.00     0.031 A 
ATOM     39  C   UNL A   1      41.893  26.247  28.347  1.00  0.00     0.074 A 
ATOM     40  C   UNL A   1      44.069  25.600  27.402  1.00  0.00     0.049 A 
ATOM     41  N   UNL A   1      42.118  27.498  28.643  1.00  0.00    -0.248 NA
ATOM     42  C   UNL A   1      40.538  25.777  28.677  1.00  0.00     0.031 C 
ATOM     43  C   UNL A   1      45.045  24.725  26.767  1.00  0.00     0.029 A 
ATOM     44  N   UNL A   1      44.732  26.794  27.554  1.00  0.00    -0.354 N 
ATOM     45  C   UNL A   1      40.922  27.983  29.149  1.00  0.00     0.074 A 
ATOM     46  C   UNL A   1      39.975  26.888  29.127  1.00  0.00     0.031 C 
ATOM     47  C   UNL A   1      46.180  25.416  26.569  1.00  0.00     0.029 A 
ATOM     48  C   UNL A   1      45.993  26.790  27.008  1.00  0.00     0.049 A 
ATOM     49  H   UNL A   1      44.341  27.575  28.008  1.00  0.00     0.167 HD
ATOM     50  C   UNL A   1      40.637  29.231  29.590  1.00  0.00     0.034 A 
ATOM     51  C   UNL A   1      46.893  27.780  26.846  1.00  0.00     0.034 A 
ATOM     52  C   UNL A   1      41.580  30.313  29.622  1.00  0.00     0.049 A 
ATOM     53  C   UNL A   1      46.560  29.155  27.353  1.00  0.00     0.074 A 
ATOM     54  C   UNL A   1      41.400  31.594  30.113  1.00  0.00     0.029 A 
ATOM     55  N   UNL A   1      42.874  30.252  29.126  1.00  0.00    -0.354 N 
ATOM     56  N   UNL A   1      45.469  29.566  27.951  1.00  0.00    -0.248 NA
ATOM     57  C   UNL A   1      47.586  30.194  27.191  1.00  0.00     0.031 C 
ATOM     58  C   UNL A   1      42.578  32.316  29.889  1.00  0.00     0.029 A 
ATOM     59  C   UNL A   1      43.500  31.476  29.282  1.00  0.00     0.049 A 
ATOM     60  H   UNL A   1      43.286  29.455  28.721  1.00  0.00     0.167 HD
ATOM     61  C   UNL A   1      45.684  30.903  28.260  1.00  0.00     0.074 A 
ATOM     62  C   UNL A   1      47.018  31.230  27.798  1.00  0.00     0.031 C 
ATOM     63  C   UNL A   1      44.845  31.779  28.860  1.00  0.00     0.034 A 
BRANCH  50  64
ATOM     64  C   UNL A   1      39.237  29.478  30.077  1.00  0.00     0.023 A 
ATOM     65  C   UNL A   1      38.866  29.071  31.375  1.00  0.00     0.012 A 
ATOM     66  C   UNL A   1      38.294  30.117  29.252  1.00  0.00     0.148 A 
ATOM     67  C   UNL A   1      37.562  29.264  31.830  1.00  0.00     0.002 A 
ATOM     68  C   UNL A   1      37.008  30.342  29.728  1.00  0.00     0.091 A 
ATOM     69  F   UNL A   1      38.657  30.463  28.009  1.00  0.00    -0.205 F 
ATOM     70  C   UNL A   1      36.637  29.907  31.010  1.00  0.00     0.022 A 
BRANCH  68  71
ATOM     71  S   UNL A   1      35.776  31.222  28.763  1.00  0.00     0.127 S 
ATOM     72  O   UNL A   1      34.869  31.698  29.806  1.00  0.00    -0.237 OA
ATOM     73  O   UNL A   1      36.571  32.269  28.121  1.00  0.00    -0.237 OA
ATOM     74  O   UNL A   1      35.221  30.239  27.842  1.00  0.00    -0.744 OA
ENDBRANCH  68  71
ENDBRANCH  50  64
BRANCH  51  75
ATOM     75  C   UNL A   1      48.203  27.497  26.195  1.00  0.00     0.023 A 
ATOM     76  C   UNL A   1      49.295  27.095  26.987  1.00  0.00     0.012 A 
ATOM     77  C   UNL A   1      48.366  27.593  24.798  1.00  0.00     0.148 A 
ATOM     78  C   UNL A   1      50.530  26.810  26.403  1.00  0.00     0.002 A 
ATOM     79  C   UNL A   1      49.590  27.279  24.219  1.00  0.00     0.091 A 
ATOM     80  F   UNL A   1      47.314  27.981  24.063  1.00  0.00    -0.205 F 
ATOM     81  C   UNL A   1      50.676  26.893  25.020  1.00  0.00     0.022 A 
BRANCH  79  82
ATOM     82  S   UNL A   1      49.849  27.296  22.441  1.00  0.00     0.127 S 
ATOM     83  O   UNL A   1      48.828  26.359  21.980  1.00  0.00    -0.237 OA
ATOM     84  O   UNL A   1      49.594  28.697  22.105  1.00  0.00    -0.237 OA
ATOM     85  O   UNL A   1      51.230  26.873  22.242  1.00  0.00    -0.744 OA
ENDBRANCH  79  82
ENDBRANCH  51  75
BRANCH  63  86
ATOM     86  C   UNL A   1      45.337  33.183  29.085  1.00  0.00     0.023 A 
ATOM     87  C   UNL A   1      46.029  33.499  30.270  1.00  0.00     0.012 A 
ATOM     88  C   UNL A   1      45.206  34.158  28.077  1.00  0.00     0.148 A 
ATOM     89  C   UNL A   1      46.574  34.769  30.454  1.00  0.00     0.002 A 
ATOM     90  C   UNL A   1      45.791  35.407  28.247  1.00  0.00     0.091 A 
ATOM     91  F   UNL A   1      44.525  33.841  26.966  1.00  0.00    -0.205 F 
ATOM     92  C   UNL A   1      46.467  35.718  29.438  1.00  0.00     0.022 A 
BRANCH  90  93
ATOM     93  S   UNL A   1      45.787  36.656  26.956  1.00  0.00     0.127 S 
ATOM     94  O   UNL A   1      44.365  36.986  26.864  1.00  0.00    -0.237 OA
ATOM     95  O   UNL A   1      46.621  37.707  27.540  1.00  0.00    -0.237 OA
ATOM     96  O   UNL A   1      46.356  36.018  25.777  1.00  0.00    -0.744 OA
ENDBRANCH  90  93
ENDBRANCH  63  86
ENDBRANCH  37  38
ENDBRANCH  30  32
ENDBRANCH  29  30
ENDBRANCH  28  29
ENDBRANCH   1  28
TORSDOF 19
ENDMDL
