MODEL 1
REMARK VINA RESULT:     -13.0      0.000      0.000
REMARK SMILES COc1ccc2c(c1)c(CC(=O)OCCOC(=O)c1ccc(-c3c4nc(c(-c5cccc(S(=O)(=O)[O-])c5F)c5ccc([nH]5)c(-c5cccc(S(=O)(=O)[O-])c5F)c5nc(c(-c6cccc(S(=O)(=O)[O-])c6F)c6ccc3[nH]6)C=C5)C=C4)cc1)c(C)n2Cc1ccc(Br)cc1
REMARK SMILES IDX 14 1 13 2 11 3 12 4 10 5 9 6 3 7 4 8 8 9 5 10 7 11 6 12
REMARK SMILES IDX 84 13 82 14 83 15 2 16 1 17 85 18 86 19 87 20 92 21 88 22
REMARK SMILES IDX 91 23 89 24 90 25 15 26 16 27 17 28 18 29 19 30 20 31 81 32
REMARK SMILES IDX 21 33 80 34 22 35 23 36 24 37 74 38 25 39 79 40 73 41 75 42
REMARK SMILES IDX 26 43 78 44 72 45 71 46 27 48 59 49 39 50 58 51 40 52 43 53
REMARK SMILES IDX 57 54 76 55 41 56 42 57 56 59 77 60 44 61 28 62 29 63 37 64
REMARK SMILES IDX 30 65 32 66 38 67 31 68 33 69 34 70 35 71 36 72 60 73 61 74
REMARK SMILES IDX 69 75 62 76 64 77 70 78 63 79 65 80 66 81 67 82 68 83 45 84
REMARK SMILES IDX 46 85 54 86 47 87 49 88 55 89 48 90 50 91 51 92 52 93 53 94
REMARK H PARENT 75 47 43 58
REMARK Flexibility Score: inf
ROOT
ATOM      1  C   UNL A   1      33.868  21.153  25.270  1.00  0.00     0.274 C 
ENDROOT
BRANCH   1   2
ATOM      2  O   UNL A   1      34.115  21.336  23.859  1.00  0.00    -0.462 OA
BRANCH   2   3
ATOM      3  C   UNL A   1      33.011  21.573  23.111  1.00  0.00     0.310 C 
ATOM      4  O   UNL A   1      32.150  20.725  22.882  1.00  0.00    -0.252 OA
BRANCH   3   5
ATOM      5  C   UNL A   1      32.948  22.920  22.457  1.00  0.00     0.160 C 
BRANCH   5   6
ATOM      6  C   UNL A   1      32.490  24.157  23.170  1.00  0.00    -0.008 A 
ATOM      7  C   UNL A   1      30.675  24.169  26.578  1.00  0.00     0.119 A 
ATOM      8  C   UNL A   1      30.497  25.543  26.645  1.00  0.00     0.048 A 
ATOM      9  C   UNL A   1      31.438  23.613  25.537  1.00  0.00     0.057 A 
ATOM     10  C   UNL A   1      31.025  26.377  25.654  1.00  0.00     0.031 A 
ATOM     11  C   UNL A   1      31.877  24.405  24.450  1.00  0.00     0.007 A 
ATOM     12  C   UNL A   1      31.663  25.789  24.546  1.00  0.00     0.049 A 
ATOM     13  N   UNL A   1      32.204  26.346  23.405  1.00  0.00    -0.340 N 
ATOM     14  C   UNL A   1      32.371  25.355  22.470  1.00  0.00     0.020 A 
ATOM     15  C   UNL A   1      32.454  25.572  20.992  1.00  0.00     0.065 C 
BRANCH   7  16
ATOM     16  O   UNL A   1      30.180  23.283  27.501  1.00  0.00    -0.497 OA
ATOM     17  C   UNL A   1      29.014  22.561  27.105  1.00  0.00     0.278 C 
ENDBRANCH   7  16
BRANCH  13  18
ATOM     18  C   UNL A   1      32.579  27.745  23.224  1.00  0.00     0.157 C 
BRANCH  18  19
ATOM     19  C   UNL A   1      31.348  28.630  23.310  1.00  0.00    -0.028 A 
ATOM     20  C   UNL A   1      30.307  28.505  22.374  1.00  0.00     0.007 A 
ATOM     21  C   UNL A   1      31.257  29.642  24.276  1.00  0.00     0.007 A 
ATOM     22  C   UNL A   1      29.234  29.397  22.360  1.00  0.00     0.016 A 
ATOM     23  C   UNL A   1      30.164  30.516  24.288  1.00  0.00     0.016 A 
ATOM     24  C   UNL A   1      29.167  30.400  23.320  1.00  0.00     0.017 A 
ATOM     25  Br  UNL A   1      27.718  31.614  23.306  1.00  0.00    -0.051 Br
ENDBRANCH  18  19
ENDBRANCH  13  18
ENDBRANCH   5   6
ENDBRANCH   3   5
ENDBRANCH   2   3
ENDBRANCH   1   2
BRANCH   1  26
ATOM     26  C   UNL A   1      35.171  21.251  26.068  1.00  0.00     0.275 C 
BRANCH  26  27
ATOM     27  O   UNL A   1      36.248  21.555  25.169  1.00  0.00    -0.458 OA
BRANCH  27  28
ATOM     28  C   UNL A   1      37.372  20.803  25.278  1.00  0.00     0.338 C 
ATOM     29  O   UNL A   1      37.546  19.669  24.869  1.00  0.00    -0.246 OA
BRANCH  28  30
ATOM     30  C   UNL A   1      38.432  21.744  25.681  1.00  0.00     0.060 A 
ATOM     31  C   UNL A   1      39.628  21.265  26.217  1.00  0.00     0.016 A 
ATOM     32  C   UNL A   1      38.098  23.100  25.765  1.00  0.00     0.016 A 
ATOM     33  C   UNL A   1      40.415  22.123  26.971  1.00  0.00     0.010 A 
ATOM     34  C   UNL A   1      38.862  23.942  26.555  1.00  0.00     0.010 A 
ATOM     35  C   UNL A   1      39.982  23.435  27.207  1.00  0.00    -0.014 A 
BRANCH  35  36
ATOM     36  C   UNL A   1      40.845  24.329  27.955  1.00  0.00     0.031 A 
ATOM     37  C   UNL A   1      40.238  25.659  28.170  1.00  0.00     0.074 A 
ATOM     38  C   UNL A   1      42.031  24.056  28.527  1.00  0.00     0.049 A 
ATOM     39  N   UNL A   1      40.456  26.726  27.476  1.00  0.00    -0.248 NA
ATOM     40  C   UNL A   1      39.174  25.779  29.173  1.00  0.00     0.031 C 
ATOM     41  C   UNL A   1      42.689  22.774  28.766  1.00  0.00     0.029 A 
ATOM     42  N   UNL A   1      42.876  24.952  29.109  1.00  0.00    -0.354 N 
ATOM     43  C   UNL A   1      39.690  27.712  28.076  1.00  0.00     0.074 A 
ATOM     44  C   UNL A   1      38.800  27.047  28.998  1.00  0.00     0.031 C 
ATOM     45  C   UNL A   1      43.718  22.960  29.632  1.00  0.00     0.029 A 
ATOM     46  C   UNL A   1      43.891  24.385  29.865  1.00  0.00     0.049 A 
ATOM     47  H   UNL A   1      42.774  25.925  29.003  1.00  0.00     0.167 HD
ATOM     48  C   UNL A   1      39.969  29.033  27.937  1.00  0.00     0.034 A 
ATOM     49  C   UNL A   1      44.759  25.074  30.645  1.00  0.00     0.034 A 
ATOM     50  C   UNL A   1      40.987  29.292  26.960  1.00  0.00     0.049 A 
ATOM     51  C   UNL A   1      44.799  26.464  30.122  1.00  0.00     0.074 A 
ATOM     52  C   UNL A   1      41.130  29.051  25.608  1.00  0.00     0.029 A 
ATOM     53  N   UNL A   1      42.253  29.527  27.440  1.00  0.00    -0.354 N 
ATOM     54  N   UNL A   1      45.289  26.798  28.961  1.00  0.00    -0.248 NA
ATOM     55  C   UNL A   1      43.977  27.476  30.767  1.00  0.00     0.031 C 
ATOM     56  C   UNL A   1      42.502  28.700  25.437  1.00  0.00     0.029 A 
ATOM     57  C   UNL A   1      43.118  28.773  26.689  1.00  0.00     0.049 A 
ATOM     58  H   UNL A   1      42.495  30.124  28.184  1.00  0.00     0.167 HD
ATOM     59  C   UNL A   1      44.509  27.868  28.544  1.00  0.00     0.074 A 
ATOM     60  C   UNL A   1      43.809  28.314  29.743  1.00  0.00     0.031 C 
ATOM     61  C   UNL A   1      44.295  28.116  27.220  1.00  0.00     0.034 A 
BRANCH  48  62
ATOM     62  C   UNL A   1      39.535  30.061  28.928  1.00  0.00     0.023 A 
ATOM     63  C   UNL A   1      40.296  30.240  30.097  1.00  0.00     0.012 A 
ATOM     64  C   UNL A   1      38.293  30.726  28.837  1.00  0.00     0.148 A 
ATOM     65  C   UNL A   1      39.848  31.076  31.124  1.00  0.00     0.002 A 
ATOM     66  C   UNL A   1      37.893  31.619  29.819  1.00  0.00     0.091 A 
ATOM     67  F   UNL A   1      37.447  30.405  27.848  1.00  0.00    -0.205 F 
ATOM     68  C   UNL A   1      38.659  31.785  30.976  1.00  0.00     0.022 A 
BRANCH  66  69
ATOM     69  S   UNL A   1      36.412  32.611  29.621  1.00  0.00     0.127 S 
ATOM     70  O   UNL A   1      36.597  33.150  28.277  1.00  0.00    -0.237 OA
ATOM     71  O   UNL A   1      35.355  31.607  29.748  1.00  0.00    -0.237 OA
ATOM     72  O   UNL A   1      36.454  33.572  30.717  1.00  0.00    -0.744 OA
ENDBRANCH  66  69
ENDBRANCH  48  62
BRANCH  49  73
ATOM     73  C   UNL A   1      45.405  24.727  31.934  1.00  0.00     0.023 A 
ATOM     74  C   UNL A   1      46.534  25.469  32.347  1.00  0.00     0.012 A 
ATOM     75  C   UNL A   1      44.752  23.926  32.895  1.00  0.00     0.148 A 
ATOM     76  C   UNL A   1      46.949  25.478  33.683  1.00  0.00     0.002 A 
ATOM     77  C   UNL A   1      45.176  23.930  34.223  1.00  0.00     0.091 A 
ATOM     78  F   UNL A   1      43.657  23.242  32.535  1.00  0.00    -0.205 F 
ATOM     79  C   UNL A   1      46.260  24.721  34.625  1.00  0.00     0.022 A 
BRANCH  77  80
ATOM     80  S   UNL A   1      44.328  22.975  35.489  1.00  0.00     0.127 S 
ATOM     81  O   UNL A   1      45.055  23.349  36.703  1.00  0.00    -0.237 OA
ATOM     82  O   UNL A   1      42.967  23.498  35.407  1.00  0.00    -0.237 OA
ATOM     83  O   UNL A   1      44.500  21.579  35.104  1.00  0.00    -0.744 OA
ENDBRANCH  77  80
ENDBRANCH  49  73
BRANCH  61  84
ATOM     84  C   UNL A   1      45.178  27.420  26.217  1.00  0.00     0.023 A 
ATOM     85  C   UNL A   1      46.365  28.004  25.729  1.00  0.00     0.012 A 
ATOM     86  C   UNL A   1      44.892  26.081  25.895  1.00  0.00     0.148 A 
ATOM     87  C   UNL A   1      47.241  27.271  24.923  1.00  0.00     0.002 A 
ATOM     88  C   UNL A   1      45.785  25.344  25.126  1.00  0.00     0.091 A 
ATOM     89  F   UNL A   1      43.761  25.542  26.375  1.00  0.00    -0.205 F 
ATOM     90  C   UNL A   1      46.959  25.938  24.633  1.00  0.00     0.022 A 
BRANCH  88  91
ATOM     91  S   UNL A   1      45.541  23.594  24.808  1.00  0.00     0.127 S 
ATOM     92  O   UNL A   1      46.709  23.266  23.992  1.00  0.00    -0.237 OA
ATOM     93  O   UNL A   1      45.560  23.025  26.157  1.00  0.00    -0.237 OA
ATOM     94  O   UNL A   1      44.256  23.481  24.131  1.00  0.00    -0.744 OA
ENDBRANCH  88  91
ENDBRANCH  61  84
ENDBRANCH  35  36
ENDBRANCH  28  30
ENDBRANCH  27  28
ENDBRANCH  26  27
ENDBRANCH   1  26
TORSDOF 18
ENDMDL
MODEL 2
REMARK VINA RESULT:     -12.5      2.227      3.144
REMARK SMILES COc1ccc2c(c1)c(CC(=O)OCCOC(=O)c1ccc(-c3c4nc(c(-c5cccc(S(=O)(=O)[O-])c5F)c5ccc([nH]5)c(-c5cccc(S(=O)(=O)[O-])c5F)c5nc(c(-c6cccc(S(=O)(=O)[O-])c6F)c6ccc3[nH]6)C=C5)C=C4)cc1)c(C)n2Cc1ccc(Br)cc1
REMARK SMILES IDX 14 1 13 2 11 3 12 4 10 5 9 6 3 7 4 8 8 9 5 10 7 11 6 12
REMARK SMILES IDX 84 13 82 14 83 15 2 16 1 17 85 18 86 19 87 20 92 21 88 22
REMARK SMILES IDX 91 23 89 24 90 25 15 26 16 27 17 28 18 29 19 30 20 31 81 32
REMARK SMILES IDX 21 33 80 34 22 35 23 36 24 37 74 38 25 39 79 40 73 41 75 42
REMARK SMILES IDX 26 43 78 44 72 45 71 46 27 48 59 49 39 50 58 51 40 52 43 53
REMARK SMILES IDX 57 54 76 55 41 56 42 57 56 59 77 60 44 61 28 62 29 63 37 64
REMARK SMILES IDX 30 65 32 66 38 67 31 68 33 69 34 70 35 71 36 72 60 73 61 74
REMARK SMILES IDX 69 75 62 76 64 77 70 78 63 79 65 80 66 81 67 82 68 83 45 84
REMARK SMILES IDX 46 85 54 86 47 87 49 88 55 89 48 90 50 91 51 92 52 93 53 94
REMARK H PARENT 75 47 43 58
REMARK Flexibility Score: inf
ROOT
ATOM      1  C   UNL A   1      34.503  22.658  23.566  1.00  0.00     0.274 C 
ENDROOT
BRANCH   1   2
ATOM      2  O   UNL A   1      33.269  22.940  24.261  1.00  0.00    -0.462 OA
BRANCH   2   3
ATOM      3  C   UNL A   1      32.311  23.533  23.508  1.00  0.00     0.310 C 
ATOM      4  O   UNL A   1      31.281  22.966  23.149  1.00  0.00    -0.252 OA
BRANCH   3   5
ATOM      5  C   UNL A   1      32.633  24.912  23.017  1.00  0.00     0.160 C 
BRANCH   5   6
ATOM      6  C   UNL A   1      32.320  26.153  23.797  1.00  0.00    -0.008 A 
ATOM      7  C   UNL A   1      30.044  29.008  22.540  1.00  0.00     0.119 A 
ATOM      8  C   UNL A   1      30.204  29.824  23.651  1.00  0.00     0.048 A 
ATOM      9  C   UNL A   1      30.591  27.714  22.539  1.00  0.00     0.057 A 
ATOM     10  C   UNL A   1      30.953  29.390  24.750  1.00  0.00     0.031 A 
ATOM     11  C   UNL A   1      31.460  27.288  23.571  1.00  0.00     0.007 A 
ATOM     12  C   UNL A   1      31.612  28.149  24.669  1.00  0.00     0.049 A 
ATOM     13  N   UNL A   1      32.461  27.509  25.550  1.00  0.00    -0.340 N 
ATOM     14  C   UNL A   1      33.124  26.514  24.875  1.00  0.00     0.020 A 
ATOM     15  C   UNL A   1      34.437  25.925  25.285  1.00  0.00     0.065 C 
BRANCH   7  16
ATOM     16  O   UNL A   1      29.335  29.363  21.421  1.00  0.00    -0.497 OA
ATOM     17  C   UNL A   1      28.135  30.101  21.653  1.00  0.00     0.278 C 
ENDBRANCH   7  16
BRANCH  13  18
ATOM     18  C   UNL A   1      32.609  27.805  26.972  1.00  0.00     0.157 C 
BRANCH  18  19
ATOM     19  C   UNL A   1      33.342  29.122  27.156  1.00  0.00    -0.028 A 
ATOM     20  C   UNL A   1      34.738  29.151  27.316  1.00  0.00     0.007 A 
ATOM     21  C   UNL A   1      32.636  30.329  27.251  1.00  0.00     0.007 A 
ATOM     22  C   UNL A   1      35.409  30.337  27.619  1.00  0.00     0.016 A 
ATOM     23  C   UNL A   1      33.310  31.527  27.518  1.00  0.00     0.016 A 
ATOM     24  C   UNL A   1      34.689  31.522  27.717  1.00  0.00     0.017 A 
ATOM     25  Br  UNL A   1      35.591  33.131  28.130  1.00  0.00    -0.051 Br
ENDBRANCH  18  19
ENDBRANCH  13  18
ENDBRANCH   5   6
ENDBRANCH   3   5
ENDBRANCH   2   3
ENDBRANCH   1   2
BRANCH   1  26
ATOM     26  C   UNL A   1      35.339  21.631  24.335  1.00  0.00     0.275 C 
BRANCH  26  27
ATOM     27  O   UNL A   1      36.728  21.966  24.202  1.00  0.00    -0.458 OA
BRANCH  27  28
ATOM     28  C   UNL A   1      37.623  21.120  24.772  1.00  0.00     0.338 C 
ATOM     29  O   UNL A   1      38.026  20.061  24.328  1.00  0.00    -0.246 OA
BRANCH  28  30
ATOM     30  C   UNL A   1      38.254  21.895  25.856  1.00  0.00     0.060 A 
ATOM     31  C   UNL A   1      37.919  23.236  26.045  1.00  0.00     0.016 A 
ATOM     32  C   UNL A   1      39.368  21.335  26.490  1.00  0.00     0.016 A 
ATOM     33  C   UNL A   1      38.792  24.051  26.749  1.00  0.00     0.010 A 
ATOM     34  C   UNL A   1      40.260  22.160  27.154  1.00  0.00     0.010 A 
ATOM     35  C   UNL A   1      40.001  23.525  27.226  1.00  0.00    -0.014 A 
BRANCH  35  36
ATOM     36  C   UNL A   1      40.875  24.383  28.003  1.00  0.00     0.031 A 
ATOM     37  C   UNL A   1      40.271  25.701  28.292  1.00  0.00     0.074 A 
ATOM     38  C   UNL A   1      42.070  24.084  28.543  1.00  0.00     0.049 A 
ATOM     39  N   UNL A   1      40.478  26.800  27.646  1.00  0.00    -0.248 NA
ATOM     40  C   UNL A   1      39.223  25.771  29.316  1.00  0.00     0.031 C 
ATOM     41  C   UNL A   1      42.732  22.794  28.709  1.00  0.00     0.029 A 
ATOM     42  N   UNL A   1      42.924  24.952  29.154  1.00  0.00    -0.354 N 
ATOM     43  C   UNL A   1      39.720  27.755  28.305  1.00  0.00     0.074 A 
ATOM     44  C   UNL A   1      38.845  27.045  29.207  1.00  0.00     0.031 C 
ATOM     45  C   UNL A   1      43.774  22.938  29.567  1.00  0.00     0.029 A 
ATOM     46  C   UNL A   1      43.950  24.351  29.866  1.00  0.00     0.049 A 
ATOM     47  H   UNL A   1      42.820  25.930  29.097  1.00  0.00     0.167 HD
ATOM     48  C   UNL A   1      39.997  29.082  28.226  1.00  0.00     0.034 A 
ATOM     49  C   UNL A   1      44.830  25.002  30.665  1.00  0.00     0.034 A 
ATOM     50  C   UNL A   1      40.999  29.389  27.247  1.00  0.00     0.049 A 
ATOM     51  C   UNL A   1      44.861  26.416  30.209  1.00  0.00     0.074 A 
ATOM     52  C   UNL A   1      41.121  29.213  25.883  1.00  0.00     0.029 A 
ATOM     53  N   UNL A   1      42.273  29.602  27.718  1.00  0.00    -0.354 N 
ATOM     54  N   UNL A   1      45.333  26.806  29.058  1.00  0.00    -0.248 NA
ATOM     55  C   UNL A   1      44.049  27.394  30.915  1.00  0.00     0.031 C 
ATOM     56  C   UNL A   1      42.490  28.872  25.674  1.00  0.00     0.029 A 
ATOM     57  C   UNL A   1      43.126  28.886  26.918  1.00  0.00     0.049 A 
ATOM     58  H   UNL A   1      42.526  30.163  28.486  1.00  0.00     0.167 HD
ATOM     59  C   UNL A   1      44.546  27.894  28.706  1.00  0.00     0.074 A 
ATOM     60  C   UNL A   1      43.864  28.281  29.936  1.00  0.00     0.031 C 
ATOM     61  C   UNL A   1      44.312  28.206  27.398  1.00  0.00     0.034 A 
BRANCH  48  62
ATOM     62  C   UNL A   1      39.577  30.060  29.272  1.00  0.00     0.023 A 
ATOM     63  C   UNL A   1      38.677  31.081  28.923  1.00  0.00     0.012 A 
ATOM     64  C   UNL A   1      40.190  30.121  30.543  1.00  0.00     0.148 A 
ATOM     65  C   UNL A   1      38.375  32.109  29.821  1.00  0.00     0.002 A 
ATOM     66  C   UNL A   1      39.823  31.093  31.461  1.00  0.00     0.091 A 
ATOM     67  F   UNL A   1      41.211  29.298  30.819  1.00  0.00    -0.205 F 
ATOM     68  C   UNL A   1      38.928  32.102  31.099  1.00  0.00     0.022 A 
BRANCH  66  69
ATOM     69  S   UNL A   1      40.451  31.064  33.140  1.00  0.00     0.127 S 
ATOM     70  O   UNL A   1      39.970  32.343  33.655  1.00  0.00    -0.237 OA
ATOM     71  O   UNL A   1      39.786  29.883  33.693  1.00  0.00    -0.237 OA
ATOM     72  O   UNL A   1      41.894  30.922  33.001  1.00  0.00    -0.744 OA
ENDBRANCH  66  69
ENDBRANCH  48  62
BRANCH  49  73
ATOM     73  C   UNL A   1      45.497  24.594  31.926  1.00  0.00     0.023 A 
ATOM     74  C   UNL A   1      46.701  25.234  32.293  1.00  0.00     0.012 A 
ATOM     75  C   UNL A   1      44.817  23.847  32.911  1.00  0.00     0.148 A 
ATOM     76  C   UNL A   1      47.170  25.201  33.611  1.00  0.00     0.002 A 
ATOM     77  C   UNL A   1      45.294  23.808  34.221  1.00  0.00     0.091 A 
ATOM     78  F   UNL A   1      43.654  23.261  32.596  1.00  0.00    -0.205 F 
ATOM     79  C   UNL A   1      46.457  24.501  34.579  1.00  0.00     0.022 A 
BRANCH  77  80
ATOM     80  S   UNL A   1      44.420  22.922  35.519  1.00  0.00     0.127 S 
ATOM     81  O   UNL A   1      45.045  23.449  36.733  1.00  0.00    -0.237 OA
ATOM     82  O   UNL A   1      43.040  23.351  35.306  1.00  0.00    -0.237 OA
ATOM     83  O   UNL A   1      44.693  21.510  35.279  1.00  0.00    -0.744 OA
ENDBRANCH  77  80
ENDBRANCH  49  73
BRANCH  61  84
ATOM     84  C   UNL A   1      45.179  27.560  26.349  1.00  0.00     0.023 A 
ATOM     85  C   UNL A   1      46.320  28.198  25.822  1.00  0.00     0.012 A 
ATOM     86  C   UNL A   1      44.934  26.215  26.019  1.00  0.00     0.148 A 
ATOM     87  C   UNL A   1      47.191  27.512  24.970  1.00  0.00     0.002 A 
ATOM     88  C   UNL A   1      45.822  25.525  25.202  1.00  0.00     0.091 A 
ATOM     89  F   UNL A   1      43.846  25.624  26.535  1.00  0.00    -0.205 F 
ATOM     90  C   UNL A   1      46.950  26.173  24.671  1.00  0.00     0.022 A 
BRANCH  88  91
ATOM     91  S   UNL A   1      45.635  23.772  24.867  1.00  0.00     0.127 S 
ATOM     92  O   UNL A   1      45.763  23.190  26.202  1.00  0.00    -0.237 OA
ATOM     93  O   UNL A   1      44.288  23.704  24.297  1.00  0.00    -0.237 OA
ATOM     94  O   UNL A   1      46.696  23.423  23.931  1.00  0.00    -0.744 OA
ENDBRANCH  88  91
ENDBRANCH  61  84
ENDBRANCH  35  36
ENDBRANCH  28  30
ENDBRANCH  27  28
ENDBRANCH  26  27
ENDBRANCH   1  26
TORSDOF 18
ENDMDL
MODEL 3
REMARK VINA RESULT:     -12.3      3.632      7.779
REMARK SMILES COc1ccc2c(c1)c(CC(=O)OCCOC(=O)c1ccc(-c3c4nc(c(-c5cccc(S(=O)(=O)[O-])c5F)c5ccc([nH]5)c(-c5cccc(S(=O)(=O)[O-])c5F)c5nc(c(-c6cccc(S(=O)(=O)[O-])c6F)c6ccc3[nH]6)C=C5)C=C4)cc1)c(C)n2Cc1ccc(Br)cc1
REMARK SMILES IDX 14 1 13 2 11 3 12 4 10 5 9 6 3 7 4 8 8 9 5 10 7 11 6 12
REMARK SMILES IDX 84 13 82 14 83 15 2 16 1 17 85 18 86 19 87 20 92 21 88 22
REMARK SMILES IDX 91 23 89 24 90 25 15 26 16 27 17 28 18 29 19 30 20 31 81 32
REMARK SMILES IDX 21 33 80 34 22 35 23 36 24 37 74 38 25 39 79 40 73 41 75 42
REMARK SMILES IDX 26 43 78 44 72 45 71 46 27 48 59 49 39 50 58 51 40 52 43 53
REMARK SMILES IDX 57 54 76 55 41 56 42 57 56 59 77 60 44 61 28 62 29 63 37 64
REMARK SMILES IDX 30 65 32 66 38 67 31 68 33 69 34 70 35 71 36 72 60 73 61 74
REMARK SMILES IDX 69 75 62 76 64 77 70 78 63 79 65 80 66 81 67 82 68 83 45 84
REMARK SMILES IDX 46 85 54 86 47 87 49 88 55 89 48 90 50 91 51 92 52 93 53 94
REMARK H PARENT 75 47 43 58
REMARK Flexibility Score: inf
ROOT
ATOM      1  C   UNL A   1      32.968  30.531  26.897  1.00  0.00     0.274 C 
ENDROOT
BRANCH   1   2
ATOM      2  O   UNL A   1      33.233  29.317  27.633  1.00  0.00    -0.462 OA
BRANCH   2   3
ATOM      3  C   UNL A   1      32.884  28.173  26.995  1.00  0.00     0.310 C 
ATOM      4  O   UNL A   1      31.789  27.629  27.124  1.00  0.00    -0.252 OA
BRANCH   3   5
ATOM      5  C   UNL A   1      33.971  27.518  26.197  1.00  0.00     0.160 C 
BRANCH   5   6
ATOM      6  C   UNL A   1      33.701  26.602  25.042  1.00  0.00    -0.008 A 
ATOM      7  C   UNL A   1      31.111  27.294  22.262  1.00  0.00     0.119 A 
ATOM      8  C   UNL A   1      31.311  26.104  21.576  1.00  0.00     0.048 A 
ATOM      9  C   UNL A   1      31.941  27.622  23.348  1.00  0.00     0.057 A 
ATOM     10  C   UNL A   1      32.298  25.203  21.989  1.00  0.00     0.031 A 
ATOM     11  C   UNL A   1      32.860  26.684  23.875  1.00  0.00     0.007 A 
ATOM     12  C   UNL A   1      33.020  25.485  23.163  1.00  0.00     0.049 A 
ATOM     13  N   UNL A   1      33.983  24.759  23.836  1.00  0.00    -0.340 N 
ATOM     14  C   UNL A   1      34.113  25.273  25.102  1.00  0.00     0.020 A 
ATOM     15  C   UNL A   1      34.649  24.526  26.283  1.00  0.00     0.065 C 
BRANCH   7  16
ATOM     16  O   UNL A   1      30.160  28.224  21.929  1.00  0.00    -0.497 OA
ATOM     17  C   UNL A   1      30.481  29.580  22.241  1.00  0.00     0.278 C 
ENDBRANCH   7  16
BRANCH  13  18
ATOM     18  C   UNL A   1      34.766  23.654  23.292  1.00  0.00     0.157 C 
BRANCH  18  19
ATOM     19  C   UNL A   1      34.212  22.329  23.786  1.00  0.00    -0.028 A 
ATOM     20  C   UNL A   1      35.003  21.462  24.559  1.00  0.00     0.007 A 
ATOM     21  C   UNL A   1      32.927  21.907  23.418  1.00  0.00     0.007 A 
ATOM     22  C   UNL A   1      34.554  20.187  24.906  1.00  0.00     0.016 A 
ATOM     23  C   UNL A   1      32.459  20.643  23.796  1.00  0.00     0.016 A 
ATOM     24  C   UNL A   1      33.281  19.784  24.523  1.00  0.00     0.017 A 
ATOM     25  Br  UNL A   1      32.668  18.057  24.988  1.00  0.00    -0.051 Br
ENDBRANCH  18  19
ENDBRANCH  13  18
ENDBRANCH   5   6
ENDBRANCH   3   5
ENDBRANCH   2   3
ENDBRANCH   1   2
BRANCH   1  26
ATOM     26  C   UNL A   1      33.354  31.762  27.720  1.00  0.00     0.275 C 
BRANCH  26  27
ATOM     27  O   UNL A   1      34.769  31.975  27.606  1.00  0.00    -0.458 OA
BRANCH  27  28
ATOM     28  C   UNL A   1      35.451  32.214  28.754  1.00  0.00     0.338 C 
ATOM     29  O   UNL A   1      35.017  32.692  29.786  1.00  0.00    -0.246 OA
BRANCH  28  30
ATOM     30  C   UNL A   1      36.719  31.476  28.614  1.00  0.00     0.060 A 
ATOM     31  C   UNL A   1      36.730  30.205  28.037  1.00  0.00     0.016 A 
ATOM     32  C   UNL A   1      37.832  31.960  29.309  1.00  0.00     0.016 A 
ATOM     33  C   UNL A   1      37.803  29.364  28.291  1.00  0.00     0.010 A 
ATOM     34  C   UNL A   1      38.880  31.104  29.598  1.00  0.00     0.010 A 
ATOM     35  C   UNL A   1      38.832  29.790  29.142  1.00  0.00    -0.014 A 
BRANCH  35  36
ATOM     36  C   UNL A   1      39.969  28.913  29.353  1.00  0.00     0.031 A 
ATOM     37  C   UNL A   1      40.393  28.860  30.768  1.00  0.00     0.074 A 
ATOM     38  C   UNL A   1      40.578  28.111  28.462  1.00  0.00     0.049 A 
ATOM     39  N   UNL A   1      41.357  29.530  31.307  1.00  0.00    -0.248 NA
ATOM     40  C   UNL A   1      39.571  28.090  31.707  1.00  0.00     0.031 C 
ATOM     41  C   UNL A   1      40.166  27.710  27.120  1.00  0.00     0.029 A 
ATOM     42  N   UNL A   1      41.724  27.401  28.660  1.00  0.00    -0.354 N 
ATOM     43  C   UNL A   1      41.385  29.122  32.631  1.00  0.00     0.074 A 
ATOM     44  C   UNL A   1      40.172  28.373  32.864  1.00  0.00     0.031 C 
ATOM     45  C   UNL A   1      40.932  26.664  26.716  1.00  0.00     0.029 A 
ATOM     46  C   UNL A   1      41.988  26.444  27.693  1.00  0.00     0.049 A 
ATOM     47  H   UNL A   1      42.317  27.554  29.431  1.00  0.00     0.167 HD
ATOM     48  C   UNL A   1      42.494  29.241  33.404  1.00  0.00     0.034 A 
ATOM     49  C   UNL A   1      42.986  25.529  27.753  1.00  0.00     0.034 A 
ATOM     50  C   UNL A   1      43.534  30.007  32.779  1.00  0.00     0.049 A 
ATOM     51  C   UNL A   1      44.015  26.075  28.675  1.00  0.00     0.074 A 
ATOM     52  C   UNL A   1      43.646  31.296  32.298  1.00  0.00     0.029 A 
ATOM     53  N   UNL A   1      44.555  29.294  32.196  1.00  0.00    -0.354 N 
ATOM     54  N   UNL A   1      44.743  27.127  28.422  1.00  0.00    -0.248 NA
ATOM     55  C   UNL A   1      44.014  25.635  30.061  1.00  0.00     0.031 C 
ATOM     56  C   UNL A   1      44.433  31.184  31.114  1.00  0.00     0.029 A 
ATOM     57  C   UNL A   1      44.774  29.838  30.956  1.00  0.00     0.049 A 
ATOM     58  H   UNL A   1      45.039  28.535  32.594  1.00  0.00     0.167 HD
ATOM     59  C   UNL A   1      44.946  27.720  29.662  1.00  0.00     0.074 A 
ATOM     60  C   UNL A   1      44.584  26.696  30.634  1.00  0.00     0.031 C 
ATOM     61  C   UNL A   1      45.124  29.067  29.781  1.00  0.00     0.034 A 
BRANCH  48  62
ATOM     62  C   UNL A   1      42.743  28.386  34.601  1.00  0.00     0.023 A 
ATOM     63  C   UNL A   1      42.919  29.004  35.851  1.00  0.00     0.012 A 
ATOM     64  C   UNL A   1      43.000  27.001  34.503  1.00  0.00     0.148 A 
ATOM     65  C   UNL A   1      43.308  28.261  36.970  1.00  0.00     0.002 A 
ATOM     66  C   UNL A   1      43.301  26.254  35.632  1.00  0.00     0.091 A 
ATOM     67  F   UNL A   1      43.059  26.428  33.293  1.00  0.00    -0.205 F 
ATOM     68  C   UNL A   1      43.474  26.883  36.868  1.00  0.00     0.022 A 
BRANCH  66  69
ATOM     69  S   UNL A   1      43.438  24.468  35.552  1.00  0.00     0.127 S 
ATOM     70  O   UNL A   1      42.037  24.069  35.465  1.00  0.00    -0.237 OA
ATOM     71  O   UNL A   1      44.214  24.278  34.325  1.00  0.00    -0.237 OA
ATOM     72  O   UNL A   1      44.147  24.090  36.767  1.00  0.00    -0.744 OA
ENDBRANCH  66  69
ENDBRANCH  48  62
BRANCH  49  73
ATOM     73  C   UNL A   1      43.061  24.128  27.271  1.00  0.00     0.023 A 
ATOM     74  C   UNL A   1      41.929  23.298  27.424  1.00  0.00     0.012 A 
ATOM     75  C   UNL A   1      44.078  23.706  26.390  1.00  0.00     0.148 A 
ATOM     76  C   UNL A   1      41.776  22.131  26.668  1.00  0.00     0.002 A 
ATOM     77  C   UNL A   1      43.925  22.535  25.646  1.00  0.00     0.091 A 
ATOM     78  F   UNL A   1      45.145  24.494  26.201  1.00  0.00    -0.205 F 
ATOM     79  C   UNL A   1      42.767  21.758  25.766  1.00  0.00     0.022 A 
BRANCH  77  80
ATOM     80  S   UNL A   1      45.169  21.999  24.463  1.00  0.00     0.127 S 
ATOM     81  O   UNL A   1      44.578  20.774  23.921  1.00  0.00    -0.237 OA
ATOM     82  O   UNL A   1      45.210  23.122  23.531  1.00  0.00    -0.237 OA
ATOM     83  O   UNL A   1      46.380  21.775  25.245  1.00  0.00    -0.744 OA
ENDBRANCH  77  80
ENDBRANCH  49  73
BRANCH  61  84
ATOM     84  C   UNL A   1      45.427  29.856  28.534  1.00  0.00     0.023 A 
ATOM     85  C   UNL A   1      44.411  30.314  27.671  1.00  0.00     0.012 A 
ATOM     86  C   UNL A   1      46.748  30.290  28.324  1.00  0.00     0.148 A 
ATOM     87  C   UNL A   1      44.710  31.175  26.611  1.00  0.00     0.002 A 
ATOM     88  C   UNL A   1      47.035  31.176  27.293  1.00  0.00     0.091 A 
ATOM     89  F   UNL A   1      47.699  29.848  29.161  1.00  0.00    -0.205 F 
ATOM     90  C   UNL A   1      46.018  31.616  26.430  1.00  0.00     0.022 A 
BRANCH  88  91
ATOM     91  S   UNL A   1      48.675  31.872  27.071  1.00  0.00     0.127 S 
ATOM     92  O   UNL A   1      48.434  32.906  26.066  1.00  0.00    -0.237 OA
ATOM     93  O   UNL A   1      48.983  32.380  28.409  1.00  0.00    -0.237 OA
ATOM     94  O   UNL A   1      49.527  30.771  26.640  1.00  0.00    -0.744 OA
ENDBRANCH  88  91
ENDBRANCH  61  84
ENDBRANCH  35  36
ENDBRANCH  28  30
ENDBRANCH  27  28
ENDBRANCH  26  27
ENDBRANCH   1  26
TORSDOF 18
ENDMDL
