MODEL 1
REMARK VINA RESULT:     -12.5      0.000      0.000
REMARK SMILES C[C@H](NC(=O)[C@]1(C)Sc2ccccc2NC1=O)C(=O)OCCOC(=O)c1ccc(-c2c3nc(c(-c4cccc(S(=O)(=O)[O-])c4F)c4ccc([nH]4)c(-c4cccc(S(=O)(=O)[O-])c4F)c4nc(c(-c5cccc(S(=O)(=O)[O-])c5F)c5ccc2[nH]5)C=C4)C=C3)cc1
REMARK SMILES IDX 22 1 21 2 20 3 18 4 19 5 2 6 1 7 3 8 4 9 5 11 6 12 8 13
REMARK SMILES IDX 16 14 7 15 9 16 15 17 17 18 10 19 14 20 11 22 13 23 12 24
REMARK SMILES IDX 23 25 24 26 25 27 26 28 27 29 88 30 28 31 87 32 29 33 30 34
REMARK SMILES IDX 31 35 81 36 32 37 86 38 80 39 82 40 33 41 85 42 79 43 78 44
REMARK SMILES IDX 34 46 66 47 46 48 65 49 47 50 50 51 64 52 83 53 48 54 49 55
REMARK SMILES IDX 63 57 84 58 51 59 35 60 36 61 44 62 37 63 39 64 45 65 38 66
REMARK SMILES IDX 40 67 41 68 42 69 43 70 67 71 68 72 76 73 69 74 71 75 77 76
REMARK SMILES IDX 70 77 72 78 73 79 74 80 75 81 52 82 53 83 61 84 54 85 56 86
REMARK SMILES IDX 62 87 55 88 57 89 58 90 59 91 60 92
REMARK H PARENT 3 10 15 21 82 45 50 56
REMARK Flexibility Score: inf
ROOT
ATOM      1  C   UNL A   1      31.866  30.450  25.784  1.00  0.00     0.275 C 
ENDROOT
BRANCH   1   2
ATOM      2  C   UNL A   1      32.326  29.074  25.309  1.00  0.00     0.274 C 
BRANCH   2   3
ATOM      3  O   UNL A   1      31.226  28.140  25.293  1.00  0.00    -0.461 OA
BRANCH   3   4
ATOM      4  C   UNL A   1      31.238  27.222  26.299  1.00  0.00     0.328 C 
ATOM      5  O   UNL A   1      31.344  27.501  27.489  1.00  0.00    -0.250 OA
BRANCH   4   6
ATOM      6  C   UNL A   1      31.088  25.775  25.800  1.00  0.00     0.189 C 
ATOM      7  C   UNL A   1      29.695  25.624  25.194  1.00  0.00     0.043 C 
BRANCH   6   8
ATOM      8  N   UNL A   1      31.288  24.710  26.795  1.00  0.00    -0.341 N 
ATOM      9  C   UNL A   1      32.141  23.634  26.838  1.00  0.00     0.246 C 
ATOM     10  H   UNL A   1      30.698  24.782  27.579  1.00  0.00     0.164 HD
ATOM     11  O   UNL A   1      31.882  22.810  27.723  1.00  0.00    -0.273 OA
BRANCH   9  12
ATOM     12  C   UNL A   1      33.372  23.506  25.895  1.00  0.00     0.175 C 
ATOM     13  S   UNL A   1      32.858  23.049  24.179  1.00  0.00    -0.097 SA
ATOM     14  C   UNL A   1      34.291  22.449  26.480  1.00  0.00     0.250 C 
ATOM     15  C   UNL A   1      34.103  24.848  25.706  1.00  0.00     0.045 C 
ATOM     16  C   UNL A   1      32.773  21.277  24.282  1.00  0.00     0.032 A 
ATOM     17  N   UNL A   1      33.936  21.133  26.427  1.00  0.00    -0.323 N 
ATOM     18  O   UNL A   1      35.274  22.763  27.148  1.00  0.00    -0.273 OA
ATOM     19  C   UNL A   1      32.308  20.585  23.157  1.00  0.00     0.017 A 
ATOM     20  C   UNL A   1      33.201  20.544  25.393  1.00  0.00     0.054 A 
ATOM     21  H   UNL A   1      34.219  20.554  27.171  1.00  0.00     0.170 HD
ATOM     22  C   UNL A   1      32.208  19.192  23.166  1.00  0.00     0.001 A 
ATOM     23  C   UNL A   1      33.046  19.153  25.425  1.00  0.00     0.027 A 
ATOM     24  C   UNL A   1      32.546  18.479  24.312  1.00  0.00     0.002 A 
ENDBRANCH   9  12
ENDBRANCH   6   8
ENDBRANCH   4   6
ENDBRANCH   3   4
ENDBRANCH   2   3
ENDBRANCH   1   2
BRANCH   1  25
ATOM     25  O   UNL A   1      32.279  30.674  27.142  1.00  0.00    -0.458 OA
BRANCH  25  26
ATOM     26  C   UNL A   1      33.062  31.759  27.348  1.00  0.00     0.338 C 
ATOM     27  O   UNL A   1      32.743  32.933  27.245  1.00  0.00    -0.246 OA
BRANCH  26  28
ATOM     28  C   UNL A   1      34.426  31.346  27.724  1.00  0.00     0.060 A 
ATOM     29  C   UNL A   1      35.382  32.333  27.971  1.00  0.00     0.016 A 
ATOM     30  C   UNL A   1      34.697  30.013  28.028  1.00  0.00     0.016 A 
ATOM     31  C   UNL A   1      36.608  31.983  28.543  1.00  0.00     0.010 A 
ATOM     32  C   UNL A   1      35.869  29.694  28.719  1.00  0.00     0.010 A 
ATOM     33  C   UNL A   1      36.851  30.665  28.966  1.00  0.00    -0.014 A 
BRANCH  33  34
ATOM     34  C   UNL A   1      38.137  30.293  29.629  1.00  0.00     0.031 A 
ATOM     35  C   UNL A   1      38.409  30.746  31.044  1.00  0.00     0.074 A 
ATOM     36  C   UNL A   1      39.071  29.565  28.974  1.00  0.00     0.049 A 
ATOM     37  N   UNL A   1      39.462  30.526  31.791  1.00  0.00    -0.248 NA
ATOM     38  C   UNL A   1      37.388  31.584  31.698  1.00  0.00     0.031 C 
ATOM     39  C   UNL A   1      38.994  29.133  27.576  1.00  0.00     0.029 A 
ATOM     40  N   UNL A   1      40.266  29.042  29.409  1.00  0.00    -0.354 N 
ATOM     41  C   UNL A   1      39.251  31.241  32.964  1.00  0.00     0.074 A 
ATOM     42  C   UNL A   1      37.993  31.935  32.821  1.00  0.00     0.031 C 
ATOM     43  C   UNL A   1      40.054  28.353  27.293  1.00  0.00     0.029 A 
ATOM     44  C   UNL A   1      40.897  28.246  28.478  1.00  0.00     0.049 A 
ATOM     45  H   UNL A   1      40.638  29.220  30.304  1.00  0.00     0.167 HD
ATOM     46  C   UNL A   1      40.000  31.278  34.089  1.00  0.00     0.034 A 
ATOM     47  C   UNL A   1      42.008  27.487  28.582  1.00  0.00     0.034 A 
ATOM     48  C   UNL A   1      41.181  30.493  34.293  1.00  0.00     0.049 A 
ATOM     49  C   UNL A   1      42.749  27.438  29.893  1.00  0.00     0.074 A 
ATOM     50  C   UNL A   1      41.971  30.411  35.427  1.00  0.00     0.029 A 
ATOM     51  N   UNL A   1      41.712  29.618  33.363  1.00  0.00    -0.354 N 
ATOM     52  N   UNL A   1      42.470  28.046  31.020  1.00  0.00    -0.248 NA
ATOM     53  C   UNL A   1      43.935  26.568  29.960  1.00  0.00     0.031 C 
ATOM     54  C   UNL A   1      42.963  29.455  35.193  1.00  0.00     0.029 A 
ATOM     55  C   UNL A   1      42.795  28.958  33.910  1.00  0.00     0.049 A 
ATOM     56  H   UNL A   1      41.370  29.486  32.449  1.00  0.00     0.167 HD
ATOM     57  C   UNL A   1      43.416  27.602  31.935  1.00  0.00     0.074 A 
ATOM     58  C   UNL A   1      44.274  26.667  31.240  1.00  0.00     0.031 C 
ATOM     59  C   UNL A   1      43.572  27.956  33.233  1.00  0.00     0.034 A 
BRANCH  46  60
ATOM     60  C   UNL A   1      39.499  32.110  35.235  1.00  0.00     0.023 A 
ATOM     61  C   UNL A   1      38.601  31.529  36.152  1.00  0.00     0.012 A 
ATOM     62  C   UNL A   1      39.960  33.423  35.444  1.00  0.00     0.148 A 
ATOM     63  C   UNL A   1      38.148  32.251  37.253  1.00  0.00     0.002 A 
ATOM     64  C   UNL A   1      39.528  34.126  36.563  1.00  0.00     0.091 A 
ATOM     65  F   UNL A   1      40.814  33.951  34.555  1.00  0.00    -0.205 F 
ATOM     66  C   UNL A   1      38.617  33.545  37.462  1.00  0.00     0.022 A 
BRANCH  64  67
ATOM     67  S   UNL A   1      40.101  35.782  36.957  1.00  0.00     0.127 S 
ATOM     68  O   UNL A   1      39.654  36.538  35.786  1.00  0.00    -0.237 OA
ATOM     69  O   UNL A   1      39.365  36.072  38.187  1.00  0.00    -0.237 OA
ATOM     70  O   UNL A   1      41.546  35.687  37.106  1.00  0.00    -0.744 OA
ENDBRANCH  64  67
ENDBRANCH  46  60
BRANCH  47  71
ATOM     71  C   UNL A   1      42.412  26.583  27.467  1.00  0.00     0.023 A 
ATOM     72  C   UNL A   1      43.188  27.119  26.419  1.00  0.00     0.012 A 
ATOM     73  C   UNL A   1      42.038  25.229  27.420  1.00  0.00     0.148 A 
ATOM     74  C   UNL A   1      43.560  26.332  25.329  1.00  0.00     0.002 A 
ATOM     75  C   UNL A   1      42.438  24.439  26.346  1.00  0.00     0.091 A 
ATOM     76  F   UNL A   1      41.287  24.742  28.418  1.00  0.00    -0.205 F 
ATOM     77  C   UNL A   1      43.190  24.992  25.295  1.00  0.00     0.022 A 
BRANCH  75  78
ATOM     78  S   UNL A   1      42.074  22.683  26.243  1.00  0.00     0.127 S 
ATOM     79  O   UNL A   1      42.708  22.319  24.979  1.00  0.00    -0.237 OA
ATOM     80  O   UNL A   1      42.741  22.163  27.438  1.00  0.00    -0.237 OA
ATOM     81  O   UNL A   1      40.621  22.583  26.276  1.00  0.00    -0.744 OA
ENDBRANCH  75  78
ENDBRANCH  47  71
BRANCH  59  82
ATOM     82  C   UNL A   1      44.667  27.304  34.028  1.00  0.00     0.023 A 
ATOM     83  C   UNL A   1      45.938  27.906  34.068  1.00  0.00     0.012 A 
ATOM     84  C   UNL A   1      44.389  26.196  34.851  1.00  0.00     0.148 A 
ATOM     85  C   UNL A   1      46.922  27.412  34.922  1.00  0.00     0.002 A 
ATOM     86  C   UNL A   1      45.365  25.729  35.722  1.00  0.00     0.091 A 
ATOM     87  F   UNL A   1      43.174  25.635  34.779  1.00  0.00    -0.205 F 
ATOM     88  C   UNL A   1      46.632  26.334  35.757  1.00  0.00     0.022 A 
BRANCH  86  89
ATOM     89  S   UNL A   1      45.054  24.402  36.892  1.00  0.00     0.127 S 
ATOM     90  O   UNL A   1      46.337  24.312  37.588  1.00  0.00    -0.237 OA
ATOM     91  O   UNL A   1      43.961  24.944  37.698  1.00  0.00    -0.237 OA
ATOM     92  O   UNL A   1      44.694  23.239  36.092  1.00  0.00    -0.744 OA
ENDBRANCH  86  89
ENDBRANCH  59  82
ENDBRANCH  33  34
ENDBRANCH  26  28
ENDBRANCH  25  26
ENDBRANCH   1  25
TORSDOF 16
ENDMDL
MODEL 2
REMARK VINA RESULT:     -12.4      1.125      1.700
REMARK SMILES C[C@H](NC(=O)[C@]1(C)Sc2ccccc2NC1=O)C(=O)OCCOC(=O)c1ccc(-c2c3nc(c(-c4cccc(S(=O)(=O)[O-])c4F)c4ccc([nH]4)c(-c4cccc(S(=O)(=O)[O-])c4F)c4nc(c(-c5cccc(S(=O)(=O)[O-])c5F)c5ccc2[nH]5)C=C4)C=C3)cc1
REMARK SMILES IDX 22 1 21 2 20 3 18 4 19 5 2 6 1 7 3 8 4 9 5 11 6 12 8 13
REMARK SMILES IDX 16 14 7 15 9 16 15 17 17 18 10 19 14 20 11 22 13 23 12 24
REMARK SMILES IDX 23 25 24 26 25 27 26 28 27 29 88 30 28 31 87 32 29 33 30 34
REMARK SMILES IDX 31 35 81 36 32 37 86 38 80 39 82 40 33 41 85 42 79 43 78 44
REMARK SMILES IDX 34 46 66 47 46 48 65 49 47 50 50 51 64 52 83 53 48 54 49 55
REMARK SMILES IDX 63 57 84 58 51 59 35 60 36 61 44 62 37 63 39 64 45 65 38 66
REMARK SMILES IDX 40 67 41 68 42 69 43 70 67 71 68 72 76 73 69 74 71 75 77 76
REMARK SMILES IDX 70 77 72 78 73 79 74 80 75 81 52 82 53 83 61 84 54 85 56 86
REMARK SMILES IDX 62 87 55 88 57 89 58 90 59 91 60 92
REMARK H PARENT 3 10 15 21 82 45 50 56
REMARK Flexibility Score: inf
ROOT
ATOM      1  C   UNL A   1      31.578  30.643  25.757  1.00  0.00     0.275 C 
ENDROOT
BRANCH   1   2
ATOM      2  C   UNL A   1      31.388  29.283  25.089  1.00  0.00     0.274 C 
BRANCH   2   3
ATOM      3  O   UNL A   1      31.282  29.423  23.657  1.00  0.00    -0.461 OA
BRANCH   3   4
ATOM      4  C   UNL A   1      30.937  28.285  22.993  1.00  0.00     0.328 C 
ATOM      5  O   UNL A   1      30.113  28.236  22.086  1.00  0.00    -0.250 OA
BRANCH   4   6
ATOM      6  C   UNL A   1      31.701  27.042  23.483  1.00  0.00     0.189 C 
ATOM      7  C   UNL A   1      32.994  26.933  22.679  1.00  0.00     0.043 C 
BRANCH   6   8
ATOM      8  N   UNL A   1      30.988  25.758  23.407  1.00  0.00    -0.341 N 
ATOM      9  C   UNL A   1      31.058  24.616  24.167  1.00  0.00     0.246 C 
ATOM     10  H   UNL A   1      30.337  25.706  22.671  1.00  0.00     0.164 HD
ATOM     11  O   UNL A   1      30.476  23.639  23.681  1.00  0.00    -0.273 OA
BRANCH   9  12
ATOM     12  C   UNL A   1      31.753  24.581  25.559  1.00  0.00     0.175 C 
ATOM     13  S   UNL A   1      33.589  24.451  25.389  1.00  0.00    -0.097 SA
ATOM     14  C   UNL A   1      31.198  23.391  26.320  1.00  0.00     0.250 C 
ATOM     15  C   UNL A   1      31.556  25.892  26.342  1.00  0.00     0.045 C 
ATOM     16  C   UNL A   1      33.821  22.696  25.248  1.00  0.00     0.032 A 
ATOM     17  N   UNL A   1      31.552  22.124  25.955  1.00  0.00    -0.323 N 
ATOM     18  O   UNL A   1      30.308  23.531  27.155  1.00  0.00    -0.273 OA
ATOM     19  C   UNL A   1      35.119  22.232  25.003  1.00  0.00     0.017 A 
ATOM     20  C   UNL A   1      32.797  21.762  25.429  1.00  0.00     0.054 A 
ATOM     21  H   UNL A   1      30.882  21.413  26.071  1.00  0.00     0.170 HD
ATOM     22  C   UNL A   1      35.377  20.865  24.874  1.00  0.00     0.001 A 
ATOM     23  C   UNL A   1      33.042  20.396  25.242  1.00  0.00     0.027 A 
ATOM     24  C   UNL A   1      34.332  19.950  24.960  1.00  0.00     0.002 A 
ENDBRANCH   9  12
ENDBRANCH   6   8
ENDBRANCH   4   6
ENDBRANCH   3   4
ENDBRANCH   2   3
ENDBRANCH   1   2
BRANCH   1  25
ATOM     25  O   UNL A   1      32.370  30.508  26.950  1.00  0.00    -0.458 OA
BRANCH  25  26
ATOM     26  C   UNL A   1      33.091  31.597  27.304  1.00  0.00     0.338 C 
ATOM     27  O   UNL A   1      32.720  32.760  27.316  1.00  0.00    -0.246 OA
BRANCH  26  28
ATOM     28  C   UNL A   1      34.458  31.206  27.690  1.00  0.00     0.060 A 
ATOM     29  C   UNL A   1      35.386  32.207  27.986  1.00  0.00     0.016 A 
ATOM     30  C   UNL A   1      34.759  29.870  27.955  1.00  0.00     0.016 A 
ATOM     31  C   UNL A   1      36.611  31.868  28.566  1.00  0.00     0.010 A 
ATOM     32  C   UNL A   1      35.927  29.558  28.655  1.00  0.00     0.010 A 
ATOM     33  C   UNL A   1      36.880  30.544  28.950  1.00  0.00    -0.014 A 
BRANCH  33  34
ATOM     34  C   UNL A   1      38.164  30.182  29.622  1.00  0.00     0.031 A 
ATOM     35  C   UNL A   1      38.423  30.639  31.038  1.00  0.00     0.074 A 
ATOM     36  C   UNL A   1      39.108  29.461  28.975  1.00  0.00     0.049 A 
ATOM     37  N   UNL A   1      39.472  30.428  31.793  1.00  0.00    -0.248 NA
ATOM     38  C   UNL A   1      37.391  31.470  31.685  1.00  0.00     0.031 C 
ATOM     39  C   UNL A   1      39.044  29.026  27.577  1.00  0.00     0.029 A 
ATOM     40  N   UNL A   1      40.304  28.947  29.419  1.00  0.00    -0.354 N 
ATOM     41  C   UNL A   1      39.248  31.143  32.963  1.00  0.00     0.074 A 
ATOM     42  C   UNL A   1      37.986  31.828  32.811  1.00  0.00     0.031 C 
ATOM     43  C   UNL A   1      40.111  28.254  27.302  1.00  0.00     0.029 A 
ATOM     44  C   UNL A   1      40.947  28.155  28.493  1.00  0.00     0.049 A 
ATOM     45  H   UNL A   1      40.668  29.128  30.316  1.00  0.00     0.167 HD
ATOM     46  C   UNL A   1      39.990  31.187  34.094  1.00  0.00     0.034 A 
ATOM     47  C   UNL A   1      42.063  27.403  28.605  1.00  0.00     0.034 A 
ATOM     48  C   UNL A   1      41.174  30.411  34.307  1.00  0.00     0.049 A 
ATOM     49  C   UNL A   1      42.795  27.362  29.922  1.00  0.00     0.074 A 
ATOM     50  C   UNL A   1      41.957  30.336  35.446  1.00  0.00     0.029 A 
ATOM     51  N   UNL A   1      41.718  29.539  33.382  1.00  0.00    -0.354 N 
ATOM     52  N   UNL A   1      42.504  27.969  31.046  1.00  0.00    -0.248 NA
ATOM     53  C   UNL A   1      43.987  26.500  29.998  1.00  0.00     0.031 C 
ATOM     54  C   UNL A   1      42.958  29.387  35.220  1.00  0.00     0.029 A 
ATOM     55  C   UNL A   1      42.802  28.887  33.936  1.00  0.00     0.049 A 
ATOM     56  H   UNL A   1      41.384  29.403  32.466  1.00  0.00     0.167 HD
ATOM     57  C   UNL A   1      43.447  27.534  31.968  1.00  0.00     0.074 A 
ATOM     58  C   UNL A   1      44.316  26.604  31.280  1.00  0.00     0.031 C 
ATOM     59  C   UNL A   1      43.591  27.890  33.266  1.00  0.00     0.034 A 
BRANCH  46  60
ATOM     60  C   UNL A   1      39.474  32.016  35.235  1.00  0.00     0.023 A 
ATOM     61  C   UNL A   1      38.573  31.430  36.146  1.00  0.00     0.012 A 
ATOM     62  C   UNL A   1      39.925  33.333  35.446  1.00  0.00     0.148 A 
ATOM     63  C   UNL A   1      38.108  32.150  37.243  1.00  0.00     0.002 A 
ATOM     64  C   UNL A   1      39.480  34.034  36.561  1.00  0.00     0.091 A 
ATOM     65  F   UNL A   1      40.782  33.865  34.563  1.00  0.00    -0.205 F 
ATOM     66  C   UNL A   1      38.566  33.448  37.455  1.00  0.00     0.022 A 
BRANCH  64  67
ATOM     67  S   UNL A   1      40.039  35.694  36.958  1.00  0.00     0.127 S 
ATOM     68  O   UNL A   1      39.313  35.963  38.201  1.00  0.00    -0.237 OA
ATOM     69  O   UNL A   1      41.478  35.498  37.122  1.00  0.00    -0.237 OA
ATOM     70  O   UNL A   1      39.651  36.533  35.833  1.00  0.00    -0.744 OA
ENDBRANCH  64  67
ENDBRANCH  46  60
BRANCH  47  71
ATOM     71  C   UNL A   1      42.481  26.501  27.494  1.00  0.00     0.023 A 
ATOM     72  C   UNL A   1      43.279  27.037  26.463  1.00  0.00     0.012 A 
ATOM     73  C   UNL A   1      42.099  25.149  27.435  1.00  0.00     0.148 A 
ATOM     74  C   UNL A   1      43.665  26.251  25.377  1.00  0.00     0.002 A 
ATOM     75  C   UNL A   1      42.514  24.362  26.366  1.00  0.00     0.091 A 
ATOM     76  F   UNL A   1      41.328  24.664  28.418  1.00  0.00    -0.205 F 
ATOM     77  C   UNL A   1      43.288  24.914  25.330  1.00  0.00     0.022 A 
BRANCH  75  78
ATOM     78  S   UNL A   1      42.141  22.608  26.250  1.00  0.00     0.127 S 
ATOM     79  O   UNL A   1      40.680  22.613  26.226  1.00  0.00    -0.237 OA
ATOM     80  O   UNL A   1      42.776  22.244  24.983  1.00  0.00    -0.237 OA
ATOM     81  O   UNL A   1      42.753  22.000  27.424  1.00  0.00    -0.744 OA
ENDBRANCH  75  78
ENDBRANCH  47  71
BRANCH  59  82
ATOM     82  C   UNL A   1      44.686  27.248  34.070  1.00  0.00     0.023 A 
ATOM     83  C   UNL A   1      45.937  27.884  34.158  1.00  0.00     0.012 A 
ATOM     84  C   UNL A   1      44.421  26.108  34.854  1.00  0.00     0.148 A 
ATOM     85  C   UNL A   1      46.915  27.394  35.022  1.00  0.00     0.002 A 
ATOM     86  C   UNL A   1      45.389  25.644  35.735  1.00  0.00     0.091 A 
ATOM     87  F   UNL A   1      43.225  25.515  34.736  1.00  0.00    -0.205 F 
ATOM     88  C   UNL A   1      46.637  26.285  35.819  1.00  0.00     0.022 A 
BRANCH  86  89
ATOM     89  S   UNL A   1      45.090  24.275  36.859  1.00  0.00     0.127 S 
ATOM     90  O   UNL A   1      46.409  24.090  37.461  1.00  0.00    -0.237 OA
ATOM     91  O   UNL A   1      44.080  24.827  37.763  1.00  0.00    -0.237 OA
ATOM     92  O   UNL A   1      44.619  23.173  36.031  1.00  0.00    -0.744 OA
ENDBRANCH  86  89
ENDBRANCH  59  82
ENDBRANCH  33  34
ENDBRANCH  26  28
ENDBRANCH  25  26
ENDBRANCH   1  25
TORSDOF 16
ENDMDL
MODEL 3
REMARK VINA RESULT:     -12.3      5.117     10.195
REMARK SMILES C[C@H](NC(=O)[C@]1(C)Sc2ccccc2NC1=O)C(=O)OCCOC(=O)c1ccc(-c2c3nc(c(-c4cccc(S(=O)(=O)[O-])c4F)c4ccc([nH]4)c(-c4cccc(S(=O)(=O)[O-])c4F)c4nc(c(-c5cccc(S(=O)(=O)[O-])c5F)c5ccc2[nH]5)C=C4)C=C3)cc1
REMARK SMILES IDX 22 1 21 2 20 3 18 4 19 5 2 6 1 7 3 8 4 9 5 11 6 12 8 13
REMARK SMILES IDX 16 14 7 15 9 16 15 17 17 18 10 19 14 20 11 22 13 23 12 24
REMARK SMILES IDX 23 25 24 26 25 27 26 28 27 29 88 30 28 31 87 32 29 33 30 34
REMARK SMILES IDX 31 35 81 36 32 37 86 38 80 39 82 40 33 41 85 42 79 43 78 44
REMARK SMILES IDX 34 46 66 47 46 48 65 49 47 50 50 51 64 52 83 53 48 54 49 55
REMARK SMILES IDX 63 57 84 58 51 59 35 60 36 61 44 62 37 63 39 64 45 65 38 66
REMARK SMILES IDX 40 67 41 68 42 69 43 70 67 71 68 72 76 73 69 74 71 75 77 76
REMARK SMILES IDX 70 77 72 78 73 79 74 80 75 81 52 82 53 83 61 84 54 85 56 86
REMARK SMILES IDX 62 87 55 88 57 89 58 90 59 91 60 92
REMARK H PARENT 3 10 15 21 82 45 50 56
REMARK Flexibility Score: inf
ROOT
ATOM      1  C   UNL A   1      36.670  20.585  24.946  1.00  0.00     0.275 C 
ENDROOT
BRANCH   1   2
ATOM      2  C   UNL A   1      35.295  21.230  25.102  1.00  0.00     0.274 C 
BRANCH   2   3
ATOM      3  O   UNL A   1      34.257  20.356  24.611  1.00  0.00    -0.461 OA
BRANCH   3   4
ATOM      4  C   UNL A   1      32.994  20.694  24.991  1.00  0.00     0.328 C 
ATOM      5  O   UNL A   1      32.128  19.884  25.308  1.00  0.00    -0.250 OA
BRANCH   4   6
ATOM      6  C   UNL A   1      32.750  22.212  25.001  1.00  0.00     0.189 C 
ATOM      7  C   UNL A   1      32.360  22.620  26.420  1.00  0.00     0.043 C 
BRANCH   6   8
ATOM      8  N   UNL A   1      31.734  22.724  24.068  1.00  0.00    -0.341 N 
ATOM      9  C   UNL A   1      31.661  23.874  23.322  1.00  0.00     0.246 C 
ATOM     10  H   UNL A   1      30.959  22.127  23.957  1.00  0.00     0.164 HD
ATOM     11  O   UNL A   1      30.553  24.089  22.817  1.00  0.00    -0.273 OA
BRANCH   9  12
ATOM     12  C   UNL A   1      32.894  24.790  23.077  1.00  0.00     0.175 C 
ATOM     13  S   UNL A   1      33.168  25.942  24.497  1.00  0.00    -0.097 SA
ATOM     14  C   UNL A   1      32.644  25.566  21.796  1.00  0.00     0.250 C 
ATOM     15  C   UNL A   1      34.208  23.991  23.004  1.00  0.00     0.045 C 
ATOM     16  C   UNL A   1      32.099  27.298  24.079  1.00  0.00     0.032 A 
ATOM     17  N   UNL A   1      31.719  26.569  21.777  1.00  0.00    -0.323 N 
ATOM     18  O   UNL A   1      33.137  25.205  20.730  1.00  0.00    -0.273 OA
ATOM     19  C   UNL A   1      31.979  28.338  25.009  1.00  0.00     0.017 A 
ATOM     20  C   UNL A   1      31.428  27.409  22.858  1.00  0.00     0.054 A 
ATOM     21  H   UNL A   1      31.219  26.712  20.942  1.00  0.00     0.170 HD
ATOM     22  C   UNL A   1      31.152  29.434  24.753  1.00  0.00     0.001 A 
ATOM     23  C   UNL A   1      30.554  28.477  22.624  1.00  0.00     0.027 A 
ATOM     24  C   UNL A   1      30.414  29.487  23.574  1.00  0.00     0.002 A 
ENDBRANCH   9  12
ENDBRANCH   6   8
ENDBRANCH   4   6
ENDBRANCH   3   4
ENDBRANCH   2   3
ENDBRANCH   1   2
BRANCH   1  25
ATOM     25  O   UNL A   1      37.701  21.586  25.002  1.00  0.00    -0.458 OA
BRANCH  25  26
ATOM     26  C   UNL A   1      38.776  21.282  25.766  1.00  0.00     0.338 C 
ATOM     27  O   UNL A   1      39.310  20.192  25.892  1.00  0.00    -0.246 OA
BRANCH  26  28
ATOM     28  C   UNL A   1      39.256  22.479  26.478  1.00  0.00     0.060 A 
ATOM     29  C   UNL A   1      40.407  22.377  27.263  1.00  0.00     0.016 A 
ATOM     30  C   UNL A   1      38.698  23.728  26.209  1.00  0.00     0.016 A 
ATOM     31  C   UNL A   1      41.010  23.534  27.764  1.00  0.00     0.010 A 
ATOM     32  C   UNL A   1      39.381  24.882  26.603  1.00  0.00     0.010 A 
ATOM     33  C   UNL A   1      40.531  24.806  27.403  1.00  0.00    -0.014 A 
BRANCH  33  34
ATOM     34  C   UNL A   1      41.202  26.048  27.890  1.00  0.00     0.031 A 
ATOM     35  C   UNL A   1      42.618  26.352  27.458  1.00  0.00     0.074 A 
ATOM     36  C   UNL A   1      40.565  26.901  28.723  1.00  0.00     0.049 A 
ATOM     37  N   UNL A   1      43.371  27.377  27.769  1.00  0.00    -0.248 NA
ATOM     38  C   UNL A   1      43.292  25.366  26.594  1.00  0.00     0.031 C 
ATOM     39  C   UNL A   1      39.233  26.700  29.300  1.00  0.00     0.029 A 
ATOM     40  N   UNL A   1      40.949  28.126  29.216  1.00  0.00    -0.354 N 
ATOM     41  C   UNL A   1      44.610  27.125  27.193  1.00  0.00     0.074 A 
ATOM     42  C   UNL A   1      44.528  25.838  26.545  1.00  0.00     0.031 C 
ATOM     43  C   UNL A   1      38.884  27.791  30.006  1.00  0.00     0.029 A 
ATOM     44  C   UNL A   1      39.973  28.762  29.951  1.00  0.00     0.049 A 
ATOM     45  H   UNL A   1      41.841  28.514  29.059  1.00  0.00     0.167 HD
ATOM     46  C   UNL A   1      45.708  27.914  27.148  1.00  0.00     0.034 A 
ATOM     47  C   UNL A   1      39.943  30.000  30.487  1.00  0.00     0.034 A 
ATOM     48  C   UNL A   1      45.762  29.247  27.672  1.00  0.00     0.049 A 
ATOM     49  C   UNL A   1      41.130  30.911  30.303  1.00  0.00     0.074 A 
ATOM     50  C   UNL A   1      46.808  30.150  27.614  1.00  0.00     0.029 A 
ATOM     51  N   UNL A   1      44.709  29.883  28.304  1.00  0.00    -0.354 N 
ATOM     52  N   UNL A   1      42.251  30.685  29.665  1.00  0.00    -0.248 NA
ATOM     53  C   UNL A   1      41.030  32.263  30.879  1.00  0.00     0.031 C 
ATOM     54  C   UNL A   1      46.374  31.350  28.182  1.00  0.00     0.029 A 
ATOM     55  C   UNL A   1      45.064  31.184  28.604  1.00  0.00     0.049 A 
ATOM     56  H   UNL A   1      43.838  29.472  28.509  1.00  0.00     0.167 HD
ATOM     57  C   UNL A   1      42.970  31.873  29.728  1.00  0.00     0.074 A 
ATOM     58  C   UNL A   1      42.158  32.822  30.457  1.00  0.00     0.031 C 
ATOM     59  C   UNL A   1      44.203  32.144  29.240  1.00  0.00     0.034 A 
BRANCH  46  60
ATOM     60  C   UNL A   1      46.907  27.400  26.404  1.00  0.00     0.023 A 
ATOM     61  C   UNL A   1      47.784  26.514  27.061  1.00  0.00     0.012 A 
ATOM     62  C   UNL A   1      47.129  27.730  25.054  1.00  0.00     0.148 A 
ATOM     63  C   UNL A   1      48.882  25.979  26.392  1.00  0.00     0.002 A 
ATOM     64  C   UNL A   1      48.209  27.168  24.384  1.00  0.00     0.091 A 
ATOM     65  F   UNL A   1      46.279  28.576  24.454  1.00  0.00    -0.205 F 
ATOM     66  C   UNL A   1      49.090  26.299  25.053  1.00  0.00     0.022 A 
BRANCH  64  67
ATOM     67  S   UNL A   1      48.548  27.473  22.647  1.00  0.00     0.127 S 
ATOM     68  O   UNL A   1      49.815  28.203  22.714  1.00  0.00    -0.237 OA
ATOM     69  O   UNL A   1      48.655  26.115  22.116  1.00  0.00    -0.237 OA
ATOM     70  O   UNL A   1      47.423  28.249  22.144  1.00  0.00    -0.744 OA
ENDBRANCH  64  67
ENDBRANCH  46  60
BRANCH  47  71
ATOM     71  C   UNL A   1      38.696  30.522  31.115  1.00  0.00     0.023 A 
ATOM     72  C   UNL A   1      38.516  30.333  32.501  1.00  0.00     0.012 A 
ATOM     73  C   UNL A   1      37.697  31.181  30.377  1.00  0.00     0.148 A 
ATOM     74  C   UNL A   1      37.350  30.763  33.136  1.00  0.00     0.002 A 
ATOM     75  C   UNL A   1      36.550  31.636  31.021  1.00  0.00     0.091 A 
ATOM     76  F   UNL A   1      37.880  31.337  29.058  1.00  0.00    -0.205 F 
ATOM     77  C   UNL A   1      36.371  31.418  32.398  1.00  0.00     0.022 A 
BRANCH  75  78
ATOM     78  S   UNL A   1      35.261  32.556  30.173  1.00  0.00     0.127 S 
ATOM     79  O   UNL A   1      34.297  32.780  31.247  1.00  0.00    -0.237 OA
ATOM     80  O   UNL A   1      35.981  33.753  29.732  1.00  0.00    -0.237 OA
ATOM     81  O   UNL A   1      34.814  31.692  29.088  1.00  0.00    -0.744 OA
ENDBRANCH  75  78
ENDBRANCH  47  71
BRANCH  59  82
ATOM     82  C   UNL A   1      44.755  33.530  29.414  1.00  0.00     0.023 A 
ATOM     83  C   UNL A   1      45.495  33.834  30.571  1.00  0.00     0.012 A 
ATOM     84  C   UNL A   1      44.673  34.467  28.367  1.00  0.00     0.148 A 
ATOM     85  C   UNL A   1      46.150  35.059  30.683  1.00  0.00     0.002 A 
ATOM     86  C   UNL A   1      45.354  35.673  28.473  1.00  0.00     0.091 A 
ATOM     87  F   UNL A   1      43.948  34.154  27.283  1.00  0.00    -0.205 F 
ATOM     88  C   UNL A   1      46.092  35.971  29.631  1.00  0.00     0.022 A 
BRANCH  86  89
ATOM     89  S   UNL A   1      45.404  36.870  27.135  1.00  0.00     0.127 S 
ATOM     90  O   UNL A   1      43.984  37.167  26.948  1.00  0.00    -0.237 OA
ATOM     91  O   UNL A   1      46.182  37.962  27.720  1.00  0.00    -0.237 OA
ATOM     92  O   UNL A   1      46.055  36.198  26.019  1.00  0.00    -0.744 OA
ENDBRANCH  86  89
ENDBRANCH  59  82
ENDBRANCH  33  34
ENDBRANCH  26  28
ENDBRANCH  25  26
ENDBRANCH   1  25
TORSDOF 16
ENDMDL
