MODEL 1
REMARK VINA RESULT:     -13.1      0.000      0.000
REMARK SMILES O=C(OCCOC(=O)[C@H]1[C@H]2CC[C@H](CC2)[C@@H]1C(=O)Nc1sc2c(c1C(=O)N1CCCCC1)CCCC2)c1ccc(-c2c3nc(c(-c4cccc(S(=O)(=O)[O-])c4F)c4ccc([nH]4)c(-c4cccc(S(=O)(=O)[O-])c4F)c4nc(c(-c5cccc(S(=O)(=O)[O-])c5F)c5ccc2[nH]5)C=C4)C=C3)cc1
REMARK SMILES IDX 4 1 3 2 2 3 1 4 37 5 38 6 99 7 39 8 98 9 40 10 41 11 42 12
REMARK SMILES IDX 92 13 43 14 97 15 91 16 93 17 44 18 96 19 90 20 89 21 45 23
REMARK SMILES IDX 77 24 57 25 76 26 58 27 61 28 75 29 94 30 59 31 60 32 74 34
REMARK SMILES IDX 95 35 62 36 46 37 47 38 55 39 48 40 50 41 56 42 49 43 51 44
REMARK SMILES IDX 52 45 53 46 54 47 78 48 79 49 87 50 80 51 82 52 88 53 81 54
REMARK SMILES IDX 83 55 84 56 85 57 86 58 63 59 64 60 72 61 65 62 67 63 73 64
REMARK SMILES IDX 66 65 68 66 69 67 70 68 71 69 5 70 6 71 7 72 8 73 9 74 10 75
REMARK SMILES IDX 16 76 15 77 11 78 13 79 14 80 12 81 17 82 18 83 19 84 20 86
REMARK SMILES IDX 21 87 24 88 22 89 23 90 36 91 33 92 35 93 34 94 25 95 26 96
REMARK SMILES IDX 27 97 28 98 32 99 29 100 31 101 30 102
REMARK H PARENT 93 22 61 33 19 85
REMARK Flexibility Score: inf
ROOT
ATOM      1  C   UNL A   1      36.400  23.311  24.873  1.00  0.00     0.275 C 
ENDROOT
BRANCH   1   2
ATOM      2  O   UNL A   1      37.144  22.962  26.047  1.00  0.00    -0.458 OA
BRANCH   2   3
ATOM      3  C   UNL A   1      38.483  22.998  26.223  1.00  0.00     0.338 C 
ATOM      4  O   UNL A   1      39.124  21.948  26.164  1.00  0.00    -0.246 OA
BRANCH   3   5
ATOM      5  C   UNL A   1      39.192  24.236  26.651  1.00  0.00     0.060 A 
ATOM      6  C   UNL A   1      40.050  25.015  25.866  1.00  0.00     0.016 A 
ATOM      7  C   UNL A   1      38.977  24.618  27.976  1.00  0.00     0.016 A 
ATOM      8  C   UNL A   1      40.571  26.231  26.352  1.00  0.00     0.010 A 
ATOM      9  C   UNL A   1      39.493  25.822  28.453  1.00  0.00     0.010 A 
ATOM     10  C   UNL A   1      40.259  26.677  27.640  1.00  0.00    -0.014 A 
BRANCH  10  11
ATOM     11  C   UNL A   1      40.677  28.011  28.180  1.00  0.00     0.031 A 
ATOM     12  C   UNL A   1      42.113  28.211  28.606  1.00  0.00     0.074 A 
ATOM     13  C   UNL A   1      39.779  28.981  28.479  1.00  0.00     0.049 A 
ATOM     14  N   UNL A   1      42.659  29.226  29.222  1.00  0.00    -0.248 NA
ATOM     15  C   UNL A   1      43.049  27.103  28.338  1.00  0.00     0.031 C 
ATOM     16  C   UNL A   1      38.336  28.936  28.234  1.00  0.00     0.029 A 
ATOM     17  N   UNL A   1      39.944  30.173  29.153  1.00  0.00    -0.354 N 
ATOM     18  C   UNL A   1      43.995  28.885  29.379  1.00  0.00     0.074 A 
ATOM     19  C   UNL A   1      44.131  27.503  28.985  1.00  0.00     0.031 C 
ATOM     20  C   UNL A   1      37.740  29.969  28.863  1.00  0.00     0.029 A 
ATOM     21  C   UNL A   1      38.759  30.782  29.512  1.00  0.00     0.049 A 
ATOM     22  H   UNL A   1      40.828  30.555  29.360  1.00  0.00     0.167 HD
ATOM     23  C   UNL A   1      45.053  29.687  29.650  1.00  0.00     0.034 A 
ATOM     24  C   UNL A   1      38.521  31.872  30.272  1.00  0.00     0.034 A 
ATOM     25  C   UNL A   1      44.936  31.087  29.927  1.00  0.00     0.049 A 
ATOM     26  C   UNL A   1      39.689  32.743  30.656  1.00  0.00     0.074 A 
ATOM     27  C   UNL A   1      45.929  32.045  30.002  1.00  0.00     0.029 A 
ATOM     28  N   UNL A   1      43.735  31.730  30.168  1.00  0.00    -0.354 N 
ATOM     29  N   UNL A   1      40.970  32.522  30.487  1.00  0.00    -0.248 NA
ATOM     30  C   UNL A   1      39.378  34.073  31.203  1.00  0.00     0.031 C 
ATOM     31  C   UNL A   1      45.320  33.277  30.272  1.00  0.00     0.029 A 
ATOM     32  C   UNL A   1      43.953  33.078  30.378  1.00  0.00     0.049 A 
ATOM     33  H   UNL A   1      42.853  31.291  30.189  1.00  0.00     0.167 HD
ATOM     34  C   UNL A   1      41.601  33.724  30.781  1.00  0.00     0.074 A 
ATOM     35  C   UNL A   1      40.570  34.653  31.193  1.00  0.00     0.031 C 
ATOM     36  C   UNL A   1      42.917  34.031  30.680  1.00  0.00     0.034 A 
BRANCH  23  37
ATOM     37  C   UNL A   1      46.409  29.084  29.407  1.00  0.00     0.023 A 
ATOM     38  C   UNL A   1      47.031  28.418  30.489  1.00  0.00     0.012 A 
ATOM     39  C   UNL A   1      47.093  29.208  28.186  1.00  0.00     0.148 A 
ATOM     40  C   UNL A   1      48.340  27.959  30.391  1.00  0.00     0.002 A 
ATOM     41  C   UNL A   1      48.387  28.705  28.082  1.00  0.00     0.091 A 
ATOM     42  F   UNL A   1      46.488  29.844  27.174  1.00  0.00    -0.205 F 
ATOM     43  C   UNL A   1      49.016  28.103  29.187  1.00  0.00     0.022 A 
BRANCH  41  44
ATOM     44  S   UNL A   1      49.349  28.784  26.570  1.00  0.00     0.127 S 
ATOM     45  O   UNL A   1      50.458  27.881  26.877  1.00  0.00    -0.237 OA
ATOM     46  O   UNL A   1      48.401  28.270  25.580  1.00  0.00    -0.237 OA
ATOM     47  O   UNL A   1      49.718  30.182  26.397  1.00  0.00    -0.744 OA
ENDBRANCH  41  44
ENDBRANCH  23  37
BRANCH  24  48
ATOM     48  C   UNL A   1      37.136  32.334  30.582  1.00  0.00     0.023 A 
ATOM     49  C   UNL A   1      36.539  31.927  31.794  1.00  0.00     0.012 A 
ATOM     50  C   UNL A   1      36.369  33.059  29.647  1.00  0.00     0.148 A 
ATOM     51  C   UNL A   1      35.194  32.195  32.050  1.00  0.00     0.002 A 
ATOM     52  C   UNL A   1      35.029  33.331  29.917  1.00  0.00     0.091 A 
ATOM     53  F   UNL A   1      36.950  33.421  28.495  1.00  0.00    -0.205 F 
ATOM     54  C   UNL A   1      34.439  32.893  31.113  1.00  0.00     0.022 A 
BRANCH  52  55
ATOM     55  S   UNL A   1      33.957  34.216  28.775  1.00  0.00     0.127 S 
ATOM     56  O   UNL A   1      32.843  34.589  29.645  1.00  0.00    -0.237 OA
ATOM     57  O   UNL A   1      34.808  35.331  28.361  1.00  0.00    -0.237 OA
ATOM     58  O   UNL A   1      33.638  33.263  27.720  1.00  0.00    -0.744 OA
ENDBRANCH  52  55
ENDBRANCH  24  48
BRANCH  36  59
ATOM     59  C   UNL A   1      43.333  35.460  30.889  1.00  0.00     0.023 A 
ATOM     60  C   UNL A   1      43.798  35.887  32.145  1.00  0.00     0.012 A 
ATOM     61  C   UNL A   1      43.365  36.349  29.795  1.00  0.00     0.148 A 
ATOM     62  C   UNL A   1      44.278  37.185  32.313  1.00  0.00     0.002 A 
ATOM     63  C   UNL A   1      43.893  37.622  29.958  1.00  0.00     0.091 A 
ATOM     64  F   UNL A   1      42.885  35.932  28.614  1.00  0.00    -0.205 F 
ATOM     65  C   UNL A   1      44.343  38.045  31.218  1.00  0.00     0.022 A 
BRANCH  63  66
ATOM     66  S   UNL A   1      44.123  38.740  28.570  1.00  0.00     0.127 S 
ATOM     67  O   UNL A   1      44.957  37.943  27.675  1.00  0.00    -0.237 OA
ATOM     68  O   UNL A   1      42.751  38.947  28.102  1.00  0.00    -0.237 OA
ATOM     69  O   UNL A   1      44.750  39.934  29.123  1.00  0.00    -0.744 OA
ENDBRANCH  63  66
ENDBRANCH  36  59
ENDBRANCH  10  11
ENDBRANCH   3   5
ENDBRANCH   2   3
ENDBRANCH   1   2
BRANCH   1  70
ATOM     70  C   UNL A   1      35.590  22.193  24.216  1.00  0.00     0.274 C 
BRANCH  70  71
ATOM     71  O   UNL A   1      34.299  22.590  23.725  1.00  0.00    -0.462 OA
BRANCH  71  72
ATOM     72  C   UNL A   1      33.274  21.781  24.104  1.00  0.00     0.310 C 
ATOM     73  O   UNL A   1      33.280  20.569  23.916  1.00  0.00    -0.252 OA
BRANCH  72  74
ATOM     74  C   UNL A   1      32.112  22.480  24.807  1.00  0.00     0.115 C 
ATOM     75  C   UNL A   1      32.025  22.341  26.342  1.00  0.00     0.004 C 
ATOM     76  C   UNL A   1      32.041  23.970  24.394  1.00  0.00     0.096 C 
ATOM     77  C   UNL A   1      33.078  23.213  27.024  1.00  0.00     0.005 C 
ATOM     78  C   UNL A   1      30.660  22.883  26.813  1.00  0.00     0.005 C 
ATOM     79  C   UNL A   1      31.773  24.838  25.660  1.00  0.00     0.002 C 
ATOM     80  C   UNL A   1      32.975  24.665  26.584  1.00  0.00     0.005 C 
ATOM     81  C   UNL A   1      30.521  24.359  26.416  1.00  0.00     0.005 C 
BRANCH  76  82
ATOM     82  C   UNL A   1      31.119  24.493  23.272  1.00  0.00     0.229 C 
ATOM     83  O   UNL A   1      30.187  23.773  22.887  1.00  0.00    -0.274 OA
ATOM     84  N   UNL A   1      31.381  25.605  22.518  1.00  0.00    -0.317 N 
ATOM     85  H   UNL A   1      31.299  25.540  21.540  1.00  0.00     0.170 HD
BRANCH  84  86
ATOM     86  C   UNL A   1      31.755  26.806  23.066  1.00  0.00     0.108 A 
ATOM     87  S   UNL A   1      33.435  27.038  23.173  1.00  0.00    -0.122 S 
ATOM     88  C   UNL A   1      31.024  27.872  23.572  1.00  0.00     0.078 A 
ATOM     89  C   UNL A   1      33.190  28.116  24.467  1.00  0.00     0.011 A 
ATOM     90  C   UNL A   1      31.891  28.608  24.490  1.00  0.00    -0.019 A 
ATOM     91  C   UNL A   1      34.258  28.396  25.479  1.00  0.00     0.047 C 
ATOM     92  C   UNL A   1      31.472  29.592  25.544  1.00  0.00     0.037 C 
ATOM     93  C   UNL A   1      33.650  29.068  26.721  1.00  0.00     0.006 C 
ATOM     94  C   UNL A   1      32.668  30.168  26.318  1.00  0.00     0.005 C 
BRANCH  88  95
ATOM     95  C   UNL A   1      29.570  27.996  23.373  1.00  0.00     0.257 C 
ATOM     96  O   UNL A   1      28.811  27.043  23.532  1.00  0.00    -0.269 OA
ATOM     97  N   UNL A   1      29.053  29.236  22.988  1.00  0.00    -0.339 N 
ATOM     98  C   UNL A   1      27.643  29.460  23.283  1.00  0.00     0.120 C 
ATOM     99  C   UNL A   1      29.582  29.960  21.840  1.00  0.00     0.120 C 
ATOM    100  C   UNL A   1      27.376  30.942  23.488  1.00  0.00     0.022 C 
ATOM    101  C   UNL A   1      29.269  31.457  21.899  1.00  0.00     0.022 C 
ATOM    102  C   UNL A   1      27.813  31.742  22.263  1.00  0.00     0.004 C 
ENDBRANCH  88  95
ENDBRANCH  84  86
ENDBRANCH  76  82
ENDBRANCH  72  74
ENDBRANCH  71  72
ENDBRANCH  70  71
ENDBRANCH   1  70
TORSDOF 17
ENDMDL
MODEL 2
REMARK VINA RESULT:     -13.0      1.210      1.613
REMARK SMILES O=C(OCCOC(=O)[C@H]1[C@H]2CC[C@H](CC2)[C@@H]1C(=O)Nc1sc2c(c1C(=O)N1CCCCC1)CCCC2)c1ccc(-c2c3nc(c(-c4cccc(S(=O)(=O)[O-])c4F)c4ccc([nH]4)c(-c4cccc(S(=O)(=O)[O-])c4F)c4nc(c(-c5cccc(S(=O)(=O)[O-])c5F)c5ccc2[nH]5)C=C4)C=C3)cc1
REMARK SMILES IDX 4 1 3 2 2 3 1 4 37 5 38 6 99 7 39 8 98 9 40 10 41 11 42 12
REMARK SMILES IDX 92 13 43 14 97 15 91 16 93 17 44 18 96 19 90 20 89 21 45 23
REMARK SMILES IDX 77 24 57 25 76 26 58 27 61 28 75 29 94 30 59 31 60 32 74 34
REMARK SMILES IDX 95 35 62 36 46 37 47 38 55 39 48 40 50 41 56 42 49 43 51 44
REMARK SMILES IDX 52 45 53 46 54 47 78 48 79 49 87 50 80 51 82 52 88 53 81 54
REMARK SMILES IDX 83 55 84 56 85 57 86 58 63 59 64 60 72 61 65 62 67 63 73 64
REMARK SMILES IDX 66 65 68 66 69 67 70 68 71 69 5 70 6 71 7 72 8 73 9 74 10 75
REMARK SMILES IDX 16 76 15 77 11 78 13 79 14 80 12 81 17 82 18 83 19 84 20 86
REMARK SMILES IDX 21 87 24 88 22 89 23 90 36 91 33 92 35 93 34 94 25 95 26 96
REMARK SMILES IDX 27 97 28 98 32 99 29 100 31 101 30 102
REMARK H PARENT 93 22 61 33 19 85
REMARK Flexibility Score: inf
ROOT
ATOM      1  C   UNL A   1      37.204  22.869  25.315  1.00  0.00     0.275 C 
ENDROOT
BRANCH   1   2
ATOM      2  O   UNL A   1      38.333  22.094  25.736  1.00  0.00    -0.458 OA
BRANCH   2   3
ATOM      3  C   UNL A   1      39.398  22.504  26.460  1.00  0.00     0.338 C 
ATOM      4  O   UNL A   1      40.221  21.670  26.840  1.00  0.00    -0.246 OA
BRANCH   3   5
ATOM      5  C   UNL A   1      39.528  23.901  26.957  1.00  0.00     0.060 A 
ATOM      6  C   UNL A   1      39.042  24.399  28.172  1.00  0.00     0.016 A 
ATOM      7  C   UNL A   1      40.183  24.782  26.095  1.00  0.00     0.016 A 
ATOM      8  C   UNL A   1      39.329  25.717  28.580  1.00  0.00     0.010 A 
ATOM      9  C   UNL A   1      40.467  26.084  26.503  1.00  0.00     0.010 A 
ATOM     10  C   UNL A   1      40.090  26.566  27.771  1.00  0.00    -0.014 A 
BRANCH  10  11
ATOM     11  C   UNL A   1      40.535  27.935  28.189  1.00  0.00     0.031 A 
ATOM     12  C   UNL A   1      41.992  28.163  28.513  1.00  0.00     0.074 A 
ATOM     13  C   UNL A   1      39.652  28.924  28.470  1.00  0.00     0.049 A 
ATOM     14  N   UNL A   1      42.570  29.220  29.023  1.00  0.00    -0.248 NA
ATOM     15  C   UNL A   1      42.915  27.038  28.271  1.00  0.00     0.031 C 
ATOM     16  C   UNL A   1      38.197  28.863  28.316  1.00  0.00     0.029 A 
ATOM     17  N   UNL A   1      39.852  30.161  29.047  1.00  0.00    -0.354 N 
ATOM     18  C   UNL A   1      43.914  28.890  29.124  1.00  0.00     0.074 A 
ATOM     19  C   UNL A   1      44.032  27.483  28.822  1.00  0.00     0.031 C 
ATOM     20  C   UNL A   1      37.636  29.938  28.903  1.00  0.00     0.029 A 
ATOM     21  C   UNL A   1      38.688  30.795  29.431  1.00  0.00     0.049 A 
ATOM     22  H   UNL A   1      40.746  30.556  29.173  1.00  0.00     0.167 HD
ATOM     23  C   UNL A   1      44.983  29.709  29.274  1.00  0.00     0.034 A 
ATOM     24  C   UNL A   1      38.492  31.936  30.124  1.00  0.00     0.034 A 
ATOM     25  C   UNL A   1      44.879  31.125  29.457  1.00  0.00     0.049 A 
ATOM     26  C   UNL A   1      39.678  32.832  30.374  1.00  0.00     0.074 A 
ATOM     27  C   UNL A   1      45.870  32.085  29.404  1.00  0.00     0.029 A 
ATOM     28  N   UNL A   1      43.691  31.784  29.722  1.00  0.00    -0.354 N 
ATOM     29  N   UNL A   1      40.947  32.598  30.146  1.00  0.00    -0.248 NA
ATOM     30  C   UNL A   1      39.395  34.198  30.843  1.00  0.00     0.031 C 
ATOM     31  C   UNL A   1      45.275  33.334  29.620  1.00  0.00     0.029 A 
ATOM     32  C   UNL A   1      43.917  33.143  29.821  1.00  0.00     0.049 A 
ATOM     33  H   UNL A   1      42.814  31.348  29.826  1.00  0.00     0.167 HD
ATOM     34  C   UNL A   1      41.590  33.818  30.316  1.00  0.00     0.074 A 
ATOM     35  C   UNL A   1      40.583  34.775  30.721  1.00  0.00     0.031 C 
ATOM     36  C   UNL A   1      42.897  34.117  30.115  1.00  0.00     0.034 A 
BRANCH  23  37
ATOM     37  C   UNL A   1      46.325  29.088  28.994  1.00  0.00     0.023 A 
ATOM     38  C   UNL A   1      47.119  28.722  30.107  1.00  0.00     0.012 A 
ATOM     39  C   UNL A   1      46.834  28.920  27.696  1.00  0.00     0.148 A 
ATOM     40  C   UNL A   1      48.425  28.276  29.938  1.00  0.00     0.002 A 
ATOM     41  C   UNL A   1      48.126  28.430  27.534  1.00  0.00     0.091 A 
ATOM     42  F   UNL A   1      46.067  29.275  26.656  1.00  0.00    -0.205 F 
ATOM     43  C   UNL A   1      48.927  28.130  28.651  1.00  0.00     0.022 A 
BRANCH  41  44
ATOM     44  S   UNL A   1      48.874  28.150  25.927  1.00  0.00     0.127 S 
ATOM     45  O   UNL A   1      49.902  29.190  25.894  1.00  0.00    -0.237 OA
ATOM     46  O   UNL A   1      49.389  26.787  26.066  1.00  0.00    -0.237 OA
ATOM     47  O   UNL A   1      47.805  28.304  24.951  1.00  0.00    -0.744 OA
ENDBRANCH  41  44
ENDBRANCH  23  37
BRANCH  24  48
ATOM     48  C   UNL A   1      37.126  32.421  30.482  1.00  0.00     0.023 A 
ATOM     49  C   UNL A   1      36.579  32.051  31.728  1.00  0.00     0.012 A 
ATOM     50  C   UNL A   1      36.326  33.129  29.562  1.00  0.00     0.148 A 
ATOM     51  C   UNL A   1      35.249  32.339  32.036  1.00  0.00     0.002 A 
ATOM     52  C   UNL A   1      35.001  33.422  29.882  1.00  0.00     0.091 A 
ATOM     53  F   UNL A   1      36.859  33.456  28.377  1.00  0.00    -0.205 F 
ATOM     54  C   UNL A   1      34.460  33.021  31.114  1.00  0.00     0.022 A 
BRANCH  52  55
ATOM     55  S   UNL A   1      33.888  34.288  28.765  1.00  0.00     0.127 S 
ATOM     56  O   UNL A   1      33.515  33.222  27.837  1.00  0.00    -0.237 OA
ATOM     57  O   UNL A   1      32.819  34.712  29.670  1.00  0.00    -0.237 OA
ATOM     58  O   UNL A   1      34.674  35.372  28.194  1.00  0.00    -0.744 OA
ENDBRANCH  52  55
ENDBRANCH  24  48
BRANCH  36  59
ATOM     59  C   UNL A   1      43.319  35.556  30.196  1.00  0.00     0.023 A 
ATOM     60  C   UNL A   1      43.305  36.366  29.047  1.00  0.00     0.012 A 
ATOM     61  C   UNL A   1      43.624  36.129  31.448  1.00  0.00     0.148 A 
ATOM     62  C   UNL A   1      43.600  37.726  29.141  1.00  0.00     0.002 A 
ATOM     63  C   UNL A   1      43.865  37.493  31.541  1.00  0.00     0.091 A 
ATOM     64  F   UNL A   1      43.665  35.332  32.526  1.00  0.00    -0.205 F 
ATOM     65  C   UNL A   1      43.861  38.292  30.388  1.00  0.00     0.022 A 
BRANCH  63  66
ATOM     66  S   UNL A   1      44.086  38.312  33.125  1.00  0.00     0.127 S 
ATOM     67  O   UNL A   1      42.841  37.981  33.814  1.00  0.00    -0.237 OA
ATOM     68  O   UNL A   1      45.276  37.647  33.660  1.00  0.00    -0.237 OA
ATOM     69  O   UNL A   1      44.281  39.723  32.817  1.00  0.00    -0.744 OA
ENDBRANCH  63  66
ENDBRANCH  36  59
ENDBRANCH  10  11
ENDBRANCH   3   5
ENDBRANCH   2   3
ENDBRANCH   1   2
BRANCH   1  70
ATOM     70  C   UNL A   1      36.654  22.576  23.919  1.00  0.00     0.274 C 
BRANCH  70  71
ATOM     71  O   UNL A   1      35.341  21.992  23.896  1.00  0.00    -0.462 OA
BRANCH  71  72
ATOM     72  C   UNL A   1      34.367  22.805  23.408  1.00  0.00     0.310 C 
ATOM     73  O   UNL A   1      34.534  23.534  22.436  1.00  0.00    -0.252 OA
BRANCH  72  74
ATOM     74  C   UNL A   1      33.028  22.737  24.141  1.00  0.00     0.115 C 
ATOM     75  C   UNL A   1      33.007  22.033  25.515  1.00  0.00     0.004 C 
ATOM     76  C   UNL A   1      32.390  24.144  24.244  1.00  0.00     0.096 C 
ATOM     77  C   UNL A   1      33.649  22.916  26.584  1.00  0.00     0.005 C 
ATOM     78  C   UNL A   1      31.541  21.841  25.952  1.00  0.00     0.005 C 
ATOM     79  C   UNL A   1      31.815  24.339  25.679  1.00  0.00     0.002 C 
ATOM     80  C   UNL A   1      32.995  24.288  26.645  1.00  0.00     0.005 C 
ATOM     81  C   UNL A   1      30.845  23.205  26.057  1.00  0.00     0.005 C 
BRANCH  76  82
ATOM     82  C   UNL A   1      31.334  24.667  23.248  1.00  0.00     0.229 C 
ATOM     83  O   UNL A   1      30.423  23.906  22.896  1.00  0.00    -0.274 OA
ATOM     84  N   UNL A   1      31.447  25.843  22.556  1.00  0.00    -0.317 N 
ATOM     85  H   UNL A   1      31.279  25.836  21.587  1.00  0.00     0.170 HD
BRANCH  84  86
ATOM     86  C   UNL A   1      31.785  27.031  23.155  1.00  0.00     0.108 A 
ATOM     87  S   UNL A   1      33.457  27.274  23.339  1.00  0.00    -0.122 S 
ATOM     88  C   UNL A   1      31.023  28.075  23.661  1.00  0.00     0.078 A 
ATOM     89  C   UNL A   1      33.147  28.311  24.653  1.00  0.00     0.011 A 
ATOM     90  C   UNL A   1      31.843  28.790  24.635  1.00  0.00    -0.019 A 
ATOM     91  C   UNL A   1      34.169  28.570  25.717  1.00  0.00     0.047 C 
ATOM     92  C   UNL A   1      31.370  29.739  25.699  1.00  0.00     0.037 C 
ATOM     93  C   UNL A   1      33.502  29.199  26.951  1.00  0.00     0.006 C 
ATOM     94  C   UNL A   1      32.527  30.302  26.540  1.00  0.00     0.005 C 
BRANCH  88  95
ATOM     95  C   UNL A   1      29.578  28.192  23.404  1.00  0.00     0.257 C 
ATOM     96  O   UNL A   1      28.820  27.231  23.512  1.00  0.00    -0.269 OA
ATOM     97  N   UNL A   1      29.066  29.435  23.022  1.00  0.00    -0.339 N 
ATOM     98  C   UNL A   1      27.644  29.643  23.262  1.00  0.00     0.120 C 
ATOM     99  C   UNL A   1      29.637  30.186  21.911  1.00  0.00     0.120 C 
ATOM    100  C   UNL A   1      27.356  31.119  23.485  1.00  0.00     0.022 C 
ATOM    101  C   UNL A   1      29.309  31.679  21.986  1.00  0.00     0.022 C 
ATOM    102  C   UNL A   1      27.837  31.946  22.295  1.00  0.00     0.004 C 
ENDBRANCH  88  95
ENDBRANCH  84  86
ENDBRANCH  76  82
ENDBRANCH  72  74
ENDBRANCH  71  72
ENDBRANCH  70  71
ENDBRANCH   1  70
TORSDOF 17
ENDMDL
MODEL 3
REMARK VINA RESULT:     -12.8      1.691      2.132
REMARK SMILES O=C(OCCOC(=O)[C@H]1[C@H]2CC[C@H](CC2)[C@@H]1C(=O)Nc1sc2c(c1C(=O)N1CCCCC1)CCCC2)c1ccc(-c2c3nc(c(-c4cccc(S(=O)(=O)[O-])c4F)c4ccc([nH]4)c(-c4cccc(S(=O)(=O)[O-])c4F)c4nc(c(-c5cccc(S(=O)(=O)[O-])c5F)c5ccc2[nH]5)C=C4)C=C3)cc1
REMARK SMILES IDX 4 1 3 2 2 3 1 4 37 5 38 6 99 7 39 8 98 9 40 10 41 11 42 12
REMARK SMILES IDX 92 13 43 14 97 15 91 16 93 17 44 18 96 19 90 20 89 21 45 23
REMARK SMILES IDX 77 24 57 25 76 26 58 27 61 28 75 29 94 30 59 31 60 32 74 34
REMARK SMILES IDX 95 35 62 36 46 37 47 38 55 39 48 40 50 41 56 42 49 43 51 44
REMARK SMILES IDX 52 45 53 46 54 47 78 48 79 49 87 50 80 51 82 52 88 53 81 54
REMARK SMILES IDX 83 55 84 56 85 57 86 58 63 59 64 60 72 61 65 62 67 63 73 64
REMARK SMILES IDX 66 65 68 66 69 67 70 68 71 69 5 70 6 71 7 72 8 73 9 74 10 75
REMARK SMILES IDX 16 76 15 77 11 78 13 79 14 80 12 81 17 82 18 83 19 84 20 86
REMARK SMILES IDX 21 87 24 88 22 89 23 90 36 91 33 92 35 93 34 94 25 95 26 96
REMARK SMILES IDX 27 97 28 98 32 99 29 100 31 101 30 102
REMARK H PARENT 93 22 61 33 19 85
REMARK Flexibility Score: inf
ROOT
ATOM      1  C   UNL A   1      36.493  20.411  24.977  1.00  0.00     0.275 C 
ENDROOT
BRANCH   1   2
ATOM      2  O   UNL A   1      37.241  21.509  25.515  1.00  0.00    -0.458 OA
BRANCH   2   3
ATOM      3  C   UNL A   1      38.559  21.548  25.813  1.00  0.00     0.338 C 
ATOM      4  O   UNL A   1      39.242  20.537  25.646  1.00  0.00    -0.246 OA
BRANCH   3   5
ATOM      5  C   UNL A   1      39.182  22.718  26.492  1.00  0.00     0.060 A 
ATOM      6  C   UNL A   1      40.247  22.680  27.400  1.00  0.00     0.016 A 
ATOM      7  C   UNL A   1      38.612  23.955  26.191  1.00  0.00     0.016 A 
ATOM      8  C   UNL A   1      40.824  23.870  27.887  1.00  0.00     0.010 A 
ATOM      9  C   UNL A   1      39.186  25.130  26.674  1.00  0.00     0.010 A 
ATOM     10  C   UNL A   1      40.331  25.117  27.492  1.00  0.00    -0.014 A 
BRANCH  10  11
ATOM     11  C   UNL A   1      40.966  26.420  27.874  1.00  0.00     0.031 A 
ATOM     12  C   UNL A   1      42.472  26.538  27.843  1.00  0.00     0.074 A 
ATOM     13  C   UNL A   1      40.254  27.433  28.425  1.00  0.00     0.049 A 
ATOM     14  N   UNL A   1      43.233  27.516  28.259  1.00  0.00    -0.248 NA
ATOM     15  C   UNL A   1      43.221  25.385  27.309  1.00  0.00     0.031 C 
ATOM     16  C   UNL A   1      38.805  27.468  28.630  1.00  0.00     0.029 A 
ATOM     17  N   UNL A   1      40.680  28.607  29.012  1.00  0.00    -0.354 N 
ATOM     18  C   UNL A   1      44.533  27.102  28.005  1.00  0.00     0.074 A 
ATOM     19  C   UNL A   1      44.468  25.720  27.595  1.00  0.00     0.031 C 
ATOM     20  C   UNL A   1      38.485  28.524  29.405  1.00  0.00     0.029 A 
ATOM     21  C   UNL A   1      39.695  29.274  29.710  1.00  0.00     0.049 A 
ATOM     22  H   UNL A   1      41.605  28.938  28.939  1.00  0.00     0.167 HD
ATOM     23  C   UNL A   1      45.665  27.843  27.939  1.00  0.00     0.034 A 
ATOM     24  C   UNL A   1      39.758  30.366  30.501  1.00  0.00     0.034 A 
ATOM     25  C   UNL A   1      45.715  29.244  28.231  1.00  0.00     0.049 A 
ATOM     26  C   UNL A   1      41.033  31.169  30.508  1.00  0.00     0.074 A 
ATOM     27  C   UNL A   1      46.734  30.147  27.997  1.00  0.00     0.029 A 
ATOM     28  N   UNL A   1      44.679  29.947  28.822  1.00  0.00    -0.354 N 
ATOM     29  N   UNL A   1      42.188  30.882  29.960  1.00  0.00    -0.248 NA
ATOM     30  C   UNL A   1      40.976  32.508  31.117  1.00  0.00     0.031 C 
ATOM     31  C   UNL A   1      46.304  31.406  28.432  1.00  0.00     0.029 A 
ATOM     32  C   UNL A   1      45.024  31.279  28.948  1.00  0.00     0.049 A 
ATOM     33  H   UNL A   1      43.823  29.556  29.111  1.00  0.00     0.167 HD
ATOM     34  C   UNL A   1      42.944  32.045  30.043  1.00  0.00     0.074 A 
ATOM     35  C   UNL A   1      42.139  33.023  30.743  1.00  0.00     0.031 C 
ATOM     36  C   UNL A   1      44.182  32.283  29.545  1.00  0.00     0.034 A 
BRANCH  23  37
ATOM     37  C   UNL A   1      46.849  27.171  27.299  1.00  0.00     0.023 A 
ATOM     38  C   UNL A   1      47.740  26.473  28.147  1.00  0.00     0.012 A 
ATOM     39  C   UNL A   1      47.129  27.262  25.925  1.00  0.00     0.148 A 
ATOM     40  C   UNL A   1      48.931  25.946  27.657  1.00  0.00     0.002 A 
ATOM     41  C   UNL A   1      48.301  26.693  25.435  1.00  0.00     0.091 A 
ATOM     42  F   UNL A   1      46.274  27.929  25.139  1.00  0.00    -0.205 F 
ATOM     43  C   UNL A   1      49.210  26.057  26.301  1.00  0.00     0.022 A 
BRANCH  41  44
ATOM     44  S   UNL A   1      48.754  26.724  23.699  1.00  0.00     0.127 S 
ATOM     45  O   UNL A   1      50.210  26.604  23.771  1.00  0.00    -0.237 OA
ATOM     46  O   UNL A   1      48.068  25.537  23.186  1.00  0.00    -0.237 OA
ATOM     47  O   UNL A   1      48.261  27.990  23.175  1.00  0.00    -0.744 OA
ENDBRANCH  41  44
ENDBRANCH  23  37
BRANCH  24  48
ATOM     48  C   UNL A   1      38.560  30.898  31.214  1.00  0.00     0.023 A 
ATOM     49  C   UNL A   1      38.366  30.553  32.568  1.00  0.00     0.012 A 
ATOM     50  C   UNL A   1      37.560  31.629  30.541  1.00  0.00     0.148 A 
ATOM     51  C   UNL A   1      37.182  30.887  33.226  1.00  0.00     0.002 A 
ATOM     52  C   UNL A   1      36.384  31.968  31.209  1.00  0.00     0.091 A 
ATOM     53  F   UNL A   1      37.756  31.933  29.250  1.00  0.00    -0.205 F 
ATOM     54  C   UNL A   1      36.191  31.591  32.548  1.00  0.00     0.022 A 
BRANCH  52  55
ATOM     55  S   UNL A   1      35.035  32.867  30.430  1.00  0.00     0.127 S 
ATOM     56  O   UNL A   1      35.716  34.071  29.957  1.00  0.00    -0.237 OA
ATOM     57  O   UNL A   1      34.626  31.942  29.371  1.00  0.00    -0.237 OA
ATOM     58  O   UNL A   1      34.046  33.074  31.478  1.00  0.00    -0.744 OA
ENDBRANCH  52  55
ENDBRANCH  24  48
BRANCH  36  59
ATOM     59  C   UNL A   1      44.719  33.684  29.611  1.00  0.00     0.023 A 
ATOM     60  C   UNL A   1      45.444  34.114  30.736  1.00  0.00     0.012 A 
ATOM     61  C   UNL A   1      44.593  34.537  28.495  1.00  0.00     0.148 A 
ATOM     62  C   UNL A   1      46.028  35.381  30.754  1.00  0.00     0.002 A 
ATOM     63  C   UNL A   1      45.222  35.775  28.500  1.00  0.00     0.091 A 
ATOM     64  F   UNL A   1      43.869  34.121  27.446  1.00  0.00    -0.205 F 
ATOM     65  C   UNL A   1      45.933  36.202  29.632  1.00  0.00     0.022 A 
BRANCH  63  66
ATOM     66  S   UNL A   1      45.247  36.834  27.049  1.00  0.00     0.127 S 
ATOM     67  O   UNL A   1      45.841  35.955  26.044  1.00  0.00    -0.237 OA
ATOM     68  O   UNL A   1      43.826  37.122  26.844  1.00  0.00    -0.237 OA
ATOM     69  O   UNL A   1      46.043  37.997  27.421  1.00  0.00    -0.744 OA
ENDBRANCH  63  66
ENDBRANCH  36  59
ENDBRANCH  10  11
ENDBRANCH   3   5
ENDBRANCH   2   3
ENDBRANCH   1   2
BRANCH   1  70
ATOM     70  C   UNL A   1      34.970  20.538  25.013  1.00  0.00     0.274 C 
BRANCH  70  71
ATOM     71  O   UNL A   1      34.466  21.853  24.728  1.00  0.00    -0.462 OA
BRANCH  71  72
ATOM     72  C   UNL A   1      33.285  21.875  24.053  1.00  0.00     0.310 C 
ATOM     73  O   UNL A   1      33.144  21.372  22.943  1.00  0.00    -0.252 OA
BRANCH  72  74
ATOM     74  C   UNL A   1      32.127  22.554  24.781  1.00  0.00     0.115 C 
ATOM     75  C   UNL A   1      32.060  22.391  26.315  1.00  0.00     0.004 C 
ATOM     76  C   UNL A   1      32.039  24.050  24.392  1.00  0.00     0.096 C 
ATOM     77  C   UNL A   1      33.115  23.261  26.997  1.00  0.00     0.005 C 
ATOM     78  C   UNL A   1      30.698  22.915  26.812  1.00  0.00     0.005 C 
ATOM     79  C   UNL A   1      31.779  24.896  25.675  1.00  0.00     0.002 C 
ATOM     80  C   UNL A   1      32.995  24.718  26.581  1.00  0.00     0.005 C 
ATOM     81  C   UNL A   1      30.541  24.395  26.440  1.00  0.00     0.005 C 
BRANCH  76  82
ATOM     82  C   UNL A   1      31.098  24.582  23.291  1.00  0.00     0.229 C 
ATOM     83  O   UNL A   1      30.163  23.863  22.911  1.00  0.00    -0.274 OA
ATOM     84  N   UNL A   1      31.345  25.704  22.546  1.00  0.00    -0.317 N 
ATOM     85  H   UNL A   1      31.249  25.650  21.568  1.00  0.00     0.170 HD
BRANCH  84  86
ATOM     86  C   UNL A   1      31.723  26.900  23.103  1.00  0.00     0.108 A 
ATOM     87  S   UNL A   1      33.403  27.113  23.238  1.00  0.00    -0.122 S 
ATOM     88  C   UNL A   1      30.995  27.973  23.598  1.00  0.00     0.078 A 
ATOM     89  C   UNL A   1      33.148  28.191  24.530  1.00  0.00     0.011 A 
ATOM     90  C   UNL A   1      31.855  28.698  24.532  1.00  0.00    -0.019 A 
ATOM     91  C   UNL A   1      34.202  28.458  25.561  1.00  0.00     0.047 C 
ATOM     92  C   UNL A   1      31.428  29.685  25.581  1.00  0.00     0.037 C 
ATOM     93  C   UNL A   1      33.581  29.134  26.793  1.00  0.00     0.006 C 
ATOM     94  C   UNL A   1      32.617  30.246  26.376  1.00  0.00     0.005 C 
BRANCH  88  95
ATOM     95  C   UNL A   1      29.546  28.114  23.375  1.00  0.00     0.257 C 
ATOM     96  O   UNL A   1      28.778  27.161  23.485  1.00  0.00    -0.269 OA
ATOM     97  N   UNL A   1      29.043  29.369  23.024  1.00  0.00    -0.339 N 
ATOM     98  C   UNL A   1      27.630  29.592  23.298  1.00  0.00     0.120 C 
ATOM     99  C   UNL A   1      29.600  30.130  21.912  1.00  0.00     0.120 C 
ATOM    100  C   UNL A   1      27.367  31.068  23.549  1.00  0.00     0.022 C 
ATOM    101  C   UNL A   1      29.295  31.626  22.018  1.00  0.00     0.022 C 
ATOM    102  C   UNL A   1      27.833  31.907  22.362  1.00  0.00     0.004 C 
ENDBRANCH  88  95
ENDBRANCH  84  86
ENDBRANCH  76  82
ENDBRANCH  72  74
ENDBRANCH  71  72
ENDBRANCH  70  71
ENDBRANCH   1  70
TORSDOF 17
ENDMDL
