MODEL 1
REMARK VINA RESULT:     -12.1      0.000      0.000
REMARK SMILES C[C@@H](c1cccc(O)c1)[N@H+]1[C@@H]2CC[C@H]1C[C@H](CC(=O)OCCOC(=O)c1ccc(-c3c4nc(c(-c5cccc(S(=O)(=O)[O-])c5F)c5ccc([nH]5)c(-c5cccc(S(=O)(=O)[O-])c5F)c5nc(c(-c6cccc(S(=O)(=O)[O-])c6F)c6ccc3[nH]6)C=C5)C=C4)cc1)C2
REMARK SMILES IDX 21 1 20 2 18 3 19 4 17 5 16 6 10 7 11 8 14 9 12 11 89 12
REMARK SMILES IDX 13 13 15 14 2 15 1 16 3 17 4 18 9 19 5 20 7 21 6 22 8 23
REMARK SMILES IDX 22 25 23 26 24 27 25 28 26 29 27 30 88 31 28 32 87 33 29 34
REMARK SMILES IDX 30 35 31 36 81 37 32 38 86 39 80 40 82 41 33 42 85 43 79 44
REMARK SMILES IDX 78 45 34 47 66 48 46 49 65 50 47 51 50 52 64 53 83 54 48 55
REMARK SMILES IDX 49 56 63 58 84 59 51 60 35 61 36 62 44 63 37 64 39 65 45 66
REMARK SMILES IDX 38 67 40 68 41 69 42 70 43 71 67 72 68 73 76 74 69 75 71 76
REMARK SMILES IDX 77 77 70 78 72 79 73 80 74 81 75 82 52 83 53 84 61 85 54 86
REMARK SMILES IDX 56 87 62 88 55 89 57 90 58 91 59 92 60 93
REMARK H PARENT 10 10 8 24 82 46 50 57
REMARK Flexibility Score: inf
ROOT
ATOM      1  C   UNL A   1      31.759  28.342  26.201  1.00  0.00     0.274 C 
ENDROOT
BRANCH   1   2
ATOM      2  O   UNL A   1      32.400  27.381  25.344  1.00  0.00    -0.462 OA
BRANCH   2   3
ATOM      3  C   UNL A   1      31.831  26.160  25.256  1.00  0.00     0.306 C 
ATOM      4  O   UNL A   1      30.905  25.872  24.501  1.00  0.00    -0.252 OA
BRANCH   3   5
ATOM      5  C   UNL A   1      32.497  25.129  26.149  1.00  0.00     0.126 C 
BRANCH   5   6
ATOM      6  C   UNL A   1      33.854  24.504  25.750  1.00  0.00     0.012 C 
ATOM      7  N   UNL A   1      34.331  21.925  24.374  1.00  0.00    -0.324 N 
ATOM      8  C   UNL A   1      34.678  23.166  23.677  1.00  0.00     0.185 C 
ATOM      9  C   UNL A   1      34.904  22.111  25.702  1.00  0.00     0.185 C 
ATOM     10  H   UNL A   1      34.734  21.077  23.974  1.00  0.00     0.349 HD
ATOM     11  C   UNL A   1      36.163  23.315  24.022  1.00  0.00     0.071 C 
ATOM     12  C   UNL A   1      33.869  24.354  24.205  1.00  0.00     0.069 C 
ATOM     13  C   UNL A   1      36.329  22.544  25.328  1.00  0.00     0.071 C 
ATOM     14  C   UNL A   1      34.215  23.214  26.518  1.00  0.00     0.069 C 
BRANCH   7  15
ATOM     15  C   UNL A   1      32.979  21.381  24.155  1.00  0.00     0.212 C 
ATOM     16  C   UNL A   1      32.394  22.075  22.917  1.00  0.00     0.081 C 
BRANCH  15  17
ATOM     17  C   UNL A   1      32.801  19.871  24.046  1.00  0.00     0.013 A 
ATOM     18  C   UNL A   1      32.553  19.219  22.823  1.00  0.00     0.010 A 
ATOM     19  C   UNL A   1      32.931  19.076  25.195  1.00  0.00     0.056 A 
ATOM     20  C   UNL A   1      32.556  17.821  22.736  1.00  0.00     0.004 A 
ATOM     21  C   UNL A   1      32.958  17.688  25.092  1.00  0.00     0.116 A 
ATOM     22  C   UNL A   1      32.784  17.051  23.872  1.00  0.00     0.046 A 
BRANCH  21  23
ATOM     23  O   UNL A   1      33.262  16.960  26.205  1.00  0.00    -0.508 OA
ATOM     24  H   UNL A   1      33.329  17.385  27.037  1.00  0.00     0.293 HD
ENDBRANCH  21  23
ENDBRANCH  15  17
ENDBRANCH   7  15
ENDBRANCH   5   6
ENDBRANCH   3   5
ENDBRANCH   2   3
ENDBRANCH   1   2
BRANCH   1  25
ATOM     25  C   UNL A   1      31.810  29.705  25.517  1.00  0.00     0.275 C 
BRANCH  25  26
ATOM     26  O   UNL A   1      33.119  30.267  25.712  1.00  0.00    -0.458 OA
BRANCH  26  27
ATOM     27  C   UNL A   1      33.230  31.094  26.780  1.00  0.00     0.338 C 
ATOM     28  O   UNL A   1      32.384  31.839  27.243  1.00  0.00    -0.246 OA
BRANCH  27  29
ATOM     29  C   UNL A   1      34.531  30.860  27.413  1.00  0.00     0.060 A 
ATOM     30  C   UNL A   1      34.826  29.578  27.874  1.00  0.00     0.016 A 
ATOM     31  C   UNL A   1      35.411  31.911  27.634  1.00  0.00     0.016 A 
ATOM     32  C   UNL A   1      35.970  29.347  28.627  1.00  0.00     0.010 A 
ATOM     33  C   UNL A   1      36.606  31.661  28.312  1.00  0.00     0.010 A 
ATOM     34  C   UNL A   1      36.885  30.384  28.838  1.00  0.00    -0.014 A 
BRANCH  34  35
ATOM     35  C   UNL A   1      38.134  30.147  29.606  1.00  0.00     0.031 A 
ATOM     36  C   UNL A   1      39.193  29.240  29.046  1.00  0.00     0.074 A 
ATOM     37  C   UNL A   1      38.292  30.702  30.824  1.00  0.00     0.049 A 
ATOM     38  N   UNL A   1      40.238  28.727  29.638  1.00  0.00    -0.248 NA
ATOM     39  C   UNL A   1      39.047  28.843  27.634  1.00  0.00     0.031 C 
ATOM     40  C   UNL A   1      37.345  31.615  31.469  1.00  0.00     0.029 A 
ATOM     41  N   UNL A   1      39.295  30.558  31.749  1.00  0.00    -0.354 N 
ATOM     42  C   UNL A   1      40.829  27.888  28.702  1.00  0.00     0.074 A 
ATOM     43  C   UNL A   1      40.036  27.972  27.495  1.00  0.00     0.031 C 
ATOM     44  C   UNL A   1      37.811  31.949  32.681  1.00  0.00     0.029 A 
ATOM     45  C   UNL A   1      39.047  31.218  32.931  1.00  0.00     0.049 A 
ATOM     46  H   UNL A   1      40.113  30.035  31.583  1.00  0.00     0.167 HD
ATOM     47  C   UNL A   1      41.937  27.121  28.837  1.00  0.00     0.034 A 
ATOM     48  C   UNL A   1      39.712  31.198  34.103  1.00  0.00     0.034 A 
ATOM     49  C   UNL A   1      42.759  27.098  30.017  1.00  0.00     0.049 A 
ATOM     50  C   UNL A   1      40.945  30.347  34.223  1.00  0.00     0.074 A 
ATOM     51  C   UNL A   1      43.927  26.391  30.240  1.00  0.00     0.029 A 
ATOM     52  N   UNL A   1      42.504  27.825  31.170  1.00  0.00    -0.354 N 
ATOM     53  N   UNL A   1      41.519  29.597  33.314  1.00  0.00    -0.248 NA
ATOM     54  C   UNL A   1      41.625  30.345  35.525  1.00  0.00     0.031 C 
ATOM     55  C   UNL A   1      44.377  26.689  31.532  1.00  0.00     0.029 A 
ATOM     56  C   UNL A   1      43.493  27.586  32.109  1.00  0.00     0.049 A 
ATOM     57  H   UNL A   1      41.734  28.424  31.302  1.00  0.00     0.167 HD
ATOM     58  C   UNL A   1      42.637  29.045  33.927  1.00  0.00     0.074 A 
ATOM     59  C   UNL A   1      42.676  29.573  35.276  1.00  0.00     0.031 C 
ATOM     60  C   UNL A   1      43.537  28.162  33.429  1.00  0.00     0.034 A 
BRANCH  47  61
ATOM     61  C   UNL A   1      42.341  26.264  27.668  1.00  0.00     0.023 A 
ATOM     62  C   UNL A   1      43.174  26.799  26.665  1.00  0.00     0.012 A 
ATOM     63  C   UNL A   1      41.933  24.918  27.584  1.00  0.00     0.148 A 
ATOM     64  C   UNL A   1      43.572  26.015  25.582  1.00  0.00     0.002 A 
ATOM     65  C   UNL A   1      42.363  24.134  26.519  1.00  0.00     0.091 A 
ATOM     66  F   UNL A   1      41.117  24.435  28.532  1.00  0.00    -0.205 F 
ATOM     67  C   UNL A   1      43.176  24.682  25.514  1.00  0.00     0.022 A 
BRANCH  65  68
ATOM     68  S   UNL A   1      41.956  22.389  26.384  1.00  0.00     0.127 S 
ATOM     69  O   UNL A   1      42.506  21.859  27.630  1.00  0.00    -0.237 OA
ATOM     70  O   UNL A   1      40.494  22.412  26.325  1.00  0.00    -0.237 OA
ATOM     71  O   UNL A   1      42.600  21.924  25.163  1.00  0.00    -0.744 OA
ENDBRANCH  65  68
ENDBRANCH  47  61
BRANCH  48  72
ATOM     72  C   UNL A   1      39.227  32.026  35.243  1.00  0.00     0.023 A 
ATOM     73  C   UNL A   1      38.308  31.471  36.155  1.00  0.00     0.012 A 
ATOM     74  C   UNL A   1      39.710  33.331  35.464  1.00  0.00     0.148 A 
ATOM     75  C   UNL A   1      37.868  32.206  37.256  1.00  0.00     0.002 A 
ATOM     76  C   UNL A   1      39.312  34.035  36.595  1.00  0.00     0.091 A 
ATOM     77  F   UNL A   1      40.565  33.854  34.574  1.00  0.00    -0.205 F 
ATOM     78  C   UNL A   1      38.380  33.480  37.486  1.00  0.00     0.022 A 
BRANCH  76  79
ATOM     79  S   UNL A   1      40.042  35.617  37.036  1.00  0.00     0.127 S 
ATOM     80  O   UNL A   1      41.463  35.287  37.091  1.00  0.00    -0.237 OA
ATOM     81  O   UNL A   1      39.650  36.463  35.908  1.00  0.00    -0.237 OA
ATOM     82  O   UNL A   1      39.421  35.989  38.300  1.00  0.00    -0.744 OA
ENDBRANCH  76  79
ENDBRANCH  48  72
BRANCH  60  83
ATOM     83  C   UNL A   1      44.647  27.720  34.342  1.00  0.00     0.023 A 
ATOM     84  C   UNL A   1      45.820  28.496  34.429  1.00  0.00     0.012 A 
ATOM     85  C   UNL A   1      44.503  26.585  35.161  1.00  0.00     0.148 A 
ATOM     86  C   UNL A   1      46.844  28.134  35.302  1.00  0.00     0.002 A 
ATOM     87  C   UNL A   1      45.510  26.253  36.059  1.00  0.00     0.091 A 
ATOM     88  F   UNL A   1      43.388  25.847  35.045  1.00  0.00    -0.205 F 
ATOM     89  C   UNL A   1      46.685  27.021  36.125  1.00  0.00     0.022 A 
BRANCH  87  90
ATOM     90  S   UNL A   1      45.347  24.886  37.213  1.00  0.00     0.127 S 
ATOM     91  O   UNL A   1      46.683  24.832  37.804  1.00  0.00    -0.237 OA
ATOM     92  O   UNL A   1      44.299  25.362  38.118  1.00  0.00    -0.237 OA
ATOM     93  O   UNL A   1      44.966  23.732  36.409  1.00  0.00    -0.744 OA
ENDBRANCH  87  90
ENDBRANCH  60  83
ENDBRANCH  34  35
ENDBRANCH  27  29
ENDBRANCH  26  27
ENDBRANCH  25  26
ENDBRANCH   1  25
TORSDOF 18
ENDMDL
MODEL 2
REMARK VINA RESULT:     -12.0      5.239     10.249
REMARK SMILES C[C@@H](c1cccc(O)c1)[N@H+]1[C@@H]2CC[C@H]1C[C@H](CC(=O)OCCOC(=O)c1ccc(-c3c4nc(c(-c5cccc(S(=O)(=O)[O-])c5F)c5ccc([nH]5)c(-c5cccc(S(=O)(=O)[O-])c5F)c5nc(c(-c6cccc(S(=O)(=O)[O-])c6F)c6ccc3[nH]6)C=C5)C=C4)cc1)C2
REMARK SMILES IDX 21 1 20 2 18 3 19 4 17 5 16 6 10 7 11 8 14 9 12 11 89 12
REMARK SMILES IDX 13 13 15 14 2 15 1 16 3 17 4 18 9 19 5 20 7 21 6 22 8 23
REMARK SMILES IDX 22 25 23 26 24 27 25 28 26 29 27 30 88 31 28 32 87 33 29 34
REMARK SMILES IDX 30 35 31 36 81 37 32 38 86 39 80 40 82 41 33 42 85 43 79 44
REMARK SMILES IDX 78 45 34 47 66 48 46 49 65 50 47 51 50 52 64 53 83 54 48 55
REMARK SMILES IDX 49 56 63 58 84 59 51 60 35 61 36 62 44 63 37 64 39 65 45 66
REMARK SMILES IDX 38 67 40 68 41 69 42 70 43 71 67 72 68 73 76 74 69 75 71 76
REMARK SMILES IDX 77 77 70 78 72 79 73 80 74 81 75 82 52 83 53 84 61 85 54 86
REMARK SMILES IDX 56 87 62 88 55 89 57 90 58 91 59 92 60 93
REMARK H PARENT 10 10 8 24 82 46 50 57
REMARK Flexibility Score: inf
ROOT
ATOM      1  C   UNL A   1      35.378  21.064  26.035  1.00  0.00     0.274 C 
ENDROOT
BRANCH   1   2
ATOM      2  O   UNL A   1      35.323  22.448  26.426  1.00  0.00    -0.462 OA
BRANCH   2   3
ATOM      3  C   UNL A   1      34.161  22.893  26.950  1.00  0.00     0.306 C 
ATOM      4  O   UNL A   1      33.523  22.317  27.828  1.00  0.00    -0.252 OA
BRANCH   3   5
ATOM      5  C   UNL A   1      33.734  24.237  26.390  1.00  0.00     0.126 C 
BRANCH   5   6
ATOM      6  C   UNL A   1      33.041  24.329  25.010  1.00  0.00     0.012 C 
ATOM      7  N   UNL A   1      33.015  26.627  23.141  1.00  0.00    -0.324 N 
ATOM      8  C   UNL A   1      33.703  25.398  22.733  1.00  0.00     0.185 C 
ATOM      9  C   UNL A   1      31.738  26.144  23.655  1.00  0.00     0.185 C 
ATOM     10  H   UNL A   1      32.821  27.285  22.386  1.00  0.00     0.349 HD
ATOM     11  C   UNL A   1      32.609  24.675  21.940  1.00  0.00     0.071 C 
ATOM     12  C   UNL A   1      34.143  24.571  23.944  1.00  0.00     0.069 C 
ATOM     13  C   UNL A   1      31.304  25.233  22.499  1.00  0.00     0.071 C 
ATOM     14  C   UNL A   1      31.867  25.329  24.950  1.00  0.00     0.069 C 
BRANCH   7  15
ATOM     15  C   UNL A   1      33.817  27.655  23.827  1.00  0.00     0.212 C 
ATOM     16  C   UNL A   1      34.324  28.637  22.761  1.00  0.00     0.081 C 
BRANCH  15  17
ATOM     17  C   UNL A   1      33.197  28.416  24.993  1.00  0.00     0.013 A 
ATOM     18  C   UNL A   1      33.579  28.204  26.331  1.00  0.00     0.010 A 
ATOM     19  C   UNL A   1      32.234  29.405  24.738  1.00  0.00     0.056 A 
ATOM     20  C   UNL A   1      33.105  29.031  27.358  1.00  0.00     0.004 A 
ATOM     21  C   UNL A   1      31.791  30.237  25.763  1.00  0.00     0.116 A 
ATOM     22  C   UNL A   1      32.226  30.070  27.069  1.00  0.00     0.046 A 
BRANCH  21  23
ATOM     23  O   UNL A   1      30.992  31.295  25.439  1.00  0.00    -0.508 OA
ATOM     24  H   UNL A   1      31.119  32.122  25.859  1.00  0.00     0.293 HD
ENDBRANCH  21  23
ENDBRANCH  15  17
ENDBRANCH   7  15
ENDBRANCH   5   6
ENDBRANCH   3   5
ENDBRANCH   2   3
ENDBRANCH   1   2
BRANCH   1  25
ATOM     25  C   UNL A   1      36.426  20.917  24.936  1.00  0.00     0.275 C 
BRANCH  25  26
ATOM     26  O   UNL A   1      37.456  21.895  25.151  1.00  0.00    -0.458 OA
BRANCH  26  27
ATOM     27  C   UNL A   1      38.544  21.441  25.820  1.00  0.00     0.338 C 
ATOM     28  O   UNL A   1      38.982  20.304  25.856  1.00  0.00    -0.246 OA
BRANCH  27  29
ATOM     29  C   UNL A   1      39.232  22.588  26.418  1.00  0.00     0.060 A 
ATOM     30  C   UNL A   1      38.791  23.871  26.098  1.00  0.00     0.016 A 
ATOM     31  C   UNL A   1      40.358  22.405  27.211  1.00  0.00     0.016 A 
ATOM     32  C   UNL A   1      39.513  24.986  26.503  1.00  0.00     0.010 A 
ATOM     33  C   UNL A   1      41.033  23.527  27.696  1.00  0.00     0.010 A 
ATOM     34  C   UNL A   1      40.633  24.827  27.326  1.00  0.00    -0.014 A 
BRANCH  34  35
ATOM     35  C   UNL A   1      41.395  26.008  27.804  1.00  0.00     0.031 A 
ATOM     36  C   UNL A   1      40.707  27.050  28.641  1.00  0.00     0.074 A 
ATOM     37  C   UNL A   1      42.684  26.171  27.444  1.00  0.00     0.049 A 
ATOM     38  N   UNL A   1      41.115  28.248  28.968  1.00  0.00    -0.248 NA
ATOM     39  C   UNL A   1      39.375  26.705  29.166  1.00  0.00     0.031 C 
ATOM     40  C   UNL A   1      43.468  25.222  26.651  1.00  0.00     0.029 A 
ATOM     41  N   UNL A   1      43.554  27.207  27.676  1.00  0.00    -0.354 N 
ATOM     42  C   UNL A   1      40.063  28.827  29.667  1.00  0.00     0.074 A 
ATOM     43  C   UNL A   1      39.004  27.844  29.732  1.00  0.00     0.031 C 
ATOM     44  C   UNL A   1      44.700  25.718  26.462  1.00  0.00     0.029 A 
ATOM     45  C   UNL A   1      44.770  27.048  27.053  1.00  0.00     0.049 A 
ATOM     46  H   UNL A   1      43.329  27.987  28.234  1.00  0.00     0.167 HD
ATOM     47  C   UNL A   1      39.992  30.066  30.209  1.00  0.00     0.034 A 
ATOM     48  C   UNL A   1      45.809  27.897  26.928  1.00  0.00     0.034 A 
ATOM     49  C   UNL A   1      41.077  31.010  30.200  1.00  0.00     0.049 A 
ATOM     50  C   UNL A   1      45.709  29.262  27.549  1.00  0.00     0.074 A 
ATOM     51  C   UNL A   1      41.124  32.274  30.761  1.00  0.00     0.029 A 
ATOM     52  N   UNL A   1      42.312  30.787  29.610  1.00  0.00    -0.354 N 
ATOM     53  N   UNL A   1      44.727  29.778  28.248  1.00  0.00    -0.248 NA
ATOM     54  C   UNL A   1      46.859  30.158  27.371  1.00  0.00     0.031 C 
ATOM     55  C   UNL A   1      42.389  32.817  30.506  1.00  0.00     0.029 A 
ATOM     56  C   UNL A   1      43.130  31.889  29.792  1.00  0.00     0.049 A 
ATOM     57  H   UNL A   1      42.570  29.966  29.131  1.00  0.00     0.167 HD
ATOM     58  C   UNL A   1      45.146  31.053  28.608  1.00  0.00     0.074 A 
ATOM     59  C   UNL A   1      46.484  31.218  28.075  1.00  0.00     0.031 C 
ATOM     60  C   UNL A   1      44.477  32.011  29.295  1.00  0.00     0.034 A 
BRANCH  47  61
ATOM     61  C   UNL A   1      38.706  30.462  30.883  1.00  0.00     0.023 A 
ATOM     62  C   UNL A   1      38.512  30.164  32.247  1.00  0.00     0.012 A 
ATOM     63  C   UNL A   1      37.708  31.164  30.179  1.00  0.00     0.148 A 
ATOM     64  C   UNL A   1      37.334  30.536  32.893  1.00  0.00     0.002 A 
ATOM     65  C   UNL A   1      36.552  31.563  30.840  1.00  0.00     0.091 A 
ATOM     66  F   UNL A   1      37.898  31.413  28.875  1.00  0.00    -0.205 F 
ATOM     67  C   UNL A   1      36.359  31.243  32.194  1.00  0.00     0.022 A 
BRANCH  65  68
ATOM     68  S   UNL A   1      35.271  32.534  30.036  1.00  0.00     0.127 S 
ATOM     69  O   UNL A   1      34.261  32.621  31.090  1.00  0.00    -0.237 OA
ATOM     70  O   UNL A   1      35.964  33.792  29.753  1.00  0.00    -0.237 OA
ATOM     71  O   UNL A   1      34.884  31.779  28.852  1.00  0.00    -0.744 OA
ENDBRANCH  65  68
ENDBRANCH  47  61
BRANCH  48  72
ATOM     72  C   UNL A   1      47.034  27.466  26.198  1.00  0.00     0.023 A 
ATOM     73  C   UNL A   1      47.968  26.637  26.850  1.00  0.00     0.012 A 
ATOM     74  C   UNL A   1      47.253  27.818  24.852  1.00  0.00     0.148 A 
ATOM     75  C   UNL A   1      49.104  26.181  26.180  1.00  0.00     0.002 A 
ATOM     76  C   UNL A   1      48.356  27.313  24.173  1.00  0.00     0.091 A 
ATOM     77  F   UNL A   1      46.367  28.628  24.253  1.00  0.00    -0.205 F 
ATOM     78  C   UNL A   1      49.290  26.506  24.838  1.00  0.00     0.022 A 
BRANCH  76  79
ATOM     79  S   UNL A   1      48.582  27.564  22.408  1.00  0.00     0.127 S 
ATOM     80  O   UNL A   1      47.376  28.305  22.052  1.00  0.00    -0.237 OA
ATOM     81  O   UNL A   1      49.820  28.343  22.362  1.00  0.00    -0.237 OA
ATOM     82  O   UNL A   1      48.702  26.226  21.841  1.00  0.00    -0.744 OA
ENDBRANCH  76  79
ENDBRANCH  48  72
BRANCH  60  83
ATOM     83  C   UNL A   1      45.184  33.318  29.521  1.00  0.00     0.023 A 
ATOM     84  C   UNL A   1      45.998  33.475  30.660  1.00  0.00     0.012 A 
ATOM     85  C   UNL A   1      45.101  34.360  28.578  1.00  0.00     0.148 A 
ATOM     86  C   UNL A   1      46.701  34.660  30.869  1.00  0.00     0.002 A 
ATOM     87  C   UNL A   1      45.837  35.523  28.772  1.00  0.00     0.091 A 
ATOM     88  F   UNL A   1      44.301  34.199  27.513  1.00  0.00    -0.205 F 
ATOM     89  C   UNL A   1      46.630  35.679  29.920  1.00  0.00     0.022 A 
BRANCH  87  90
ATOM     90  S   UNL A   1      45.868  36.846  27.557  1.00  0.00     0.127 S 
ATOM     91  O   UNL A   1      44.453  37.200  27.464  1.00  0.00    -0.237 OA
ATOM     92  O   UNL A   1      46.707  37.852  28.210  1.00  0.00    -0.237 OA
ATOM     93  O   UNL A   1      46.453  36.266  26.355  1.00  0.00    -0.744 OA
ENDBRANCH  87  90
ENDBRANCH  60  83
ENDBRANCH  34  35
ENDBRANCH  27  29
ENDBRANCH  26  27
ENDBRANCH  25  26
ENDBRANCH   1  25
TORSDOF 18
ENDMDL
MODEL 3
REMARK VINA RESULT:     -12.0      1.295      1.556
REMARK SMILES C[C@@H](c1cccc(O)c1)[N@H+]1[C@@H]2CC[C@H]1C[C@H](CC(=O)OCCOC(=O)c1ccc(-c3c4nc(c(-c5cccc(S(=O)(=O)[O-])c5F)c5ccc([nH]5)c(-c5cccc(S(=O)(=O)[O-])c5F)c5nc(c(-c6cccc(S(=O)(=O)[O-])c6F)c6ccc3[nH]6)C=C5)C=C4)cc1)C2
REMARK SMILES IDX 21 1 20 2 18 3 19 4 17 5 16 6 10 7 11 8 14 9 12 11 89 12
REMARK SMILES IDX 13 13 15 14 2 15 1 16 3 17 4 18 9 19 5 20 7 21 6 22 8 23
REMARK SMILES IDX 22 25 23 26 24 27 25 28 26 29 27 30 88 31 28 32 87 33 29 34
REMARK SMILES IDX 30 35 31 36 81 37 32 38 86 39 80 40 82 41 33 42 85 43 79 44
REMARK SMILES IDX 78 45 34 47 66 48 46 49 65 50 47 51 50 52 64 53 83 54 48 55
REMARK SMILES IDX 49 56 63 58 84 59 51 60 35 61 36 62 44 63 37 64 39 65 45 66
REMARK SMILES IDX 38 67 40 68 41 69 42 70 43 71 67 72 68 73 76 74 69 75 71 76
REMARK SMILES IDX 77 77 70 78 72 79 73 80 74 81 75 82 52 83 53 84 61 85 54 86
REMARK SMILES IDX 56 87 62 88 55 89 57 90 58 91 59 92 60 93
REMARK H PARENT 10 10 8 24 82 46 50 57
REMARK Flexibility Score: inf
ROOT
ATOM      1  C   UNL A   1      32.900  28.725  25.239  1.00  0.00     0.274 C 
ENDROOT
BRANCH   1   2
ATOM      2  O   UNL A   1      33.047  27.778  26.313  1.00  0.00    -0.462 OA
BRANCH   2   3
ATOM      3  C   UNL A   1      32.040  26.897  26.497  1.00  0.00     0.306 C 
ATOM      4  O   UNL A   1      31.051  27.103  27.196  1.00  0.00    -0.252 OA
BRANCH   3   5
ATOM      5  C   UNL A   1      32.211  25.623  25.691  1.00  0.00     0.126 C 
BRANCH   5   6
ATOM      6  C   UNL A   1      33.596  24.944  25.580  1.00  0.00     0.012 C 
ATOM      7  N   UNL A   1      34.225  22.279  24.450  1.00  0.00    -0.324 N 
ATOM      8  C   UNL A   1      34.736  23.470  23.765  1.00  0.00     0.185 C 
ATOM      9  C   UNL A   1      34.555  22.527  25.849  1.00  0.00     0.185 C 
ATOM     10  H   UNL A   1      34.665  21.400  24.176  1.00  0.00     0.349 HD
ATOM     11  C   UNL A   1      36.138  23.602  24.368  1.00  0.00     0.071 C 
ATOM     12  C   UNL A   1      33.885  24.705  24.074  1.00  0.00     0.069 C 
ATOM     13  C   UNL A   1      36.037  22.903  25.720  1.00  0.00     0.071 C 
ATOM     14  C   UNL A   1      33.767  23.692  26.467  1.00  0.00     0.069 C 
BRANCH   7  15
ATOM     15  C   UNL A   1      32.917  21.757  24.016  1.00  0.00     0.212 C 
ATOM     16  C   UNL A   1      32.619  22.347  22.630  1.00  0.00     0.081 C 
BRANCH  15  17
ATOM     17  C   UNL A   1      32.693  20.249  24.007  1.00  0.00     0.013 A 
ATOM     18  C   UNL A   1      32.464  19.520  22.825  1.00  0.00     0.010 A 
ATOM     19  C   UNL A   1      32.758  19.534  25.213  1.00  0.00     0.056 A 
ATOM     20  C   UNL A   1      32.423  18.120  22.836  1.00  0.00     0.004 A 
ATOM     21  C   UNL A   1      32.741  18.142  25.208  1.00  0.00     0.116 A 
ATOM     22  C   UNL A   1      32.588  17.425  24.030  1.00  0.00     0.046 A 
BRANCH  21  23
ATOM     23  O   UNL A   1      32.984  17.486  26.379  1.00  0.00    -0.508 OA
ATOM     24  H   UNL A   1      32.999  17.961  27.187  1.00  0.00     0.293 HD
ENDBRANCH  21  23
ENDBRANCH  15  17
ENDBRANCH   7  15
ENDBRANCH   5   6
ENDBRANCH   3   5
ENDBRANCH   2   3
ENDBRANCH   1   2
BRANCH   1  25
ATOM     25  C   UNL A   1      32.349  30.025  25.819  1.00  0.00     0.275 C 
BRANCH  25  26
ATOM     26  O   UNL A   1      32.892  30.205  27.138  1.00  0.00    -0.458 OA
BRANCH  26  27
ATOM     27  C   UNL A   1      33.548  31.375  27.328  1.00  0.00     0.338 C 
ATOM     28  O   UNL A   1      33.114  32.508  27.209  1.00  0.00    -0.246 OA
BRANCH  27  29
ATOM     29  C   UNL A   1      34.884  31.076  27.852  1.00  0.00     0.060 A 
ATOM     30  C   UNL A   1      35.159  29.776  28.273  1.00  0.00     0.016 A 
ATOM     31  C   UNL A   1      35.825  32.085  28.013  1.00  0.00     0.016 A 
ATOM     32  C   UNL A   1      36.348  29.485  28.929  1.00  0.00     0.010 A 
ATOM     33  C   UNL A   1      37.058  31.774  28.590  1.00  0.00     0.010 A 
ATOM     34  C   UNL A   1      37.322  30.479  29.077  1.00  0.00    -0.014 A 
BRANCH  34  35
ATOM     35  C   UNL A   1      38.616  30.177  29.739  1.00  0.00     0.031 A 
ATOM     36  C   UNL A   1      39.568  29.201  29.106  1.00  0.00     0.074 A 
ATOM     37  C   UNL A   1      38.911  30.737  30.929  1.00  0.00     0.049 A 
ATOM     38  N   UNL A   1      40.629  28.634  29.616  1.00  0.00    -0.248 NA
ATOM     39  C   UNL A   1      39.277  28.797  27.720  1.00  0.00     0.031 C 
ATOM     40  C   UNL A   1      38.079  31.712  31.637  1.00  0.00     0.029 A 
ATOM     41  N   UNL A   1      39.981  30.544  31.768  1.00  0.00    -0.354 N 
ATOM     42  C   UNL A   1      41.087  27.750  28.647  1.00  0.00     0.074 A 
ATOM     43  C   UNL A   1      40.198  27.867  27.511  1.00  0.00     0.031 C 
ATOM     44  C   UNL A   1      38.667  32.033  32.799  1.00  0.00     0.029 A 
ATOM     45  C   UNL A   1      39.875  31.232  32.955  1.00  0.00     0.049 A 
ATOM     46  H   UNL A   1      40.749  29.971  31.541  1.00  0.00     0.167 HD
ATOM     47  C   UNL A   1      42.156  26.920  28.700  1.00  0.00     0.034 A 
ATOM     48  C   UNL A   1      40.636  31.187  34.065  1.00  0.00     0.034 A 
ATOM     49  C   UNL A   1      43.073  26.862  29.806  1.00  0.00     0.049 A 
ATOM     50  C   UNL A   1      41.823  30.266  34.094  1.00  0.00     0.074 A 
ATOM     51  C   UNL A   1      44.213  26.090  29.939  1.00  0.00     0.029 A 
ATOM     52  N   UNL A   1      42.963  27.618  30.963  1.00  0.00    -0.354 N 
ATOM     53  N   UNL A   1      42.272  29.472  33.152  1.00  0.00    -0.248 NA
ATOM     54  C   UNL A   1      42.613  30.239  35.333  1.00  0.00     0.031 C 
ATOM     55  C   UNL A   1      44.790  26.376  31.183  1.00  0.00     0.029 A 
ATOM     56  C   UNL A   1      44.013  27.332  31.818  1.00  0.00     0.049 A 
ATOM     57  H   UNL A   1      42.243  28.264  31.150  1.00  0.00     0.167 HD
ATOM     58  C   UNL A   1      43.404  28.862  33.677  1.00  0.00     0.074 A 
ATOM     59  C   UNL A   1      43.591  29.403  35.008  1.00  0.00     0.031 C 
ATOM     60  C   UNL A   1      44.204  27.920  33.119  1.00  0.00     0.034 A 
BRANCH  47  61
ATOM     61  C   UNL A   1      42.406  26.026  27.516  1.00  0.00     0.023 A 
ATOM     62  C   UNL A   1      43.137  26.514  26.415  1.00  0.00     0.012 A 
ATOM     63  C   UNL A   1      41.955  24.691  27.510  1.00  0.00     0.148 A 
ATOM     64  C   UNL A   1      43.394  25.696  25.315  1.00  0.00     0.002 A 
ATOM     65  C   UNL A   1      42.245  23.872  26.425  1.00  0.00     0.091 A 
ATOM     66  F   UNL A   1      41.236  24.253  28.554  1.00  0.00    -0.205 F 
ATOM     67  C   UNL A   1      42.957  24.374  25.324  1.00  0.00     0.022 A 
BRANCH  65  68
ATOM     68  S   UNL A   1      41.780  22.137  26.378  1.00  0.00     0.127 S 
ATOM     69  O   UNL A   1      42.576  21.647  25.255  1.00  0.00    -0.237 OA
ATOM     70  O   UNL A   1      42.220  21.659  27.690  1.00  0.00    -0.237 OA
ATOM     71  O   UNL A   1      40.336  22.118  26.184  1.00  0.00    -0.744 OA
ENDBRANCH  65  68
ENDBRANCH  47  61
BRANCH  48  72
ATOM     72  C   UNL A   1      40.301  32.056  35.228  1.00  0.00     0.023 A 
ATOM     73  C   UNL A   1      40.981  33.280  35.391  1.00  0.00     0.012 A 
ATOM     74  C   UNL A   1      39.281  31.712  36.137  1.00  0.00     0.148 A 
ATOM     75  C   UNL A   1      40.660  34.136  36.446  1.00  0.00     0.002 A 
ATOM     76  C   UNL A   1      38.927  32.596  37.150  1.00  0.00     0.091 A 
ATOM     77  F   UNL A   1      38.662  30.533  35.982  1.00  0.00    -0.205 F 
ATOM     78  C   UNL A   1      39.624  33.802  37.315  1.00  0.00     0.022 A 
BRANCH  76  79
ATOM     79  S   UNL A   1      37.508  32.304  38.213  1.00  0.00     0.127 S 
ATOM     80  O   UNL A   1      37.356  30.855  38.120  1.00  0.00    -0.237 OA
ATOM     81  O   UNL A   1      37.985  32.791  39.507  1.00  0.00    -0.237 OA
ATOM     82  O   UNL A   1      36.429  33.100  37.641  1.00  0.00    -0.744 OA
ENDBRANCH  76  79
ENDBRANCH  48  72
BRANCH  60  83
ATOM     83  C   UNL A   1      45.362  27.424  33.941  1.00  0.00     0.023 A 
ATOM     84  C   UNL A   1      46.588  28.116  33.896  1.00  0.00     0.012 A 
ATOM     85  C   UNL A   1      45.217  26.323  34.806  1.00  0.00     0.148 A 
ATOM     86  C   UNL A   1      47.662  27.705  34.684  1.00  0.00     0.002 A 
ATOM     87  C   UNL A   1      46.279  25.944  35.619  1.00  0.00     0.091 A 
ATOM     88  F   UNL A   1      44.049  25.664  34.815  1.00  0.00    -0.205 F 
ATOM     89  C   UNL A   1      47.504  26.627  35.553  1.00  0.00     0.022 A 
BRANCH  87  90
ATOM     90  S   UNL A   1      46.131  24.622  36.826  1.00  0.00     0.127 S 
ATOM     91  O   UNL A   1      47.515  24.460  37.265  1.00  0.00    -0.237 OA
ATOM     92  O   UNL A   1      45.238  25.209  37.827  1.00  0.00    -0.237 OA
ATOM     93  O   UNL A   1      45.561  23.490  36.106  1.00  0.00    -0.744 OA
ENDBRANCH  87  90
ENDBRANCH  60  83
ENDBRANCH  34  35
ENDBRANCH  27  29
ENDBRANCH  26  27
ENDBRANCH  25  26
ENDBRANCH   1  25
TORSDOF 18
ENDMDL
