MODEL 1
REMARK VINA RESULT:     -12.7      0.000      0.000
REMARK SMILES C[C@@H](C(=O)OCCOC(=O)c1ccc(-c2c3nc(c(-c4cccc(S(=O)(=O)[O-])c4F)c4ccc([nH]4)c(-c4cccc(S(=O)(=O)[O-])c4F)c4nc(c(-c5cccc(S(=O)(=O)[O-])c5F)c5ccc2[nH]5)C=C4)C=C3)cc1)c1ccc(-c2cccc(OC(=O)NCCC3CCCCC3)c2)c(F)c1
REMARK SMILES IDX 3 1 4 2 2 3 1 4 74 5 75 6 98 7 76 8 96 9 77 10 97 11 78 12
REMARK SMILES IDX 79 13 95 14 80 15 82 16 81 17 83 18 84 19 85 20 86 21 87 23
REMARK SMILES IDX 88 24 89 25 90 26 94 27 91 28 93 29 92 30 5 31 6 32 7 33
REMARK SMILES IDX 8 34 9 35 10 36 11 37 12 38 73 39 13 40 72 41 14 42 15 43
REMARK SMILES IDX 16 44 66 45 17 46 71 47 65 48 67 49 18 50 70 51 64 52 63 53
REMARK SMILES IDX 19 55 51 56 31 57 50 58 32 59 35 60 49 61 68 62 33 63 34 64
REMARK SMILES IDX 48 66 69 67 36 68 20 69 21 70 29 71 22 72 24 73 30 74 23 75
REMARK SMILES IDX 25 76 26 77 27 78 28 79 52 80 53 81 61 82 54 83 56 84 62 85
REMARK SMILES IDX 55 86 57 87 58 88 59 89 60 90 37 91 38 92 46 93 39 94 41 95
REMARK SMILES IDX 47 96 40 97 42 98 43 99 44 100 45 101
REMARK H PARENT 86 22 67 54 35 65
REMARK Flexibility Score: inf
ROOT
ATOM      1  C   UNL A   1      40.482  21.688  26.497  1.00  0.00     0.313 C 
ATOM      2  O   UNL A   1      40.252  20.875  27.385  1.00  0.00    -0.252 OA
ENDROOT
BRANCH   1   3
ATOM      3  C   UNL A   1      39.749  23.032  26.367  1.00  0.00     0.126 C 
ATOM      4  C   UNL A   1      39.928  23.950  27.579  1.00  0.00     0.025 C 
BRANCH   3   5
ATOM      5  C   UNL A   1      38.286  22.832  25.982  1.00  0.00    -0.031 A 
ATOM      6  C   UNL A   1      37.823  21.708  25.286  1.00  0.00     0.005 A 
ATOM      7  C   UNL A   1      37.365  23.849  26.253  1.00  0.00     0.044 A 
ATOM      8  C   UNL A   1      36.501  21.646  24.805  1.00  0.00     0.012 A 
ATOM      9  C   UNL A   1      36.052  23.775  25.780  1.00  0.00     0.131 A 
ATOM     10  C   UNL A   1      35.597  22.709  24.987  1.00  0.00     0.018 A 
ATOM     11  F   UNL A   1      35.238  24.798  26.086  1.00  0.00    -0.206 F 
BRANCH  10  12
ATOM     12  C   UNL A   1      34.296  22.763  24.267  1.00  0.00    -0.012 A 
ATOM     13  C   UNL A   1      34.197  22.835  22.868  1.00  0.00     0.009 A 
ATOM     14  C   UNL A   1      33.088  22.835  24.998  1.00  0.00     0.056 A 
ATOM     15  C   UNL A   1      32.954  22.973  22.234  1.00  0.00     0.004 A 
ATOM     16  C   UNL A   1      31.845  22.933  24.371  1.00  0.00     0.133 A 
ATOM     17  C   UNL A   1      31.776  23.017  22.984  1.00  0.00     0.047 A 
BRANCH  16  18
ATOM     18  O   UNL A   1      30.604  22.992  25.066  1.00  0.00    -0.410 OA
BRANCH  18  19
ATOM     19  C   UNL A   1      30.442  23.400  26.392  1.00  0.00     0.412 C 
ATOM     20  O   UNL A   1      30.556  22.700  27.391  1.00  0.00    -0.224 OA
ATOM     21  N   UNL A   1      30.104  24.716  26.544  1.00  0.00    -0.321 N 
ATOM     22  H   UNL A   1      29.977  25.023  27.470  1.00  0.00     0.167 HD
BRANCH  21  23
ATOM     23  C   UNL A   1      29.911  25.714  25.517  1.00  0.00     0.119 C 
BRANCH  23  24
ATOM     24  C   UNL A   1      30.987  26.805  25.588  1.00  0.00     0.025 C 
BRANCH  24  25
ATOM     25  C   UNL A   1      31.681  27.089  24.232  1.00  0.00    -0.009 C 
ATOM     26  C   UNL A   1      31.879  28.597  24.012  1.00  0.00     0.003 C 
ATOM     27  C   UNL A   1      33.035  26.371  24.150  1.00  0.00     0.003 C 
ATOM     28  C   UNL A   1      32.637  28.928  22.730  1.00  0.00     0.000 C 
ATOM     29  C   UNL A   1      33.749  26.673  22.833  1.00  0.00     0.000 C 
ATOM     30  C   UNL A   1      33.955  28.171  22.639  1.00  0.00     0.000 C 
ENDBRANCH  24  25
ENDBRANCH  23  24
ENDBRANCH  21  23
ENDBRANCH  18  19
ENDBRANCH  16  18
ENDBRANCH  10  12
ENDBRANCH   3   5
ENDBRANCH   1   3
BRANCH   1  31
ATOM     31  O   UNL A   1      41.357  21.467  25.476  1.00  0.00    -0.462 OA
BRANCH  31  32
ATOM     32  C   UNL A   1      42.566  20.752  25.805  1.00  0.00     0.274 C 
BRANCH  32  33
ATOM     33  C   UNL A   1      43.769  21.392  25.119  1.00  0.00     0.275 C 
BRANCH  33  34
ATOM     34  O   UNL A   1      43.364  22.593  24.442  1.00  0.00    -0.458 OA
BRANCH  34  35
ATOM     35  C   UNL A   1      44.066  23.707  24.750  1.00  0.00     0.338 C 
ATOM     36  O   UNL A   1      45.144  24.052  24.296  1.00  0.00    -0.246 OA
BRANCH  35  37
ATOM     37  C   UNL A   1      43.327  24.502  25.745  1.00  0.00     0.060 A 
ATOM     38  C   UNL A   1      42.758  25.718  25.377  1.00  0.00     0.016 A 
ATOM     39  C   UNL A   1      43.327  24.105  27.082  1.00  0.00     0.016 A 
ATOM     40  C   UNL A   1      42.294  26.588  26.365  1.00  0.00     0.010 A 
ATOM     41  C   UNL A   1      42.775  24.947  28.056  1.00  0.00     0.010 A 
ATOM     42  C   UNL A   1      42.314  26.234  27.724  1.00  0.00    -0.014 A 
BRANCH  42  43
ATOM     43  C   UNL A   1      41.902  27.206  28.789  1.00  0.00     0.031 A 
ATOM     44  C   UNL A   1      42.709  27.341  30.065  1.00  0.00     0.074 A 
ATOM     45  C   UNL A   1      40.787  27.954  28.649  1.00  0.00     0.049 A 
ATOM     46  N   UNL A   1      42.445  28.035  31.145  1.00  0.00    -0.248 NA
ATOM     47  C   UNL A   1      43.972  26.587  30.148  1.00  0.00     0.031 C 
ATOM     48  C   UNL A   1      39.924  27.973  27.471  1.00  0.00     0.029 A 
ATOM     49  N   UNL A   1      40.176  28.836  29.514  1.00  0.00    -0.354 N 
ATOM     50  C   UNL A   1      43.443  27.719  32.062  1.00  0.00     0.074 A 
ATOM     51  C   UNL A   1      44.337  26.790  31.407  1.00  0.00     0.031 C 
ATOM     52  C   UNL A   1      38.913  28.828  27.677  1.00  0.00     0.029 A 
ATOM     53  C   UNL A   1      38.980  29.335  29.044  1.00  0.00     0.049 A 
ATOM     54  H   UNL A   1      40.557  29.085  30.387  1.00  0.00     0.167 HD
ATOM     55  C   UNL A   1      43.613  28.170  33.328  1.00  0.00     0.034 A 
ATOM     56  C   UNL A   1      38.028  30.075  29.654  1.00  0.00     0.034 A 
ATOM     57  C   UNL A   1      42.829  29.209  33.937  1.00  0.00     0.049 A 
ATOM     58  C   UNL A   1      38.316  30.581  31.056  1.00  0.00     0.074 A 
ATOM     59  C   UNL A   1      43.003  29.805  35.176  1.00  0.00     0.029 A 
ATOM     60  N   UNL A   1      41.731  29.816  33.354  1.00  0.00    -0.354 N 
ATOM     61  N   UNL A   1      39.434  30.543  31.742  1.00  0.00    -0.248 NA
ATOM     62  C   UNL A   1      37.234  31.302  31.746  1.00  0.00     0.031 C 
ATOM     63  C   UNL A   1      42.004  30.770  35.345  1.00  0.00     0.029 A 
ATOM     64  C   UNL A   1      41.200  30.758  34.219  1.00  0.00     0.049 A 
ATOM     65  H   UNL A   1      41.381  29.609  32.458  1.00  0.00     0.167 HD
ATOM     66  C   UNL A   1      39.209  31.317  32.879  1.00  0.00     0.074 A 
ATOM     67  C   UNL A   1      37.884  31.876  32.747  1.00  0.00     0.031 C 
ATOM     68  C   UNL A   1      39.988  31.492  33.975  1.00  0.00     0.034 A 
BRANCH  55  69
ATOM     69  C   UNL A   1      44.721  27.574  34.154  1.00  0.00     0.023 A 
ATOM     70  C   UNL A   1      45.988  28.186  34.179  1.00  0.00     0.012 A 
ATOM     71  C   UNL A   1      44.467  26.467  34.990  1.00  0.00     0.148 A 
ATOM     72  C   UNL A   1      46.993  27.696  35.014  1.00  0.00     0.002 A 
ATOM     73  C   UNL A   1      45.461  26.009  35.847  1.00  0.00     0.091 A 
ATOM     74  F   UNL A   1      43.261  25.884  34.934  1.00  0.00    -0.205 F 
ATOM     75  C   UNL A   1      46.726  26.618  35.856  1.00  0.00     0.022 A 
BRANCH  73  76
ATOM     76  S   UNL A   1      45.174  24.680  37.022  1.00  0.00     0.127 S 
ATOM     77  O   UNL A   1      44.978  23.536  36.134  1.00  0.00    -0.237 OA
ATOM     78  O   UNL A   1      46.427  24.655  37.780  1.00  0.00    -0.237 OA
ATOM     79  O   UNL A   1      44.010  25.084  37.799  1.00  0.00    -0.744 OA
ENDBRANCH  73  76
ENDBRANCH  55  69
BRANCH  56  80
ATOM     80  C   UNL A   1      36.739  30.442  28.958  1.00  0.00     0.023 A 
ATOM     81  C   UNL A   1      35.907  29.422  28.455  1.00  0.00     0.012 A 
ATOM     82  C   UNL A   1      36.318  31.776  28.766  1.00  0.00     0.148 A 
ATOM     83  C   UNL A   1      34.768  29.711  27.705  1.00  0.00     0.002 A 
ATOM     84  C   UNL A   1      35.081  32.048  28.189  1.00  0.00     0.091 A 
ATOM     85  F   UNL A   1      37.115  32.774  29.173  1.00  0.00    -0.205 F 
ATOM     86  C   UNL A   1      34.330  31.023  27.604  1.00  0.00     0.022 A 
BRANCH  84  87
ATOM     87  S   UNL A   1      34.317  33.670  28.297  1.00  0.00     0.127 S 
ATOM     88  O   UNL A   1      33.007  33.445  27.686  1.00  0.00    -0.237 OA
ATOM     89  O   UNL A   1      34.292  33.873  29.744  1.00  0.00    -0.237 OA
ATOM     90  O   UNL A   1      35.189  34.565  27.550  1.00  0.00    -0.744 OA
ENDBRANCH  84  87
ENDBRANCH  56  80
BRANCH  68  91
ATOM     91  C   UNL A   1      39.480  32.415  35.057  1.00  0.00     0.023 A 
ATOM     92  C   UNL A   1      38.471  31.964  35.934  1.00  0.00     0.012 A 
ATOM     93  C   UNL A   1      40.008  33.710  35.228  1.00  0.00     0.148 A 
ATOM     94  C   UNL A   1      37.943  32.807  36.909  1.00  0.00     0.002 A 
ATOM     95  C   UNL A   1      39.516  34.526  36.242  1.00  0.00     0.091 A 
ATOM     96  F   UNL A   1      40.965  34.131  34.388  1.00  0.00    -0.205 F 
ATOM     97  C   UNL A   1      38.469  34.085  37.068  1.00  0.00     0.022 A 
BRANCH  95  98
ATOM     98  S   UNL A   1      40.210  36.147  36.595  1.00  0.00     0.127 S 
ATOM     99  O   UNL A   1      39.445  36.549  37.774  1.00  0.00    -0.237 OA
ATOM    100  O   UNL A   1      41.616  35.836  36.858  1.00  0.00    -0.237 OA
ATOM    101  O   UNL A   1      39.985  36.939  35.394  1.00  0.00    -0.744 OA
ENDBRANCH  95  98
ENDBRANCH  68  91
ENDBRANCH  42  43
ENDBRANCH  35  37
ENDBRANCH  34  35
ENDBRANCH  33  34
ENDBRANCH  32  33
ENDBRANCH  31  32
ENDBRANCH   1  31
TORSDOF 21
ENDMDL
MODEL 2
REMARK VINA RESULT:     -12.3      1.529      2.126
REMARK SMILES C[C@@H](C(=O)OCCOC(=O)c1ccc(-c2c3nc(c(-c4cccc(S(=O)(=O)[O-])c4F)c4ccc([nH]4)c(-c4cccc(S(=O)(=O)[O-])c4F)c4nc(c(-c5cccc(S(=O)(=O)[O-])c5F)c5ccc2[nH]5)C=C4)C=C3)cc1)c1ccc(-c2cccc(OC(=O)NCCC3CCCCC3)c2)c(F)c1
REMARK SMILES IDX 3 1 4 2 2 3 1 4 74 5 75 6 98 7 76 8 96 9 77 10 97 11 78 12
REMARK SMILES IDX 79 13 95 14 80 15 82 16 81 17 83 18 84 19 85 20 86 21 87 23
REMARK SMILES IDX 88 24 89 25 90 26 94 27 91 28 93 29 92 30 5 31 6 32 7 33
REMARK SMILES IDX 8 34 9 35 10 36 11 37 12 38 73 39 13 40 72 41 14 42 15 43
REMARK SMILES IDX 16 44 66 45 17 46 71 47 65 48 67 49 18 50 70 51 64 52 63 53
REMARK SMILES IDX 19 55 51 56 31 57 50 58 32 59 35 60 49 61 68 62 33 63 34 64
REMARK SMILES IDX 48 66 69 67 36 68 20 69 21 70 29 71 22 72 24 73 30 74 23 75
REMARK SMILES IDX 25 76 26 77 27 78 28 79 52 80 53 81 61 82 54 83 56 84 62 85
REMARK SMILES IDX 55 86 57 87 58 88 59 89 60 90 37 91 38 92 46 93 39 94 41 95
REMARK SMILES IDX 47 96 40 97 42 98 43 99 44 100 45 101
REMARK H PARENT 86 22 67 54 35 65
REMARK Flexibility Score: inf
ROOT
ATOM      1  C   UNL A   1      42.343  21.818  25.885  1.00  0.00     0.313 C 
ATOM      2  O   UNL A   1      42.285  22.613  24.953  1.00  0.00    -0.252 OA
ENDROOT
BRANCH   1   3
ATOM      3  C   UNL A   1      41.263  21.706  26.972  1.00  0.00     0.126 C 
ATOM      4  C   UNL A   1      41.139  20.304  27.574  1.00  0.00     0.025 C 
BRANCH   3   5
ATOM      5  C   UNL A   1      39.928  22.267  26.489  1.00  0.00    -0.031 A 
ATOM      6  C   UNL A   1      39.476  23.553  26.811  1.00  0.00     0.005 A 
ATOM      7  C   UNL A   1      39.066  21.441  25.761  1.00  0.00     0.044 A 
ATOM      8  C   UNL A   1      38.169  23.965  26.485  1.00  0.00     0.012 A 
ATOM      9  C   UNL A   1      37.773  21.862  25.435  1.00  0.00     0.131 A 
ATOM     10  C   UNL A   1      37.261  23.104  25.842  1.00  0.00     0.018 A 
ATOM     11  F   UNL A   1      37.014  21.002  24.736  1.00  0.00    -0.206 F 
BRANCH  10  12
ATOM     12  C   UNL A   1      35.814  23.435  25.728  1.00  0.00    -0.012 A 
ATOM     13  C   UNL A   1      34.834  22.876  26.564  1.00  0.00     0.009 A 
ATOM     14  C   UNL A   1      35.363  24.277  24.687  1.00  0.00     0.056 A 
ATOM     15  C   UNL A   1      33.471  23.147  26.367  1.00  0.00     0.004 A 
ATOM     16  C   UNL A   1      34.013  24.581  24.510  1.00  0.00     0.133 A 
ATOM     17  C   UNL A   1      33.060  24.003  25.343  1.00  0.00     0.047 A 
BRANCH  16  18
ATOM     18  O   UNL A   1      33.515  25.436  23.486  1.00  0.00    -0.410 OA
BRANCH  18  19
ATOM     19  C   UNL A   1      32.805  25.015  22.359  1.00  0.00     0.412 C 
ATOM     20  O   UNL A   1      33.240  24.346  21.429  1.00  0.00    -0.224 OA
ATOM     21  N   UNL A   1      31.503  25.429  22.320  1.00  0.00    -0.321 N 
ATOM     22  H   UNL A   1      30.987  25.150  21.531  1.00  0.00     0.167 HD
BRANCH  21  23
ATOM     23  C   UNL A   1      30.788  26.223  23.293  1.00  0.00     0.119 C 
BRANCH  23  24
ATOM     24  C   UNL A   1      31.149  27.709  23.178  1.00  0.00     0.025 C 
BRANCH  24  25
ATOM     25  C   UNL A   1      31.848  28.283  24.436  1.00  0.00    -0.009 C 
ATOM     26  C   UNL A   1      31.283  29.663  24.807  1.00  0.00     0.003 C 
ATOM     27  C   UNL A   1      31.704  27.326  25.627  1.00  0.00     0.003 C 
ATOM     28  C   UNL A   1      31.877  30.235  26.090  1.00  0.00     0.000 C 
ATOM     29  C   UNL A   1      32.355  27.897  26.885  1.00  0.00     0.000 C 
ATOM     30  C   UNL A   1      31.771  29.257  27.251  1.00  0.00     0.000 C 
ENDBRANCH  24  25
ENDBRANCH  23  24
ENDBRANCH  21  23
ENDBRANCH  18  19
ENDBRANCH  16  18
ENDBRANCH  10  12
ENDBRANCH   3   5
ENDBRANCH   1   3
BRANCH   1  31
ATOM     31  O   UNL A   1      43.404  20.994  26.113  1.00  0.00    -0.462 OA
BRANCH  31  32
ATOM     32  C   UNL A   1      44.323  20.806  25.017  1.00  0.00     0.274 C 
BRANCH  32  33
ATOM     33  C   UNL A   1      45.662  21.471  25.322  1.00  0.00     0.275 C 
BRANCH  33  34
ATOM     34  O   UNL A   1      45.472  22.548  26.255  1.00  0.00    -0.458 OA
BRANCH  34  35
ATOM     35  C   UNL A   1      45.458  23.791  25.723  1.00  0.00     0.338 C 
ATOM     36  O   UNL A   1      46.036  24.173  24.720  1.00  0.00    -0.246 OA
BRANCH  35  37
ATOM     37  C   UNL A   1      44.606  24.672  26.540  1.00  0.00     0.060 A 
ATOM     38  C   UNL A   1      44.592  26.042  26.296  1.00  0.00     0.016 A 
ATOM     39  C   UNL A   1      43.934  24.150  27.644  1.00  0.00     0.016 A 
ATOM     40  C   UNL A   1      44.001  26.901  27.225  1.00  0.00     0.010 A 
ATOM     41  C   UNL A   1      43.266  25.014  28.522  1.00  0.00     0.010 A 
ATOM     42  C   UNL A   1      43.349  26.409  28.367  1.00  0.00    -0.014 A 
BRANCH  42  43
ATOM     43  C   UNL A   1      42.797  27.336  29.410  1.00  0.00     0.031 A 
ATOM     44  C   UNL A   1      43.489  27.491  30.749  1.00  0.00     0.074 A 
ATOM     45  C   UNL A   1      41.656  28.024  29.189  1.00  0.00     0.049 A 
ATOM     46  N   UNL A   1      43.099  28.148  31.814  1.00  0.00    -0.248 NA
ATOM     47  C   UNL A   1      44.781  26.806  30.924  1.00  0.00     0.031 C 
ATOM     48  C   UNL A   1      40.892  28.019  27.944  1.00  0.00     0.029 A 
ATOM     49  N   UNL A   1      40.928  28.854  30.014  1.00  0.00    -0.354 N 
ATOM     50  C   UNL A   1      44.035  27.869  32.805  1.00  0.00     0.074 A 
ATOM     51  C   UNL A   1      45.030  27.004  32.212  1.00  0.00     0.031 C 
ATOM     52  C   UNL A   1      39.821  28.814  28.079  1.00  0.00     0.029 A 
ATOM     53  C   UNL A   1      39.749  29.297  29.454  1.00  0.00     0.049 A 
ATOM     54  H   UNL A   1      41.223  29.107  30.919  1.00  0.00     0.167 HD
ATOM     55  C   UNL A   1      44.076  28.304  34.088  1.00  0.00     0.034 A 
ATOM     56  C   UNL A   1      38.710  29.971  29.995  1.00  0.00     0.034 A 
ATOM     57  C   UNL A   1      43.187  29.286  34.646  1.00  0.00     0.049 A 
ATOM     58  C   UNL A   1      38.854  30.464  31.423  1.00  0.00     0.074 A 
ATOM     59  C   UNL A   1      43.226  29.867  35.903  1.00  0.00     0.029 A 
ATOM     60  N   UNL A   1      42.108  29.843  33.983  1.00  0.00    -0.354 N 
ATOM     61  N   UNL A   1      39.912  30.475  32.199  1.00  0.00    -0.248 NA
ATOM     62  C   UNL A   1      37.681  31.112  32.033  1.00  0.00     0.031 C 
ATOM     63  C   UNL A   1      42.165  30.772  36.004  1.00  0.00     0.029 A 
ATOM     64  C   UNL A   1      41.456  30.738  34.816  1.00  0.00     0.049 A 
ATOM     65  H   UNL A   1      41.844  29.635  33.059  1.00  0.00     0.167 HD
ATOM     66  C   UNL A   1      39.553  31.212  33.324  1.00  0.00     0.074 A 
ATOM     67  C   UNL A   1      38.213  31.701  33.092  1.00  0.00     0.031 C 
ATOM     68  C   UNL A   1      40.229  31.409  34.484  1.00  0.00     0.034 A 
BRANCH  55  69
ATOM     69  C   UNL A   1      45.145  27.754  34.993  1.00  0.00     0.023 A 
ATOM     70  C   UNL A   1      46.440  28.304  34.969  1.00  0.00     0.012 A 
ATOM     71  C   UNL A   1      44.828  26.763  35.945  1.00  0.00     0.148 A 
ATOM     72  C   UNL A   1      47.411  27.864  35.869  1.00  0.00     0.002 A 
ATOM     73  C   UNL A   1      45.790  26.358  36.863  1.00  0.00     0.091 A 
ATOM     74  F   UNL A   1      43.596  26.235  35.936  1.00  0.00    -0.205 F 
ATOM     75  C   UNL A   1      47.083  26.903  36.823  1.00  0.00     0.022 A 
BRANCH  73  76
ATOM     76  S   UNL A   1      45.426  25.186  38.177  1.00  0.00     0.127 S 
ATOM     77  O   UNL A   1      46.666  25.212  38.949  1.00  0.00    -0.237 OA
ATOM     78  O   UNL A   1      44.280  25.809  38.844  1.00  0.00    -0.237 OA
ATOM     79  O   UNL A   1      45.121  23.928  37.510  1.00  0.00    -0.744 OA
ENDBRANCH  73  76
ENDBRANCH  55  69
BRANCH  56  80
ATOM     80  C   UNL A   1      37.464  30.280  29.201  1.00  0.00     0.023 A 
ATOM     81  C   UNL A   1      36.701  29.222  28.666  1.00  0.00     0.012 A 
ATOM     82  C   UNL A   1      37.016  31.595  28.947  1.00  0.00     0.148 A 
ATOM     83  C   UNL A   1      35.610  29.457  27.831  1.00  0.00     0.002 A 
ATOM     84  C   UNL A   1      35.816  31.814  28.277  1.00  0.00     0.091 A 
ATOM     85  F   UNL A   1      37.751  32.627  29.384  1.00  0.00    -0.205 F 
ATOM     86  C   UNL A   1      35.141  30.752  27.666  1.00  0.00     0.022 A 
BRANCH  84  87
ATOM     87  S   UNL A   1      34.997  33.412  28.290  1.00  0.00     0.127 S 
ATOM     88  O   UNL A   1      33.609  33.060  27.988  1.00  0.00    -0.237 OA
ATOM     89  O   UNL A   1      35.234  33.838  29.668  1.00  0.00    -0.237 OA
ATOM     90  O   UNL A   1      35.660  34.202  27.263  1.00  0.00    -0.744 OA
ENDBRANCH  84  87
ENDBRANCH  56  80
BRANCH  68  91
ATOM     91  C   UNL A   1      39.583  32.281  35.534  1.00  0.00     0.023 A 
ATOM     92  C   UNL A   1      38.549  31.750  36.334  1.00  0.00     0.012 A 
ATOM     93  C   UNL A   1      40.006  33.607  35.751  1.00  0.00     0.148 A 
ATOM     94  C   UNL A   1      37.897  32.543  37.276  1.00  0.00     0.002 A 
ATOM     95  C   UNL A   1      39.389  34.375  36.734  1.00  0.00     0.091 A 
ATOM     96  F   UNL A   1      40.988  34.104  34.983  1.00  0.00    -0.205 F 
ATOM     97  C   UNL A   1      38.320  33.852  37.481  1.00  0.00     0.022 A 
BRANCH  95  98
ATOM     98  S   UNL A   1      39.941  36.035  37.147  1.00  0.00     0.127 S 
ATOM     99  O   UNL A   1      39.084  36.362  38.285  1.00  0.00    -0.237 OA
ATOM    100  O   UNL A   1      41.350  35.823  37.486  1.00  0.00    -0.237 OA
ATOM    101  O   UNL A   1      39.728  36.830  35.945  1.00  0.00    -0.744 OA
ENDBRANCH  95  98
ENDBRANCH  68  91
ENDBRANCH  42  43
ENDBRANCH  35  37
ENDBRANCH  34  35
ENDBRANCH  33  34
ENDBRANCH  32  33
ENDBRANCH  31  32
ENDBRANCH   1  31
TORSDOF 21
ENDMDL
MODEL 3
REMARK VINA RESULT:     -12.1      1.851      2.493
REMARK SMILES C[C@@H](C(=O)OCCOC(=O)c1ccc(-c2c3nc(c(-c4cccc(S(=O)(=O)[O-])c4F)c4ccc([nH]4)c(-c4cccc(S(=O)(=O)[O-])c4F)c4nc(c(-c5cccc(S(=O)(=O)[O-])c5F)c5ccc2[nH]5)C=C4)C=C3)cc1)c1ccc(-c2cccc(OC(=O)NCCC3CCCCC3)c2)c(F)c1
REMARK SMILES IDX 3 1 4 2 2 3 1 4 74 5 75 6 98 7 76 8 96 9 77 10 97 11 78 12
REMARK SMILES IDX 79 13 95 14 80 15 82 16 81 17 83 18 84 19 85 20 86 21 87 23
REMARK SMILES IDX 88 24 89 25 90 26 94 27 91 28 93 29 92 30 5 31 6 32 7 33
REMARK SMILES IDX 8 34 9 35 10 36 11 37 12 38 73 39 13 40 72 41 14 42 15 43
REMARK SMILES IDX 16 44 66 45 17 46 71 47 65 48 67 49 18 50 70 51 64 52 63 53
REMARK SMILES IDX 19 55 51 56 31 57 50 58 32 59 35 60 49 61 68 62 33 63 34 64
REMARK SMILES IDX 48 66 69 67 36 68 20 69 21 70 29 71 22 72 24 73 30 74 23 75
REMARK SMILES IDX 25 76 26 77 27 78 28 79 52 80 53 81 61 82 54 83 56 84 62 85
REMARK SMILES IDX 55 86 57 87 58 88 59 89 60 90 37 91 38 92 46 93 39 94 41 95
REMARK SMILES IDX 47 96 40 97 42 98 43 99 44 100 45 101
REMARK H PARENT 86 22 67 54 35 65
REMARK Flexibility Score: inf
ROOT
ATOM      1  C   UNL A   1      40.585  21.336  26.515  1.00  0.00     0.313 C 
ATOM      2  O   UNL A   1      40.408  20.501  27.395  1.00  0.00    -0.252 OA
ENDROOT
BRANCH   1   3
ATOM      3  C   UNL A   1      39.755  22.623  26.388  1.00  0.00     0.126 C 
ATOM      4  C   UNL A   1      39.823  23.523  27.624  1.00  0.00     0.025 C 
BRANCH   3   5
ATOM      5  C   UNL A   1      38.325  22.320  25.948  1.00  0.00    -0.031 A 
ATOM      6  C   UNL A   1      38.004  21.332  25.009  1.00  0.00     0.005 A 
ATOM      7  C   UNL A   1      37.281  23.117  26.432  1.00  0.00     0.044 A 
ATOM      8  C   UNL A   1      36.694  21.203  24.511  1.00  0.00     0.012 A 
ATOM      9  C   UNL A   1      35.982  22.976  25.937  1.00  0.00     0.131 A 
ATOM     10  C   UNL A   1      35.659  22.066  24.917  1.00  0.00     0.018 A 
ATOM     11  F   UNL A   1      35.044  23.784  26.457  1.00  0.00    -0.206 F 
BRANCH  10  12
ATOM     12  C   UNL A   1      34.350  22.106  24.212  1.00  0.00    -0.012 A 
ATOM     13  C   UNL A   1      33.540  20.973  24.036  1.00  0.00     0.009 A 
ATOM     14  C   UNL A   1      33.913  23.305  23.603  1.00  0.00     0.056 A 
ATOM     15  C   UNL A   1      32.354  21.036  23.288  1.00  0.00     0.004 A 
ATOM     16  C   UNL A   1      32.716  23.383  22.891  1.00  0.00     0.133 A 
ATOM     17  C   UNL A   1      31.939  22.242  22.719  1.00  0.00     0.047 A 
BRANCH  16  18
ATOM     18  O   UNL A   1      32.230  24.572  22.276  1.00  0.00    -0.410 OA
BRANCH  18  19
ATOM     19  C   UNL A   1      32.951  25.370  21.384  1.00  0.00     0.412 C 
ATOM     20  O   UNL A   1      33.155  25.140  20.198  1.00  0.00    -0.224 OA
ATOM     21  N   UNL A   1      33.482  26.502  21.937  1.00  0.00    -0.321 N 
ATOM     22  H   UNL A   1      34.001  27.075  21.328  1.00  0.00     0.167 HD
BRANCH  21  23
ATOM     23  C   UNL A   1      33.376  26.966  23.302  1.00  0.00     0.119 C 
BRANCH  23  24
ATOM     24  C   UNL A   1      32.510  28.228  23.399  1.00  0.00     0.025 C 
BRANCH  24  25
ATOM     25  C   UNL A   1      31.084  27.968  23.948  1.00  0.00    -0.009 C 
ATOM     26  C   UNL A   1      30.022  28.155  22.854  1.00  0.00     0.003 C 
ATOM     27  C   UNL A   1      30.975  26.556  24.541  1.00  0.00     0.003 C 
ATOM     28  C   UNL A   1      28.607  27.826  23.319  1.00  0.00     0.000 C 
ATOM     29  C   UNL A   1      29.563  26.271  25.051  1.00  0.00     0.000 C 
ATOM     30  C   UNL A   1      28.524  26.443  23.949  1.00  0.00     0.000 C 
ENDBRANCH  24  25
ENDBRANCH  23  24
ENDBRANCH  21  23
ENDBRANCH  18  19
ENDBRANCH  16  18
ENDBRANCH  10  12
ENDBRANCH   3   5
ENDBRANCH   1   3
BRANCH   1  31
ATOM     31  O   UNL A   1      41.483  21.189  25.500  1.00  0.00    -0.462 OA
BRANCH  31  32
ATOM     32  C   UNL A   1      42.775  20.654  25.854  1.00  0.00     0.274 C 
BRANCH  32  33
ATOM     33  C   UNL A   1      43.889  21.539  25.303  1.00  0.00     0.275 C 
BRANCH  33  34
ATOM     34  O   UNL A   1      43.325  22.712  24.692  1.00  0.00    -0.458 OA
BRANCH  34  35
ATOM     35  C   UNL A   1      43.997  23.866  24.903  1.00  0.00     0.338 C 
ATOM     36  O   UNL A   1      45.054  24.210  24.400  1.00  0.00    -0.246 OA
BRANCH  35  37
ATOM     37  C   UNL A   1      43.254  24.707  25.856  1.00  0.00     0.060 A 
ATOM     38  C   UNL A   1      42.980  26.035  25.541  1.00  0.00     0.016 A 
ATOM     39  C   UNL A   1      42.960  24.214  27.127  1.00  0.00     0.016 A 
ATOM     40  C   UNL A   1      42.519  26.898  26.537  1.00  0.00     0.010 A 
ATOM     41  C   UNL A   1      42.411  25.067  28.093  1.00  0.00     0.010 A 
ATOM     42  C   UNL A   1      42.248  26.440  27.836  1.00  0.00    -0.014 A 
BRANCH  42  43
ATOM     43  C   UNL A   1      41.842  27.387  28.927  1.00  0.00     0.031 A 
ATOM     44  C   UNL A   1      42.571  27.392  30.256  1.00  0.00     0.074 A 
ATOM     45  C   UNL A   1      40.798  28.228  28.761  1.00  0.00     0.049 A 
ATOM     46  N   UNL A   1      42.290  28.049  31.355  1.00  0.00    -0.248 NA
ATOM     47  C   UNL A   1      43.764  26.536  30.374  1.00  0.00     0.031 C 
ATOM     48  C   UNL A   1      40.019  28.376  27.534  1.00  0.00     0.029 A 
ATOM     49  N   UNL A   1      40.201  29.110  29.634  1.00  0.00    -0.354 N 
ATOM     50  C   UNL A   1      43.198  27.608  32.312  1.00  0.00     0.074 A 
ATOM     51  C   UNL A   1      44.059  26.645  31.663  1.00  0.00     0.031 C 
ATOM     52  C   UNL A   1      39.065  29.297  27.725  1.00  0.00     0.029 A 
ATOM     53  C   UNL A   1      39.080  29.727  29.119  1.00  0.00     0.049 A 
ATOM     54  H   UNL A   1      40.542  29.283  30.541  1.00  0.00     0.167 HD
ATOM     55  C   UNL A   1      43.318  27.979  33.610  1.00  0.00     0.034 A 
ATOM     56  C   UNL A   1      38.149  30.508  29.710  1.00  0.00     0.034 A 
ATOM     57  C   UNL A   1      42.576  29.045  34.227  1.00  0.00     0.049 A 
ATOM     58  C   UNL A   1      38.382  30.917  31.153  1.00  0.00     0.074 A 
ATOM     59  C   UNL A   1      42.714  29.561  35.505  1.00  0.00     0.029 A 
ATOM     60  N   UNL A   1      41.569  29.766  33.612  1.00  0.00    -0.354 N 
ATOM     61  N   UNL A   1      39.445  30.756  31.904  1.00  0.00    -0.248 NA
ATOM     62  C   UNL A   1      37.315  31.687  31.814  1.00  0.00     0.031 C 
ATOM     63  C   UNL A   1      41.783  30.593  35.666  1.00  0.00     0.029 A 
ATOM     64  C   UNL A   1      41.056  30.703  34.493  1.00  0.00     0.049 A 
ATOM     65  H   UNL A   1      41.264  29.634  32.686  1.00  0.00     0.167 HD
ATOM     66  C   UNL A   1      39.207  31.486  33.066  1.00  0.00     0.074 A 
ATOM     67  C   UNL A   1      37.939  32.155  32.884  1.00  0.00     0.031 C 
ATOM     68  C   UNL A   1      39.922  31.542  34.217  1.00  0.00     0.034 A 
BRANCH  55  69
ATOM     69  C   UNL A   1      44.320  27.255  34.468  1.00  0.00     0.023 A 
ATOM     70  C   UNL A   1      43.944  26.086  35.156  1.00  0.00     0.012 A 
ATOM     71  C   UNL A   1      45.665  27.679  34.501  1.00  0.00     0.148 A 
ATOM     72  C   UNL A   1      44.888  25.356  35.878  1.00  0.00     0.002 A 
ATOM     73  C   UNL A   1      46.607  26.925  35.191  1.00  0.00     0.091 A 
ATOM     74  F   UNL A   1      45.997  28.807  33.859  1.00  0.00    -0.205 F 
ATOM     75  C   UNL A   1      46.220  25.767  35.884  1.00  0.00     0.022 A 
BRANCH  73  76
ATOM     76  S   UNL A   1      48.356  27.338  35.181  1.00  0.00     0.127 S 
ATOM     77  O   UNL A   1      48.668  27.273  33.755  1.00  0.00    -0.237 OA
ATOM     78  O   UNL A   1      48.362  28.690  35.745  1.00  0.00    -0.237 OA
ATOM     79  O   UNL A   1      49.003  26.336  36.017  1.00  0.00    -0.744 OA
ENDBRANCH  73  76
ENDBRANCH  55  69
BRANCH  56  80
ATOM     80  C   UNL A   1      36.941  31.012  28.957  1.00  0.00     0.023 A 
ATOM     81  C   UNL A   1      36.847  32.381  28.634  1.00  0.00     0.012 A 
ATOM     82  C   UNL A   1      35.873  30.178  28.562  1.00  0.00     0.148 A 
ATOM     83  C   UNL A   1      35.704  32.915  28.043  1.00  0.00     0.002 A 
ATOM     84  C   UNL A   1      34.826  30.687  27.800  1.00  0.00     0.091 A 
ATOM     85  F   UNL A   1      35.897  28.884  28.910  1.00  0.00    -0.205 F 
ATOM     86  C   UNL A   1      34.706  32.065  27.589  1.00  0.00     0.022 A 
BRANCH  84  87
ATOM     87  S   UNL A   1      33.677  29.617  26.928  1.00  0.00     0.127 S 
ATOM     88  O   UNL A   1      32.893  30.569  26.140  1.00  0.00    -0.237 OA
ATOM     89  O   UNL A   1      34.597  28.791  26.150  1.00  0.00    -0.237 OA
ATOM     90  O   UNL A   1      32.925  28.921  27.962  1.00  0.00    -0.744 OA
ENDBRANCH  84  87
ENDBRANCH  56  80
BRANCH  68  91
ATOM     91  C   UNL A   1      39.416  32.446  35.315  1.00  0.00     0.023 A 
ATOM     92  C   UNL A   1      38.406  31.981  36.184  1.00  0.00     0.012 A 
ATOM     93  C   UNL A   1      39.946  33.737  35.509  1.00  0.00     0.148 A 
ATOM     94  C   UNL A   1      37.879  32.808  37.174  1.00  0.00     0.002 A 
ATOM     95  C   UNL A   1      39.456  34.536  36.538  1.00  0.00     0.091 A 
ATOM     96  F   UNL A   1      40.904  34.172  34.676  1.00  0.00    -0.205 F 
ATOM     97  C   UNL A   1      38.408  34.082  37.356  1.00  0.00     0.022 A 
BRANCH  95  98
ATOM     98  S   UNL A   1      40.152  36.149  36.920  1.00  0.00     0.127 S 
ATOM     99  O   UNL A   1      39.981  36.857  35.652  1.00  0.00    -0.237 OA
ATOM    100  O   UNL A   1      39.285  36.618  38.002  1.00  0.00    -0.237 OA
ATOM    101  O   UNL A   1      41.529  35.896  37.323  1.00  0.00    -0.744 OA
ENDBRANCH  95  98
ENDBRANCH  68  91
ENDBRANCH  42  43
ENDBRANCH  35  37
ENDBRANCH  34  35
ENDBRANCH  33  34
ENDBRANCH  32  33
ENDBRANCH  31  32
ENDBRANCH   1  31
TORSDOF 21
ENDMDL
