MODEL 1
REMARK VINA RESULT:     -11.5      0.000      0.000
REMARK SMILES N#Cc1ccc(Sc2csc(C(=O)OCCOC(=O)c3ccc(-c4c5nc(c(-c6cccc(S(=O)(=O)[O-])c6F)c6ccc([nH]6)c(-c6cccc(S(=O)(=O)[O-])c6F)c6nc(c(-c7cccc(S(=O)(=O)[O-])c7F)c7ccc4[nH]7)C=C6)C=C5)cc3)c2)c(F)c1
REMARK SMILES IDX 15 1 14 2 12 3 13 4 11 5 8 6 9 7 83 8 10 9 7 10 6 11 3 12
REMARK SMILES IDX 4 13 86 14 5 15 84 16 85 17 2 18 1 19 16 20 17 21 18 22
REMARK SMILES IDX 19 23 20 24 21 25 82 26 22 27 81 28 23 29 24 30 25 31 75 32
REMARK SMILES IDX 26 33 80 34 74 35 76 36 27 37 79 38 73 39 72 40 28 42 60 43
REMARK SMILES IDX 40 44 59 45 41 46 44 47 58 48 77 49 42 50 43 51 57 53 78 54
REMARK SMILES IDX 45 55 29 56 30 57 38 58 31 59 33 60 39 61 32 62 34 63 35 64
REMARK SMILES IDX 36 65 37 66 61 67 62 68 70 69 63 70 65 71 71 72 64 73 66 74
REMARK SMILES IDX 67 75 68 76 69 77 46 78 47 79 55 80 48 81 50 82 56 83 49 84
REMARK SMILES IDX 51 85 52 86 53 87 54 88
REMARK H PARENT 76 41 44 52
REMARK Flexibility Score: inf
ROOT
ATOM      1  C   UNL A   1      36.045  20.065  24.979  1.00  0.00     0.275 C 
ENDROOT
BRANCH   1   2
ATOM      2  O   UNL A   1      35.504  21.324  24.528  1.00  0.00    -0.458 OA
BRANCH   2   3
ATOM      3  C   UNL A   1      34.173  21.530  24.773  1.00  0.00     0.348 C 
ATOM      4  O   UNL A   1      33.375  20.630  24.999  1.00  0.00    -0.245 OA
BRANCH   3   5
ATOM      5  C   UNL A   1      33.871  22.954  24.762  1.00  0.00     0.113 A 
ATOM      6  C   UNL A   1      32.997  25.073  25.224  1.00  0.00     0.024 A 
ATOM      7  C   UNL A   1      33.755  25.348  24.113  1.00  0.00     0.081 A 
ATOM      8  C   UNL A   1      33.032  23.691  25.578  1.00  0.00     0.043 A 
ATOM      9  S   UNL A   1      34.645  23.977  23.613  1.00  0.00    -0.136 S 
BRANCH   6  10
ATOM     10  S   UNL A   1      32.188  26.254  26.228  1.00  0.00    -0.086 SA
BRANCH  10  11
ATOM     11  C   UNL A   1      31.197  27.297  25.179  1.00  0.00     0.048 A 
ATOM     12  C   UNL A   1      29.703  28.729  23.257  1.00  0.00     0.055 A 
ATOM     13  C   UNL A   1      30.618  29.393  24.083  1.00  0.00     0.021 A 
ATOM     14  C   UNL A   1      29.510  27.358  23.409  1.00  0.00     0.060 A 
ATOM     15  C   UNL A   1      31.364  28.679  25.037  1.00  0.00     0.020 A 
ATOM     16  C   UNL A   1      30.249  26.662  24.360  1.00  0.00     0.138 A 
ATOM     17  F   UNL A   1      30.049  25.336  24.452  1.00  0.00    -0.206 F 
BRANCH  12  18
ATOM     18  C   UNL A   1      28.989  29.434  22.229  1.00  0.00     0.099 C 
ATOM     19  N   UNL A   1      28.386  29.965  21.396  1.00  0.00    -0.192 NA
ENDBRANCH  12  18
ENDBRANCH  10  11
ENDBRANCH   6  10
ENDBRANCH   3   5
ENDBRANCH   2   3
ENDBRANCH   1   2
BRANCH   1  20
ATOM     20  C   UNL A   1      37.573  20.008  24.857  1.00  0.00     0.275 C 
BRANCH  20  21
ATOM     21  O   UNL A   1      38.204  21.195  25.374  1.00  0.00    -0.458 OA
BRANCH  21  22
ATOM     22  C   UNL A   1      39.334  20.967  26.081  1.00  0.00     0.338 C 
ATOM     23  O   UNL A   1      39.989  19.937  26.100  1.00  0.00    -0.246 OA
BRANCH  22  24
ATOM     24  C   UNL A   1      39.809  22.203  26.721  1.00  0.00     0.060 A 
ATOM     25  C   UNL A   1      39.273  23.390  26.234  1.00  0.00     0.016 A 
ATOM     26  C   UNL A   1      40.856  22.232  27.639  1.00  0.00     0.016 A 
ATOM     27  C   UNL A   1      39.806  24.616  26.604  1.00  0.00     0.010 A 
ATOM     28  C   UNL A   1      41.366  23.474  28.052  1.00  0.00     0.010 A 
ATOM     29  C   UNL A   1      40.867  24.677  27.513  1.00  0.00    -0.014 A 
BRANCH  29  30
ATOM     30  C   UNL A   1      41.453  26.006  27.837  1.00  0.00     0.031 A 
ATOM     31  C   UNL A   1      42.852  26.352  27.402  1.00  0.00     0.074 A 
ATOM     32  C   UNL A   1      40.702  26.931  28.469  1.00  0.00     0.049 A 
ATOM     33  N   UNL A   1      43.532  27.451  27.608  1.00  0.00    -0.248 NA
ATOM     34  C   UNL A   1      43.587  25.330  26.640  1.00  0.00     0.031 C 
ATOM     35  C   UNL A   1      39.322  26.731  28.922  1.00  0.00     0.029 A 
ATOM     36  N   UNL A   1      40.987  28.222  28.838  1.00  0.00    -0.354 N 
ATOM     37  C   UNL A   1      44.789  27.235  27.053  1.00  0.00     0.074 A 
ATOM     38  C   UNL A   1      44.778  25.897  26.502  1.00  0.00     0.031 C 
ATOM     39  C   UNL A   1      38.879  27.860  29.494  1.00  0.00     0.029 A 
ATOM     40  C   UNL A   1      39.958  28.840  29.512  1.00  0.00     0.049 A 
ATOM     41  H   UNL A   1      41.844  28.664  28.639  1.00  0.00     0.167 HD
ATOM     42  C   UNL A   1      45.851  28.076  26.999  1.00  0.00     0.034 A 
ATOM     43  C   UNL A   1      39.898  30.045  30.110  1.00  0.00     0.034 A 
ATOM     44  C   UNL A   1      45.846  29.418  27.519  1.00  0.00     0.049 A 
ATOM     45  C   UNL A   1      41.099  30.947  30.055  1.00  0.00     0.074 A 
ATOM     46  C   UNL A   1      46.860  30.359  27.476  1.00  0.00     0.029 A 
ATOM     47  N   UNL A   1      44.783  30.010  28.185  1.00  0.00    -0.354 N 
ATOM     48  N   UNL A   1      42.252  30.751  29.463  1.00  0.00    -0.248 NA
ATOM     49  C   UNL A   1      40.981  32.247  30.729  1.00  0.00     0.031 C 
ATOM     50  C   UNL A   1      46.425  31.503  28.155  1.00  0.00     0.029 A 
ATOM     51  C   UNL A   1      45.122  31.295  28.573  1.00  0.00     0.049 A 
ATOM     52  H   UNL A   1      43.915  29.578  28.357  1.00  0.00     0.167 HD
ATOM     53  C   UNL A   1      42.986  31.914  29.666  1.00  0.00     0.074 A 
ATOM     54  C   UNL A   1      42.135  32.819  30.410  1.00  0.00     0.031 C 
ATOM     55  C   UNL A   1      44.254  32.203  29.280  1.00  0.00     0.034 A 
BRANCH  42  56
ATOM     56  C   UNL A   1      47.119  27.566  26.360  1.00  0.00     0.023 A 
ATOM     57  C   UNL A   1      48.051  26.831  27.120  1.00  0.00     0.012 A 
ATOM     58  C   UNL A   1      47.358  27.770  24.986  1.00  0.00     0.148 A 
ATOM     59  C   UNL A   1      49.219  26.343  26.532  1.00  0.00     0.002 A 
ATOM     60  C   UNL A   1      48.498  27.238  24.396  1.00  0.00     0.091 A 
ATOM     61  F   UNL A   1      46.469  28.486  24.282  1.00  0.00    -0.205 F 
ATOM     62  C   UNL A   1      49.436  26.537  25.171  1.00  0.00     0.022 A 
BRANCH  60  63
ATOM     63  S   UNL A   1      48.830  27.363  22.636  1.00  0.00     0.127 S 
ATOM     64  O   UNL A   1      50.274  27.591  22.623  1.00  0.00    -0.237 OA
ATOM     65  O   UNL A   1      48.416  26.047  22.152  1.00  0.00    -0.237 OA
ATOM     66  O   UNL A   1      48.021  28.472  22.150  1.00  0.00    -0.744 OA
ENDBRANCH  60  63
ENDBRANCH  42  56
BRANCH  43  67
ATOM     67  C   UNL A   1      38.655  30.467  30.818  1.00  0.00     0.023 A 
ATOM     68  C   UNL A   1      38.493  30.177  32.186  1.00  0.00     0.012 A 
ATOM     69  C   UNL A   1      37.637  31.164  30.139  1.00  0.00     0.148 A 
ATOM     70  C   UNL A   1      37.326  30.546  32.856  1.00  0.00     0.002 A 
ATOM     71  C   UNL A   1      36.505  31.584  30.827  1.00  0.00     0.091 A 
ATOM     72  F   UNL A   1      37.802  31.417  28.832  1.00  0.00    -0.205 F 
ATOM     73  C   UNL A   1      36.338  31.257  32.181  1.00  0.00     0.022 A 
BRANCH  71  74
ATOM     74  S   UNL A   1      35.246  32.616  30.071  1.00  0.00     0.127 S 
ATOM     75  O   UNL A   1      34.311  32.805  31.176  1.00  0.00    -0.237 OA
ATOM     76  O   UNL A   1      36.015  33.806  29.703  1.00  0.00    -0.237 OA
ATOM     77  O   UNL A   1      34.737  31.855  28.938  1.00  0.00    -0.744 OA
ENDBRANCH  71  74
ENDBRANCH  43  67
BRANCH  55  78
ATOM     78  C   UNL A   1      44.784  33.574  29.612  1.00  0.00     0.023 A 
ATOM     79  C   UNL A   1      45.447  33.804  30.835  1.00  0.00     0.012 A 
ATOM     80  C   UNL A   1      44.659  34.630  28.687  1.00  0.00     0.148 A 
ATOM     81  C   UNL A   1      45.934  35.071  31.151  1.00  0.00     0.002 A 
ATOM     82  C   UNL A   1      45.197  35.875  28.984  1.00  0.00     0.091 A 
ATOM     83  F   UNL A   1      44.010  34.398  27.536  1.00  0.00    -0.205 F 
ATOM     84  C   UNL A   1      45.818  36.103  30.223  1.00  0.00     0.022 A 
BRANCH  82  85
ATOM     85  S   UNL A   1      45.186  37.234  27.810  1.00  0.00     0.127 S 
ATOM     86  O   UNL A   1      45.735  38.326  28.613  1.00  0.00    -0.237 OA
ATOM     87  O   UNL A   1      46.076  36.742  26.759  1.00  0.00    -0.237 OA
ATOM     88  O   UNL A   1      43.797  37.400  27.400  1.00  0.00    -0.744 OA
ENDBRANCH  82  85
ENDBRANCH  55  78
ENDBRANCH  29  30
ENDBRANCH  22  24
ENDBRANCH  21  22
ENDBRANCH  20  21
ENDBRANCH   1  20
TORSDOF 17
ENDMDL
MODEL 2
REMARK VINA RESULT:     -11.3      5.441     10.455
REMARK SMILES N#Cc1ccc(Sc2csc(C(=O)OCCOC(=O)c3ccc(-c4c5nc(c(-c6cccc(S(=O)(=O)[O-])c6F)c6ccc([nH]6)c(-c6cccc(S(=O)(=O)[O-])c6F)c6nc(c(-c7cccc(S(=O)(=O)[O-])c7F)c7ccc4[nH]7)C=C6)C=C5)cc3)c2)c(F)c1
REMARK SMILES IDX 15 1 14 2 12 3 13 4 11 5 8 6 9 7 83 8 10 9 7 10 6 11 3 12
REMARK SMILES IDX 4 13 86 14 5 15 84 16 85 17 2 18 1 19 16 20 17 21 18 22
REMARK SMILES IDX 19 23 20 24 21 25 82 26 22 27 81 28 23 29 24 30 25 31 75 32
REMARK SMILES IDX 26 33 80 34 74 35 76 36 27 37 79 38 73 39 72 40 28 42 60 43
REMARK SMILES IDX 40 44 59 45 41 46 44 47 58 48 77 49 42 50 43 51 57 53 78 54
REMARK SMILES IDX 45 55 29 56 30 57 38 58 31 59 33 60 39 61 32 62 34 63 35 64
REMARK SMILES IDX 36 65 37 66 61 67 62 68 70 69 63 70 65 71 71 72 64 73 66 74
REMARK SMILES IDX 67 75 68 76 69 77 46 78 47 79 55 80 48 81 50 82 56 83 49 84
REMARK SMILES IDX 51 85 52 86 53 87 54 88
REMARK H PARENT 76 41 44 52
REMARK Flexibility Score: inf
ROOT
ATOM      1  C   UNL A   1      31.684  29.645  24.654  1.00  0.00     0.275 C 
ENDROOT
BRANCH   1   2
ATOM      2  O   UNL A   1      30.416  29.139  24.189  1.00  0.00    -0.458 OA
BRANCH   2   3
ATOM      3  C   UNL A   1      30.471  28.167  23.227  1.00  0.00     0.348 C 
ATOM      4  O   UNL A   1      30.124  28.339  22.065  1.00  0.00    -0.245 OA
BRANCH   3   5
ATOM      5  C   UNL A   1      31.027  26.939  23.776  1.00  0.00     0.113 A 
ATOM      6  C   UNL A   1      32.310  25.022  24.155  1.00  0.00     0.024 A 
ATOM      7  C   UNL A   1      31.369  24.898  25.147  1.00  0.00     0.081 A 
ATOM      8  C   UNL A   1      32.095  26.174  23.342  1.00  0.00     0.043 A 
ATOM      9  S   UNL A   1      30.343  26.264  25.206  1.00  0.00    -0.136 S 
BRANCH   6  10
ATOM     10  S   UNL A   1      33.722  24.010  23.952  1.00  0.00    -0.086 SA
BRANCH  10  11
ATOM     11  C   UNL A   1      33.261  22.327  24.301  1.00  0.00     0.048 A 
ATOM     12  C   UNL A   1      32.867  19.604  24.940  1.00  0.00     0.055 A 
ATOM     13  C   UNL A   1      32.392  20.125  23.730  1.00  0.00     0.021 A 
ATOM     14  C   UNL A   1      33.510  20.445  25.844  1.00  0.00     0.060 A 
ATOM     15  C   UNL A   1      32.592  21.479  23.411  1.00  0.00     0.020 A 
ATOM     16  C   UNL A   1      33.698  21.786  25.521  1.00  0.00     0.138 A 
ATOM     17  F   UNL A   1      34.349  22.553  26.411  1.00  0.00    -0.206 F 
BRANCH  12  18
ATOM     18  C   UNL A   1      32.734  18.206  25.245  1.00  0.00     0.099 C 
ATOM     19  N   UNL A   1      32.603  17.093  25.529  1.00  0.00    -0.192 NA
ENDBRANCH  12  18
ENDBRANCH  10  11
ENDBRANCH   6  10
ENDBRANCH   3   5
ENDBRANCH   2   3
ENDBRANCH   1   2
BRANCH   1  20
ATOM     20  C   UNL A   1      31.526  30.664  25.789  1.00  0.00     0.275 C 
BRANCH  20  21
ATOM     21  O   UNL A   1      32.497  30.467  26.834  1.00  0.00    -0.458 OA
BRANCH  21  22
ATOM     22  C   UNL A   1      33.143  31.591  27.220  1.00  0.00     0.338 C 
ATOM     23  O   UNL A   1      32.663  32.709  27.328  1.00  0.00    -0.246 OA
BRANCH  22  24
ATOM     24  C   UNL A   1      34.504  31.281  27.682  1.00  0.00     0.060 A 
ATOM     25  C   UNL A   1      34.761  29.947  27.978  1.00  0.00     0.016 A 
ATOM     26  C   UNL A   1      35.449  32.260  27.981  1.00  0.00     0.016 A 
ATOM     27  C   UNL A   1      35.929  29.575  28.627  1.00  0.00     0.010 A 
ATOM     28  C   UNL A   1      36.653  31.879  28.596  1.00  0.00     0.010 A 
ATOM     29  C   UNL A   1      36.890  30.537  28.954  1.00  0.00    -0.014 A 
BRANCH  29  30
ATOM     30  C   UNL A   1      38.100  30.107  29.707  1.00  0.00     0.031 A 
ATOM     31  C   UNL A   1      38.318  30.557  31.127  1.00  0.00     0.074 A 
ATOM     32  C   UNL A   1      38.977  29.258  29.133  1.00  0.00     0.049 A 
ATOM     33  N   UNL A   1      39.318  30.298  31.930  1.00  0.00    -0.248 NA
ATOM     34  C   UNL A   1      37.279  31.413  31.723  1.00  0.00     0.031 C 
ATOM     35  C   UNL A   1      38.869  28.728  27.771  1.00  0.00     0.029 A 
ATOM     36  N   UNL A   1      40.127  28.689  29.620  1.00  0.00    -0.354 N 
ATOM     37  C   UNL A   1      39.060  31.000  33.103  1.00  0.00     0.074 A 
ATOM     38  C   UNL A   1      37.808  31.698  32.906  1.00  0.00     0.031 C 
ATOM     39  C   UNL A   1      39.901  27.903  27.537  1.00  0.00     0.029 A 
ATOM     40  C   UNL A   1      40.778  27.897  28.701  1.00  0.00     0.049 A 
ATOM     41  H   UNL A   1      40.456  28.833  30.537  1.00  0.00     0.167 HD
ATOM     42  C   UNL A   1      39.793  31.051  34.242  1.00  0.00     0.034 A 
ATOM     43  C   UNL A   1      41.966  27.266  28.771  1.00  0.00     0.034 A 
ATOM     44  C   UNL A   1      41.021  30.328  34.446  1.00  0.00     0.049 A 
ATOM     45  C   UNL A   1      42.768  27.359  30.038  1.00  0.00     0.074 A 
ATOM     46  C   UNL A   1      41.814  30.285  35.580  1.00  0.00     0.029 A 
ATOM     47  N   UNL A   1      41.642  29.530  33.496  1.00  0.00    -0.354 N 
ATOM     48  N   UNL A   1      42.472  27.969  31.160  1.00  0.00    -0.248 NA
ATOM     49  C   UNL A   1      44.059  26.656  30.057  1.00  0.00     0.031 C 
ATOM     50  C   UNL A   1      42.937  29.497  35.300  1.00  0.00     0.029 A 
ATOM     51  C   UNL A   1      42.816  29.005  34.011  1.00  0.00     0.049 A 
ATOM     52  H   UNL A   1      41.298  29.363  32.589  1.00  0.00     0.167 HD
ATOM     53  C   UNL A   1      43.523  27.698  32.029  1.00  0.00     0.074 A 
ATOM     54  C   UNL A   1      44.447  26.845  31.311  1.00  0.00     0.031 C 
ATOM     55  C   UNL A   1      43.710  28.125  33.303  1.00  0.00     0.034 A 
BRANCH  42  56
ATOM     56  C   UNL A   1      39.291  31.929  35.362  1.00  0.00     0.023 A 
ATOM     57  C   UNL A   1      38.382  31.419  36.310  1.00  0.00     0.012 A 
ATOM     58  C   UNL A   1      39.767  33.248  35.504  1.00  0.00     0.148 A 
ATOM     59  C   UNL A   1      37.925  32.219  37.358  1.00  0.00     0.002 A 
ATOM     60  C   UNL A   1      39.345  34.023  36.578  1.00  0.00     0.091 A 
ATOM     61  F   UNL A   1      40.618  33.723  34.582  1.00  0.00    -0.205 F 
ATOM     62  C   UNL A   1      38.414  33.515  37.497  1.00  0.00     0.022 A 
BRANCH  60  63
ATOM     63  S   UNL A   1      39.978  35.674  36.891  1.00  0.00     0.127 S 
ATOM     64  O   UNL A   1      39.264  36.037  38.114  1.00  0.00    -0.237 OA
ATOM     65  O   UNL A   1      41.408  35.425  37.071  1.00  0.00    -0.237 OA
ATOM     66  O   UNL A   1      39.641  36.465  35.716  1.00  0.00    -0.744 OA
ENDBRANCH  60  63
ENDBRANCH  42  56
BRANCH  43  67
ATOM     67  C   UNL A   1      42.470  26.490  27.601  1.00  0.00     0.023 A 
ATOM     68  C   UNL A   1      43.272  27.122  26.632  1.00  0.00     0.012 A 
ATOM     69  C   UNL A   1      42.163  25.123  27.452  1.00  0.00     0.148 A 
ATOM     70  C   UNL A   1      43.731  26.416  25.519  1.00  0.00     0.002 A 
ATOM     71  C   UNL A   1      42.677  24.410  26.376  1.00  0.00     0.091 A 
ATOM     72  F   UNL A   1      41.385  24.542  28.377  1.00  0.00    -0.205 F 
ATOM     73  C   UNL A   1      43.443  25.059  25.397  1.00  0.00     0.022 A 
BRANCH  71  74
ATOM     74  S   UNL A   1      42.466  22.635  26.209  1.00  0.00     0.127 S 
ATOM     75  O   UNL A   1      43.102  22.142  27.428  1.00  0.00    -0.237 OA
ATOM     76  O   UNL A   1      41.008  22.508  26.180  1.00  0.00    -0.237 OA
ATOM     77  O   UNL A   1      43.126  22.273  24.963  1.00  0.00    -0.744 OA
ENDBRANCH  71  74
ENDBRANCH  43  67
BRANCH  55  78
ATOM     78  C   UNL A   1      44.940  27.637  34.023  1.00  0.00     0.023 A 
ATOM     79  C   UNL A   1      46.131  28.389  33.988  1.00  0.00     0.012 A 
ATOM     80  C   UNL A   1      44.900  26.444  34.774  1.00  0.00     0.148 A 
ATOM     81  C   UNL A   1      47.275  27.940  34.647  1.00  0.00     0.002 A 
ATOM     82  C   UNL A   1      46.025  26.032  35.475  1.00  0.00     0.091 A 
ATOM     83  F   UNL A   1      43.764  25.732  34.782  1.00  0.00    -0.205 F 
ATOM     84  C   UNL A   1      47.219  26.768  35.398  1.00  0.00     0.022 A 
BRANCH  82  85
ATOM     85  S   UNL A   1      46.018  24.592  36.549  1.00  0.00     0.127 S 
ATOM     86  O   UNL A   1      44.918  24.906  37.461  1.00  0.00    -0.237 OA
ATOM     87  O   UNL A   1      45.739  23.507  35.608  1.00  0.00    -0.237 OA
ATOM     88  O   UNL A   1      47.339  24.540  37.160  1.00  0.00    -0.744 OA
ENDBRANCH  82  85
ENDBRANCH  55  78
ENDBRANCH  29  30
ENDBRANCH  22  24
ENDBRANCH  21  22
ENDBRANCH  20  21
ENDBRANCH   1  20
TORSDOF 17
ENDMDL
MODEL 3
REMARK VINA RESULT:     -11.1      1.711      2.048
REMARK SMILES N#Cc1ccc(Sc2csc(C(=O)OCCOC(=O)c3ccc(-c4c5nc(c(-c6cccc(S(=O)(=O)[O-])c6F)c6ccc([nH]6)c(-c6cccc(S(=O)(=O)[O-])c6F)c6nc(c(-c7cccc(S(=O)(=O)[O-])c7F)c7ccc4[nH]7)C=C6)C=C5)cc3)c2)c(F)c1
REMARK SMILES IDX 15 1 14 2 12 3 13 4 11 5 8 6 9 7 83 8 10 9 7 10 6 11 3 12
REMARK SMILES IDX 4 13 86 14 5 15 84 16 85 17 2 18 1 19 16 20 17 21 18 22
REMARK SMILES IDX 19 23 20 24 21 25 82 26 22 27 81 28 23 29 24 30 25 31 75 32
REMARK SMILES IDX 26 33 80 34 74 35 76 36 27 37 79 38 73 39 72 40 28 42 60 43
REMARK SMILES IDX 40 44 59 45 41 46 44 47 58 48 77 49 42 50 43 51 57 53 78 54
REMARK SMILES IDX 45 55 29 56 30 57 38 58 31 59 33 60 39 61 32 62 34 63 35 64
REMARK SMILES IDX 36 65 37 66 61 67 62 68 70 69 63 70 65 71 71 72 64 73 66 74
REMARK SMILES IDX 67 75 68 76 69 77 46 78 47 79 55 80 48 81 50 82 56 83 49 84
REMARK SMILES IDX 51 85 52 86 53 87 54 88
REMARK H PARENT 76 41 44 52
REMARK Flexibility Score: inf
ROOT
ATOM      1  C   UNL A   1      35.749  21.065  25.518  1.00  0.00     0.275 C 
ENDROOT
BRANCH   1   2
ATOM      2  O   UNL A   1      34.854  21.373  24.430  1.00  0.00    -0.458 OA
BRANCH   2   3
ATOM      3  C   UNL A   1      33.545  21.017  24.607  1.00  0.00     0.348 C 
ATOM      4  O   UNL A   1      33.174  19.870  24.826  1.00  0.00    -0.245 OA
BRANCH   3   5
ATOM      5  C   UNL A   1      32.686  22.190  24.534  1.00  0.00     0.113 A 
ATOM      6  C   UNL A   1      31.747  24.262  23.992  1.00  0.00     0.024 A 
ATOM      7  C   UNL A   1      30.904  23.856  24.997  1.00  0.00     0.081 A 
ATOM      8  C   UNL A   1      32.794  23.323  23.748  1.00  0.00     0.043 A 
ATOM      9  S   UNL A   1      31.272  22.269  25.515  1.00  0.00    -0.136 S 
BRANCH   6  10
ATOM     10  S   UNL A   1      31.530  25.672  22.982  1.00  0.00    -0.086 SA
BRANCH  10  11
ATOM     11  C   UNL A   1      31.470  27.109  24.031  1.00  0.00     0.048 A 
ATOM     12  C   UNL A   1      31.454  29.576  25.408  1.00  0.00     0.055 A 
ATOM     13  C   UNL A   1      32.172  28.485  25.913  1.00  0.00     0.021 A 
ATOM     14  C   UNL A   1      30.720  29.429  24.234  1.00  0.00     0.060 A 
ATOM     15  C   UNL A   1      32.183  27.259  25.226  1.00  0.00     0.020 A 
ATOM     16  C   UNL A   1      30.732  28.209  23.564  1.00  0.00     0.138 A 
ATOM     17  F   UNL A   1      30.032  28.123  22.420  1.00  0.00    -0.206 F 
BRANCH  12  18
ATOM     18  C   UNL A   1      31.495  30.854  26.062  1.00  0.00     0.099 C 
ATOM     19  N   UNL A   1      31.545  31.902  26.549  1.00  0.00    -0.192 NA
ENDBRANCH  12  18
ENDBRANCH  10  11
ENDBRANCH   6  10
ENDBRANCH   3   5
ENDBRANCH   2   3
ENDBRANCH   1   2
BRANCH   1  20
ATOM     20  C   UNL A   1      37.039  20.385  25.040  1.00  0.00     0.275 C 
BRANCH  20  21
ATOM     21  O   UNL A   1      38.160  21.288  25.042  1.00  0.00    -0.458 OA
BRANCH  21  22
ATOM     22  C   UNL A   1      39.119  20.990  25.948  1.00  0.00     0.338 C 
ATOM     23  O   UNL A   1      39.635  19.899  26.135  1.00  0.00    -0.246 OA
BRANCH  22  24
ATOM     24  C   UNL A   1      39.622  22.209  26.598  1.00  0.00     0.060 A 
ATOM     25  C   UNL A   1      39.113  23.412  26.121  1.00  0.00     0.016 A 
ATOM     26  C   UNL A   1      40.669  22.207  27.516  1.00  0.00     0.016 A 
ATOM     27  C   UNL A   1      39.674  24.622  26.501  1.00  0.00     0.010 A 
ATOM     28  C   UNL A   1      41.207  23.434  27.939  1.00  0.00     0.010 A 
ATOM     29  C   UNL A   1      40.735  24.652  27.410  1.00  0.00    -0.014 A 
BRANCH  29  30
ATOM     30  C   UNL A   1      41.351  25.965  27.744  1.00  0.00     0.031 A 
ATOM     31  C   UNL A   1      42.752  26.290  27.298  1.00  0.00     0.074 A 
ATOM     32  C   UNL A   1      40.626  26.896  28.398  1.00  0.00     0.049 A 
ATOM     33  N   UNL A   1      43.456  27.372  27.510  1.00  0.00    -0.248 NA
ATOM     34  C   UNL A   1      43.458  25.263  26.514  1.00  0.00     0.031 C 
ATOM     35  C   UNL A   1      39.248  26.717  28.864  1.00  0.00     0.029 A 
ATOM     36  N   UNL A   1      40.941  28.176  28.780  1.00  0.00    -0.354 N 
ATOM     37  C   UNL A   1      44.701  27.139  26.938  1.00  0.00     0.074 A 
ATOM     38  C   UNL A   1      44.658  25.809  26.370  1.00  0.00     0.031 C 
ATOM     39  C   UNL A   1      38.834  27.846  29.456  1.00  0.00     0.029 A 
ATOM     40  C   UNL A   1      39.932  28.805  29.474  1.00  0.00     0.049 A 
ATOM     41  H   UNL A   1      41.804  28.604  28.578  1.00  0.00     0.167 HD
ATOM     42  C   UNL A   1      45.779  27.959  26.883  1.00  0.00     0.034 A 
ATOM     43  C   UNL A   1      39.903  30.002  30.090  1.00  0.00     0.034 A 
ATOM     44  C   UNL A   1      45.807  29.294  27.420  1.00  0.00     0.049 A 
ATOM     45  C   UNL A   1      41.121  30.881  30.032  1.00  0.00     0.074 A 
ATOM     46  C   UNL A   1      46.839  30.216  27.378  1.00  0.00     0.029 A 
ATOM     47  N   UNL A   1      44.764  29.897  28.107  1.00  0.00    -0.354 N 
ATOM     48  N   UNL A   1      42.263  30.671  29.424  1.00  0.00    -0.248 NA
ATOM     49  C   UNL A   1      41.037  32.175  30.725  1.00  0.00     0.031 C 
ATOM     50  C   UNL A   1      46.435  31.359  28.077  1.00  0.00     0.029 A 
ATOM     51  C   UNL A   1      45.132  31.171  28.508  1.00  0.00     0.049 A 
ATOM     52  H   UNL A   1      43.889  29.481  28.283  1.00  0.00     0.167 HD
ATOM     53  C   UNL A   1      43.022  31.817  29.634  1.00  0.00     0.074 A 
ATOM     54  C   UNL A   1      42.197  32.728  30.400  1.00  0.00     0.031 C 
ATOM     55  C   UNL A   1      44.291  32.086  29.237  1.00  0.00     0.034 A 
BRANCH  42  56
ATOM     56  C   UNL A   1      47.030  27.433  26.222  1.00  0.00     0.023 A 
ATOM     57  C   UNL A   1      47.304  27.744  24.875  1.00  0.00     0.012 A 
ATOM     58  C   UNL A   1      47.961  26.674  26.958  1.00  0.00     0.148 A 
ATOM     59  C   UNL A   1      48.467  27.275  24.261  1.00  0.00     0.002 A 
ATOM     60  C   UNL A   1      49.140  26.252  26.354  1.00  0.00     0.091 A 
ATOM     61  F   UNL A   1      47.675  26.373  28.233  1.00  0.00    -0.205 F 
ATOM     62  C   UNL A   1      49.387  26.540  25.002  1.00  0.00     0.022 A 
BRANCH  60  63
ATOM     63  S   UNL A   1      50.425  25.369  27.245  1.00  0.00     0.127 S 
ATOM     64  O   UNL A   1      50.817  26.355  28.251  1.00  0.00    -0.237 OA
ATOM     65  O   UNL A   1      49.696  24.216  27.772  1.00  0.00    -0.237 OA
ATOM     66  O   UNL A   1      51.448  25.045  26.261  1.00  0.00    -0.744 OA
ENDBRANCH  60  63
ENDBRANCH  42  56
BRANCH  43  67
ATOM     67  C   UNL A   1      38.677  30.439  30.818  1.00  0.00     0.023 A 
ATOM     68  C   UNL A   1      38.546  30.175  32.194  1.00  0.00     0.012 A 
ATOM     69  C   UNL A   1      37.644  31.126  30.149  1.00  0.00     0.148 A 
ATOM     70  C   UNL A   1      37.394  30.557  32.884  1.00  0.00     0.002 A 
ATOM     71  C   UNL A   1      36.529  31.559  30.855  1.00  0.00     0.091 A 
ATOM     72  F   UNL A   1      37.780  31.354  28.835  1.00  0.00    -0.205 F 
ATOM     73  C   UNL A   1      36.392  31.257  32.218  1.00  0.00     0.022 A 
BRANCH  71  74
ATOM     74  S   UNL A   1      35.254  32.579  30.109  1.00  0.00     0.127 S 
ATOM     75  O   UNL A   1      34.790  31.726  29.017  1.00  0.00    -0.237 OA
ATOM     76  O   UNL A   1      34.308  32.733  31.215  1.00  0.00    -0.237 OA
ATOM     77  O   UNL A   1      35.917  33.812  29.707  1.00  0.00    -0.744 OA
ENDBRANCH  71  74
ENDBRANCH  43  67
BRANCH  55  78
ATOM     78  C   UNL A   1      44.851  33.441  29.582  1.00  0.00     0.023 A 
ATOM     79  C   UNL A   1      45.633  33.615  30.742  1.00  0.00     0.012 A 
ATOM     80  C   UNL A   1      44.636  34.540  28.725  1.00  0.00     0.148 A 
ATOM     81  C   UNL A   1      46.149  34.868  31.069  1.00  0.00     0.002 A 
ATOM     82  C   UNL A   1      45.201  35.772  29.028  1.00  0.00     0.091 A 
ATOM     83  F   UNL A   1      43.875  34.362  27.635  1.00  0.00    -0.205 F 
ATOM     84  C   UNL A   1      45.942  35.942  30.208  1.00  0.00     0.022 A 
BRANCH  82  85
ATOM     85  S   UNL A   1      45.073  37.187  27.929  1.00  0.00     0.127 S 
ATOM     86  O   UNL A   1      45.306  38.300  28.847  1.00  0.00    -0.237 OA
ATOM     87  O   UNL A   1      46.159  36.940  26.980  1.00  0.00    -0.237 OA
ATOM     88  O   UNL A   1      43.737  37.126  27.349  1.00  0.00    -0.744 OA
ENDBRANCH  82  85
ENDBRANCH  55  78
ENDBRANCH  29  30
ENDBRANCH  22  24
ENDBRANCH  21  22
ENDBRANCH  20  21
ENDBRANCH   1  20
TORSDOF 17
ENDMDL
