MODEL 1
REMARK VINA RESULT:     -10.9      0.000      0.000
REMARK SMILES C[C@](O)(C(=O)OCCOC(=O)c1ccc(-c2c3nc(c(-c4cccc(S(=O)(=O)[O-])c4F)c4ccc([nH]4)c(-c4cccc(S(=O)(=O)[O-])c4F)c4nc(c(-c5cccc(S(=O)(=O)[O-])c5F)c5ccc2[nH]5)C=C4)C=C3)cc1)c1ccc(O)cc1
REMARK SMILES IDX 8 1 7 2 6 3 4 4 5 5 2 6 1 7 75 8 76 9 81 10 77 11 80 12
REMARK SMILES IDX 78 13 79 14 3 16 9 18 10 19 11 20 12 21 13 22 74 23 14 24
REMARK SMILES IDX 73 25 15 26 16 27 17 28 67 29 18 30 72 31 66 32 68 33 19 34
REMARK SMILES IDX 71 35 65 36 64 37 20 39 52 40 32 41 51 42 33 43 36 44 50 45
REMARK SMILES IDX 69 46 34 47 35 48 49 50 70 51 37 52 21 53 22 54 30 55 23 56
REMARK SMILES IDX 25 57 31 58 24 59 26 60 27 61 28 62 29 63 53 64 54 65 62 66
REMARK SMILES IDX 55 67 57 68 63 69 56 70 58 71 59 72 60 73 61 74 38 75 39 76
REMARK SMILES IDX 47 77 40 78 42 79 48 80 41 81 43 82 44 83 45 84 46 85
REMARK H PARENT 79 15 3 17 68 38 36 49
REMARK Flexibility Score: inf
ROOT
ATOM      1  C   UNL A   1      40.563  19.848  25.944  1.00  0.00     0.275 C 
ENDROOT
BRANCH   1   2
ATOM      2  C   UNL A   1      42.070  19.959  26.141  1.00  0.00     0.274 C 
BRANCH   2   3
ATOM      3  O   UNL A   1      42.767  19.371  25.025  1.00  0.00    -0.460 OA
BRANCH   3   4
ATOM      4  C   UNL A   1      43.946  18.741  25.304  1.00  0.00     0.342 C 
ATOM      5  O   UNL A   1      44.097  17.937  26.219  1.00  0.00    -0.248 OA
BRANCH   4   6
ATOM      6  C   UNL A   1      45.103  19.233  24.382  1.00  0.00     0.184 C 
ATOM      7  C   UNL A   1      44.734  18.771  22.961  1.00  0.00     0.060 C 
BRANCH   6   8
ATOM      8  C   UNL A   1      45.255  20.763  24.489  1.00  0.00    -0.005 A 
ATOM      9  C   UNL A   1      44.738  21.626  23.503  1.00  0.00     0.011 A 
ATOM     10  C   UNL A   1      45.871  21.358  25.613  1.00  0.00     0.011 A 
ATOM     11  C   UNL A   1      44.873  23.012  23.611  1.00  0.00     0.046 A 
ATOM     12  C   UNL A   1      46.012  22.749  25.717  1.00  0.00     0.046 A 
ATOM     13  C   UNL A   1      45.512  23.563  24.711  1.00  0.00     0.115 A 
BRANCH  13  14
ATOM     14  O   UNL A   1      45.591  24.920  24.777  1.00  0.00    -0.508 OA
ATOM     15  H   UNL A   1      45.270  25.372  25.534  1.00  0.00     0.293 HD
ENDBRANCH  13  14
ENDBRANCH   6   8
BRANCH   6  16
ATOM     16  O   UNL A   1      46.363  18.597  24.638  1.00  0.00    -0.374 OA
ATOM     17  H   UNL A   1      46.310  18.096  25.466  1.00  0.00     0.212 HD
ENDBRANCH   6  16
ENDBRANCH   4   6
ENDBRANCH   3   4
ENDBRANCH   2   3
ENDBRANCH   1   2
BRANCH   1  18
ATOM     18  O   UNL A   1      39.903  20.721  26.873  1.00  0.00    -0.458 OA
BRANCH  18  19
ATOM     19  C   UNL A   1      39.215  21.752  26.333  1.00  0.00     0.338 C 
ATOM     20  O   UNL A   1      38.360  21.702  25.466  1.00  0.00    -0.246 OA
BRANCH  19  21
ATOM     21  C   UNL A   1      39.645  23.007  26.968  1.00  0.00     0.060 A 
ATOM     22  C   UNL A   1      39.107  24.220  26.543  1.00  0.00     0.016 A 
ATOM     23  C   UNL A   1      40.676  22.987  27.907  1.00  0.00     0.016 A 
ATOM     24  C   UNL A   1      39.674  25.416  26.976  1.00  0.00     0.010 A 
ATOM     25  C   UNL A   1      41.174  24.192  28.411  1.00  0.00     0.010 A 
ATOM     26  C   UNL A   1      40.717  25.426  27.912  1.00  0.00    -0.014 A 
BRANCH  26  27
ATOM     27  C   UNL A   1      41.364  26.706  28.326  1.00  0.00     0.031 A 
ATOM     28  C   UNL A   1      40.568  27.760  29.057  1.00  0.00     0.074 A 
ATOM     29  C   UNL A   1      42.663  26.944  28.051  1.00  0.00     0.049 A 
ATOM     30  N   UNL A   1      40.885  29.002  29.319  1.00  0.00    -0.248 NA
ATOM     31  C   UNL A   1      39.234  27.372  29.547  1.00  0.00     0.031 C 
ATOM     32  C   UNL A   1      43.569  26.017  27.373  1.00  0.00     0.029 A 
ATOM     33  N   UNL A   1      43.447  28.046  28.302  1.00  0.00    -0.354 N 
ATOM     34  C   UNL A   1      39.758  29.570  29.902  1.00  0.00     0.074 A 
ATOM     35  C   UNL A   1      38.759  28.527  29.992  1.00  0.00     0.031 C 
ATOM     36  C   UNL A   1      44.788  26.568  27.292  1.00  0.00     0.029 A 
ATOM     37  C   UNL A   1      44.731  27.927  27.823  1.00  0.00     0.049 A 
ATOM     38  H   UNL A   1      43.121  28.843  28.778  1.00  0.00     0.167 HD
ATOM     39  C   UNL A   1      39.572  30.844  30.325  1.00  0.00     0.034 A 
ATOM     40  C   UNL A   1      45.742  28.816  27.766  1.00  0.00     0.034 A 
ATOM     41  C   UNL A   1      40.595  31.855  30.333  1.00  0.00     0.049 A 
ATOM     42  C   UNL A   1      45.528  30.208  28.289  1.00  0.00     0.074 A 
ATOM     43  C   UNL A   1      40.512  33.157  30.792  1.00  0.00     0.029 A 
ATOM     44  N   UNL A   1      41.893  31.672  29.884  1.00  0.00    -0.354 N 
ATOM     45  N   UNL A   1      44.461  30.719  28.855  1.00  0.00    -0.248 NA
ATOM     46  C   UNL A   1      46.653  31.146  28.166  1.00  0.00     0.031 C 
ATOM     47  C   UNL A   1      41.762  33.763  30.623  1.00  0.00     0.029 A 
ATOM     48  C   UNL A   1      42.623  32.835  30.060  1.00  0.00     0.049 A 
ATOM     49  H   UNL A   1      42.245  30.839  29.496  1.00  0.00     0.167 HD
ATOM     50  C   UNL A   1      44.786  32.037  29.155  1.00  0.00     0.074 A 
ATOM     51  C   UNL A   1      46.161  32.234  28.743  1.00  0.00     0.031 C 
ATOM     52  C   UNL A   1      44.004  33.004  29.690  1.00  0.00     0.034 A 
BRANCH  39  53
ATOM     53  C   UNL A   1      38.209  31.221  30.842  1.00  0.00     0.023 A 
ATOM     54  C   UNL A   1      37.884  30.995  32.192  1.00  0.00     0.012 A 
ATOM     55  C   UNL A   1      37.276  31.863  30.002  1.00  0.00     0.148 A 
ATOM     56  C   UNL A   1      36.642  31.382  32.696  1.00  0.00     0.002 A 
ATOM     57  C   UNL A   1      36.055  32.278  30.520  1.00  0.00     0.091 A 
ATOM     58  F   UNL A   1      37.591  32.043  28.711  1.00  0.00    -0.205 F 
ATOM     59  C   UNL A   1      35.733  32.033  31.865  1.00  0.00     0.022 A 
BRANCH  57  60
ATOM     60  S   UNL A   1      34.863  33.190  29.533  1.00  0.00     0.127 S 
ATOM     61  O   UNL A   1      35.714  34.187  28.887  1.00  0.00    -0.237 OA
ATOM     62  O   UNL A   1      34.341  32.160  28.633  1.00  0.00    -0.237 OA
ATOM     63  O   UNL A   1      33.885  33.709  30.480  1.00  0.00    -0.744 OA
ENDBRANCH  57  60
ENDBRANCH  39  53
BRANCH  40  64
ATOM     64  C   UNL A   1      47.051  28.398  27.190  1.00  0.00     0.023 A 
ATOM     65  C   UNL A   1      48.126  28.105  28.051  1.00  0.00     0.012 A 
ATOM     66  C   UNL A   1      47.213  28.206  25.803  1.00  0.00     0.148 A 
ATOM     67  C   UNL A   1      49.335  27.631  27.541  1.00  0.00     0.002 A 
ATOM     68  C   UNL A   1      48.395  27.667  25.310  1.00  0.00     0.091 A 
ATOM     69  F   UNL A   1      46.192  28.523  24.992  1.00  0.00    -0.205 F 
ATOM     70  C   UNL A   1      49.464  27.393  26.174  1.00  0.00     0.022 A 
BRANCH  68  71
ATOM     71  S   UNL A   1      48.550  27.171  23.589  1.00  0.00     0.127 S 
ATOM     72  O   UNL A   1      47.880  28.266  22.896  1.00  0.00    -0.237 OA
ATOM     73  O   UNL A   1      50.003  27.124  23.408  1.00  0.00    -0.237 OA
ATOM     74  O   UNL A   1      47.905  25.867  23.512  1.00  0.00    -0.744 OA
ENDBRANCH  68  71
ENDBRANCH  40  64
BRANCH  52  75
ATOM     75  C   UNL A   1      44.609  34.371  29.863  1.00  0.00     0.023 A 
ATOM     76  C   UNL A   1      45.259  34.684  31.073  1.00  0.00     0.012 A 
ATOM     77  C   UNL A   1      44.603  35.309  28.815  1.00  0.00     0.148 A 
ATOM     78  C   UNL A   1      45.878  35.922  31.244  1.00  0.00     0.002 A 
ATOM     79  C   UNL A   1      45.253  36.528  28.980  1.00  0.00     0.091 A 
ATOM     80  F   UNL A   1      43.960  35.000  27.680  1.00  0.00    -0.205 F 
ATOM     81  C   UNL A   1      45.884  36.839  30.195  1.00  0.00     0.022 A 
BRANCH  79  82
ATOM     82  S   UNL A   1      45.374  37.733  27.653  1.00  0.00     0.127 S 
ATOM     83  O   UNL A   1      46.199  38.771  28.266  1.00  0.00    -0.237 OA
ATOM     84  O   UNL A   1      46.041  36.971  26.595  1.00  0.00    -0.237 OA
ATOM     85  O   UNL A   1      44.004  38.118  27.341  1.00  0.00    -0.744 OA
ENDBRANCH  79  82
ENDBRANCH  52  75
ENDBRANCH  26  27
ENDBRANCH  19  21
ENDBRANCH  18  19
ENDBRANCH   1  18
TORSDOF 17
ENDMDL
MODEL 2
REMARK VINA RESULT:     -10.9      6.438     12.090
REMARK SMILES C[C@](O)(C(=O)OCCOC(=O)c1ccc(-c2c3nc(c(-c4cccc(S(=O)(=O)[O-])c4F)c4ccc([nH]4)c(-c4cccc(S(=O)(=O)[O-])c4F)c4nc(c(-c5cccc(S(=O)(=O)[O-])c5F)c5ccc2[nH]5)C=C4)C=C3)cc1)c1ccc(O)cc1
REMARK SMILES IDX 8 1 7 2 6 3 4 4 5 5 2 6 1 7 75 8 76 9 81 10 77 11 80 12
REMARK SMILES IDX 78 13 79 14 3 16 9 18 10 19 11 20 12 21 13 22 74 23 14 24
REMARK SMILES IDX 73 25 15 26 16 27 17 28 67 29 18 30 72 31 66 32 68 33 19 34
REMARK SMILES IDX 71 35 65 36 64 37 20 39 52 40 32 41 51 42 33 43 36 44 50 45
REMARK SMILES IDX 69 46 34 47 35 48 49 50 70 51 37 52 21 53 22 54 30 55 23 56
REMARK SMILES IDX 25 57 31 58 24 59 26 60 27 61 28 62 29 63 53 64 54 65 62 66
REMARK SMILES IDX 55 67 57 68 63 69 56 70 58 71 59 72 60 73 61 74 38 75 39 76
REMARK SMILES IDX 47 77 40 78 42 79 48 80 41 81 43 82 44 83 45 84 46 85
REMARK H PARENT 79 15 3 17 68 38 36 49
REMARK Flexibility Score: inf
ROOT
ATOM      1  C   UNL A   1      31.517  30.102  26.621  1.00  0.00     0.275 C 
ENDROOT
BRANCH   1   2
ATOM      2  C   UNL A   1      31.715  28.597  26.760  1.00  0.00     0.274 C 
BRANCH   2   3
ATOM      3  O   UNL A   1      32.742  28.141  25.859  1.00  0.00    -0.460 OA
BRANCH   3   4
ATOM      4  C   UNL A   1      32.352  27.281  24.872  1.00  0.00     0.342 C 
ATOM      5  O   UNL A   1      32.348  26.059  24.987  1.00  0.00    -0.248 OA
BRANCH   4   6
ATOM      6  C   UNL A   1      32.003  28.029  23.550  1.00  0.00     0.184 C 
ATOM      7  C   UNL A   1      32.633  27.200  22.418  1.00  0.00     0.060 C 
BRANCH   6   8
ATOM      8  C   UNL A   1      30.475  28.170  23.405  1.00  0.00    -0.005 A 
ATOM      9  C   UNL A   1      29.606  27.099  23.687  1.00  0.00     0.011 A 
ATOM     10  C   UNL A   1      29.888  29.402  23.037  1.00  0.00     0.011 A 
ATOM     11  C   UNL A   1      28.221  27.237  23.561  1.00  0.00     0.046 A 
ATOM     12  C   UNL A   1      28.499  29.538  22.904  1.00  0.00     0.046 A 
ATOM     13  C   UNL A   1      27.678  28.450  23.167  1.00  0.00     0.115 A 
BRANCH  13  14
ATOM     14  O   UNL A   1      26.323  28.535  23.086  1.00  0.00    -0.508 OA
ATOM     15  H   UNL A   1      25.919  29.331  22.799  1.00  0.00     0.293 HD
ENDBRANCH  13  14
ENDBRANCH   6   8
BRANCH   6  16
ATOM     16  O   UNL A   1      32.627  29.315  23.427  1.00  0.00    -0.374 OA
ATOM     17  H   UNL A   1      33.515  29.210  23.055  1.00  0.00     0.212 HD
ENDBRANCH   6  16
ENDBRANCH   4   6
ENDBRANCH   3   4
ENDBRANCH   2   3
ENDBRANCH   1   2
BRANCH   1  18
ATOM     18  O   UNL A   1      32.768  30.708  26.261  1.00  0.00    -0.458 OA
BRANCH  18  19
ATOM     19  C   UNL A   1      33.215  31.680  27.087  1.00  0.00     0.338 C 
ATOM     20  O   UNL A   1      32.640  32.706  27.409  1.00  0.00    -0.246 OA
BRANCH  19  21
ATOM     21  C   UNL A   1      34.551  31.317  27.587  1.00  0.00     0.060 A 
ATOM     22  C   UNL A   1      34.829  29.994  27.922  1.00  0.00     0.016 A 
ATOM     23  C   UNL A   1      35.489  32.317  27.836  1.00  0.00     0.016 A 
ATOM     24  C   UNL A   1      36.003  29.688  28.607  1.00  0.00     0.010 A 
ATOM     25  C   UNL A   1      36.708  31.986  28.435  1.00  0.00     0.010 A 
ATOM     26  C   UNL A   1      36.961  30.675  28.879  1.00  0.00    -0.014 A 
BRANCH  26  27
ATOM     27  C   UNL A   1      38.188  30.356  29.667  1.00  0.00     0.031 A 
ATOM     28  C   UNL A   1      39.255  29.461  29.086  1.00  0.00     0.074 A 
ATOM     29  C   UNL A   1      38.361  30.855  30.908  1.00  0.00     0.049 A 
ATOM     30  N   UNL A   1      40.283  28.907  29.676  1.00  0.00    -0.248 NA
ATOM     31  C   UNL A   1      39.147  29.132  27.654  1.00  0.00     0.031 C 
ATOM     32  C   UNL A   1      37.433  31.752  31.597  1.00  0.00     0.029 A 
ATOM     33  N   UNL A   1      39.378  30.673  31.816  1.00  0.00    -0.354 N 
ATOM     34  C   UNL A   1      40.876  28.086  28.725  1.00  0.00     0.074 A 
ATOM     35  C   UNL A   1      40.117  28.241  27.503  1.00  0.00     0.031 C 
ATOM     36  C   UNL A   1      37.934  32.069  32.799  1.00  0.00     0.029 A 
ATOM     37  C   UNL A   1      39.171  31.325  33.010  1.00  0.00     0.049 A 
ATOM     38  H   UNL A   1      40.176  30.129  31.629  1.00  0.00     0.167 HD
ATOM     39  C   UNL A   1      41.955  27.277  28.856  1.00  0.00     0.034 A 
ATOM     40  C   UNL A   1      39.863  31.296  34.166  1.00  0.00     0.034 A 
ATOM     41  C   UNL A   1      42.774  27.200  30.036  1.00  0.00     0.049 A 
ATOM     42  C   UNL A   1      41.087  30.431  34.270  1.00  0.00     0.074 A 
ATOM     43  C   UNL A   1      43.917  26.448  30.240  1.00  0.00     0.029 A 
ATOM     44  N   UNL A   1      42.553  27.915  31.201  1.00  0.00    -0.354 N 
ATOM     45  N   UNL A   1      41.642  29.677  33.353  1.00  0.00    -0.248 NA
ATOM     46  C   UNL A   1      41.778  30.410  35.567  1.00  0.00     0.031 C 
ATOM     47  C   UNL A   1      44.390  26.710  31.531  1.00  0.00     0.029 A 
ATOM     48  C   UNL A   1      43.541  27.627  32.128  1.00  0.00     0.049 A 
ATOM     49  H   UNL A   1      41.804  28.535  31.350  1.00  0.00     0.167 HD
ATOM     50  C   UNL A   1      42.747  29.092  33.959  1.00  0.00     0.074 A 
ATOM     51  C   UNL A   1      42.804  29.609  35.312  1.00  0.00     0.031 C 
ATOM     52  C   UNL A   1      43.614  28.184  33.453  1.00  0.00     0.034 A 
BRANCH  39  53
ATOM     53  C   UNL A   1      42.336  26.418  27.679  1.00  0.00     0.023 A 
ATOM     54  C   UNL A   1      43.212  26.920  26.699  1.00  0.00     0.012 A 
ATOM     55  C   UNL A   1      41.878  25.088  27.585  1.00  0.00     0.148 A 
ATOM     56  C   UNL A   1      43.611  26.118  25.629  1.00  0.00     0.002 A 
ATOM     57  C   UNL A   1      42.309  24.284  26.535  1.00  0.00     0.091 A 
ATOM     58  F   UNL A   1      41.021  24.636  28.512  1.00  0.00    -0.205 F 
ATOM     59  C   UNL A   1      43.170  24.800  25.553  1.00  0.00     0.022 A 
BRANCH  57  60
ATOM     60  S   UNL A   1      41.845  22.553  26.410  1.00  0.00     0.127 S 
ATOM     61  O   UNL A   1      42.521  22.154  25.177  1.00  0.00    -0.237 OA
ATOM     62  O   UNL A   1      42.417  21.982  27.630  1.00  0.00    -0.237 OA
ATOM     63  O   UNL A   1      40.389  22.540  26.367  1.00  0.00    -0.744 OA
ENDBRANCH  57  60
ENDBRANCH  39  53
BRANCH  40  64
ATOM     64  C   UNL A   1      39.401  32.127  35.314  1.00  0.00     0.023 A 
ATOM     65  C   UNL A   1      38.610  31.541  36.320  1.00  0.00     0.012 A 
ATOM     66  C   UNL A   1      39.810  33.468  35.458  1.00  0.00     0.148 A 
ATOM     67  C   UNL A   1      38.235  32.274  37.446  1.00  0.00     0.002 A 
ATOM     68  C   UNL A   1      39.492  34.170  36.615  1.00  0.00     0.091 A 
ATOM     69  F   UNL A   1      40.534  34.024  34.475  1.00  0.00    -0.205 F 
ATOM     70  C   UNL A   1      38.692  33.581  37.604  1.00  0.00     0.022 A 
BRANCH  68  71
ATOM     71  S   UNL A   1      40.202  35.786  36.953  1.00  0.00     0.127 S 
ATOM     72  O   UNL A   1      41.633  35.505  36.898  1.00  0.00    -0.237 OA
ATOM     73  O   UNL A   1      39.689  36.591  35.843  1.00  0.00    -0.237 OA
ATOM     74  O   UNL A   1      39.669  36.168  38.254  1.00  0.00    -0.744 OA
ENDBRANCH  68  71
ENDBRANCH  40  64
BRANCH  52  75
ATOM     75  C   UNL A   1      44.704  27.681  34.361  1.00  0.00     0.023 A 
ATOM     76  C   UNL A   1      45.914  28.398  34.441  1.00  0.00     0.012 A 
ATOM     77  C   UNL A   1      44.507  26.556  35.183  1.00  0.00     0.148 A 
ATOM     78  C   UNL A   1      46.921  27.989  35.314  1.00  0.00     0.002 A 
ATOM     79  C   UNL A   1      45.502  26.175  36.076  1.00  0.00     0.091 A 
ATOM     80  F   UNL A   1      43.356  25.876  35.075  1.00  0.00    -0.205 F 
ATOM     81  C   UNL A   1      46.713  26.885  36.138  1.00  0.00     0.022 A 
BRANCH  79  82
ATOM     82  S   UNL A   1      45.283  24.814  37.228  1.00  0.00     0.127 S 
ATOM     83  O   UNL A   1      44.154  25.280  38.031  1.00  0.00    -0.237 OA
ATOM     84  O   UNL A   1      44.975  23.694  36.338  1.00  0.00    -0.237 OA
ATOM     85  O   UNL A   1      46.550  24.685  37.935  1.00  0.00    -0.744 OA
ENDBRANCH  79  82
ENDBRANCH  52  75
ENDBRANCH  26  27
ENDBRANCH  19  21
ENDBRANCH  18  19
ENDBRANCH   1  18
TORSDOF 17
ENDMDL
MODEL 3
REMARK VINA RESULT:     -10.9      5.101     10.861
REMARK SMILES C[C@](O)(C(=O)OCCOC(=O)c1ccc(-c2c3nc(c(-c4cccc(S(=O)(=O)[O-])c4F)c4ccc([nH]4)c(-c4cccc(S(=O)(=O)[O-])c4F)c4nc(c(-c5cccc(S(=O)(=O)[O-])c5F)c5ccc2[nH]5)C=C4)C=C3)cc1)c1ccc(O)cc1
REMARK SMILES IDX 8 1 7 2 6 3 4 4 5 5 2 6 1 7 75 8 76 9 81 10 77 11 80 12
REMARK SMILES IDX 78 13 79 14 3 16 9 18 10 19 11 20 12 21 13 22 74 23 14 24
REMARK SMILES IDX 73 25 15 26 16 27 17 28 67 29 18 30 72 31 66 32 68 33 19 34
REMARK SMILES IDX 71 35 65 36 64 37 20 39 52 40 32 41 51 42 33 43 36 44 50 45
REMARK SMILES IDX 69 46 34 47 35 48 49 50 70 51 37 52 21 53 22 54 30 55 23 56
REMARK SMILES IDX 25 57 31 58 24 59 26 60 27 61 28 62 29 63 53 64 54 65 62 66
REMARK SMILES IDX 55 67 57 68 63 69 56 70 58 71 59 72 60 73 61 74 38 75 39 76
REMARK SMILES IDX 47 77 40 78 42 79 48 80 41 81 43 82 44 83 45 84 46 85
REMARK H PARENT 79 15 3 17 68 38 36 49
REMARK Flexibility Score: inf
ROOT
ATOM      1  C   UNL A   1      33.250  34.333  28.281  1.00  0.00     0.275 C 
ENDROOT
BRANCH   1   2
ATOM      2  C   UNL A   1      33.630  35.111  29.535  1.00  0.00     0.274 C 
BRANCH   2   3
ATOM      3  O   UNL A   1      33.638  34.239  30.683  1.00  0.00    -0.460 OA
BRANCH   3   4
ATOM      4  C   UNL A   1      34.210  34.732  31.821  1.00  0.00     0.342 C 
ATOM      5  O   UNL A   1      34.203  35.918  32.137  1.00  0.00    -0.248 OA
BRANCH   4   6
ATOM      6  C   UNL A   1      34.956  33.624  32.625  1.00  0.00     0.184 C 
ATOM      7  C   UNL A   1      34.787  32.328  31.812  1.00  0.00     0.060 C 
BRANCH   6   8
ATOM      8  C   UNL A   1      36.434  34.013  32.824  1.00  0.00    -0.005 A 
ATOM      9  C   UNL A   1      37.003  34.112  34.108  1.00  0.00     0.011 A 
ATOM     10  C   UNL A   1      37.287  34.229  31.719  1.00  0.00     0.011 A 
ATOM     11  C   UNL A   1      38.346  34.457  34.281  1.00  0.00     0.046 A 
ATOM     12  C   UNL A   1      38.632  34.582  31.893  1.00  0.00     0.046 A 
ATOM     13  C   UNL A   1      39.148  34.694  33.176  1.00  0.00     0.115 A 
BRANCH  13  14
ATOM     14  O   UNL A   1      40.454  35.001  33.402  1.00  0.00    -0.508 OA
ATOM     15  H   UNL A   1      40.700  35.456  34.184  1.00  0.00     0.293 HD
ENDBRANCH  13  14
ENDBRANCH   6   8
BRANCH   6  16
ATOM     16  O   UNL A   1      34.356  33.320  33.892  1.00  0.00    -0.374 OA
ATOM     17  H   UNL A   1      34.055  34.139  34.313  1.00  0.00     0.212 HD
ENDBRANCH   6  16
ENDBRANCH   4   6
ENDBRANCH   3   4
ENDBRANCH   2   3
ENDBRANCH   1   2
BRANCH   1  18
ATOM     18  O   UNL A   1      34.390  33.585  27.830  1.00  0.00    -0.458 OA
BRANCH  18  19
ATOM     19  C   UNL A   1      34.202  32.255  27.675  1.00  0.00     0.338 C 
ATOM     20  O   UNL A   1      33.202  31.687  27.271  1.00  0.00    -0.246 OA
BRANCH  19  21
ATOM     21  C   UNL A   1      35.430  31.543  28.062  1.00  0.00     0.060 A 
ATOM     22  C   UNL A   1      35.384  30.179  28.338  1.00  0.00     0.016 A 
ATOM     23  C   UNL A   1      36.607  32.262  28.269  1.00  0.00     0.016 A 
ATOM     24  C   UNL A   1      36.483  29.555  28.924  1.00  0.00     0.010 A 
ATOM     25  C   UNL A   1      37.738  31.607  28.765  1.00  0.00     0.010 A 
ATOM     26  C   UNL A   1      37.676  30.255  29.151  1.00  0.00    -0.014 A 
BRANCH  26  27
ATOM     27  C   UNL A   1      38.831  29.600  29.836  1.00  0.00     0.031 A 
ATOM     28  C   UNL A   1      39.206  29.997  31.242  1.00  0.00     0.074 A 
ATOM     29  C   UNL A   1      39.557  28.652  29.209  1.00  0.00     0.049 A 
ATOM     30  N   UNL A   1      40.281  29.698  31.927  1.00  0.00    -0.248 NA
ATOM     31  C   UNL A   1      38.256  30.852  31.974  1.00  0.00     0.031 C 
ATOM     32  C   UNL A   1      39.306  28.146  27.860  1.00  0.00     0.029 A 
ATOM     33  N   UNL A   1      40.664  27.949  29.624  1.00  0.00    -0.354 N 
ATOM     34  C   UNL A   1      40.188  30.411  33.117  1.00  0.00     0.074 A 
ATOM     35  C   UNL A   1      38.932  31.129  33.081  1.00  0.00     0.031 C 
ATOM     36  C   UNL A   1      40.203  27.193  27.570  1.00  0.00     0.029 A 
ATOM     37  C   UNL A   1      41.155  27.086  28.671  1.00  0.00     0.049 A 
ATOM     38  H   UNL A   1      41.065  28.052  30.516  1.00  0.00     0.167 HD
ATOM     39  C   UNL A   1      41.067  30.463  34.146  1.00  0.00     0.034 A 
ATOM     40  C   UNL A   1      42.269  26.328  28.652  1.00  0.00     0.034 A 
ATOM     41  C   UNL A   1      42.265  29.672  34.232  1.00  0.00     0.049 A 
ATOM     42  C   UNL A   1      43.203  26.363  29.828  1.00  0.00     0.074 A 
ATOM     43  C   UNL A   1      43.188  29.619  35.261  1.00  0.00     0.029 A 
ATOM     44  N   UNL A   1      42.694  28.777  33.265  1.00  0.00    -0.354 N 
ATOM     45  N   UNL A   1      43.086  27.028  30.952  1.00  0.00    -0.248 NA
ATOM     46  C   UNL A   1      44.421  25.545  29.735  1.00  0.00     0.031 C 
ATOM     47  C   UNL A   1      44.176  28.690  34.917  1.00  0.00     0.029 A 
ATOM     48  C   UNL A   1      43.865  28.163  33.675  1.00  0.00     0.049 A 
ATOM     49  H   UNL A   1      42.235  28.604  32.412  1.00  0.00     0.167 HD
ATOM     50  C   UNL A   1      44.214  26.711  31.699  1.00  0.00     0.074 A 
ATOM     51  C   UNL A   1      44.982  25.763  30.916  1.00  0.00     0.031 C 
ATOM     52  C   UNL A   1      44.595  27.187  32.908  1.00  0.00     0.034 A 
BRANCH  39  53
ATOM     53  C   UNL A   1      40.759  31.395  35.288  1.00  0.00     0.023 A 
ATOM     54  C   UNL A   1      41.567  32.526  35.508  1.00  0.00     0.012 A 
ATOM     55  C   UNL A   1      39.625  31.185  36.098  1.00  0.00     0.148 A 
ATOM     56  C   UNL A   1      41.265  33.423  36.532  1.00  0.00     0.002 A 
ATOM     57  C   UNL A   1      39.309  32.103  37.093  1.00  0.00     0.091 A 
ATOM     58  F   UNL A   1      38.882  30.087  35.892  1.00  0.00    -0.205 F 
ATOM     59  C   UNL A   1      40.132  33.219  37.317  1.00  0.00     0.022 A 
BRANCH  57  60
ATOM     60  S   UNL A   1      37.825  31.950  38.094  1.00  0.00     0.127 S 
ATOM     61  O   UNL A   1      36.966  32.977  37.509  1.00  0.00    -0.237 OA
ATOM     62  O   UNL A   1      37.401  30.576  37.825  1.00  0.00    -0.237 OA
ATOM     63  O   UNL A   1      38.253  32.187  39.467  1.00  0.00    -0.744 OA
ENDBRANCH  57  60
ENDBRANCH  39  53
BRANCH  40  64
ATOM     64  C   UNL A   1      42.547  25.469  27.466  1.00  0.00     0.023 A 
ATOM     65  C   UNL A   1      43.371  25.957  26.434  1.00  0.00     0.012 A 
ATOM     66  C   UNL A   1      42.073  24.143  27.395  1.00  0.00     0.148 A 
ATOM     67  C   UNL A   1      43.714  25.143  25.355  1.00  0.00     0.002 A 
ATOM     68  C   UNL A   1      42.475  23.317  26.354  1.00  0.00     0.091 A 
ATOM     69  F   UNL A   1      41.260  23.704  28.368  1.00  0.00    -0.205 F 
ATOM     70  C   UNL A   1      43.284  23.817  25.324  1.00  0.00     0.022 A 
BRANCH  68  71
ATOM     71  S   UNL A   1      42.104  21.559  26.357  1.00  0.00     0.127 S 
ATOM     72  O   UNL A   1      42.443  21.180  27.725  1.00  0.00    -0.237 OA
ATOM     73  O   UNL A   1      40.672  21.541  26.051  1.00  0.00    -0.237 OA
ATOM     74  O   UNL A   1      42.939  20.993  25.305  1.00  0.00    -0.744 OA
ENDBRANCH  68  71
ENDBRANCH  40  64
BRANCH  52  75
ATOM     75  C   UNL A   1      45.904  26.699  33.467  1.00  0.00     0.023 A 
ATOM     76  C   UNL A   1      47.062  27.480  33.285  1.00  0.00     0.012 A 
ATOM     77  C   UNL A   1      45.975  25.518  34.230  1.00  0.00     0.148 A 
ATOM     78  C   UNL A   1      48.278  27.081  33.839  1.00  0.00     0.002 A 
ATOM     79  C   UNL A   1      47.184  25.145  34.809  1.00  0.00     0.091 A 
ATOM     80  F   UNL A   1      44.866  24.778  34.373  1.00  0.00    -0.205 F 
ATOM     81  C   UNL A   1      48.337  25.922  34.609  1.00  0.00     0.022 A 
BRANCH  79  82
ATOM     82  S   UNL A   1      47.328  23.709  35.878  1.00  0.00     0.127 S 
ATOM     83  O   UNL A   1      46.360  24.019  36.927  1.00  0.00    -0.237 OA
ATOM     84  O   UNL A   1      46.935  22.614  34.990  1.00  0.00    -0.237 OA
ATOM     85  O   UNL A   1      48.723  23.668  36.298  1.00  0.00    -0.744 OA
ENDBRANCH  79  82
ENDBRANCH  52  75
ENDBRANCH  26  27
ENDBRANCH  19  21
ENDBRANCH  18  19
ENDBRANCH   1  18
TORSDOF 17
ENDMDL
