MODEL 1
REMARK VINA RESULT:     -10.4      0.000      0.000
REMARK SMILES CC(C)(C)N(CC(=O)OCCOC(=O)c1ccc(-c2c3nc(c(-c4cccc(S(=O)(=O)[O-])c4F)c4ccc([nH]4)c(-c4cccc(S(=O)(=O)[O-])c4F)c4nc(c(-c5cccc(S(=O)(=O)[O-])c5F)c5ccc2[nH]5)C=C4)C=C3)cc1)C(=O)N1CC[C@H](C[NH3+])C1
REMARK SMILES IDX 10 1 9 2 7 3 8 4 6 5 5 6 2 7 1 8 3 9 4 10 78 11 79 12 80 13
REMARK SMILES IDX 81 14 86 15 82 16 83 17 84 18 85 19 11 23 12 24 13 25 14 26
REMARK SMILES IDX 15 27 16 28 77 29 17 30 76 31 18 32 19 33 20 34 70 35 21 36
REMARK SMILES IDX 75 37 69 38 71 39 22 40 74 41 68 42 67 43 23 45 55 46 35 47
REMARK SMILES IDX 54 48 36 49 39 50 53 51 72 52 37 53 38 54 52 56 73 57 40 58
REMARK SMILES IDX 24 59 25 60 33 61 26 62 28 63 34 64 27 65 29 66 30 67 31 68
REMARK SMILES IDX 32 69 56 70 57 71 65 72 58 73 60 74 66 75 59 76 61 77 62 78
REMARK SMILES IDX 63 79 64 80 41 81 42 82 50 83 43 84 45 85 51 86 44 87 46 88
REMARK SMILES IDX 47 89 48 90 49 91
REMARK H PARENT 85 20 85 21 85 22 71 44 39 55
REMARK Flexibility Score: inf
ROOT
ATOM      1  C   UNL A   1      35.539  20.993  25.193  1.00  0.00     0.274 C 
ENDROOT
BRANCH   1   2
ATOM      2  O   UNL A   1      35.535  21.827  26.370  1.00  0.00    -0.461 OA
BRANCH   2   3
ATOM      3  C   UNL A   1      35.023  23.081  26.216  1.00  0.00     0.325 C 
ATOM      4  O   UNL A   1      35.621  24.014  25.688  1.00  0.00    -0.250 OA
BRANCH   3   5
ATOM      5  C   UNL A   1      33.539  23.174  26.598  1.00  0.00     0.244 C 
BRANCH   5   6
ATOM      6  N   UNL A   1      32.634  23.911  25.702  1.00  0.00    -0.309 N 
BRANCH   6   7
ATOM      7  C   UNL A   1      32.119  23.175  24.482  1.00  0.00     0.037 C 
ATOM      8  C   UNL A   1      30.810  23.761  23.880  1.00  0.00     0.034 C 
ATOM      9  C   UNL A   1      31.794  21.719  24.871  1.00  0.00     0.034 C 
ATOM     10  C   UNL A   1      33.143  23.212  23.320  1.00  0.00     0.034 C 
ENDBRANCH   6   7
BRANCH   6  11
ATOM     11  C   UNL A   1      32.036  25.127  26.050  1.00  0.00     0.320 C 
ATOM     12  O   UNL A   1      31.018  25.171  26.744  1.00  0.00    -0.248 OA
BRANCH  11  13
ATOM     13  N   UNL A   1      32.611  26.314  25.659  1.00  0.00    -0.324 N 
ATOM     14  C   UNL A   1      33.346  26.537  24.437  1.00  0.00     0.122 C 
ATOM     15  C   UNL A   1      32.038  27.582  26.112  1.00  0.00     0.130 C 
ATOM     16  C   UNL A   1      33.737  27.995  24.472  1.00  0.00     0.033 C 
ATOM     17  C   UNL A   1      32.569  28.675  25.169  1.00  0.00     0.065 C 
BRANCH  17  18
ATOM     18  C   UNL A   1      32.994  29.925  25.932  1.00  0.00     0.264 C 
BRANCH  18  19
ATOM     19  N   UNL A   1      34.325  29.823  26.518  1.00  0.00    -0.357 N 
ATOM     20  H   UNL A   1      34.936  30.527  26.102  1.00  0.00     0.344 HD
ATOM     21  H   UNL A   1      34.706  28.894  26.339  1.00  0.00     0.344 HD
ATOM     22  H   UNL A   1      34.266  29.977  27.525  1.00  0.00     0.344 HD
ENDBRANCH  18  19
ENDBRANCH  17  18
ENDBRANCH  11  13
ENDBRANCH   6  11
ENDBRANCH   5   6
ENDBRANCH   3   5
ENDBRANCH   2   3
ENDBRANCH   1   2
BRANCH   1  23
ATOM     23  C   UNL A   1      36.953  20.448  24.915  1.00  0.00     0.275 C 
BRANCH  23  24
ATOM     24  O   UNL A   1      38.029  21.407  25.004  1.00  0.00    -0.458 OA
BRANCH  24  25
ATOM     25  C   UNL A   1      39.105  21.098  25.768  1.00  0.00     0.338 C 
ATOM     26  O   UNL A   1      39.547  19.993  25.983  1.00  0.00    -0.246 OA
BRANCH  25  27
ATOM     27  C   UNL A   1      39.532  22.334  26.470  1.00  0.00     0.060 A 
ATOM     28  C   UNL A   1      40.530  22.237  27.447  1.00  0.00     0.016 A 
ATOM     29  C   UNL A   1      38.949  23.576  26.191  1.00  0.00     0.016 A 
ATOM     30  C   UNL A   1      40.934  23.371  28.161  1.00  0.00     0.010 A 
ATOM     31  C   UNL A   1      39.390  24.720  26.873  1.00  0.00     0.010 A 
ATOM     32  C   UNL A   1      40.397  24.633  27.854  1.00  0.00    -0.014 A 
BRANCH  32  33
ATOM     33  C   UNL A   1      41.103  25.870  28.293  1.00  0.00     0.031 A 
ATOM     34  C   UNL A   1      40.458  26.974  29.071  1.00  0.00     0.074 A 
ATOM     35  C   UNL A   1      42.380  26.011  27.901  1.00  0.00     0.049 A 
ATOM     36  N   UNL A   1      40.748  28.248  29.112  1.00  0.00    -0.248 NA
ATOM     37  C   UNL A   1      39.329  26.598  29.913  1.00  0.00     0.031 C 
ATOM     38  C   UNL A   1      43.152  24.994  27.186  1.00  0.00     0.029 A 
ATOM     39  N   UNL A   1      43.238  27.070  28.024  1.00  0.00    -0.354 N 
ATOM     40  C   UNL A   1      39.738  28.850  29.862  1.00  0.00     0.074 A 
ATOM     41  C   UNL A   1      38.851  27.784  30.283  1.00  0.00     0.031 C 
ATOM     42  C   UNL A   1      44.363  25.489  26.905  1.00  0.00     0.029 A 
ATOM     43  C   UNL A   1      44.425  26.871  27.365  1.00  0.00     0.049 A 
ATOM     44  H   UNL A   1      43.026  27.887  28.531  1.00  0.00     0.167 HD
ATOM     45  C   UNL A   1      39.605  30.160  30.193  1.00  0.00     0.034 A 
ATOM     46  C   UNL A   1      45.434  27.723  27.114  1.00  0.00     0.034 A 
ATOM     47  C   UNL A   1      40.667  31.126  30.017  1.00  0.00     0.049 A 
ATOM     48  C   UNL A   1      45.347  29.121  27.642  1.00  0.00     0.074 A 
ATOM     49  C   UNL A   1      40.703  32.452  30.418  1.00  0.00     0.029 A 
ATOM     50  N   UNL A   1      41.913  30.844  29.477  1.00  0.00    -0.354 N 
ATOM     51  N   UNL A   1      44.345  29.706  28.252  1.00  0.00    -0.248 NA
ATOM     52  C   UNL A   1      46.537  29.962  27.485  1.00  0.00     0.031 C 
ATOM     53  C   UNL A   1      41.983  32.956  30.158  1.00  0.00     0.029 A 
ATOM     54  C   UNL A   1      42.742  31.947  29.590  1.00  0.00     0.049 A 
ATOM     55  H   UNL A   1      42.171  29.984  29.074  1.00  0.00     0.167 HD
ATOM     56  C   UNL A   1      44.792  30.979  28.578  1.00  0.00     0.074 A 
ATOM     57  C   UNL A   1      46.164  31.068  28.116  1.00  0.00     0.031 C 
ATOM     58  C   UNL A   1      44.124  31.990  29.184  1.00  0.00     0.034 A 
BRANCH  45  59
ATOM     59  C   UNL A   1      38.328  30.645  30.847  1.00  0.00     0.023 A 
ATOM     60  C   UNL A   1      38.181  30.626  32.247  1.00  0.00     0.012 A 
ATOM     61  C   UNL A   1      37.319  31.256  30.066  1.00  0.00     0.148 A 
ATOM     62  C   UNL A   1      37.043  31.166  32.854  1.00  0.00     0.002 A 
ATOM     63  C   UNL A   1      36.218  31.847  30.682  1.00  0.00     0.091 A 
ATOM     64  F   UNL A   1      37.456  31.264  28.732  1.00  0.00    -0.205 F 
ATOM     65  C   UNL A   1      36.071  31.789  32.076  1.00  0.00     0.022 A 
BRANCH  63  66
ATOM     66  S   UNL A   1      34.991  32.793  29.766  1.00  0.00     0.127 S 
ATOM     67  O   UNL A   1      34.117  33.267  30.838  1.00  0.00    -0.237 OA
ATOM     68  O   UNL A   1      35.803  33.837  29.137  1.00  0.00    -0.237 OA
ATOM     69  O   UNL A   1      34.389  31.855  28.828  1.00  0.00    -0.744 OA
ENDBRANCH  63  66
ENDBRANCH  45  59
BRANCH  46  70
ATOM     70  C   UNL A   1      46.613  27.218  26.368  1.00  0.00     0.023 A 
ATOM     71  C   UNL A   1      46.759  27.549  25.009  1.00  0.00     0.012 A 
ATOM     72  C   UNL A   1      47.656  26.546  27.036  1.00  0.00     0.148 A 
ATOM     73  C   UNL A   1      47.925  27.214  24.324  1.00  0.00     0.002 A 
ATOM     74  C   UNL A   1      48.839  26.273  26.363  1.00  0.00     0.091 A 
ATOM     75  F   UNL A   1      47.489  26.239  28.330  1.00  0.00    -0.205 F 
ATOM     76  C   UNL A   1      48.971  26.593  25.004  1.00  0.00     0.022 A 
BRANCH  74  77
ATOM     77  S   UNL A   1      50.290  25.643  27.217  1.00  0.00     0.127 S 
ATOM     78  O   UNL A   1      49.830  24.331  27.660  1.00  0.00    -0.237 OA
ATOM     79  O   UNL A   1      51.289  25.619  26.148  1.00  0.00    -0.237 OA
ATOM     80  O   UNL A   1      50.570  26.612  28.269  1.00  0.00    -0.744 OA
ENDBRANCH  74  77
ENDBRANCH  46  70
BRANCH  58  81
ATOM     81  C   UNL A   1      44.883  33.266  29.423  1.00  0.00     0.023 A 
ATOM     82  C   UNL A   1      45.593  33.433  30.629  1.00  0.00     0.012 A 
ATOM     83  C   UNL A   1      44.929  34.274  28.442  1.00  0.00     0.148 A 
ATOM     84  C   UNL A   1      46.312  34.603  30.867  1.00  0.00     0.002 A 
ATOM     85  C   UNL A   1      45.679  35.422  28.671  1.00  0.00     0.091 A 
ATOM     86  F   UNL A   1      44.228  34.100  27.312  1.00  0.00    -0.205 F 
ATOM     87  C   UNL A   1      46.362  35.592  29.886  1.00  0.00     0.022 A 
BRANCH  85  88
ATOM     88  S   UNL A   1      45.858  36.715  27.438  1.00  0.00     0.127 S 
ATOM     89  O   UNL A   1      44.486  37.205  27.320  1.00  0.00    -0.237 OA
ATOM     90  O   UNL A   1      46.783  37.642  28.090  1.00  0.00    -0.237 OA
ATOM     91  O   UNL A   1      46.395  36.062  26.252  1.00  0.00    -0.744 OA
ENDBRANCH  85  88
ENDBRANCH  58  81
ENDBRANCH  32  33
ENDBRANCH  25  27
ENDBRANCH  24  25
ENDBRANCH  23  24
ENDBRANCH   1  23
TORSDOF 20
ENDMDL
MODEL 2
REMARK VINA RESULT:     -10.2      1.793      3.195
REMARK SMILES CC(C)(C)N(CC(=O)OCCOC(=O)c1ccc(-c2c3nc(c(-c4cccc(S(=O)(=O)[O-])c4F)c4ccc([nH]4)c(-c4cccc(S(=O)(=O)[O-])c4F)c4nc(c(-c5cccc(S(=O)(=O)[O-])c5F)c5ccc2[nH]5)C=C4)C=C3)cc1)C(=O)N1CC[C@H](C[NH3+])C1
REMARK SMILES IDX 10 1 9 2 7 3 8 4 6 5 5 6 2 7 1 8 3 9 4 10 78 11 79 12 80 13
REMARK SMILES IDX 81 14 86 15 82 16 83 17 84 18 85 19 11 23 12 24 13 25 14 26
REMARK SMILES IDX 15 27 16 28 77 29 17 30 76 31 18 32 19 33 20 34 70 35 21 36
REMARK SMILES IDX 75 37 69 38 71 39 22 40 74 41 68 42 67 43 23 45 55 46 35 47
REMARK SMILES IDX 54 48 36 49 39 50 53 51 72 52 37 53 38 54 52 56 73 57 40 58
REMARK SMILES IDX 24 59 25 60 33 61 26 62 28 63 34 64 27 65 29 66 30 67 31 68
REMARK SMILES IDX 32 69 56 70 57 71 65 72 58 73 60 74 66 75 59 76 61 77 62 78
REMARK SMILES IDX 63 79 64 80 41 81 42 82 50 83 43 84 45 85 51 86 44 87 46 88
REMARK SMILES IDX 47 89 48 90 49 91
REMARK H PARENT 85 20 85 21 85 22 71 44 39 55
REMARK Flexibility Score: inf
ROOT
ATOM      1  C   UNL A   1      36.050  21.205  25.266  1.00  0.00     0.274 C 
ENDROOT
BRANCH   1   2
ATOM      2  O   UNL A   1      35.645  22.004  24.134  1.00  0.00    -0.461 OA
BRANCH   2   3
ATOM      3  C   UNL A   1      35.498  23.339  24.364  1.00  0.00     0.325 C 
ATOM      4  O   UNL A   1      36.399  24.081  24.742  1.00  0.00    -0.250 OA
BRANCH   3   5
ATOM      5  C   UNL A   1      34.130  23.876  23.919  1.00  0.00     0.244 C 
BRANCH   5   6
ATOM      6  N   UNL A   1      32.928  23.370  24.600  1.00  0.00    -0.309 N 
BRANCH   6   7
ATOM      7  C   UNL A   1      32.665  23.874  26.004  1.00  0.00     0.037 C 
ATOM      8  C   UNL A   1      31.207  23.667  26.501  1.00  0.00     0.034 C 
ATOM      9  C   UNL A   1      32.921  25.393  26.051  1.00  0.00     0.034 C 
ATOM     10  C   UNL A   1      33.548  23.142  27.046  1.00  0.00     0.034 C 
ENDBRANCH   6   7
BRANCH   6  11
ATOM     11  C   UNL A   1      31.910  22.675  23.938  1.00  0.00     0.320 C 
ATOM     12  O   UNL A   1      30.940  23.260  23.451  1.00  0.00    -0.248 OA
BRANCH  11  13
ATOM     13  N   UNL A   1      32.000  21.312  23.775  1.00  0.00    -0.324 N 
ATOM     14  C   UNL A   1      32.169  20.619  22.521  1.00  0.00     0.122 C 
ATOM     15  C   UNL A   1      32.538  20.486  24.856  1.00  0.00     0.130 C 
ATOM     16  C   UNL A   1      32.237  19.155  22.885  1.00  0.00     0.033 C 
ATOM     17  C   UNL A   1      32.945  19.141  24.231  1.00  0.00     0.065 C 
BRANCH  17  18
ATOM     18  C   UNL A   1      32.523  17.960  25.098  1.00  0.00     0.264 C 
BRANCH  18  19
ATOM     19  N   UNL A   1      32.831  18.138  26.512  1.00  0.00    -0.357 N 
ATOM     20  H   UNL A   1      31.990  17.975  27.067  1.00  0.00     0.344 HD
ATOM     21  H   UNL A   1      33.163  19.089  26.670  1.00  0.00     0.344 HD
ATOM     22  H   UNL A   1      33.555  17.475  26.788  1.00  0.00     0.344 HD
ENDBRANCH  18  19
ENDBRANCH  17  18
ENDBRANCH  11  13
ENDBRANCH   6  11
ENDBRANCH   5   6
ENDBRANCH   3   5
ENDBRANCH   2   3
ENDBRANCH   1   2
BRANCH   1  23
ATOM     23  C   UNL A   1      37.430  20.566  25.019  1.00  0.00     0.275 C 
BRANCH  23  24
ATOM     24  O   UNL A   1      38.562  21.458  25.097  1.00  0.00    -0.458 OA
BRANCH  24  25
ATOM     25  C   UNL A   1      39.549  21.171  25.982  1.00  0.00     0.338 C 
ATOM     26  O   UNL A   1      39.962  20.071  26.272  1.00  0.00    -0.246 OA
BRANCH  25  27
ATOM     27  C   UNL A   1      39.899  22.425  26.694  1.00  0.00     0.060 A 
ATOM     28  C   UNL A   1      40.908  22.383  27.663  1.00  0.00     0.016 A 
ATOM     29  C   UNL A   1      39.233  23.628  26.432  1.00  0.00     0.016 A 
ATOM     30  C   UNL A   1      41.243  23.534  28.386  1.00  0.00     0.010 A 
ATOM     31  C   UNL A   1      39.604  24.792  27.124  1.00  0.00     0.010 A 
ATOM     32  C   UNL A   1      40.622  24.761  28.097  1.00  0.00    -0.014 A 
BRANCH  32  33
ATOM     33  C   UNL A   1      41.248  26.037  28.544  1.00  0.00     0.031 A 
ATOM     34  C   UNL A   1      40.512  27.131  29.252  1.00  0.00     0.074 A 
ATOM     35  C   UNL A   1      42.539  26.223  28.226  1.00  0.00     0.049 A 
ATOM     36  N   UNL A   1      40.746  28.417  29.277  1.00  0.00    -0.248 NA
ATOM     37  C   UNL A   1      39.350  26.728  30.035  1.00  0.00     0.031 C 
ATOM     38  C   UNL A   1      43.395  25.223  27.585  1.00  0.00     0.029 A 
ATOM     39  N   UNL A   1      43.344  27.320  28.372  1.00  0.00    -0.354 N 
ATOM     40  C   UNL A   1      39.669  28.993  29.949  1.00  0.00     0.074 A 
ATOM     41  C   UNL A   1      38.803  27.900  30.345  1.00  0.00     0.031 C 
ATOM     42  C   UNL A   1      44.600  25.762  27.364  1.00  0.00     0.029 A 
ATOM     43  C   UNL A   1      44.576  27.156  27.790  1.00  0.00     0.049 A 
ATOM     44  H   UNL A   1      43.068  28.139  28.844  1.00  0.00     0.167 HD
ATOM     45  C   UNL A   1      39.462  30.304  30.236  1.00  0.00     0.034 A 
ATOM     46  C   UNL A   1      45.563  28.044  27.578  1.00  0.00     0.034 A 
ATOM     47  C   UNL A   1      40.492  31.310  30.099  1.00  0.00     0.049 A 
ATOM     48  C   UNL A   1      45.386  29.449  28.062  1.00  0.00     0.074 A 
ATOM     49  C   UNL A   1      40.450  32.645  30.467  1.00  0.00     0.029 A 
ATOM     50  N   UNL A   1      41.779  31.068  29.643  1.00  0.00    -0.354 N 
ATOM     51  N   UNL A   1      44.326  30.005  28.596  1.00  0.00    -0.248 NA
ATOM     52  C   UNL A   1      46.549  30.336  27.954  1.00  0.00     0.031 C 
ATOM     53  C   UNL A   1      41.722  33.197  30.270  1.00  0.00     0.029 A 
ATOM     54  C   UNL A   1      42.555  32.208  29.776  1.00  0.00     0.049 A 
ATOM     55  H   UNL A   1      42.096  30.210  29.278  1.00  0.00     0.167 HD
ATOM     56  C   UNL A   1      44.700  31.304  28.914  1.00  0.00     0.074 A 
ATOM     57  C   UNL A   1      46.093  31.440  28.532  1.00  0.00     0.031 C 
ATOM     58  C   UNL A   1      43.955  32.300  29.452  1.00  0.00     0.034 A 
BRANCH  45  59
ATOM     59  C   UNL A   1      38.129  30.749  30.800  1.00  0.00     0.023 A 
ATOM     60  C   UNL A   1      37.863  30.667  32.180  1.00  0.00     0.012 A 
ATOM     61  C   UNL A   1      37.183  31.388  29.964  1.00  0.00     0.148 A 
ATOM     62  C   UNL A   1      36.673  31.170  32.711  1.00  0.00     0.002 A 
ATOM     63  C   UNL A   1      36.027  31.942  30.509  1.00  0.00     0.091 A 
ATOM     64  F   UNL A   1      37.433  31.456  28.648  1.00  0.00    -0.205 F 
ATOM     65  C   UNL A   1      35.763  31.820  31.881  1.00  0.00     0.022 A 
BRANCH  63  66
ATOM     66  S   UNL A   1      34.872  32.919  29.534  1.00  0.00     0.127 S 
ATOM     67  O   UNL A   1      34.291  31.905  28.655  1.00  0.00    -0.237 OA
ATOM     68  O   UNL A   1      33.957  33.436  30.554  1.00  0.00    -0.237 OA
ATOM     69  O   UNL A   1      35.675  33.940  28.877  1.00  0.00    -0.744 OA
ENDBRANCH  63  66
ENDBRANCH  45  59
BRANCH  46  70
ATOM     70  C   UNL A   1      46.805  27.572  26.918  1.00  0.00     0.023 A 
ATOM     71  C   UNL A   1      47.654  26.686  27.606  1.00  0.00     0.012 A 
ATOM     72  C   UNL A   1      47.064  27.874  25.567  1.00  0.00     0.148 A 
ATOM     73  C   UNL A   1      48.747  26.113  26.959  1.00  0.00     0.002 A 
ATOM     74  C   UNL A   1      48.117  27.249  24.912  1.00  0.00     0.091 A 
ATOM     75  F   UNL A   1      46.241  28.724  24.936  1.00  0.00    -0.205 F 
ATOM     76  C   UNL A   1      48.968  26.380  25.609  1.00  0.00     0.022 A 
BRANCH  74  77
ATOM     77  S   UNL A   1      48.352  27.402  23.137  1.00  0.00     0.127 S 
ATOM     78  O   UNL A   1      49.664  28.039  23.063  1.00  0.00    -0.237 OA
ATOM     79  O   UNL A   1      48.318  26.006  22.701  1.00  0.00    -0.237 OA
ATOM     80  O   UNL A   1      47.226  28.199  22.666  1.00  0.00    -0.744 OA
ENDBRANCH  74  77
ENDBRANCH  46  70
BRANCH  58  81
ATOM     81  C   UNL A   1      44.646  33.612  29.702  1.00  0.00     0.023 A 
ATOM     82  C   UNL A   1      45.323  33.817  30.921  1.00  0.00     0.012 A 
ATOM     83  C   UNL A   1      44.661  34.619  28.719  1.00  0.00     0.148 A 
ATOM     84  C   UNL A   1      45.978  35.021  31.169  1.00  0.00     0.002 A 
ATOM     85  C   UNL A   1      45.348  35.803  28.959  1.00  0.00     0.091 A 
ATOM     86  F   UNL A   1      43.991  34.409  27.576  1.00  0.00    -0.205 F 
ATOM     87  C   UNL A   1      45.998  36.009  30.187  1.00  0.00     0.022 A 
BRANCH  85  88
ATOM     88  S   UNL A   1      45.486  37.102  27.727  1.00  0.00     0.127 S 
ATOM     89  O   UNL A   1      46.112  38.176  28.495  1.00  0.00    -0.237 OA
ATOM     90  O   UNL A   1      46.352  36.486  26.720  1.00  0.00    -0.237 OA
ATOM     91  O   UNL A   1      44.127  37.366  27.272  1.00  0.00    -0.744 OA
ENDBRANCH  85  88
ENDBRANCH  58  81
ENDBRANCH  32  33
ENDBRANCH  25  27
ENDBRANCH  24  25
ENDBRANCH  23  24
ENDBRANCH   1  23
TORSDOF 20
ENDMDL
MODEL 3
REMARK VINA RESULT:     -10.1      4.764      9.694
REMARK SMILES CC(C)(C)N(CC(=O)OCCOC(=O)c1ccc(-c2c3nc(c(-c4cccc(S(=O)(=O)[O-])c4F)c4ccc([nH]4)c(-c4cccc(S(=O)(=O)[O-])c4F)c4nc(c(-c5cccc(S(=O)(=O)[O-])c5F)c5ccc2[nH]5)C=C4)C=C3)cc1)C(=O)N1CC[C@H](C[NH3+])C1
REMARK SMILES IDX 10 1 9 2 7 3 8 4 6 5 5 6 2 7 1 8 3 9 4 10 78 11 79 12 80 13
REMARK SMILES IDX 81 14 86 15 82 16 83 17 84 18 85 19 11 23 12 24 13 25 14 26
REMARK SMILES IDX 15 27 16 28 77 29 17 30 76 31 18 32 19 33 20 34 70 35 21 36
REMARK SMILES IDX 75 37 69 38 71 39 22 40 74 41 68 42 67 43 23 45 55 46 35 47
REMARK SMILES IDX 54 48 36 49 39 50 53 51 72 52 37 53 38 54 52 56 73 57 40 58
REMARK SMILES IDX 24 59 25 60 33 61 26 62 28 63 34 64 27 65 29 66 30 67 31 68
REMARK SMILES IDX 32 69 56 70 57 71 65 72 58 73 60 74 66 75 59 76 61 77 62 78
REMARK SMILES IDX 63 79 64 80 41 81 42 82 50 83 43 84 45 85 51 86 44 87 46 88
REMARK SMILES IDX 47 89 48 90 49 91
REMARK H PARENT 85 20 85 21 85 22 71 44 39 55
REMARK Flexibility Score: inf
ROOT
ATOM      1  C   UNL A   1      32.566  28.479  23.426  1.00  0.00     0.274 C 
ENDROOT
BRANCH   1   2
ATOM      2  O   UNL A   1      33.026  27.172  23.830  1.00  0.00    -0.461 OA
BRANCH   2   3
ATOM      3  C   UNL A   1      32.856  26.168  22.924  1.00  0.00     0.325 C 
ATOM      4  O   UNL A   1      33.611  25.950  21.982  1.00  0.00    -0.250 OA
BRANCH   3   5
ATOM      5  C   UNL A   1      31.722  25.205  23.302  1.00  0.00     0.244 C 
BRANCH   5   6
ATOM      6  N   UNL A   1      32.050  24.037  24.135  1.00  0.00    -0.309 N 
BRANCH   6   7
ATOM      7  C   UNL A   1      31.429  23.977  25.516  1.00  0.00     0.037 C 
ATOM      8  C   UNL A   1      30.732  22.628  25.852  1.00  0.00     0.034 C 
ATOM      9  C   UNL A   1      30.337  25.060  25.625  1.00  0.00     0.034 C 
ATOM     10  C   UNL A   1      32.492  24.163  26.627  1.00  0.00     0.034 C 
ENDBRANCH   6   7
BRANCH   6  11
ATOM     11  C   UNL A   1      32.672  22.889  23.633  1.00  0.00     0.320 C 
ATOM     12  O   UNL A   1      32.217  22.280  22.662  1.00  0.00    -0.248 OA
BRANCH  11  13
ATOM     13  N   UNL A   1      33.847  22.442  24.192  1.00  0.00    -0.324 N 
ATOM     14  C   UNL A   1      34.108  21.101  24.654  1.00  0.00     0.122 C 
ATOM     15  C   UNL A   1      35.113  23.078  23.825  1.00  0.00     0.130 C 
ATOM     16  C   UNL A   1      35.535  21.124  25.148  1.00  0.00     0.033 C 
ATOM     17  C   UNL A   1      36.234  22.100  24.214  1.00  0.00     0.065 C 
BRANCH  17  18
ATOM     18  C   UNL A   1      37.403  22.812  24.886  1.00  0.00     0.264 C 
BRANCH  18  19
ATOM     19  N   UNL A   1      37.357  22.757  26.342  1.00  0.00    -0.357 N 
ATOM     20  H   UNL A   1      36.412  22.972  26.661  1.00  0.00     0.344 HD
ATOM     21  H   UNL A   1      38.010  23.440  26.728  1.00  0.00     0.344 HD
ATOM     22  H   UNL A   1      37.619  21.822  26.655  1.00  0.00     0.344 HD
ENDBRANCH  18  19
ENDBRANCH  17  18
ENDBRANCH  11  13
ENDBRANCH   6  11
ENDBRANCH   5   6
ENDBRANCH   3   5
ENDBRANCH   2   3
ENDBRANCH   1   2
BRANCH   1  23
ATOM     23  C   UNL A   1      32.177  29.326  24.653  1.00  0.00     0.275 C 
BRANCH  23  24
ATOM     24  O   UNL A   1      33.270  29.945  25.365  1.00  0.00    -0.458 OA
BRANCH  24  25
ATOM     25  C   UNL A   1      32.986  30.677  26.471  1.00  0.00     0.338 C 
ATOM     26  O   UNL A   1      32.020  31.385  26.641  1.00  0.00    -0.246 OA
BRANCH  25  27
ATOM     27  C   UNL A   1      34.170  30.627  27.364  1.00  0.00     0.060 A 
ATOM     28  C   UNL A   1      34.503  29.406  27.963  1.00  0.00     0.016 A 
ATOM     29  C   UNL A   1      34.937  31.766  27.631  1.00  0.00     0.016 A 
ATOM     30  C   UNL A   1      35.588  29.323  28.844  1.00  0.00     0.010 A 
ATOM     31  C   UNL A   1      36.054  31.670  28.476  1.00  0.00     0.010 A 
ATOM     32  C   UNL A   1      36.400  30.445  29.079  1.00  0.00    -0.014 A 
BRANCH  32  33
ATOM     33  C   UNL A   1      37.763  30.272  29.657  1.00  0.00     0.031 A 
ATOM     34  C   UNL A   1      38.848  29.460  29.022  1.00  0.00     0.074 A 
ATOM     35  C   UNL A   1      37.990  30.838  30.853  1.00  0.00     0.049 A 
ATOM     36  N   UNL A   1      39.855  28.835  29.572  1.00  0.00    -0.248 NA
ATOM     37  C   UNL A   1      38.791  29.326  27.571  1.00  0.00     0.031 C 
ATOM     38  C   UNL A   1      37.045  31.701  31.564  1.00  0.00     0.029 A 
ATOM     39  N   UNL A   1      39.069  30.750  31.691  1.00  0.00    -0.354 N 
ATOM     40  C   UNL A   1      40.461  28.105  28.551  1.00  0.00     0.074 A 
ATOM     41  C   UNL A   1      39.719  28.402  27.341  1.00  0.00     0.031 C 
ATOM     42  C   UNL A   1      37.572  32.040  32.746  1.00  0.00     0.029 A 
ATOM     43  C   UNL A   1      38.858  31.370  32.896  1.00  0.00     0.049 A 
ATOM     44  H   UNL A   1      39.907  30.291  31.452  1.00  0.00     0.167 HD
ATOM     45  C   UNL A   1      41.554  27.303  28.626  1.00  0.00     0.034 A 
ATOM     46  C   UNL A   1      39.596  31.360  34.020  1.00  0.00     0.034 A 
ATOM     47  C   UNL A   1      42.436  27.283  29.772  1.00  0.00     0.049 A 
ATOM     48  C   UNL A   1      40.892  30.612  34.026  1.00  0.00     0.074 A 
ATOM     49  C   UNL A   1      43.637  26.610  29.926  1.00  0.00     0.029 A 
ATOM     50  N   UNL A   1      42.261  28.044  30.918  1.00  0.00    -0.354 N 
ATOM     51  N   UNL A   1      41.398  29.840  33.096  1.00  0.00    -0.248 NA
ATOM     52  C   UNL A   1      41.737  30.764  35.215  1.00  0.00     0.031 C 
ATOM     53  C   UNL A   1      44.206  26.995  31.146  1.00  0.00     0.029 A 
ATOM     54  C   UNL A   1      43.357  27.905  31.754  1.00  0.00     0.049 A 
ATOM     55  H   UNL A   1      41.474  28.603  31.110  1.00  0.00     0.167 HD
ATOM     56  C   UNL A   1      42.636  29.433  33.573  1.00  0.00     0.074 A 
ATOM     57  C   UNL A   1      42.810  30.064  34.868  1.00  0.00     0.031 C 
ATOM     58  C   UNL A   1      43.538  28.595  33.006  1.00  0.00     0.034 A 
BRANCH  45  59
ATOM     59  C   UNL A   1      41.935  26.438  27.443  1.00  0.00     0.023 A 
ATOM     60  C   UNL A   1      42.735  26.948  26.402  1.00  0.00     0.012 A 
ATOM     61  C   UNL A   1      41.611  25.061  27.437  1.00  0.00     0.148 A 
ATOM     62  C   UNL A   1      43.169  26.121  25.362  1.00  0.00     0.002 A 
ATOM     63  C   UNL A   1      42.099  24.230  26.431  1.00  0.00     0.091 A 
ATOM     64  F   UNL A   1      40.842  24.579  28.424  1.00  0.00    -0.205 F 
ATOM     65  C   UNL A   1      42.865  24.762  25.384  1.00  0.00     0.022 A 
BRANCH  63  66
ATOM     66  S   UNL A   1      41.874  22.445  26.458  1.00  0.00     0.127 S 
ATOM     67  O   UNL A   1      42.564  22.037  25.235  1.00  0.00    -0.237 OA
ATOM     68  O   UNL A   1      42.554  22.060  27.697  1.00  0.00    -0.237 OA
ATOM     69  O   UNL A   1      40.434  22.229  26.474  1.00  0.00    -0.744 OA
ENDBRANCH  63  66
ENDBRANCH  45  59
BRANCH  46  70
ATOM     70  C   UNL A   1      39.112  32.138  35.187  1.00  0.00     0.023 A 
ATOM     71  C   UNL A   1      38.336  31.494  36.168  1.00  0.00     0.012 A 
ATOM     72  C   UNL A   1      39.543  33.462  35.401  1.00  0.00     0.148 A 
ATOM     73  C   UNL A   1      37.993  32.159  37.343  1.00  0.00     0.002 A 
ATOM     74  C   UNL A   1      39.251  34.094  36.602  1.00  0.00     0.091 A 
ATOM     75  F   UNL A   1      40.278  34.054  34.448  1.00  0.00    -0.205 F 
ATOM     76  C   UNL A   1      38.465  33.451  37.568  1.00  0.00     0.022 A 
BRANCH  74  77
ATOM     77  S   UNL A   1      39.974  35.681  37.037  1.00  0.00     0.127 S 
ATOM     78  O   UNL A   1      39.311  35.975  38.303  1.00  0.00    -0.237 OA
ATOM     79  O   UNL A   1      41.395  35.353  37.145  1.00  0.00    -0.237 OA
ATOM     80  O   UNL A   1      39.653  36.569  35.925  1.00  0.00    -0.744 OA
ENDBRANCH  74  77
ENDBRANCH  46  70
BRANCH  58  81
ATOM     81  C   UNL A   1      44.814  28.351  33.761  1.00  0.00     0.023 A 
ATOM     82  C   UNL A   1      45.885  29.256  33.623  1.00  0.00     0.012 A 
ATOM     83  C   UNL A   1      44.938  27.255  34.636  1.00  0.00     0.148 A 
ATOM     84  C   UNL A   1      47.074  29.054  34.322  1.00  0.00     0.002 A 
ATOM     85  C   UNL A   1      46.113  27.081  35.357  1.00  0.00     0.091 A 
ATOM     86  F   UNL A   1      43.913  26.395  34.734  1.00  0.00    -0.205 F 
ATOM     87  C   UNL A   1      47.184  27.974  35.194  1.00  0.00     0.022 A 
BRANCH  85  88
ATOM     88  S   UNL A   1      46.318  25.759  36.556  1.00  0.00     0.127 S 
ATOM     89  O   UNL A   1      45.200  26.005  37.464  1.00  0.00    -0.237 OA
ATOM     90  O   UNL A   1      46.180  24.561  35.727  1.00  0.00    -0.237 OA
ATOM     91  O   UNL A   1      47.645  25.945  37.129  1.00  0.00    -0.744 OA
ENDBRANCH  85  88
ENDBRANCH  58  81
ENDBRANCH  32  33
ENDBRANCH  25  27
ENDBRANCH  24  25
ENDBRANCH  23  24
ENDBRANCH   1  23
TORSDOF 20
ENDMDL
