MODEL 1
REMARK VINA RESULT:     -11.2      0.000      0.000
REMARK SMILES O=C(OCCOC(=O)[C@@H]1CC[C@@H](CNC(=O)N2CC[NH2+]CC2)O1)c1ccc(-c2c3nc(c(-c4cccc(S(=O)(=O)[O-])c4F)c4ccc([nH]4)c(-c4cccc(S(=O)(=O)[O-])c4F)c4nc(c(-c5cccc(S(=O)(=O)[O-])c5F)c5ccc2[nH]5)C=C4)C=C3)cc1
REMARK SMILES IDX 4 1 3 2 2 3 1 4 24 5 25 6 86 7 26 8 85 9 27 10 28 11 29 12
REMARK SMILES IDX 79 13 30 14 84 15 78 16 80 17 31 18 83 19 77 20 76 21 32 23
REMARK SMILES IDX 64 24 44 25 63 26 45 27 48 28 62 29 81 30 46 31 47 32 61 34
REMARK SMILES IDX 82 35 49 36 33 37 34 38 42 39 35 40 37 41 43 42 36 43 38 44
REMARK SMILES IDX 39 45 40 46 41 47 65 48 66 49 74 50 67 51 69 52 75 53 68 54
REMARK SMILES IDX 70 55 71 56 72 57 73 58 50 59 51 60 59 61 52 62 54 63 60 64
REMARK SMILES IDX 53 65 55 66 56 67 57 68 58 69 5 70 6 71 7 72 8 73 9 74 10 75
REMARK SMILES IDX 23 76 11 77 12 78 13 79 14 80 15 81 16 83 17 84 18 85 22 86
REMARK SMILES IDX 19 87 21 88 20 89
REMARK H PARENT 80 22 48 33 14 82 20 90 20 91
REMARK Flexibility Score: inf
ROOT
ATOM      1  C   UNL A   1      34.915  33.332  28.645  1.00  0.00     0.275 C 
ENDROOT
BRANCH   1   2
ATOM      2  O   UNL A   1      34.127  32.238  28.170  1.00  0.00    -0.458 OA
BRANCH   2   3
ATOM      3  C   UNL A   1      34.551  31.085  27.603  1.00  0.00     0.338 C 
ATOM      4  O   UNL A   1      33.822  30.543  26.773  1.00  0.00    -0.246 OA
BRANCH   3   5
ATOM      5  C   UNL A   1      35.807  30.369  28.007  1.00  0.00     0.060 A 
ATOM      6  C   UNL A   1      37.015  30.291  27.297  1.00  0.00     0.016 A 
ATOM      7  C   UNL A   1      35.739  29.702  29.236  1.00  0.00     0.016 A 
ATOM      8  C   UNL A   1      38.151  29.661  27.830  1.00  0.00     0.010 A 
ATOM      9  C   UNL A   1      36.860  29.061  29.763  1.00  0.00     0.010 A 
ATOM     10  C   UNL A   1      38.092  29.060  29.081  1.00  0.00    -0.014 A 
BRANCH  10  11
ATOM     11  C   UNL A   1      39.241  28.349  29.701  1.00  0.00     0.031 A 
ATOM     12  C   UNL A   1      39.900  29.019  30.868  1.00  0.00     0.074 A 
ATOM     13  C   UNL A   1      39.795  27.246  29.155  1.00  0.00     0.049 A 
ATOM     14  N   UNL A   1      41.052  28.772  31.423  1.00  0.00    -0.248 NA
ATOM     15  C   UNL A   1      39.173  30.163  31.449  1.00  0.00     0.031 C 
ATOM     16  C   UNL A   1      39.261  26.481  28.029  1.00  0.00     0.029 A 
ATOM     17  N   UNL A   1      40.990  26.622  29.429  1.00  0.00    -0.354 N 
ATOM     18  C   UNL A   1      41.197  29.745  32.400  1.00  0.00     0.074 A 
ATOM     19  C   UNL A   1      40.083  30.656  32.272  1.00  0.00     0.031 C 
ATOM     20  C   UNL A   1      40.172  25.572  27.635  1.00  0.00     0.029 A 
ATOM     21  C   UNL A   1      41.345  25.671  28.494  1.00  0.00     0.049 A 
ATOM     22  H   UNL A   1      41.540  26.832  30.218  1.00  0.00     0.167 HD
ATOM     23  C   UNL A   1      42.121  29.826  33.383  1.00  0.00     0.034 A 
ATOM     24  C   UNL A   1      42.488  24.971  28.347  1.00  0.00     0.034 A 
ATOM     25  C   UNL A   1      43.180  28.878  33.547  1.00  0.00     0.049 A 
ATOM     26  C   UNL A   1      43.549  25.099  29.412  1.00  0.00     0.074 A 
ATOM     27  C   UNL A   1      44.101  28.777  34.569  1.00  0.00     0.029 A 
ATOM     28  N   UNL A   1      43.456  27.859  32.647  1.00  0.00    -0.354 N 
ATOM     29  N   UNL A   1      43.577  25.902  30.447  1.00  0.00    -0.248 NA
ATOM     30  C   UNL A   1      44.683  24.164  29.346  1.00  0.00     0.031 C 
ATOM     31  C   UNL A   1      44.945  27.699  34.280  1.00  0.00     0.029 A 
ATOM     32  C   UNL A   1      44.533  27.118  33.090  1.00  0.00     0.049 A 
ATOM     33  H   UNL A   1      42.958  27.689  31.815  1.00  0.00     0.167 HD
ATOM     34  C   UNL A   1      44.669  25.502  31.209  1.00  0.00     0.074 A 
ATOM     35  C   UNL A   1      45.302  24.413  30.494  1.00  0.00     0.031 C 
ATOM     36  C   UNL A   1      45.089  25.978  32.406  1.00  0.00     0.034 A 
BRANCH  23  37
ATOM     37  C   UNL A   1      41.935  30.936  34.378  1.00  0.00     0.023 A 
ATOM     38  C   UNL A   1      41.160  30.700  35.537  1.00  0.00     0.012 A 
ATOM     39  C   UNL A   1      42.444  32.222  34.136  1.00  0.00     0.148 A 
ATOM     40  C   UNL A   1      40.818  31.747  36.388  1.00  0.00     0.002 A 
ATOM     41  C   UNL A   1      42.145  33.250  35.022  1.00  0.00     0.091 A 
ATOM     42  F   UNL A   1      43.160  32.430  33.022  1.00  0.00    -0.205 F 
ATOM     43  C   UNL A   1      41.313  33.020  36.132  1.00  0.00     0.022 A 
BRANCH  41  44
ATOM     44  S   UNL A   1      42.799  34.909  34.821  1.00  0.00     0.127 S 
ATOM     45  O   UNL A   1      42.221  35.593  35.981  1.00  0.00    -0.237 OA
ATOM     46  O   UNL A   1      44.245  34.679  34.912  1.00  0.00    -0.237 OA
ATOM     47  O   UNL A   1      42.338  35.367  33.526  1.00  0.00    -0.744 OA
ENDBRANCH  41  44
ENDBRANCH  23  37
BRANCH  24  48
ATOM     48  C   UNL A   1      42.658  24.004  27.222  1.00  0.00     0.023 A 
ATOM     49  C   UNL A   1      43.286  24.434  26.036  1.00  0.00     0.012 A 
ATOM     50  C   UNL A   1      42.186  22.680  27.307  1.00  0.00     0.148 A 
ATOM     51  C   UNL A   1      43.404  23.578  24.939  1.00  0.00     0.002 A 
ATOM     52  C   UNL A   1      42.329  21.824  26.217  1.00  0.00     0.091 A 
ATOM     53  F   UNL A   1      41.606  22.287  28.449  1.00  0.00    -0.205 F 
ATOM     54  C   UNL A   1      42.926  22.275  25.029  1.00  0.00     0.022 A 
BRANCH  52  55
ATOM     55  S   UNL A   1      41.799  20.106  26.240  1.00  0.00     0.127 S 
ATOM     56  O   UNL A   1      40.347  20.239  26.126  1.00  0.00    -0.237 OA
ATOM     57  O   UNL A   1      42.464  19.578  25.049  1.00  0.00    -0.237 OA
ATOM     58  O   UNL A   1      42.278  19.567  27.504  1.00  0.00    -0.744 OA
ENDBRANCH  52  55
ENDBRANCH  24  48
BRANCH  36  59
ATOM     59  C   UNL A   1      46.215  25.267  33.104  1.00  0.00     0.023 A 
ATOM     60  C   UNL A   1      47.530  25.757  33.015  1.00  0.00     0.012 A 
ATOM     61  C   UNL A   1      45.922  24.203  33.980  1.00  0.00     0.148 A 
ATOM     62  C   UNL A   1      48.541  25.193  33.793  1.00  0.00     0.002 A 
ATOM     63  C   UNL A   1      46.921  23.686  34.792  1.00  0.00     0.091 A 
ATOM     64  F   UNL A   1      44.664  23.741  34.025  1.00  0.00    -0.205 F 
ATOM     65  C   UNL A   1      48.234  24.175  34.695  1.00  0.00     0.022 A 
BRANCH  63  66
ATOM     66  S   UNL A   1      46.585  22.467  36.068  1.00  0.00     0.127 S 
ATOM     67  O   UNL A   1      47.915  22.262  36.641  1.00  0.00    -0.237 OA
ATOM     68  O   UNL A   1      45.650  23.181  36.938  1.00  0.00    -0.237 OA
ATOM     69  O   UNL A   1      46.017  21.313  35.387  1.00  0.00    -0.744 OA
ENDBRANCH  63  66
ENDBRANCH  36  59
ENDBRANCH  10  11
ENDBRANCH   3   5
ENDBRANCH   2   3
ENDBRANCH   1   2
BRANCH   1  70
ATOM     70  C   UNL A   1      34.366  34.711  28.272  1.00  0.00     0.274 C 
BRANCH  70  71
ATOM     71  O   UNL A   1      33.118  35.049  28.908  1.00  0.00    -0.460 OA
BRANCH  71  72
ATOM     72  C   UNL A   1      33.101  36.241  29.577  1.00  0.00     0.335 C 
ATOM     73  O   UNL A   1      33.129  37.335  29.019  1.00  0.00    -0.249 OA
BRANCH  72  74
ATOM     74  C   UNL A   1      33.076  36.090  31.111  1.00  0.00     0.228 C 
ATOM     75  C   UNL A   1      33.359  37.377  31.877  1.00  0.00     0.047 C 
ATOM     76  O   UNL A   1      33.938  35.091  31.681  1.00  0.00    -0.361 OA
ATOM     77  C   UNL A   1      33.652  36.829  33.260  1.00  0.00     0.037 C 
ATOM     78  C   UNL A   1      34.519  35.647  32.885  1.00  0.00     0.138 C 
BRANCH  78  79
ATOM     79  C   UNL A   1      34.859  34.604  33.962  1.00  0.00     0.149 C 
BRANCH  79  80
ATOM     80  N   UNL A   1      34.900  33.231  33.490  1.00  0.00    -0.335 N 
ATOM     81  C   UNL A   1      35.825  32.679  32.668  1.00  0.00     0.317 C 
ATOM     82  H   UNL A   1      34.179  32.638  33.802  1.00  0.00     0.165 HD
ATOM     83  O   UNL A   1      35.509  31.750  31.928  1.00  0.00    -0.249 OA
ATOM     84  N   UNL A   1      37.061  33.254  32.634  1.00  0.00    -0.314 N 
ATOM     85  C   UNL A   1      37.773  33.296  31.369  1.00  0.00     0.182 C 
ATOM     86  C   UNL A   1      37.901  33.368  33.823  1.00  0.00     0.182 C 
ATOM     87  C   UNL A   1      38.709  34.516  31.317  1.00  0.00     0.282 C 
ATOM     88  C   UNL A   1      38.846  34.578  33.719  1.00  0.00     0.282 C 
ATOM     89  N   UNL A   1      39.640  34.574  32.467  1.00  0.00    -0.343 N 
ATOM     90  H   UNL A   1      40.200  35.424  32.414  1.00  0.00     0.346 HD
ATOM     91  H   UNL A   1      40.262  33.766  32.453  1.00  0.00     0.346 HD
ENDBRANCH  79  80
ENDBRANCH  78  79
ENDBRANCH  72  74
ENDBRANCH  71  72
ENDBRANCH  70  71
ENDBRANCH   1  70
TORSDOF 16
ENDMDL
MODEL 2
REMARK VINA RESULT:     -10.9      4.499     12.785
REMARK SMILES O=C(OCCOC(=O)[C@@H]1CC[C@@H](CNC(=O)N2CC[NH2+]CC2)O1)c1ccc(-c2c3nc(c(-c4cccc(S(=O)(=O)[O-])c4F)c4ccc([nH]4)c(-c4cccc(S(=O)(=O)[O-])c4F)c4nc(c(-c5cccc(S(=O)(=O)[O-])c5F)c5ccc2[nH]5)C=C4)C=C3)cc1
REMARK SMILES IDX 4 1 3 2 2 3 1 4 24 5 25 6 86 7 26 8 85 9 27 10 28 11 29 12
REMARK SMILES IDX 79 13 30 14 84 15 78 16 80 17 31 18 83 19 77 20 76 21 32 23
REMARK SMILES IDX 64 24 44 25 63 26 45 27 48 28 62 29 81 30 46 31 47 32 61 34
REMARK SMILES IDX 82 35 49 36 33 37 34 38 42 39 35 40 37 41 43 42 36 43 38 44
REMARK SMILES IDX 39 45 40 46 41 47 65 48 66 49 74 50 67 51 69 52 75 53 68 54
REMARK SMILES IDX 70 55 71 56 72 57 73 58 50 59 51 60 59 61 52 62 54 63 60 64
REMARK SMILES IDX 53 65 55 66 56 67 57 68 58 69 5 70 6 71 7 72 8 73 9 74 10 75
REMARK SMILES IDX 23 76 11 77 12 78 13 79 14 80 15 81 16 83 17 84 18 85 22 86
REMARK SMILES IDX 19 87 21 88 20 89
REMARK H PARENT 80 22 48 33 14 82 20 90 20 91
REMARK Flexibility Score: inf
ROOT
ATOM      1  C   UNL A   1      40.181  20.255  26.481  1.00  0.00     0.275 C 
ENDROOT
BRANCH   1   2
ATOM      2  O   UNL A   1      40.283  21.679  26.390  1.00  0.00    -0.458 OA
BRANCH   2   3
ATOM      3  C   UNL A   1      39.296  22.598  26.499  1.00  0.00     0.338 C 
ATOM      4  O   UNL A   1      38.171  22.292  26.108  1.00  0.00    -0.246 OA
BRANCH   3   5
ATOM      5  C   UNL A   1      39.517  24.007  26.968  1.00  0.00     0.060 A 
ATOM      6  C   UNL A   1      39.257  24.536  28.242  1.00  0.00     0.016 A 
ATOM      7  C   UNL A   1      40.035  24.878  26.003  1.00  0.00     0.016 A 
ATOM      8  C   UNL A   1      39.593  25.857  28.580  1.00  0.00     0.010 A 
ATOM      9  C   UNL A   1      40.356  26.196  26.328  1.00  0.00     0.010 A 
ATOM     10  C   UNL A   1      40.170  26.694  27.632  1.00  0.00    -0.014 A 
BRANCH  10  11
ATOM     11  C   UNL A   1      40.528  28.111  27.903  1.00  0.00     0.031 A 
ATOM     12  C   UNL A   1      41.988  28.437  27.976  1.00  0.00     0.074 A 
ATOM     13  C   UNL A   1      39.611  29.041  28.245  1.00  0.00     0.049 A 
ATOM     14  N   UNL A   1      42.578  29.499  28.447  1.00  0.00    -0.248 NA
ATOM     15  C   UNL A   1      42.908  27.387  27.499  1.00  0.00     0.031 C 
ATOM     16  C   UNL A   1      38.159  28.873  28.211  1.00  0.00     0.029 A 
ATOM     17  N   UNL A   1      39.776  30.300  28.775  1.00  0.00    -0.354 N 
ATOM     18  C   UNL A   1      43.935  29.232  28.343  1.00  0.00     0.074 A 
ATOM     19  C   UNL A   1      44.075  27.868  27.892  1.00  0.00     0.031 C 
ATOM     20  C   UNL A   1      37.573  29.929  28.803  1.00  0.00     0.029 A 
ATOM     21  C   UNL A   1      38.604  30.862  29.238  1.00  0.00     0.049 A 
ATOM     22  H   UNL A   1      40.647  30.757  28.819  1.00  0.00     0.167 HD
ATOM     23  C   UNL A   1      44.978  30.075  28.516  1.00  0.00     0.034 A 
ATOM     24  C   UNL A   1      38.393  31.996  29.939  1.00  0.00     0.034 A 
ATOM     25  C   UNL A   1      44.827  31.447  28.893  1.00  0.00     0.049 A 
ATOM     26  C   UNL A   1      39.564  32.915  30.184  1.00  0.00     0.074 A 
ATOM     27  C   UNL A   1      45.789  32.432  28.977  1.00  0.00     0.029 A 
ATOM     28  N   UNL A   1      43.618  32.024  29.253  1.00  0.00    -0.354 N 
ATOM     29  N   UNL A   1      40.830  32.722  29.902  1.00  0.00    -0.248 NA
ATOM     30  C   UNL A   1      39.271  34.240  30.751  1.00  0.00     0.031 C 
ATOM     31  C   UNL A   1      45.161  33.609  29.402  1.00  0.00     0.029 A 
ATOM     32  C   UNL A   1      43.805  33.357  29.559  1.00  0.00     0.049 A 
ATOM     33  H   UNL A   1      42.755  31.553  29.286  1.00  0.00     0.167 HD
ATOM     34  C   UNL A   1      41.465  33.931  30.157  1.00  0.00     0.074 A 
ATOM     35  C   UNL A   1      40.452  34.838  30.659  1.00  0.00     0.031 C 
ATOM     36  C   UNL A   1      42.764  34.266  29.967  1.00  0.00     0.034 A 
BRANCH  23  37
ATOM     37  C   UNL A   1      46.338  29.520  28.201  1.00  0.00     0.023 A 
ATOM     38  C   UNL A   1      46.860  29.672  26.896  1.00  0.00     0.012 A 
ATOM     39  C   UNL A   1      47.059  28.781  29.153  1.00  0.00     0.148 A 
ATOM     40  C   UNL A   1      48.030  29.020  26.518  1.00  0.00     0.002 A 
ATOM     41  C   UNL A   1      48.257  28.181  28.783  1.00  0.00     0.091 A 
ATOM     42  F   UNL A   1      46.538  28.631  30.379  1.00  0.00    -0.205 F 
ATOM     43  C   UNL A   1      48.730  28.278  27.463  1.00  0.00     0.022 A 
BRANCH  41  44
ATOM     44  S   UNL A   1      49.270  27.267  29.948  1.00  0.00     0.127 S 
ATOM     45  O   UNL A   1      48.267  26.435  30.618  1.00  0.00    -0.237 OA
ATOM     46  O   UNL A   1      50.170  26.529  29.054  1.00  0.00    -0.237 OA
ATOM     47  O   UNL A   1      49.921  28.260  30.778  1.00  0.00    -0.744 OA
ENDBRANCH  41  44
ENDBRANCH  23  37
BRANCH  24  48
ATOM     48  C   UNL A   1      37.018  32.392  30.364  1.00  0.00     0.023 A 
ATOM     49  C   UNL A   1      36.560  32.019  31.643  1.00  0.00     0.012 A 
ATOM     50  C   UNL A   1      36.158  33.110  29.510  1.00  0.00     0.148 A 
ATOM     51  C   UNL A   1      35.258  32.315  32.050  1.00  0.00     0.002 A 
ATOM     52  C   UNL A   1      34.868  33.423  29.932  1.00  0.00     0.091 A 
ATOM     53  F   UNL A   1      36.619  33.469  28.304  1.00  0.00    -0.205 F 
ATOM     54  C   UNL A   1      34.412  33.015  31.196  1.00  0.00     0.022 A 
BRANCH  52  55
ATOM     55  S   UNL A   1      33.711  34.371  28.935  1.00  0.00     0.127 S 
ATOM     56  O   UNL A   1      34.571  35.422  28.394  1.00  0.00    -0.237 OA
ATOM     57  O   UNL A   1      33.275  33.369  27.961  1.00  0.00    -0.237 OA
ATOM     58  O   UNL A   1      32.680  34.823  29.857  1.00  0.00    -0.744 OA
ENDBRANCH  52  55
ENDBRANCH  24  48
BRANCH  36  59
ATOM     59  C   UNL A   1      43.174  35.697  30.177  1.00  0.00     0.023 A 
ATOM     60  C   UNL A   1      43.770  36.097  31.386  1.00  0.00     0.012 A 
ATOM     61  C   UNL A   1      43.107  36.600  29.097  1.00  0.00     0.148 A 
ATOM     62  C   UNL A   1      44.296  37.382  31.515  1.00  0.00     0.002 A 
ATOM     63  C   UNL A   1      43.683  37.856  29.215  1.00  0.00     0.091 A 
ATOM     64  F   UNL A   1      42.510  36.199  27.965  1.00  0.00    -0.205 F 
ATOM     65  C   UNL A   1      44.272  38.253  30.426  1.00  0.00     0.022 A 
BRANCH  63  66
ATOM     66  S   UNL A   1      43.810  38.988  27.825  1.00  0.00     0.127 S 
ATOM     67  O   UNL A   1      44.502  40.125  28.430  1.00  0.00    -0.237 OA
ATOM     68  O   UNL A   1      44.614  38.219  26.874  1.00  0.00    -0.237 OA
ATOM     69  O   UNL A   1      42.445  39.249  27.390  1.00  0.00    -0.744 OA
ENDBRANCH  63  66
ENDBRANCH  36  59
ENDBRANCH  10  11
ENDBRANCH   3   5
ENDBRANCH   2   3
ENDBRANCH   1   2
BRANCH   1  70
ATOM     70  C   UNL A   1      41.513  19.544  26.731  1.00  0.00     0.274 C 
BRANCH  70  71
ATOM     71  O   UNL A   1      42.198  19.122  25.536  1.00  0.00    -0.460 OA
BRANCH  71  72
ATOM     72  C   UNL A   1      43.438  18.579  25.728  1.00  0.00     0.335 C 
ATOM     73  O   UNL A   1      43.662  17.649  26.498  1.00  0.00    -0.249 OA
BRANCH  72  74
ATOM     74  C   UNL A   1      44.548  19.265  24.908  1.00  0.00     0.228 C 
ATOM     75  C   UNL A   1      45.965  18.863  25.301  1.00  0.00     0.047 C 
ATOM     76  O   UNL A   1      44.539  20.702  24.874  1.00  0.00    -0.361 OA
ATOM     77  C   UNL A   1      46.770  19.957  24.630  1.00  0.00     0.037 C 
ATOM     78  C   UNL A   1      45.911  21.153  24.977  1.00  0.00     0.138 C 
BRANCH  78  79
ATOM     79  C   UNL A   1      46.188  22.495  24.280  1.00  0.00     0.149 C 
BRANCH  79  80
ATOM     80  N   UNL A   1      45.024  23.345  24.109  1.00  0.00    -0.335 N 
ATOM     81  C   UNL A   1      44.346  24.005  25.079  1.00  0.00     0.317 C 
ATOM     82  H   UNL A   1      44.692  23.455  23.188  1.00  0.00     0.165 HD
ATOM     83  O   UNL A   1      43.145  24.229  24.943  1.00  0.00    -0.249 OA
ATOM     84  N   UNL A   1      45.023  24.313  26.222  1.00  0.00    -0.314 N 
ATOM     85  C   UNL A   1      44.311  24.261  27.487  1.00  0.00     0.182 C 
ATOM     86  C   UNL A   1      46.221  25.148  26.218  1.00  0.00     0.182 C 
ATOM     87  C   UNL A   1      45.275  23.918  28.635  1.00  0.00     0.282 C 
ATOM     88  C   UNL A   1      47.143  24.799  27.400  1.00  0.00     0.282 C 
ATOM     89  N   UNL A   1      46.436  24.834  28.702  1.00  0.00    -0.343 N 
ATOM     90  H   UNL A   1      47.069  24.534  29.444  1.00  0.00     0.346 HD
ATOM     91  H   UNL A   1      46.119  25.783  28.901  1.00  0.00     0.346 HD
ENDBRANCH  79  80
ENDBRANCH  78  79
ENDBRANCH  72  74
ENDBRANCH  71  72
ENDBRANCH  70  71
ENDBRANCH   1  70
TORSDOF 16
ENDMDL
MODEL 3
REMARK VINA RESULT:     -10.7      3.942      6.417
REMARK SMILES O=C(OCCOC(=O)[C@@H]1CC[C@@H](CNC(=O)N2CC[NH2+]CC2)O1)c1ccc(-c2c3nc(c(-c4cccc(S(=O)(=O)[O-])c4F)c4ccc([nH]4)c(-c4cccc(S(=O)(=O)[O-])c4F)c4nc(c(-c5cccc(S(=O)(=O)[O-])c5F)c5ccc2[nH]5)C=C4)C=C3)cc1
REMARK SMILES IDX 4 1 3 2 2 3 1 4 24 5 25 6 86 7 26 8 85 9 27 10 28 11 29 12
REMARK SMILES IDX 79 13 30 14 84 15 78 16 80 17 31 18 83 19 77 20 76 21 32 23
REMARK SMILES IDX 64 24 44 25 63 26 45 27 48 28 62 29 81 30 46 31 47 32 61 34
REMARK SMILES IDX 82 35 49 36 33 37 34 38 42 39 35 40 37 41 43 42 36 43 38 44
REMARK SMILES IDX 39 45 40 46 41 47 65 48 66 49 74 50 67 51 69 52 75 53 68 54
REMARK SMILES IDX 70 55 71 56 72 57 73 58 50 59 51 60 59 61 52 62 54 63 60 64
REMARK SMILES IDX 53 65 55 66 56 67 57 68 58 69 5 70 6 71 7 72 8 73 9 74 10 75
REMARK SMILES IDX 23 76 11 77 12 78 13 79 14 80 15 81 16 83 17 84 18 85 22 86
REMARK SMILES IDX 19 87 21 88 20 89
REMARK H PARENT 80 22 48 33 14 82 20 90 20 91
REMARK Flexibility Score: inf
ROOT
ATOM      1  C   UNL A   1      31.564  30.428  25.859  1.00  0.00     0.275 C 
ENDROOT
BRANCH   1   2
ATOM      2  O   UNL A   1      32.942  30.748  26.066  1.00  0.00    -0.458 OA
BRANCH   2   3
ATOM      3  C   UNL A   1      33.502  31.409  27.106  1.00  0.00     0.338 C 
ATOM      4  O   UNL A   1      32.973  32.453  27.483  1.00  0.00    -0.246 OA
BRANCH   3   5
ATOM      5  C   UNL A   1      34.793  31.001  27.756  1.00  0.00     0.060 A 
ATOM      6  C   UNL A   1      35.913  31.806  28.015  1.00  0.00     0.016 A 
ATOM      7  C   UNL A   1      34.867  29.655  28.133  1.00  0.00     0.016 A 
ATOM      8  C   UNL A   1      37.030  31.322  28.714  1.00  0.00     0.010 A 
ATOM      9  C   UNL A   1      35.981  29.165  28.814  1.00  0.00     0.010 A 
ATOM     10  C   UNL A   1      37.064  30.001  29.144  1.00  0.00    -0.014 A 
BRANCH  10  11
ATOM     11  C   UNL A   1      38.221  29.406  29.863  1.00  0.00     0.031 A 
ATOM     12  C   UNL A   1      38.535  29.966  31.217  1.00  0.00     0.074 A 
ATOM     13  C   UNL A   1      39.069  28.531  29.281  1.00  0.00     0.049 A 
ATOM     14  N   UNL A   1      39.610  29.833  31.940  1.00  0.00    -0.248 NA
ATOM     15  C   UNL A   1      37.506  30.844  31.806  1.00  0.00     0.031 C 
ATOM     16  C   UNL A   1      38.889  27.894  27.978  1.00  0.00     0.029 A 
ATOM     17  N   UNL A   1      40.308  28.089  29.687  1.00  0.00    -0.354 N 
ATOM     18  C   UNL A   1      39.395  30.629  33.055  1.00  0.00     0.074 A 
ATOM     19  C   UNL A   1      38.153  31.337  32.848  1.00  0.00     0.031 C 
ATOM     20  C   UNL A   1      40.017  27.244  27.639  1.00  0.00     0.029 A 
ATOM     21  C   UNL A   1      40.993  27.396  28.710  1.00  0.00     0.049 A 
ATOM     22  H   UNL A   1      40.670  28.252  30.587  1.00  0.00     0.167 HD
ATOM     23  C   UNL A   1      40.115  30.697  34.197  1.00  0.00     0.034 A 
ATOM     24  C   UNL A   1      42.265  26.945  28.686  1.00  0.00     0.034 A 
ATOM     25  C   UNL A   1      41.306  29.938  34.422  1.00  0.00     0.049 A 
ATOM     26  C   UNL A   1      43.094  27.069  29.940  1.00  0.00     0.074 A 
ATOM     27  C   UNL A   1      42.053  29.822  35.577  1.00  0.00     0.029 A 
ATOM     28  N   UNL A   1      41.924  29.158  33.457  1.00  0.00    -0.354 N 
ATOM     29  N   UNL A   1      42.792  27.671  31.065  1.00  0.00    -0.248 NA
ATOM     30  C   UNL A   1      44.390  26.376  29.959  1.00  0.00     0.031 C 
ATOM     31  C   UNL A   1      43.136  28.978  35.303  1.00  0.00     0.029 A 
ATOM     32  C   UNL A   1      43.045  28.552  33.986  1.00  0.00     0.049 A 
ATOM     33  H   UNL A   1      41.610  29.051  32.530  1.00  0.00     0.167 HD
ATOM     34  C   UNL A   1      43.806  27.342  31.956  1.00  0.00     0.074 A 
ATOM     35  C   UNL A   1      44.755  26.524  31.227  1.00  0.00     0.031 C 
ATOM     36  C   UNL A   1      43.925  27.666  33.266  1.00  0.00     0.034 A 
BRANCH  23  37
ATOM     37  C   UNL A   1      39.550  31.564  35.285  1.00  0.00     0.023 A 
ATOM     38  C   UNL A   1      38.504  31.062  36.094  1.00  0.00     0.012 A 
ATOM     39  C   UNL A   1      39.982  32.889  35.457  1.00  0.00     0.148 A 
ATOM     40  C   UNL A   1      37.837  31.893  36.989  1.00  0.00     0.002 A 
ATOM     41  C   UNL A   1      39.348  33.696  36.395  1.00  0.00     0.091 A 
ATOM     42  F   UNL A   1      40.961  33.353  34.668  1.00  0.00    -0.205 F 
ATOM     43  C   UNL A   1      38.261  33.208  37.142  1.00  0.00     0.022 A 
BRANCH  41  44
ATOM     44  S   UNL A   1      39.870  35.381  36.720  1.00  0.00     0.127 S 
ATOM     45  O   UNL A   1      39.110  35.695  37.932  1.00  0.00    -0.237 OA
ATOM     46  O   UNL A   1      41.312  35.216  36.934  1.00  0.00    -0.237 OA
ATOM     47  O   UNL A   1      39.517  36.145  35.540  1.00  0.00    -0.744 OA
ENDBRANCH  41  44
ENDBRANCH  23  37
BRANCH  24  48
ATOM     48  C   UNL A   1      42.806  26.237  27.488  1.00  0.00     0.023 A 
ATOM     49  C   UNL A   1      43.574  26.958  26.553  1.00  0.00     0.012 A 
ATOM     50  C   UNL A   1      42.548  24.872  27.257  1.00  0.00     0.148 A 
ATOM     51  C   UNL A   1      44.041  26.345  25.388  1.00  0.00     0.002 A 
ATOM     52  C   UNL A   1      43.038  24.260  26.105  1.00  0.00     0.091 A 
ATOM     53  F   UNL A   1      41.829  24.201  28.168  1.00  0.00    -0.205 F 
ATOM     54  C   UNL A   1      43.773  24.999  25.164  1.00  0.00     0.022 A 
BRANCH  52  55
ATOM     55  S   UNL A   1      42.800  22.516  25.740  1.00  0.00     0.127 S 
ATOM     56  O   UNL A   1      43.270  22.433  24.358  1.00  0.00    -0.237 OA
ATOM     57  O   UNL A   1      43.679  21.888  26.728  1.00  0.00    -0.237 OA
ATOM     58  O   UNL A   1      41.380  22.267  25.933  1.00  0.00    -0.744 OA
ENDBRANCH  52  55
ENDBRANCH  24  48
BRANCH  36  59
ATOM     59  C   UNL A   1      45.047  27.054  34.057  1.00  0.00     0.023 A 
ATOM     60  C   UNL A   1      46.299  27.689  34.127  1.00  0.00     0.012 A 
ATOM     61  C   UNL A   1      44.789  25.925  34.862  1.00  0.00     0.148 A 
ATOM     62  C   UNL A   1      47.282  27.207  34.990  1.00  0.00     0.002 A 
ATOM     63  C   UNL A   1      45.751  25.486  35.759  1.00  0.00     0.091 A 
ATOM     64  F   UNL A   1      43.595  25.325  34.755  1.00  0.00    -0.205 F 
ATOM     65  C   UNL A   1      47.003  26.121  35.820  1.00  0.00     0.022 A 
BRANCH  63  66
ATOM     66  S   UNL A   1      45.428  24.182  36.950  1.00  0.00     0.127 S 
ATOM     67  O   UNL A   1      46.664  24.180  37.732  1.00  0.00    -0.237 OA
ATOM     68  O   UNL A   1      44.257  24.695  37.660  1.00  0.00    -0.237 OA
ATOM     69  O   UNL A   1      45.183  22.975  36.173  1.00  0.00    -0.744 OA
ENDBRANCH  63  66
ENDBRANCH  36  59
ENDBRANCH  10  11
ENDBRANCH   3   5
ENDBRANCH   2   3
ENDBRANCH   1   2
BRANCH   1  70
ATOM     70  C   UNL A   1      31.329  29.148  25.055  1.00  0.00     0.274 C 
BRANCH  70  71
ATOM     71  O   UNL A   1      31.732  29.229  23.673  1.00  0.00    -0.460 OA
BRANCH  71  72
ATOM     72  C   UNL A   1      31.247  28.243  22.859  1.00  0.00     0.335 C 
ATOM     73  O   UNL A   1      30.376  28.427  22.013  1.00  0.00    -0.249 OA
BRANCH  72  74
ATOM     74  C   UNL A   1      31.872  26.859  23.123  1.00  0.00     0.228 C 
ATOM     75  C   UNL A   1      32.449  26.181  21.885  1.00  0.00     0.047 C 
ATOM     76  O   UNL A   1      31.037  25.878  23.759  1.00  0.00    -0.361 OA
ATOM     77  C   UNL A   1      32.600  24.757  22.383  1.00  0.00     0.037 C 
ATOM     78  C   UNL A   1      31.286  24.605  23.116  1.00  0.00     0.138 C 
BRANCH  78  79
ATOM     79  C   UNL A   1      31.081  23.385  24.029  1.00  0.00     0.149 C 
BRANCH  79  80
ATOM     80  N   UNL A   1      30.452  23.676  25.304  1.00  0.00    -0.335 N 
ATOM     81  C   UNL A   1      30.950  23.417  26.537  1.00  0.00     0.317 C 
ATOM     82  H   UNL A   1      29.568  24.110  25.269  1.00  0.00     0.165 HD
ATOM     83  O   UNL A   1      30.184  23.198  27.473  1.00  0.00    -0.249 OA
ATOM     84  N   UNL A   1      32.304  23.320  26.662  1.00  0.00    -0.314 N 
ATOM     85  C   UNL A   1      32.848  22.351  27.597  1.00  0.00     0.182 C 
ATOM     86  C   UNL A   1      33.201  24.420  26.316  1.00  0.00     0.182 C 
ATOM     87  C   UNL A   1      34.230  21.864  27.126  1.00  0.00     0.282 C 
ATOM     88  C   UNL A   1      34.581  23.895  25.884  1.00  0.00     0.282 C 
ATOM     89  N   UNL A   1      35.177  22.975  26.882  1.00  0.00    -0.343 N 
ATOM     90  H   UNL A   1      36.057  22.604  26.524  1.00  0.00     0.346 HD
ATOM     91  H   UNL A   1      35.358  23.475  27.752  1.00  0.00     0.346 HD
ENDBRANCH  79  80
ENDBRANCH  78  79
ENDBRANCH  72  74
ENDBRANCH  71  72
ENDBRANCH  70  71
ENDBRANCH   1  70
TORSDOF 16
ENDMDL
