MODEL 1
REMARK VINA RESULT:     -12.2      0.000      0.000
REMARK SMILES Cc1c(Cl)ccc2c1C=C(C(=O)OCCOC(=O)c1ccc(-c3c4nc(c(-c5cccc(S(=O)(=O)[O-])c5F)c5ccc([nH]5)c(-c5cccc(S(=O)(=O)[O-])c5F)c5nc(c(-c6cccc(S(=O)(=O)[O-])c6F)c6ccc3[nH]6)C=C5)C=C4)cc1)[C@@H](C(F)(F)F)O2
REMARK SMILES IDX 15 1 14 2 13 3 11 4 12 5 10 6 1 7 2 8 3 9 8 10 4 11 5 12
REMARK SMILES IDX 7 13 9 14 6 15 87 16 82 17 83 18 84 19 85 20 86 21 16 22
REMARK SMILES IDX 17 23 18 24 19 25 20 26 81 27 21 28 80 29 22 30 23 31 24 32
REMARK SMILES IDX 74 33 25 34 79 35 73 36 75 37 26 38 78 39 72 40 71 41 27 43
REMARK SMILES IDX 59 44 39 45 58 46 40 47 43 48 57 49 76 50 41 51 42 52 56 54
REMARK SMILES IDX 77 55 44 56 28 57 29 58 37 59 30 60 32 61 38 62 31 63 33 64
REMARK SMILES IDX 34 65 35 66 36 67 60 68 61 69 69 70 62 71 64 72 70 73 63 74
REMARK SMILES IDX 65 75 66 76 67 77 68 78 45 79 46 80 54 81 47 82 49 83 55 84
REMARK SMILES IDX 48 85 50 86 51 87 52 88 53 89
REMARK H PARENT 75 42 43 53
REMARK Flexibility Score: inf
ROOT
ATOM      1  C   UNL A   1      31.818  29.789  25.502  1.00  0.00     0.275 C 
ENDROOT
BRANCH   1   2
ATOM      2  C   UNL A   1      32.824  29.443  24.398  1.00  0.00     0.275 C 
BRANCH   2   3
ATOM      3  O   UNL A   1      33.622  28.288  24.742  1.00  0.00    -0.459 OA
BRANCH   3   4
ATOM      4  C   UNL A   1      33.612  27.261  23.857  1.00  0.00     0.338 C 
ATOM      5  O   UNL A   1      33.649  27.355  22.640  1.00  0.00    -0.246 OA
BRANCH   4   6
ATOM      6  C   UNL A   1      33.629  25.964  24.577  1.00  0.00     0.087 C 
ATOM      7  C   UNL A   1      36.530  22.953  23.355  1.00  0.00     0.047 C 
ATOM      8  C   UNL A   1      35.551  22.765  24.489  1.00  0.00    -0.021 A 
ATOM      9  C   UNL A   1      35.665  21.621  25.308  1.00  0.00     0.044 A 
ATOM     10  C   UNL A   1      34.600  23.759  24.845  1.00  0.00     0.022 A 
ATOM     11  Cl  UNL A   1      36.824  20.372  25.001  1.00  0.00    -0.084 Cl
ATOM     12  C   UNL A   1      34.854  21.454  26.431  1.00  0.00     0.024 A 
ATOM     13  C   UNL A   1      33.835  23.599  26.009  1.00  0.00     0.128 A 
ATOM     14  C   UNL A   1      34.403  24.990  24.079  1.00  0.00     0.027 C 
ATOM     15  C   UNL A   1      33.947  22.445  26.784  1.00  0.00     0.048 A 
ATOM     16  O   UNL A   1      32.962  24.528  26.501  1.00  0.00    -0.475 OA
ATOM     17  C   UNL A   1      32.795  25.794  25.812  1.00  0.00     0.316 C 
BRANCH  17  18
ATOM     18  C   UNL A   1      31.299  25.944  25.490  1.00  0.00     0.430 C 
ATOM     19  F   UNL A   1      30.668  24.744  25.503  1.00  0.00    -0.167 F 
ATOM     20  F   UNL A   1      30.653  26.726  26.386  1.00  0.00    -0.167 F 
ATOM     21  F   UNL A   1      31.095  26.488  24.266  1.00  0.00    -0.167 F 
ENDBRANCH  17  18
ENDBRANCH   4   6
ENDBRANCH   3   4
ENDBRANCH   2   3
ENDBRANCH   1   2
BRANCH   1  22
ATOM     22  O   UNL A   1      32.454  29.881  26.788  1.00  0.00    -0.458 OA
BRANCH  22  23
ATOM     23  C   UNL A   1      32.993  31.090  27.071  1.00  0.00     0.338 C 
ATOM     24  O   UNL A   1      32.426  32.170  27.055  1.00  0.00    -0.246 OA
BRANCH  23  25
ATOM     25  C   UNL A   1      34.345  30.904  27.619  1.00  0.00     0.060 A 
ATOM     26  C   UNL A   1      34.693  29.601  27.965  1.00  0.00     0.016 A 
ATOM     27  C   UNL A   1      35.221  31.957  27.871  1.00  0.00     0.016 A 
ATOM     28  C   UNL A   1      35.913  29.328  28.563  1.00  0.00     0.010 A 
ATOM     29  C   UNL A   1      36.442  31.688  28.506  1.00  0.00     0.010 A 
ATOM     30  C   UNL A   1      36.783  30.373  28.869  1.00  0.00    -0.014 A 
BRANCH  30  31
ATOM     31  C   UNL A   1      37.991  30.070  29.666  1.00  0.00     0.031 A 
ATOM     32  C   UNL A   1      39.044  29.173  29.088  1.00  0.00     0.074 A 
ATOM     33  C   UNL A   1      38.183  30.662  30.858  1.00  0.00     0.049 A 
ATOM     34  N   UNL A   1      40.112  28.686  29.657  1.00  0.00    -0.248 NA
ATOM     35  C   UNL A   1      38.888  28.792  27.672  1.00  0.00     0.031 C 
ATOM     36  C   UNL A   1      37.293  31.653  31.464  1.00  0.00     0.029 A 
ATOM     37  N   UNL A   1      39.190  30.507  31.776  1.00  0.00    -0.354 N 
ATOM     38  C   UNL A   1      40.732  27.904  28.691  1.00  0.00     0.074 A 
ATOM     39  C   UNL A   1      39.940  28.006  27.486  1.00  0.00     0.031 C 
ATOM     40  C   UNL A   1      37.777  31.993  32.669  1.00  0.00     0.029 A 
ATOM     41  C   UNL A   1      38.975  31.203  32.941  1.00  0.00     0.049 A 
ATOM     42  H   UNL A   1      39.987  29.952  31.616  1.00  0.00     0.167 HD
ATOM     43  C   UNL A   1      41.859  27.166  28.809  1.00  0.00     0.034 A 
ATOM     44  C   UNL A   1      39.642  31.169  34.112  1.00  0.00     0.034 A 
ATOM     45  C   UNL A   1      42.651  27.091  30.004  1.00  0.00     0.049 A 
ATOM     46  C   UNL A   1      40.840  30.274  34.247  1.00  0.00     0.074 A 
ATOM     47  C   UNL A   1      43.792  26.341  30.232  1.00  0.00     0.029 A 
ATOM     48  N   UNL A   1      42.390  27.790  31.170  1.00  0.00    -0.354 N 
ATOM     49  N   UNL A   1      41.399  29.507  33.342  1.00  0.00    -0.248 NA
ATOM     50  C   UNL A   1      41.509  30.243  35.556  1.00  0.00     0.031 C 
ATOM     51  C   UNL A   1      44.214  26.579  31.542  1.00  0.00     0.029 A 
ATOM     52  C   UNL A   1      43.349  27.494  32.121  1.00  0.00     0.049 A 
ATOM     53  H   UNL A   1      41.634  28.407  31.303  1.00  0.00     0.167 HD
ATOM     54  C   UNL A   1      42.499  28.926  33.959  1.00  0.00     0.074 A 
ATOM     55  C   UNL A   1      42.532  29.432  35.317  1.00  0.00     0.031 C 
ATOM     56  C   UNL A   1      43.396  28.048  33.449  1.00  0.00     0.034 A 
BRANCH  43  57
ATOM     57  C   UNL A   1      42.310  26.366  27.621  1.00  0.00     0.023 A 
ATOM     58  C   UNL A   1      43.227  26.923  26.711  1.00  0.00     0.012 A 
ATOM     59  C   UNL A   1      41.906  25.024  27.474  1.00  0.00     0.148 A 
ATOM     60  C   UNL A   1      43.742  26.152  25.669  1.00  0.00     0.002 A 
ATOM     61  C   UNL A   1      42.445  24.255  26.452  1.00  0.00     0.091 A 
ATOM     62  F   UNL A   1      41.018  24.527  28.346  1.00  0.00    -0.205 F 
ATOM     63  C   UNL A   1      43.361  24.817  25.547  1.00  0.00     0.022 A 
BRANCH  61  64
ATOM     64  S   UNL A   1      42.062  22.512  26.242  1.00  0.00     0.127 S 
ATOM     65  O   UNL A   1      42.772  22.202  25.001  1.00  0.00    -0.237 OA
ATOM     66  O   UNL A   1      42.650  21.924  27.446  1.00  0.00    -0.237 OA
ATOM     67  O   UNL A   1      40.612  22.423  26.160  1.00  0.00    -0.744 OA
ENDBRANCH  61  64
ENDBRANCH  43  57
BRANCH  44  68
ATOM     68  C   UNL A   1      39.167  32.006  35.247  1.00  0.00     0.023 A 
ATOM     69  C   UNL A   1      38.232  31.479  36.156  1.00  0.00     0.012 A 
ATOM     70  C   UNL A   1      39.688  33.297  35.460  1.00  0.00     0.148 A 
ATOM     71  C   UNL A   1      37.821  32.226  37.260  1.00  0.00     0.002 A 
ATOM     72  C   UNL A   1      39.309  34.018  36.584  1.00  0.00     0.091 A 
ATOM     73  F   UNL A   1      40.568  33.779  34.570  1.00  0.00    -0.205 F 
ATOM     74  C   UNL A   1      38.367  33.489  37.480  1.00  0.00     0.022 A 
BRANCH  72  75
ATOM     75  S   UNL A   1      40.034  35.606  37.008  1.00  0.00     0.127 S 
ATOM     76  O   UNL A   1      39.653  36.424  35.859  1.00  0.00    -0.237 OA
ATOM     77  O   UNL A   1      39.339  35.929  38.253  1.00  0.00    -0.237 OA
ATOM     78  O   UNL A   1      41.463  35.364  37.156  1.00  0.00    -0.744 OA
ENDBRANCH  72  75
ENDBRANCH  44  68
BRANCH  56  79
ATOM     79  C   UNL A   1      44.524  27.599  34.333  1.00  0.00     0.023 A 
ATOM     80  C   UNL A   1      45.706  28.361  34.400  1.00  0.00     0.012 A 
ATOM     81  C   UNL A   1      44.362  26.488  35.185  1.00  0.00     0.148 A 
ATOM     82  C   UNL A   1      46.717  28.016  35.294  1.00  0.00     0.002 A 
ATOM     83  C   UNL A   1      45.358  26.171  36.098  1.00  0.00     0.091 A 
ATOM     84  F   UNL A   1      43.230  25.775  35.093  1.00  0.00    -0.205 F 
ATOM     85  C   UNL A   1      46.539  26.931  36.151  1.00  0.00     0.022 A 
BRANCH  83  86
ATOM     86  S   UNL A   1      45.184  24.841  37.292  1.00  0.00     0.127 S 
ATOM     87  O   UNL A   1      46.487  24.866  37.955  1.00  0.00    -0.237 OA
ATOM     88  O   UNL A   1      44.070  25.308  38.118  1.00  0.00    -0.237 OA
ATOM     89  O   UNL A   1      44.903  23.639  36.519  1.00  0.00    -0.744 OA
ENDBRANCH  83  86
ENDBRANCH  56  79
ENDBRANCH  30  31
ENDBRANCH  23  25
ENDBRANCH  22  23
ENDBRANCH   1  22
TORSDOF 15
ENDMDL
MODEL 2
REMARK VINA RESULT:     -12.2      5.258     10.077
REMARK SMILES Cc1c(Cl)ccc2c1C=C(C(=O)OCCOC(=O)c1ccc(-c3c4nc(c(-c5cccc(S(=O)(=O)[O-])c5F)c5ccc([nH]5)c(-c5cccc(S(=O)(=O)[O-])c5F)c5nc(c(-c6cccc(S(=O)(=O)[O-])c6F)c6ccc3[nH]6)C=C5)C=C4)cc1)[C@@H](C(F)(F)F)O2
REMARK SMILES IDX 15 1 14 2 13 3 11 4 12 5 10 6 1 7 2 8 3 9 8 10 4 11 5 12
REMARK SMILES IDX 7 13 9 14 6 15 87 16 82 17 83 18 84 19 85 20 86 21 16 22
REMARK SMILES IDX 17 23 18 24 19 25 20 26 81 27 21 28 80 29 22 30 23 31 24 32
REMARK SMILES IDX 74 33 25 34 79 35 73 36 75 37 26 38 78 39 72 40 71 41 27 43
REMARK SMILES IDX 59 44 39 45 58 46 40 47 43 48 57 49 76 50 41 51 42 52 56 54
REMARK SMILES IDX 77 55 44 56 28 57 29 58 37 59 30 60 32 61 38 62 31 63 33 64
REMARK SMILES IDX 34 65 35 66 36 67 60 68 61 69 69 70 62 71 64 72 70 73 63 74
REMARK SMILES IDX 65 75 66 76 67 77 68 78 45 79 46 80 54 81 47 82 49 83 55 84
REMARK SMILES IDX 48 85 50 86 51 87 52 88 53 89
REMARK H PARENT 75 42 43 53
REMARK Flexibility Score: inf
ROOT
ATOM      1  C   UNL A   1      36.321  21.037  25.010  1.00  0.00     0.275 C 
ENDROOT
BRANCH   1   2
ATOM      2  C   UNL A   1      35.454  21.462  26.201  1.00  0.00     0.275 C 
BRANCH   2   3
ATOM      3  O   UNL A   1      35.130  22.869  26.155  1.00  0.00    -0.459 OA
BRANCH   3   4
ATOM      4  C   UNL A   1      33.812  23.187  26.151  1.00  0.00     0.338 C 
ATOM      5  O   UNL A   1      32.924  22.592  26.741  1.00  0.00    -0.246 OA
BRANCH   4   6
ATOM      6  C   UNL A   1      33.587  24.432  25.376  1.00  0.00     0.087 C 
ATOM      7  C   UNL A   1      32.082  27.937  27.479  1.00  0.00     0.047 C 
ATOM      8  C   UNL A   1      32.413  27.919  26.006  1.00  0.00    -0.021 A 
ATOM      9  C   UNL A   1      32.386  29.132  25.284  1.00  0.00     0.044 A 
ATOM     10  C   UNL A   1      32.879  26.750  25.346  1.00  0.00     0.022 A 
ATOM     11  Cl  UNL A   1      31.888  30.627  26.002  1.00  0.00    -0.084 Cl
ATOM     12  C   UNL A   1      32.786  29.186  23.949  1.00  0.00     0.024 A 
ATOM     13  C   UNL A   1      33.331  26.838  24.021  1.00  0.00     0.128 A 
ATOM     14  C   UNL A   1      32.963  25.443  25.997  1.00  0.00     0.027 C 
ATOM     15  C   UNL A   1      33.265  28.042  23.322  1.00  0.00     0.048 A 
ATOM     16  O   UNL A   1      33.887  25.806  23.319  1.00  0.00    -0.475 OA
ATOM     17  C   UNL A   1      34.058  24.512  23.954  1.00  0.00     0.316 C 
BRANCH  17  18
ATOM     18  C   UNL A   1      33.338  23.474  23.077  1.00  0.00     0.430 C 
ATOM     19  F   UNL A   1      32.015  23.416  23.368  1.00  0.00    -0.167 F 
ATOM     20  F   UNL A   1      33.428  23.761  21.757  1.00  0.00    -0.167 F 
ATOM     21  F   UNL A   1      33.840  22.228  23.250  1.00  0.00    -0.167 F 
ENDBRANCH  17  18
ENDBRANCH   4   6
ENDBRANCH   3   4
ENDBRANCH   2   3
ENDBRANCH   1   2
BRANCH   1  22
ATOM     22  O   UNL A   1      37.543  21.792  24.948  1.00  0.00    -0.458 OA
BRANCH  22  23
ATOM     23  C   UNL A   1      38.547  21.314  25.719  1.00  0.00     0.338 C 
ATOM     24  O   UNL A   1      38.967  20.169  25.751  1.00  0.00    -0.246 OA
BRANCH  23  25
ATOM     25  C   UNL A   1      39.227  22.435  26.384  1.00  0.00     0.060 A 
ATOM     26  C   UNL A   1      38.739  23.706  26.096  1.00  0.00     0.016 A 
ATOM     27  C   UNL A   1      40.349  22.279  27.195  1.00  0.00     0.016 A 
ATOM     28  C   UNL A   1      39.357  24.836  26.608  1.00  0.00     0.010 A 
ATOM     29  C   UNL A   1      40.996  23.421  27.688  1.00  0.00     0.010 A 
ATOM     30  C   UNL A   1      40.511  24.704  27.379  1.00  0.00    -0.014 A 
BRANCH  30  31
ATOM     31  C   UNL A   1      41.245  25.930  27.758  1.00  0.00     0.031 A 
ATOM     32  C   UNL A   1      40.554  26.974  28.583  1.00  0.00     0.074 A 
ATOM     33  C   UNL A   1      42.545  26.067  27.442  1.00  0.00     0.049 A 
ATOM     34  N   UNL A   1      40.969  28.165  28.920  1.00  0.00    -0.248 NA
ATOM     35  C   UNL A   1      39.227  26.624  29.122  1.00  0.00     0.031 C 
ATOM     36  C   UNL A   1      43.359  25.062  26.758  1.00  0.00     0.029 A 
ATOM     37  N   UNL A   1      43.406  27.114  27.650  1.00  0.00    -0.354 N 
ATOM     38  C   UNL A   1      39.942  28.726  29.668  1.00  0.00     0.074 A 
ATOM     39  C   UNL A   1      38.893  27.735  29.765  1.00  0.00     0.031 C 
ATOM     40  C   UNL A   1      44.594  25.555  26.572  1.00  0.00     0.029 A 
ATOM     41  C   UNL A   1      44.638  26.926  27.073  1.00  0.00     0.049 A 
ATOM     42  H   UNL A   1      43.165  27.919  28.162  1.00  0.00     0.167 HD
ATOM     43  C   UNL A   1      39.883  29.960  30.215  1.00  0.00     0.034 A 
ATOM     44  C   UNL A   1      45.669  27.782  26.921  1.00  0.00     0.034 A 
ATOM     45  C   UNL A   1      40.941  30.929  30.132  1.00  0.00     0.049 A 
ATOM     46  C   UNL A   1      45.547  29.179  27.462  1.00  0.00     0.074 A 
ATOM     47  C   UNL A   1      40.961  32.221  30.627  1.00  0.00     0.029 A 
ATOM     48  N   UNL A   1      42.164  30.712  29.520  1.00  0.00    -0.354 N 
ATOM     49  N   UNL A   1      44.557  29.716  28.134  1.00  0.00    -0.248 NA
ATOM     50  C   UNL A   1      46.682  30.085  27.236  1.00  0.00     0.031 C 
ATOM     51  C   UNL A   1      42.196  32.791  30.302  1.00  0.00     0.029 A 
ATOM     52  C   UNL A   1      42.950  31.844  29.626  1.00  0.00     0.049 A 
ATOM     53  H   UNL A   1      42.434  29.876  29.076  1.00  0.00     0.167 HD
ATOM     54  C   UNL A   1      44.960  31.010  28.437  1.00  0.00     0.074 A 
ATOM     55  C   UNL A   1      46.287  31.177  27.879  1.00  0.00     0.031 C 
ATOM     56  C   UNL A   1      44.288  31.974  29.111  1.00  0.00     0.034 A 
BRANCH  43  57
ATOM     57  C   UNL A   1      38.635  30.352  30.951  1.00  0.00     0.023 A 
ATOM     58  C   UNL A   1      38.523  30.087  32.329  1.00  0.00     0.012 A 
ATOM     59  C   UNL A   1      37.623  31.080  30.295  1.00  0.00     0.148 A 
ATOM     60  C   UNL A   1      37.419  30.547  33.047  1.00  0.00     0.002 A 
ATOM     61  C   UNL A   1      36.542  31.560  31.022  1.00  0.00     0.091 A 
ATOM     62  F   UNL A   1      37.749  31.301  28.979  1.00  0.00    -0.205 F 
ATOM     63  C   UNL A   1      36.437  31.292  32.397  1.00  0.00     0.022 A 
BRANCH  61  64
ATOM     64  S   UNL A   1      35.254  32.576  30.291  1.00  0.00     0.127 S 
ATOM     65  O   UNL A   1      36.014  33.746  29.853  1.00  0.00    -0.237 OA
ATOM     66  O   UNL A   1      34.769  31.721  29.208  1.00  0.00    -0.237 OA
ATOM     67  O   UNL A   1      34.289  32.831  31.351  1.00  0.00    -0.744 OA
ENDBRANCH  61  64
ENDBRANCH  43  57
BRANCH  44  68
ATOM     68  C   UNL A   1      46.894  27.330  26.209  1.00  0.00     0.023 A 
ATOM     69  C   UNL A   1      47.790  26.457  26.852  1.00  0.00     0.012 A 
ATOM     70  C   UNL A   1      47.139  27.715  24.876  1.00  0.00     0.148 A 
ATOM     71  C   UNL A   1      48.912  25.975  26.178  1.00  0.00     0.002 A 
ATOM     72  C   UNL A   1      48.234  27.198  24.197  1.00  0.00     0.091 A 
ATOM     73  F   UNL A   1      46.276  28.559  24.292  1.00  0.00    -0.205 F 
ATOM     74  C   UNL A   1      49.128  26.335  24.850  1.00  0.00     0.022 A 
BRANCH  72  75
ATOM     75  S   UNL A   1      48.537  27.520  22.456  1.00  0.00     0.127 S 
ATOM     76  O   UNL A   1      49.790  28.270  22.505  1.00  0.00    -0.237 OA
ATOM     77  O   UNL A   1      48.650  26.165  21.917  1.00  0.00    -0.237 OA
ATOM     78  O   UNL A   1      47.379  28.266  21.982  1.00  0.00    -0.744 OA
ENDBRANCH  72  75
ENDBRANCH  44  68
BRANCH  56  79
ATOM     79  C   UNL A   1      44.976  33.291  29.332  1.00  0.00     0.023 A 
ATOM     80  C   UNL A   1      45.774  33.479  30.477  1.00  0.00     0.012 A 
ATOM     81  C   UNL A   1      44.926  34.295  28.345  1.00  0.00     0.148 A 
ATOM     82  C   UNL A   1      46.504  34.655  30.641  1.00  0.00     0.002 A 
ATOM     83  C   UNL A   1      45.683  35.448  28.498  1.00  0.00     0.091 A 
ATOM     84  F   UNL A   1      44.151  34.092  27.270  1.00  0.00    -0.205 F 
ATOM     85  C   UNL A   1      46.469  35.632  29.648  1.00  0.00     0.022 A 
BRANCH  83  86
ATOM     86  S   UNL A   1      45.761  36.725  27.238  1.00  0.00     0.127 S 
ATOM     87  O   UNL A   1      46.697  37.676  27.837  1.00  0.00    -0.237 OA
ATOM     88  O   UNL A   1      46.289  35.993  26.086  1.00  0.00    -0.237 OA
ATOM     89  O   UNL A   1      44.399  37.213  27.074  1.00  0.00    -0.744 OA
ENDBRANCH  83  86
ENDBRANCH  56  79
ENDBRANCH  30  31
ENDBRANCH  23  25
ENDBRANCH  22  23
ENDBRANCH   1  22
TORSDOF 15
ENDMDL
MODEL 3
REMARK VINA RESULT:     -12.2      4.942      9.916
REMARK SMILES Cc1c(Cl)ccc2c1C=C(C(=O)OCCOC(=O)c1ccc(-c3c4nc(c(-c5cccc(S(=O)(=O)[O-])c5F)c5ccc([nH]5)c(-c5cccc(S(=O)(=O)[O-])c5F)c5nc(c(-c6cccc(S(=O)(=O)[O-])c6F)c6ccc3[nH]6)C=C5)C=C4)cc1)[C@@H](C(F)(F)F)O2
REMARK SMILES IDX 15 1 14 2 13 3 11 4 12 5 10 6 1 7 2 8 3 9 8 10 4 11 5 12
REMARK SMILES IDX 7 13 9 14 6 15 87 16 82 17 83 18 84 19 85 20 86 21 16 22
REMARK SMILES IDX 17 23 18 24 19 25 20 26 81 27 21 28 80 29 22 30 23 31 24 32
REMARK SMILES IDX 74 33 25 34 79 35 73 36 75 37 26 38 78 39 72 40 71 41 27 43
REMARK SMILES IDX 59 44 39 45 58 46 40 47 43 48 57 49 76 50 41 51 42 52 56 54
REMARK SMILES IDX 77 55 44 56 28 57 29 58 37 59 30 60 32 61 38 62 31 63 33 64
REMARK SMILES IDX 34 65 35 66 36 67 60 68 61 69 69 70 62 71 64 72 70 73 63 74
REMARK SMILES IDX 65 75 66 76 67 77 68 78 45 79 46 80 54 81 47 82 49 83 55 84
REMARK SMILES IDX 48 85 50 86 51 87 52 88 53 89
REMARK H PARENT 75 42 43 53
REMARK Flexibility Score: inf
ROOT
ATOM      1  C   UNL A   1      36.135  21.111  25.310  1.00  0.00     0.275 C 
ENDROOT
BRANCH   1   2
ATOM      2  C   UNL A   1      35.026  22.124  25.620  1.00  0.00     0.275 C 
BRANCH   2   3
ATOM      3  O   UNL A   1      35.353  23.444  25.133  1.00  0.00    -0.459 OA
BRANCH   3   4
ATOM      4  C   UNL A   1      34.918  23.755  23.887  1.00  0.00     0.338 C 
ATOM      5  O   UNL A   1      35.321  23.273  22.840  1.00  0.00    -0.246 OA
BRANCH   4   6
ATOM      6  C   UNL A   1      33.803  24.730  23.962  1.00  0.00     0.087 C 
ATOM      7  C   UNL A   1      34.327  28.290  26.416  1.00  0.00     0.047 C 
ATOM      8  C   UNL A   1      33.081  27.999  25.614  1.00  0.00    -0.021 A 
ATOM      9  C   UNL A   1      32.082  28.991  25.519  1.00  0.00     0.044 A 
ATOM     10  C   UNL A   1      32.933  26.815  24.843  1.00  0.00     0.022 A 
ATOM     11  Cl  UNL A   1      32.184  30.495  26.371  1.00  0.00    -0.084 Cl
ATOM     12  C   UNL A   1      30.963  28.812  24.705  1.00  0.00     0.024 A 
ATOM     13  C   UNL A   1      31.830  26.679  23.988  1.00  0.00     0.128 A 
ATOM     14  C   UNL A   1      33.911  25.726  24.852  1.00  0.00     0.027 C 
ATOM     15  C   UNL A   1      30.843  27.662  23.936  1.00  0.00     0.048 A 
ATOM     16  O   UNL A   1      31.634  25.633  23.132  1.00  0.00    -0.475 OA
ATOM     17  C   UNL A   1      32.618  24.570  23.056  1.00  0.00     0.316 C 
BRANCH  17  18
ATOM     18  C   UNL A   1      31.886  23.248  23.338  1.00  0.00     0.430 C 
ATOM     19  F   UNL A   1      30.566  23.342  23.042  1.00  0.00    -0.167 F 
ATOM     20  F   UNL A   1      32.371  22.220  22.602  1.00  0.00    -0.167 F 
ATOM     21  F   UNL A   1      31.978  22.883  24.640  1.00  0.00    -0.167 F 
ENDBRANCH  17  18
ENDBRANCH   4   6
ENDBRANCH   3   4
ENDBRANCH   2   3
ENDBRANCH   1   2
BRANCH   1  22
ATOM     22  O   UNL A   1      37.380  21.765  25.009  1.00  0.00    -0.458 OA
BRANCH  22  23
ATOM     23  C   UNL A   1      38.447  21.300  25.699  1.00  0.00     0.338 C 
ATOM     24  O   UNL A   1      38.909  20.171  25.666  1.00  0.00    -0.246 OA
BRANCH  23  25
ATOM     25  C   UNL A   1      39.129  22.424  26.359  1.00  0.00     0.060 A 
ATOM     26  C   UNL A   1      38.693  23.698  26.006  1.00  0.00     0.016 A 
ATOM     27  C   UNL A   1      40.206  22.264  27.228  1.00  0.00     0.016 A 
ATOM     28  C   UNL A   1      39.320  24.827  26.509  1.00  0.00     0.010 A 
ATOM     29  C   UNL A   1      40.863  23.404  27.713  1.00  0.00     0.010 A 
ATOM     30  C   UNL A   1      40.432  24.689  27.339  1.00  0.00    -0.014 A 
BRANCH  30  31
ATOM     31  C   UNL A   1      41.184  25.906  27.712  1.00  0.00     0.031 A 
ATOM     32  C   UNL A   1      40.510  26.960  28.537  1.00  0.00     0.074 A 
ATOM     33  C   UNL A   1      42.484  26.024  27.390  1.00  0.00     0.049 A 
ATOM     34  N   UNL A   1      40.942  28.146  28.869  1.00  0.00    -0.248 NA
ATOM     35  C   UNL A   1      39.180  26.629  29.082  1.00  0.00     0.031 C 
ATOM     36  C   UNL A   1      43.282  25.007  26.705  1.00  0.00     0.029 A 
ATOM     37  N   UNL A   1      43.360  27.060  27.592  1.00  0.00    -0.354 N 
ATOM     38  C   UNL A   1      39.926  28.723  29.620  1.00  0.00     0.074 A 
ATOM     39  C   UNL A   1      38.865  27.746  29.724  1.00  0.00     0.031 C 
ATOM     40  C   UNL A   1      44.522  25.483  26.513  1.00  0.00     0.029 A 
ATOM     41  C   UNL A   1      44.587  26.855  27.011  1.00  0.00     0.049 A 
ATOM     42  H   UNL A   1      43.131  27.870  28.103  1.00  0.00     0.167 HD
ATOM     43  C   UNL A   1      39.886  29.959  30.165  1.00  0.00     0.034 A 
ATOM     44  C   UNL A   1      45.628  27.697  26.852  1.00  0.00     0.034 A 
ATOM     45  C   UNL A   1      40.956  30.913  30.075  1.00  0.00     0.049 A 
ATOM     46  C   UNL A   1      45.528  29.096  27.390  1.00  0.00     0.074 A 
ATOM     47  C   UNL A   1      40.995  32.206  30.566  1.00  0.00     0.029 A 
ATOM     48  N   UNL A   1      42.174  30.678  29.459  1.00  0.00    -0.354 N 
ATOM     49  N   UNL A   1      44.548  29.648  28.065  1.00  0.00    -0.248 NA
ATOM     50  C   UNL A   1      46.673  29.986  27.158  1.00  0.00     0.031 C 
ATOM     51  C   UNL A   1      42.236  32.759  30.236  1.00  0.00     0.029 A 
ATOM     52  C   UNL A   1      42.975  31.801  29.559  1.00  0.00     0.049 A 
ATOM     53  H   UNL A   1      42.430  29.838  29.015  1.00  0.00     0.167 HD
ATOM     54  C   UNL A   1      44.969  30.937  28.364  1.00  0.00     0.074 A 
ATOM     55  C   UNL A   1      46.295  31.085  27.800  1.00  0.00     0.031 C 
ATOM     56  C   UNL A   1      44.312  31.912  29.038  1.00  0.00     0.034 A 
BRANCH  43  57
ATOM     57  C   UNL A   1      38.646  30.369  30.904  1.00  0.00     0.023 A 
ATOM     58  C   UNL A   1      38.557  30.157  32.293  1.00  0.00     0.012 A 
ATOM     59  C   UNL A   1      37.618  31.064  30.237  1.00  0.00     0.148 A 
ATOM     60  C   UNL A   1      37.461  30.635  33.010  1.00  0.00     0.002 A 
ATOM     61  C   UNL A   1      36.545  31.563  30.962  1.00  0.00     0.091 A 
ATOM     62  F   UNL A   1      37.722  31.235  28.912  1.00  0.00    -0.205 F 
ATOM     63  C   UNL A   1      36.463  31.347  32.348  1.00  0.00     0.022 A 
BRANCH  61  64
ATOM     64  S   UNL A   1      35.236  32.540  30.214  1.00  0.00     0.127 S 
ATOM     65  O   UNL A   1      34.770  31.646  29.154  1.00  0.00    -0.237 OA
ATOM     66  O   UNL A   1      34.304  32.705  31.328  1.00  0.00    -0.237 OA
ATOM     67  O   UNL A   1      35.863  33.769  29.750  1.00  0.00    -0.744 OA
ENDBRANCH  61  64
ENDBRANCH  43  57
BRANCH  44  68
ATOM     68  C   UNL A   1      46.845  27.227  26.136  1.00  0.00     0.023 A 
ATOM     69  C   UNL A   1      46.992  27.497  24.764  1.00  0.00     0.012 A 
ATOM     70  C   UNL A   1      47.881  26.570  26.828  1.00  0.00     0.148 A 
ATOM     71  C   UNL A   1      48.153  27.117  24.089  1.00  0.00     0.002 A 
ATOM     72  C   UNL A   1      49.052  26.234  26.161  1.00  0.00     0.091 A 
ATOM     73  F   UNL A   1      47.709  26.314  28.133  1.00  0.00    -0.205 F 
ATOM     74  C   UNL A   1      49.186  26.498  24.789  1.00  0.00     0.022 A 
BRANCH  72  75
ATOM     75  S   UNL A   1      50.477  25.530  26.998  1.00  0.00     0.127 S 
ATOM     76  O   UNL A   1      51.408  25.335  25.889  1.00  0.00    -0.237 OA
ATOM     77  O   UNL A   1      50.838  26.601  27.926  1.00  0.00    -0.237 OA
ATOM     78  O   UNL A   1      50.001  24.310  27.636  1.00  0.00    -0.744 OA
ENDBRANCH  72  75
ENDBRANCH  44  68
BRANCH  56  79
ATOM     79  C   UNL A   1      45.019  33.219  29.253  1.00  0.00     0.023 A 
ATOM     80  C   UNL A   1      45.857  33.385  30.372  1.00  0.00     0.012 A 
ATOM     81  C   UNL A   1      44.944  34.237  28.281  1.00  0.00     0.148 A 
ATOM     82  C   UNL A   1      46.602  34.553  30.527  1.00  0.00     0.002 A 
ATOM     83  C   UNL A   1      45.716  35.382  28.424  1.00  0.00     0.091 A 
ATOM     84  F   UNL A   1      44.130  34.056  27.231  1.00  0.00    -0.205 F 
ATOM     85  C   UNL A   1      46.541  35.544  29.550  1.00  0.00     0.022 A 
BRANCH  83  86
ATOM     86  S   UNL A   1      45.761  36.676  27.180  1.00  0.00     0.127 S 
ATOM     87  O   UNL A   1      46.241  35.945  26.009  1.00  0.00    -0.237 OA
ATOM     88  O   UNL A   1      44.359  37.088  27.110  1.00  0.00    -0.237 OA
ATOM     89  O   UNL A   1      46.667  37.696  27.691  1.00  0.00    -0.744 OA
ENDBRANCH  83  86
ENDBRANCH  56  79
ENDBRANCH  30  31
ENDBRANCH  23  25
ENDBRANCH  22  23
ENDBRANCH   1  22
TORSDOF 15
ENDMDL
