MODEL 1
REMARK VINA RESULT:     -11.7      0.000      0.000
REMARK SMILES COc1ccccc1-n1nnc(C(=O)OCCOC(=O)c2ccc(-c3c4nc(c(-c5cccc(S(=O)(=O)[O-])c5F)c5ccc([nH]5)c(-c5cccc(S(=O)(=O)[O-])c5F)c5nc(c(-c6cccc(S(=O)(=O)[O-])c6F)c6ccc3[nH]6)C=C5)C=C4)cc2)c1-c1ccc(Cl)cc1
REMARK SMILES IDX 17 1 16 2 15 3 13 4 14 5 12 6 9 7 10 8 84 9 11 10 8 11 3 12
REMARK SMILES IDX 4 13 5 14 7 15 6 16 2 17 1 18 85 19 86 20 91 21 87 22 90 23
REMARK SMILES IDX 88 24 89 25 18 26 19 27 20 28 21 29 22 30 83 31 23 32 82 33
REMARK SMILES IDX 24 34 25 35 26 36 76 37 27 38 81 39 75 40 77 41 28 42 80 43
REMARK SMILES IDX 74 44 73 45 29 47 61 48 41 49 60 50 42 51 45 52 59 53 78 54
REMARK SMILES IDX 43 55 44 56 58 58 79 59 46 60 30 61 31 62 39 63 32 64 34 65
REMARK SMILES IDX 40 66 33 67 35 68 36 69 37 70 38 71 62 72 63 73 71 74 64 75
REMARK SMILES IDX 66 76 72 77 65 78 67 79 68 80 69 81 70 82 47 83 48 84 56 85
REMARK SMILES IDX 49 86 51 87 57 88 50 89 52 90 53 91 54 92 55 93
REMARK H PARENT 77 46 45 57
REMARK Flexibility Score: inf
ROOT
ATOM      1  C   UNL A   1      34.462  30.212  27.422  1.00  0.00     0.275 C 
ENDROOT
BRANCH   1   2
ATOM      2  C   UNL A   1      33.220  30.887  26.875  1.00  0.00     0.275 C 
BRANCH   2   3
ATOM      3  O   UNL A   1      32.919  30.352  25.583  1.00  0.00    -0.457 OA
BRANCH   3   4
ATOM      4  C   UNL A   1      31.716  29.740  25.354  1.00  0.00     0.361 C 
ATOM      5  O   UNL A   1      30.805  30.234  24.721  1.00  0.00    -0.244 OA
BRANCH   4   6
ATOM      6  C   UNL A   1      31.684  28.407  25.960  1.00  0.00     0.198 A 
ATOM      7  N   UNL A   1      31.818  26.275  26.362  1.00  0.00    -0.208 N 
ATOM      8  N   UNL A   1      31.408  26.876  27.503  1.00  0.00    -0.061 NA
ATOM      9  C   UNL A   1      31.854  27.185  25.322  1.00  0.00     0.109 A 
ATOM     10  N   UNL A   1      31.416  28.187  27.292  1.00  0.00    -0.122 NA
BRANCH   7  11
ATOM     11  C   UNL A   1      32.280  24.945  26.367  1.00  0.00     0.109 A 
ATOM     12  C   UNL A   1      31.426  23.885  26.704  1.00  0.00     0.144 A 
ATOM     13  C   UNL A   1      31.970  22.622  26.944  1.00  0.00     0.049 A 
ATOM     14  C   UNL A   1      33.339  22.404  26.783  1.00  0.00     0.004 A 
ATOM     15  C   UNL A   1      33.642  24.714  26.132  1.00  0.00     0.032 A 
ATOM     16  C   UNL A   1      34.170  23.441  26.359  1.00  0.00     0.003 A 
BRANCH  12  17
ATOM     17  O   UNL A   1      30.070  23.975  26.878  1.00  0.00    -0.494 OA
ATOM     18  C   UNL A   1      29.444  22.755  27.282  1.00  0.00     0.278 C 
ENDBRANCH  12  17
ENDBRANCH   7  11
BRANCH   9  19
ATOM     19  C   UNL A   1      32.060  26.855  23.912  1.00  0.00     0.003 A 
ATOM     20  C   UNL A   1      30.975  26.428  23.130  1.00  0.00     0.012 A 
ATOM     21  C   UNL A   1      33.338  26.894  23.340  1.00  0.00     0.012 A 
ATOM     22  C   UNL A   1      31.164  25.998  21.820  1.00  0.00     0.021 A 
ATOM     23  C   UNL A   1      33.525  26.490  22.016  1.00  0.00     0.021 A 
ATOM     24  C   UNL A   1      32.440  26.031  21.268  1.00  0.00     0.041 A 
ATOM     25  Cl  UNL A   1      32.676  25.490  19.653  1.00  0.00    -0.084 Cl
ENDBRANCH   9  19
ENDBRANCH   4   6
ENDBRANCH   3   4
ENDBRANCH   2   3
ENDBRANCH   1   2
BRANCH   1  26
ATOM     26  O   UNL A   1      35.363  31.222  27.855  1.00  0.00    -0.458 OA
BRANCH  26  27
ATOM     27  C   UNL A   1      35.304  31.559  29.160  1.00  0.00     0.338 C 
ATOM     28  O   UNL A   1      34.512  32.317  29.695  1.00  0.00    -0.246 OA
BRANCH  27  29
ATOM     29  C   UNL A   1      36.497  31.018  29.808  1.00  0.00     0.060 A 
ATOM     30  C   UNL A   1      37.609  31.858  29.892  1.00  0.00     0.016 A 
ATOM     31  C   UNL A   1      36.584  29.627  29.968  1.00  0.00     0.016 A 
ATOM     32  C   UNL A   1      38.850  31.270  29.891  1.00  0.00     0.010 A 
ATOM     33  C   UNL A   1      37.817  29.045  29.921  1.00  0.00     0.010 A 
ATOM     34  C   UNL A   1      38.924  29.876  29.798  1.00  0.00    -0.014 A 
BRANCH  34  35
ATOM     35  C   UNL A   1      40.223  29.259  29.721  1.00  0.00     0.031 A 
ATOM     36  C   UNL A   1      40.812  29.085  31.066  1.00  0.00     0.074 A 
ATOM     37  C   UNL A   1      40.709  28.784  28.560  1.00  0.00     0.049 A 
ATOM     38  N   UNL A   1      41.833  29.702  31.560  1.00  0.00    -0.248 NA
ATOM     39  C   UNL A   1      40.041  28.313  32.057  1.00  0.00     0.031 C 
ATOM     40  C   UNL A   1      40.018  28.651  27.273  1.00  0.00     0.029 A 
ATOM     41  N   UNL A   1      41.893  28.164  28.331  1.00  0.00    -0.354 N 
ATOM     42  C   UNL A   1      41.977  29.181  32.841  1.00  0.00     0.074 A 
ATOM     43  C   UNL A   1      40.726  28.561  33.172  1.00  0.00     0.031 C 
ATOM     44  C   UNL A   1      40.687  27.758  26.506  1.00  0.00     0.029 A 
ATOM     45  C   UNL A   1      41.901  27.359  27.197  1.00  0.00     0.049 A 
ATOM     46  H   UNL A   1      42.678  28.274  28.917  1.00  0.00     0.167 HD
ATOM     47  C   UNL A   1      43.211  29.010  33.382  1.00  0.00     0.034 A 
ATOM     48  C   UNL A   1      42.792  26.368  26.933  1.00  0.00     0.034 A 
ATOM     49  C   UNL A   1      44.194  29.806  32.687  1.00  0.00     0.049 A 
ATOM     50  C   UNL A   1      43.962  26.589  27.821  1.00  0.00     0.074 A 
ATOM     51  C   UNL A   1      44.329  31.151  32.403  1.00  0.00     0.029 A 
ATOM     52  N   UNL A   1      45.014  29.147  31.801  1.00  0.00    -0.354 N 
ATOM     53  N   UNL A   1      44.767  27.608  27.712  1.00  0.00    -0.248 NA
ATOM     54  C   UNL A   1      43.956  25.927  29.118  1.00  0.00     0.031 C 
ATOM     55  C   UNL A   1      44.837  31.195  31.073  1.00  0.00     0.029 A 
ATOM     56  C   UNL A   1      45.060  29.883  30.650  1.00  0.00     0.049 A 
ATOM     57  H   UNL A   1      45.483  28.297  31.968  1.00  0.00     0.167 HD
ATOM     58  C   UNL A   1      45.005  27.997  29.024  1.00  0.00     0.074 A 
ATOM     59  C   UNL A   1      44.561  26.871  29.846  1.00  0.00     0.031 C 
ATOM     60  C   UNL A   1      45.245  29.304  29.339  1.00  0.00     0.034 A 
BRANCH  47  61
ATOM     61  C   UNL A   1      43.608  27.821  34.230  1.00  0.00     0.023 A 
ATOM     62  C   UNL A   1      44.219  28.106  35.471  1.00  0.00     0.012 A 
ATOM     63  C   UNL A   1      43.685  26.482  33.775  1.00  0.00     0.148 A 
ATOM     64  C   UNL A   1      44.933  27.135  36.177  1.00  0.00     0.002 A 
ATOM     65  C   UNL A   1      44.328  25.502  34.519  1.00  0.00     0.091 A 
ATOM     66  F   UNL A   1      43.259  26.153  32.555  1.00  0.00    -0.205 F 
ATOM     67  C   UNL A   1      44.986  25.830  35.704  1.00  0.00     0.022 A 
BRANCH  65  68
ATOM     68  S   UNL A   1      44.389  23.790  33.969  1.00  0.00     0.127 S 
ATOM     69  O   UNL A   1      44.874  23.941  32.601  1.00  0.00    -0.237 OA
ATOM     70  O   UNL A   1      45.350  23.213  34.911  1.00  0.00    -0.237 OA
ATOM     71  O   UNL A   1      43.033  23.278  34.114  1.00  0.00    -0.744 OA
ENDBRANCH  65  68
ENDBRANCH  47  61
BRANCH  48  72
ATOM     72  C   UNL A   1      42.608  25.075  26.225  1.00  0.00     0.023 A 
ATOM     73  C   UNL A   1      43.582  24.659  25.293  1.00  0.00     0.012 A 
ATOM     74  C   UNL A   1      41.669  24.119  26.671  1.00  0.00     0.148 A 
ATOM     75  C   UNL A   1      43.651  23.329  24.858  1.00  0.00     0.002 A 
ATOM     76  C   UNL A   1      41.738  22.797  26.233  1.00  0.00     0.091 A 
ATOM     77  F   UNL A   1      40.770  24.476  27.597  1.00  0.00    -0.205 F 
ATOM     78  C   UNL A   1      42.736  22.396  25.337  1.00  0.00     0.022 A 
BRANCH  76  79
ATOM     79  S   UNL A   1      40.613  21.530  26.836  1.00  0.00     0.127 S 
ATOM     80  O   UNL A   1      39.311  22.059  26.428  1.00  0.00    -0.237 OA
ATOM     81  O   UNL A   1      41.057  20.354  26.094  1.00  0.00    -0.237 OA
ATOM     82  O   UNL A   1      40.811  21.480  28.280  1.00  0.00    -0.744 OA
ENDBRANCH  76  79
ENDBRANCH  48  72
BRANCH  60  83
ATOM     83  C   UNL A   1      45.499  30.275  28.214  1.00  0.00     0.023 A 
ATOM     84  C   UNL A   1      44.461  30.933  27.520  1.00  0.00     0.012 A 
ATOM     85  C   UNL A   1      46.826  30.666  27.982  1.00  0.00     0.148 A 
ATOM     86  C   UNL A   1      44.748  31.946  26.601  1.00  0.00     0.002 A 
ATOM     87  C   UNL A   1      47.105  31.706  27.107  1.00  0.00     0.091 A 
ATOM     88  F   UNL A   1      47.799  30.030  28.652  1.00  0.00    -0.205 F 
ATOM     89  C   UNL A   1      46.070  32.344  26.405  1.00  0.00     0.022 A 
BRANCH  87  90
ATOM     90  S   UNL A   1      48.771  32.341  26.919  1.00  0.00     0.127 S 
ATOM     91  O   UNL A   1      49.053  32.858  28.256  1.00  0.00    -0.237 OA
ATOM     92  O   UNL A   1      49.526  31.141  26.554  1.00  0.00    -0.237 OA
ATOM     93  O   UNL A   1      48.701  33.341  25.860  1.00  0.00    -0.744 OA
ENDBRANCH  87  90
ENDBRANCH  60  83
ENDBRANCH  34  35
ENDBRANCH  27  29
ENDBRANCH  26  27
ENDBRANCH   1  26
TORSDOF 17
ENDMDL
MODEL 2
REMARK VINA RESULT:     -11.7      2.375      3.034
REMARK SMILES COc1ccccc1-n1nnc(C(=O)OCCOC(=O)c2ccc(-c3c4nc(c(-c5cccc(S(=O)(=O)[O-])c5F)c5ccc([nH]5)c(-c5cccc(S(=O)(=O)[O-])c5F)c5nc(c(-c6cccc(S(=O)(=O)[O-])c6F)c6ccc3[nH]6)C=C5)C=C4)cc2)c1-c1ccc(Cl)cc1
REMARK SMILES IDX 17 1 16 2 15 3 13 4 14 5 12 6 9 7 10 8 84 9 11 10 8 11 3 12
REMARK SMILES IDX 4 13 5 14 7 15 6 16 2 17 1 18 85 19 86 20 91 21 87 22 90 23
REMARK SMILES IDX 88 24 89 25 18 26 19 27 20 28 21 29 22 30 83 31 23 32 82 33
REMARK SMILES IDX 24 34 25 35 26 36 76 37 27 38 81 39 75 40 77 41 28 42 80 43
REMARK SMILES IDX 74 44 73 45 29 47 61 48 41 49 60 50 42 51 45 52 59 53 78 54
REMARK SMILES IDX 43 55 44 56 58 58 79 59 46 60 30 61 31 62 39 63 32 64 34 65
REMARK SMILES IDX 40 66 33 67 35 68 36 69 37 70 38 71 62 72 63 73 71 74 64 75
REMARK SMILES IDX 66 76 72 77 65 78 67 79 68 80 69 81 70 82 47 83 48 84 56 85
REMARK SMILES IDX 49 86 51 87 57 88 50 89 52 90 53 91 54 92 55 93
REMARK H PARENT 77 46 45 57
REMARK Flexibility Score: inf
ROOT
ATOM      1  C   UNL A   1      33.419  29.213  26.842  1.00  0.00     0.275 C 
ENDROOT
BRANCH   1   2
ATOM      2  C   UNL A   1      33.579  27.746  26.500  1.00  0.00     0.275 C 
BRANCH   2   3
ATOM      3  O   UNL A   1      32.674  27.402  25.447  1.00  0.00    -0.457 OA
BRANCH   3   4
ATOM      4  C   UNL A   1      33.156  27.014  24.225  1.00  0.00     0.361 C 
ATOM      5  O   UNL A   1      33.965  27.645  23.575  1.00  0.00    -0.244 OA
BRANCH   4   6
ATOM      6  C   UNL A   1      32.578  25.732  23.818  1.00  0.00     0.198 A 
ATOM      7  N   UNL A   1      32.169  23.626  23.462  1.00  0.00    -0.208 N 
ATOM      8  N   UNL A   1      31.135  24.331  22.949  1.00  0.00    -0.061 NA
ATOM      9  C   UNL A   1      33.175  24.478  23.881  1.00  0.00     0.109 A 
ATOM     10  N   UNL A   1      31.332  25.609  23.247  1.00  0.00    -0.122 NA
BRANCH   7  11
ATOM     11  C   UNL A   1      32.077  22.234  23.653  1.00  0.00     0.109 A 
ATOM     12  C   UNL A   1      32.046  21.681  24.941  1.00  0.00     0.144 A 
ATOM     13  C   UNL A   1      32.208  20.303  25.095  1.00  0.00     0.049 A 
ATOM     14  C   UNL A   1      32.332  19.480  23.975  1.00  0.00     0.004 A 
ATOM     15  C   UNL A   1      32.126  21.405  22.523  1.00  0.00     0.032 A 
ATOM     16  C   UNL A   1      32.270  20.026  22.693  1.00  0.00     0.003 A 
BRANCH  12  17
ATOM     17  O   UNL A   1      31.918  22.385  26.109  1.00  0.00    -0.494 OA
ATOM     18  C   UNL A   1      30.578  22.779  26.417  1.00  0.00     0.278 C 
ENDBRANCH  12  17
ENDBRANCH   7  11
BRANCH   9  19
ATOM     19  C   UNL A   1      34.513  24.068  24.305  1.00  0.00     0.003 A 
ATOM     20  C   UNL A   1      35.385  23.471  23.380  1.00  0.00     0.012 A 
ATOM     21  C   UNL A   1      34.921  24.202  25.638  1.00  0.00     0.012 A 
ATOM     22  C   UNL A   1      36.617  22.968  23.784  1.00  0.00     0.021 A 
ATOM     23  C   UNL A   1      36.171  23.722  26.039  1.00  0.00     0.021 A 
ATOM     24  C   UNL A   1      37.006  23.096  25.113  1.00  0.00     0.041 A 
ATOM     25  Cl  UNL A   1      38.526  22.466  25.613  1.00  0.00    -0.084 Cl
ENDBRANCH   9  19
ENDBRANCH   4   6
ENDBRANCH   3   4
ENDBRANCH   2   3
ENDBRANCH   1   2
BRANCH   1  26
ATOM     26  O   UNL A   1      34.713  29.774  27.010  1.00  0.00    -0.458 OA
BRANCH  26  27
ATOM     27  C   UNL A   1      34.798  30.857  27.812  1.00  0.00     0.338 C 
ATOM     28  O   UNL A   1      34.167  31.897  27.722  1.00  0.00    -0.246 OA
BRANCH  27  29
ATOM     29  C   UNL A   1      35.941  30.658  28.700  1.00  0.00     0.060 A 
ATOM     30  C   UNL A   1      36.948  31.624  28.663  1.00  0.00     0.016 A 
ATOM     31  C   UNL A   1      36.137  29.380  29.242  1.00  0.00     0.016 A 
ATOM     32  C   UNL A   1      38.229  31.218  28.948  1.00  0.00     0.010 A 
ATOM     33  C   UNL A   1      37.414  28.966  29.481  1.00  0.00     0.010 A 
ATOM     34  C   UNL A   1      38.445  29.868  29.248  1.00  0.00    -0.014 A 
BRANCH  34  35
ATOM     35  C   UNL A   1      39.795  29.420  29.474  1.00  0.00     0.031 A 
ATOM     36  C   UNL A   1      40.189  29.605  30.887  1.00  0.00     0.074 A 
ATOM     37  C   UNL A   1      40.495  28.783  28.518  1.00  0.00     0.049 A 
ATOM     38  N   UNL A   1      41.057  30.437  31.356  1.00  0.00    -0.248 NA
ATOM     39  C   UNL A   1      39.357  28.961  31.920  1.00  0.00     0.031 C 
ATOM     40  C   UNL A   1      40.023  28.300  27.217  1.00  0.00     0.029 A 
ATOM     41  N   UNL A   1      41.756  28.287  28.585  1.00  0.00    -0.354 N 
ATOM     42  C   UNL A   1      41.058  30.214  32.729  1.00  0.00     0.074 A 
ATOM     43  C   UNL A   1      39.838  29.520  33.029  1.00  0.00     0.031 C 
ATOM     44  C   UNL A   1      40.885  27.362  26.758  1.00  0.00     0.029 A 
ATOM     45  C   UNL A   1      42.014  27.274  27.668  1.00  0.00     0.049 A 
ATOM     46  H   UNL A   1      42.428  28.616  29.225  1.00  0.00     0.167 HD
ATOM     47  C   UNL A   1      42.207  30.319  33.445  1.00  0.00     0.034 A 
ATOM     48  C   UNL A   1      43.027  26.373  27.745  1.00  0.00     0.034 A 
ATOM     49  C   UNL A   1      43.200  31.074  32.720  1.00  0.00     0.049 A 
ATOM     50  C   UNL A   1      44.023  26.921  28.702  1.00  0.00     0.074 A 
ATOM     51  C   UNL A   1      43.243  32.338  32.164  1.00  0.00     0.029 A 
ATOM     52  N   UNL A   1      44.205  30.358  32.114  1.00  0.00    -0.354 N 
ATOM     53  N   UNL A   1      44.731  27.990  28.471  1.00  0.00    -0.248 NA
ATOM     54  C   UNL A   1      43.887  26.545  30.102  1.00  0.00     0.031 C 
ATOM     55  C   UNL A   1      43.939  32.172  30.932  1.00  0.00     0.029 A 
ATOM     56  C   UNL A   1      44.352  30.841  30.843  1.00  0.00     0.049 A 
ATOM     57  H   UNL A   1      44.725  29.629  32.523  1.00  0.00     0.167 HD
ATOM     58  C   UNL A   1      44.728  28.669  29.684  1.00  0.00     0.074 A 
ATOM     59  C   UNL A   1      44.279  27.689  30.672  1.00  0.00     0.031 C 
ATOM     60  C   UNL A   1      44.788  30.032  29.728  1.00  0.00     0.034 A 
BRANCH  47  61
ATOM     61  C   UNL A   1      42.586  29.392  34.579  1.00  0.00     0.023 A 
ATOM     62  C   UNL A   1      43.126  29.996  35.736  1.00  0.00     0.012 A 
ATOM     63  C   UNL A   1      42.716  27.985  34.476  1.00  0.00     0.148 A 
ATOM     64  C   UNL A   1      43.824  29.255  36.692  1.00  0.00     0.002 A 
ATOM     65  C   UNL A   1      43.342  27.242  35.468  1.00  0.00     0.091 A 
ATOM     66  F   UNL A   1      42.361  27.349  33.359  1.00  0.00    -0.205 F 
ATOM     67  C   UNL A   1      43.931  27.877  36.562  1.00  0.00     0.022 A 
BRANCH  65  68
ATOM     68  S   UNL A   1      43.471  25.451  35.366  1.00  0.00     0.127 S 
ATOM     69  O   UNL A   1      44.206  25.142  36.588  1.00  0.00    -0.237 OA
ATOM     70  O   UNL A   1      42.062  25.054  35.369  1.00  0.00    -0.237 OA
ATOM     71  O   UNL A   1      44.164  25.174  34.115  1.00  0.00    -0.744 OA
ENDBRANCH  65  68
ENDBRANCH  47  61
BRANCH  48  72
ATOM     72  C   UNL A   1      43.081  24.949  27.325  1.00  0.00     0.023 A 
ATOM     73  C   UNL A   1      41.939  24.139  27.495  1.00  0.00     0.012 A 
ATOM     74  C   UNL A   1      44.115  24.466  26.493  1.00  0.00     0.148 A 
ATOM     75  C   UNL A   1      41.807  22.917  26.823  1.00  0.00     0.002 A 
ATOM     76  C   UNL A   1      43.982  23.248  25.828  1.00  0.00     0.091 A 
ATOM     77  F   UNL A   1      45.185  25.240  26.272  1.00  0.00    -0.205 F 
ATOM     78  C   UNL A   1      42.823  22.478  25.981  1.00  0.00     0.022 A 
BRANCH  76  79
ATOM     79  S   UNL A   1      45.238  22.633  24.697  1.00  0.00     0.127 S 
ATOM     80  O   UNL A   1      46.193  22.007  25.612  1.00  0.00    -0.237 OA
ATOM     81  O   UNL A   1      44.474  21.700  23.875  1.00  0.00    -0.237 OA
ATOM     82  O   UNL A   1      45.757  23.807  24.006  1.00  0.00    -0.744 OA
ENDBRANCH  76  79
ENDBRANCH  48  72
BRANCH  60  83
ATOM     83  C   UNL A   1      45.112  30.775  28.457  1.00  0.00     0.023 A 
ATOM     84  C   UNL A   1      44.120  31.301  27.602  1.00  0.00     0.012 A 
ATOM     85  C   UNL A   1      46.455  31.105  28.222  1.00  0.00     0.148 A 
ATOM     86  C   UNL A   1      44.468  32.124  26.526  1.00  0.00     0.002 A 
ATOM     87  C   UNL A   1      46.794  31.961  27.184  1.00  0.00     0.091 A 
ATOM     88  F   UNL A   1      47.385  30.596  29.046  1.00  0.00    -0.205 F 
ATOM     89  C   UNL A   1      45.805  32.467  26.326  1.00  0.00     0.022 A 
BRANCH  87  90
ATOM     90  S   UNL A   1      48.478  32.536  26.965  1.00  0.00     0.127 S 
ATOM     91  O   UNL A   1      49.193  31.289  26.702  1.00  0.00    -0.237 OA
ATOM     92  O   UNL A   1      48.358  33.428  25.811  1.00  0.00    -0.237 OA
ATOM     93  O   UNL A   1      48.834  33.215  28.205  1.00  0.00    -0.744 OA
ENDBRANCH  87  90
ENDBRANCH  60  83
ENDBRANCH  34  35
ENDBRANCH  27  29
ENDBRANCH  26  27
ENDBRANCH   1  26
TORSDOF 17
ENDMDL
MODEL 3
REMARK VINA RESULT:     -11.7      3.551      7.588
REMARK SMILES COc1ccccc1-n1nnc(C(=O)OCCOC(=O)c2ccc(-c3c4nc(c(-c5cccc(S(=O)(=O)[O-])c5F)c5ccc([nH]5)c(-c5cccc(S(=O)(=O)[O-])c5F)c5nc(c(-c6cccc(S(=O)(=O)[O-])c6F)c6ccc3[nH]6)C=C5)C=C4)cc2)c1-c1ccc(Cl)cc1
REMARK SMILES IDX 17 1 16 2 15 3 13 4 14 5 12 6 9 7 10 8 84 9 11 10 8 11 3 12
REMARK SMILES IDX 4 13 5 14 7 15 6 16 2 17 1 18 85 19 86 20 91 21 87 22 90 23
REMARK SMILES IDX 88 24 89 25 18 26 19 27 20 28 21 29 22 30 83 31 23 32 82 33
REMARK SMILES IDX 24 34 25 35 26 36 76 37 27 38 81 39 75 40 77 41 28 42 80 43
REMARK SMILES IDX 74 44 73 45 29 47 61 48 41 49 60 50 42 51 45 52 59 53 78 54
REMARK SMILES IDX 43 55 44 56 58 58 79 59 46 60 30 61 31 62 39 63 32 64 34 65
REMARK SMILES IDX 40 66 33 67 35 68 36 69 37 70 38 71 62 72 63 73 71 74 64 75
REMARK SMILES IDX 66 76 72 77 65 78 67 79 68 80 69 81 70 82 47 83 48 84 56 85
REMARK SMILES IDX 49 86 51 87 57 88 50 89 52 90 53 91 54 92 55 93
REMARK H PARENT 77 46 45 57
REMARK Flexibility Score: inf
ROOT
ATOM      1  C   UNL A   1      31.731  32.061  26.922  1.00  0.00     0.275 C 
ENDROOT
BRANCH   1   2
ATOM      2  C   UNL A   1      31.768  30.631  26.422  1.00  0.00     0.275 C 
BRANCH   2   3
ATOM      3  O   UNL A   1      32.400  29.802  27.402  1.00  0.00    -0.457 OA
BRANCH   3   4
ATOM      4  C   UNL A   1      32.200  28.447  27.390  1.00  0.00     0.361 C 
ATOM      5  O   UNL A   1      31.486  27.853  28.172  1.00  0.00    -0.244 OA
BRANCH   4   6
ATOM      6  C   UNL A   1      32.946  27.817  26.299  1.00  0.00     0.198 A 
ATOM      7  N   UNL A   1      33.648  26.510  24.710  1.00  0.00    -0.208 N 
ATOM      8  N   UNL A   1      34.510  27.550  24.788  1.00  0.00    -0.061 NA
ATOM      9  C   UNL A   1      32.735  26.560  25.747  1.00  0.00     0.109 A 
ATOM     10  N   UNL A   1      34.035  28.399  25.691  1.00  0.00    -0.122 NA
BRANCH   7  11
ATOM     11  C   UNL A   1      33.654  25.643  23.600  1.00  0.00     0.109 A 
ATOM     12  C   UNL A   1      32.950  25.961  22.430  1.00  0.00     0.144 A 
ATOM     13  C   UNL A   1      32.770  24.979  21.455  1.00  0.00     0.049 A 
ATOM     14  C   UNL A   1      33.342  23.716  21.615  1.00  0.00     0.004 A 
ATOM     15  C   UNL A   1      34.293  24.402  23.731  1.00  0.00     0.032 A 
ATOM     16  C   UNL A   1      34.118  23.435  22.740  1.00  0.00     0.003 A 
BRANCH  12  17
ATOM     17  O   UNL A   1      32.357  27.166  22.157  1.00  0.00    -0.494 OA
ATOM     18  C   UNL A   1      30.939  27.180  22.340  1.00  0.00     0.278 C 
ENDBRANCH  12  17
ENDBRANCH   7  11
BRANCH   9  19
ATOM     19  C   UNL A   1      31.784  25.503  26.091  1.00  0.00     0.003 A 
ATOM     20  C   UNL A   1      30.409  25.713  25.897  1.00  0.00     0.012 A 
ATOM     21  C   UNL A   1      32.215  24.305  26.674  1.00  0.00     0.012 A 
ATOM     22  C   UNL A   1      29.477  24.771  26.322  1.00  0.00     0.021 A 
ATOM     23  C   UNL A   1      31.281  23.346  27.076  1.00  0.00     0.021 A 
ATOM     24  C   UNL A   1      29.918  23.590  26.911  1.00  0.00     0.041 A 
ATOM     25  Cl  UNL A   1      28.765  22.432  27.445  1.00  0.00    -0.084 Cl
ENDBRANCH   9  19
ENDBRANCH   4   6
ENDBRANCH   3   4
ENDBRANCH   2   3
ENDBRANCH   1   2
BRANCH   1  26
ATOM     26  O   UNL A   1      32.931  32.313  27.638  1.00  0.00    -0.458 OA
BRANCH  26  27
ATOM     27  C   UNL A   1      33.052  33.535  28.198  1.00  0.00     0.338 C 
ATOM     28  O   UNL A   1      32.313  34.494  28.050  1.00  0.00    -0.246 OA
BRANCH  27  29
ATOM     29  C   UNL A   1      34.352  33.588  28.863  1.00  0.00     0.060 A 
ATOM     30  C   UNL A   1      35.419  34.105  28.127  1.00  0.00     0.016 A 
ATOM     31  C   UNL A   1      34.532  32.810  30.015  1.00  0.00     0.016 A 
ATOM     32  C   UNL A   1      36.676  33.630  28.411  1.00  0.00     0.010 A 
ATOM     33  C   UNL A   1      35.774  32.304  30.268  1.00  0.00     0.010 A 
ATOM     34  C   UNL A   1      36.807  32.657  29.409  1.00  0.00    -0.014 A 
BRANCH  34  35
ATOM     35  C   UNL A   1      38.111  32.101  29.660  1.00  0.00     0.031 A 
ATOM     36  C   UNL A   1      38.190  30.697  29.202  1.00  0.00     0.074 A 
ATOM     37  C   UNL A   1      39.126  32.860  30.112  1.00  0.00     0.049 A 
ATOM     38  N   UNL A   1      38.291  29.638  29.935  1.00  0.00    -0.248 NA
ATOM     39  C   UNL A   1      37.884  30.420  27.787  1.00  0.00     0.031 C 
ATOM     40  C   UNL A   1      39.170  34.317  30.270  1.00  0.00     0.029 A 
ATOM     41  N   UNL A   1      40.404  32.490  30.375  1.00  0.00    -0.354 N 
ATOM     42  C   UNL A   1      38.330  28.583  29.029  1.00  0.00     0.074 A 
ATOM     43  C   UNL A   1      37.813  29.090  27.790  1.00  0.00     0.031 C 
ATOM     44  C   UNL A   1      40.463  34.714  30.327  1.00  0.00     0.029 A 
ATOM     45  C   UNL A   1      41.316  33.539  30.332  1.00  0.00     0.049 A 
ATOM     46  H   UNL A   1      40.663  31.562  30.578  1.00  0.00     0.167 HD
ATOM     47  C   UNL A   1      39.091  27.486  29.280  1.00  0.00     0.034 A 
ATOM     48  C   UNL A   1      42.662  33.415  30.195  1.00  0.00     0.034 A 
ATOM     49  C   UNL A   1      39.427  27.400  30.681  1.00  0.00     0.049 A 
ATOM     50  C   UNL A   1      43.005  32.010  30.532  1.00  0.00     0.074 A 
ATOM     51  C   UNL A   1      38.696  27.358  31.853  1.00  0.00     0.029 A 
ATOM     52  N   UNL A   1      40.700  27.776  31.039  1.00  0.00    -0.354 N 
ATOM     53  N   UNL A   1      42.885  31.505  31.728  1.00  0.00    -0.248 NA
ATOM     54  C   UNL A   1      43.035  31.045  29.442  1.00  0.00     0.031 C 
ATOM     55  C   UNL A   1      39.429  28.167  32.768  1.00  0.00     0.029 A 
ATOM     56  C   UNL A   1      40.600  28.588  32.135  1.00  0.00     0.049 A 
ATOM     57  H   UNL A   1      41.533  27.509  30.587  1.00  0.00     0.167 HD
ATOM     58  C   UNL A   1      42.359  30.237  31.512  1.00  0.00     0.074 A 
ATOM     59  C   UNL A   1      42.564  29.974  30.088  1.00  0.00     0.031 C 
ATOM     60  C   UNL A   1      41.534  29.652  32.428  1.00  0.00     0.034 A 
BRANCH  47  61
ATOM     61  C   UNL A   1      39.887  26.749  28.225  1.00  0.00     0.023 A 
ATOM     62  C   UNL A   1      39.802  25.339  28.240  1.00  0.00     0.012 A 
ATOM     63  C   UNL A   1      40.913  27.316  27.430  1.00  0.00     0.148 A 
ATOM     64  C   UNL A   1      40.732  24.541  27.569  1.00  0.00     0.002 A 
ATOM     65  C   UNL A   1      41.786  26.521  26.701  1.00  0.00     0.091 A 
ATOM     66  F   UNL A   1      41.154  28.627  27.465  1.00  0.00    -0.205 F 
ATOM     67  C   UNL A   1      41.724  25.130  26.796  1.00  0.00     0.022 A 
BRANCH  65  68
ATOM     68  S   UNL A   1      43.062  27.235  25.653  1.00  0.00     0.127 S 
ATOM     69  O   UNL A   1      43.933  27.862  26.641  1.00  0.00    -0.237 OA
ATOM     70  O   UNL A   1      43.612  26.044  25.004  1.00  0.00    -0.237 OA
ATOM     71  O   UNL A   1      42.368  28.141  24.746  1.00  0.00    -0.744 OA
ENDBRANCH  65  68
ENDBRANCH  47  61
BRANCH  48  72
ATOM     72  C   UNL A   1      43.642  34.291  29.502  1.00  0.00     0.023 A 
ATOM     73  C   UNL A   1      44.496  35.109  30.272  1.00  0.00     0.012 A 
ATOM     74  C   UNL A   1      43.956  34.109  28.137  1.00  0.00     0.148 A 
ATOM     75  C   UNL A   1      45.647  35.683  29.717  1.00  0.00     0.002 A 
ATOM     76  C   UNL A   1      45.100  34.685  27.588  1.00  0.00     0.091 A 
ATOM     77  F   UNL A   1      43.192  33.293  27.400  1.00  0.00    -0.205 F 
ATOM     78  C   UNL A   1      45.955  35.462  28.379  1.00  0.00     0.022 A 
BRANCH  76  79
ATOM     79  S   UNL A   1      45.580  34.413  25.876  1.00  0.00     0.127 S 
ATOM     80  O   UNL A   1      44.282  34.325  25.206  1.00  0.00    -0.237 OA
ATOM     81  O   UNL A   1      46.342  35.622  25.580  1.00  0.00    -0.237 OA
ATOM     82  O   UNL A   1      46.339  33.168  25.871  1.00  0.00    -0.744 OA
ENDBRANCH  76  79
ENDBRANCH  48  72
BRANCH  60  83
ATOM     83  C   UNL A   1      41.405  30.292  33.786  1.00  0.00     0.023 A 
ATOM     84  C   UNL A   1      42.345  30.093  34.821  1.00  0.00     0.012 A 
ATOM     85  C   UNL A   1      40.407  31.264  33.953  1.00  0.00     0.148 A 
ATOM     86  C   UNL A   1      42.274  30.837  36.002  1.00  0.00     0.002 A 
ATOM     87  C   UNL A   1      40.369  32.035  35.106  1.00  0.00     0.091 A 
ATOM     88  F   UNL A   1      39.523  31.440  32.959  1.00  0.00    -0.205 F 
ATOM     89  C   UNL A   1      41.294  31.820  36.139  1.00  0.00     0.022 A 
BRANCH  87  90
ATOM     90  S   UNL A   1      39.213  33.396  35.276  1.00  0.00     0.127 S 
ATOM     91  O   UNL A   1      37.929  32.702  35.322  1.00  0.00    -0.237 OA
ATOM     92  O   UNL A   1      39.627  34.004  36.542  1.00  0.00    -0.237 OA
ATOM     93  O   UNL A   1      39.426  34.249  34.112  1.00  0.00    -0.744 OA
ENDBRANCH  87  90
ENDBRANCH  60  83
ENDBRANCH  34  35
ENDBRANCH  27  29
ENDBRANCH  26  27
ENDBRANCH   1  26
TORSDOF 17
ENDMDL
