MODEL 1
REMARK VINA RESULT:     -11.1      0.000      0.000
REMARK SMILES CCC[C@H](Nc1cc(C)c(N)c(C(=O)OCCOC(=O)c2ccc(-c3c4nc(c(-c5cccc(S(=O)(=O)[O-])c5F)c5ccc([nH]5)c(-c5cccc(S(=O)(=O)[O-])c5F)c5nc(c(-c6cccc(S(=O)(=O)[O-])c6F)c6ccc3[nH]6)C=C5)C=C4)cc2)c1)c1cccs1
REMARK SMILES IDX 16 1 15 2 13 3 14 4 12 5 6 6 7 7 84 8 8 9 9 10 10 11 5 12
REMARK SMILES IDX 4 14 3 15 2 16 1 17 85 18 86 19 89 20 87 21 88 22 11 23
REMARK SMILES IDX 17 26 18 27 19 28 20 29 21 30 22 31 83 32 23 33 82 34 24 35
REMARK SMILES IDX 25 36 26 37 76 38 27 39 81 40 75 41 77 42 28 43 80 44 74 45
REMARK SMILES IDX 73 46 29 48 61 49 41 50 60 51 42 52 45 53 59 54 78 55 43 56
REMARK SMILES IDX 44 57 58 59 79 60 46 61 30 62 31 63 39 64 32 65 34 66 40 67
REMARK SMILES IDX 33 68 35 69 36 70 37 71 38 72 62 73 63 74 71 75 64 76 66 77
REMARK SMILES IDX 72 78 65 79 67 80 68 81 69 82 70 83 47 84 48 85 56 86 49 87
REMARK SMILES IDX 51 88 57 89 50 90 52 91 53 92 54 93 55 94
REMARK H PARENT 5 13 11 24 11 25 77 47 45 58
REMARK Flexibility Score: inf
ROOT
ATOM      1  C   UNL A   1      31.645  28.274  25.015  1.00  0.00     0.275 C 
ENDROOT
BRANCH   1   2
ATOM      2  O   UNL A   1      31.965  27.021  25.654  1.00  0.00    -0.458 OA
BRANCH   2   3
ATOM      3  C   UNL A   1      32.159  25.950  24.831  1.00  0.00     0.340 C 
ATOM      4  O   UNL A   1      32.483  25.993  23.660  1.00  0.00    -0.246 OA
BRANCH   3   5
ATOM      5  C   UNL A   1      31.997  24.688  25.607  1.00  0.00     0.085 A 
ATOM      6  C   UNL A   1      32.946  22.540  26.288  1.00  0.00     0.036 A 
ATOM      7  C   UNL A   1      31.701  22.209  26.827  1.00  0.00     0.031 A 
ATOM      8  C   UNL A   1      33.074  23.789  25.676  1.00  0.00     0.043 A 
ATOM      9  C   UNL A   1      30.608  23.100  26.786  1.00  0.00    -0.025 A 
ATOM     10  C   UNL A   1      29.263  22.609  27.257  1.00  0.00     0.047 C 
ATOM     11  C   UNL A   1      30.772  24.389  26.240  1.00  0.00     0.049 A 
BRANCH   6  12
ATOM     12  N   UNL A   1      34.034  21.684  26.271  1.00  0.00    -0.377 N 
ATOM     13  H   UNL A   1      34.371  21.356  27.137  1.00  0.00     0.161 HD
BRANCH  12  14
ATOM     14  C   UNL A   1      34.725  21.227  25.051  1.00  0.00     0.119 C 
BRANCH  14  15
ATOM     15  C   UNL A   1      36.251  21.275  25.354  1.00  0.00     0.030 C 
BRANCH  15  16
ATOM     16  C   UNL A   1      37.197  21.776  24.255  1.00  0.00    -0.001 C 
ATOM     17  C   UNL A   1      36.641  22.906  23.403  1.00  0.00     0.004 C 
ENDBRANCH  15  16
ENDBRANCH  14  15
BRANCH  14  18
ATOM     18  C   UNL A   1      34.253  19.826  24.634  1.00  0.00     0.027 A 
ATOM     19  C   UNL A   1      34.964  18.635  24.627  1.00  0.00     0.017 A 
ATOM     20  S   UNL A   1      32.620  19.534  24.171  1.00  0.00    -0.147 S 
ATOM     21  C   UNL A   1      34.212  17.534  24.125  1.00  0.00     0.012 A 
ATOM     22  C   UNL A   1      32.927  17.898  23.802  1.00  0.00     0.065 A 
ENDBRANCH  14  18
ENDBRANCH  12  14
ENDBRANCH   6  12
BRANCH  11  23
ATOM     23  N   UNL A   1      29.690  25.268  26.189  1.00  0.00    -0.398 N 
ATOM     24  H   UNL A   1      28.972  25.205  26.859  1.00  0.00     0.156 HD
ATOM     25  H   UNL A   1      29.645  25.952  25.482  1.00  0.00     0.156 HD
ENDBRANCH  11  23
ENDBRANCH   3   5
ENDBRANCH   2   3
ENDBRANCH   1   2
BRANCH   1  26
ATOM     26  C   UNL A   1      31.696  29.409  26.037  1.00  0.00     0.275 C 
BRANCH  26  27
ATOM     27  O   UNL A   1      32.942  30.104  25.886  1.00  0.00    -0.458 OA
BRANCH  27  28
ATOM     28  C   UNL A   1      33.181  31.094  26.778  1.00  0.00     0.338 C 
ATOM     29  O   UNL A   1      32.468  32.053  27.016  1.00  0.00    -0.246 OA
BRANCH  28  30
ATOM     30  C   UNL A   1      34.472  30.828  27.447  1.00  0.00     0.060 A 
ATOM     31  C   UNL A   1      34.850  29.515  27.725  1.00  0.00     0.016 A 
ATOM     32  C   UNL A   1      35.282  31.883  27.865  1.00  0.00     0.016 A 
ATOM     33  C   UNL A   1      36.012  29.252  28.450  1.00  0.00     0.010 A 
ATOM     34  C   UNL A   1      36.487  31.613  28.530  1.00  0.00     0.010 A 
ATOM     35  C   UNL A   1      36.855  30.294  28.858  1.00  0.00    -0.014 A 
BRANCH  35  36
ATOM     36  C   UNL A   1      38.070  30.005  29.680  1.00  0.00     0.031 A 
ATOM     37  C   UNL A   1      39.184  29.158  29.115  1.00  0.00     0.074 A 
ATOM     38  C   UNL A   1      38.202  30.507  30.926  1.00  0.00     0.049 A 
ATOM     39  N   UNL A   1      40.247  28.682  29.712  1.00  0.00    -0.248 NA
ATOM     40  C   UNL A   1      39.082  28.784  27.695  1.00  0.00     0.031 C 
ATOM     41  C   UNL A   1      37.221  31.350  31.609  1.00  0.00     0.029 A 
ATOM     42  N   UNL A   1      39.222  30.382  31.842  1.00  0.00    -0.354 N 
ATOM     43  C   UNL A   1      40.889  27.884  28.771  1.00  0.00     0.074 A 
ATOM     44  C   UNL A   1      40.105  27.953  27.556  1.00  0.00     0.031 C 
ATOM     45  C   UNL A   1      37.699  31.697  32.815  1.00  0.00     0.029 A 
ATOM     46  C   UNL A   1      38.987  31.043  33.026  1.00  0.00     0.049 A 
ATOM     47  H   UNL A   1      40.042  29.867  31.667  1.00  0.00     0.167 HD
ATOM     48  C   UNL A   1      42.031  27.166  28.897  1.00  0.00     0.034 A 
ATOM     49  C   UNL A   1      39.707  31.099  34.166  1.00  0.00     0.034 A 
ATOM     50  C   UNL A   1      42.869  27.168  30.067  1.00  0.00     0.049 A 
ATOM     51  C   UNL A   1      40.999  30.334  34.263  1.00  0.00     0.074 A 
ATOM     52  C   UNL A   1      44.062  26.496  30.271  1.00  0.00     0.029 A 
ATOM     53  N   UNL A   1      42.618  27.892  31.221  1.00  0.00    -0.354 N 
ATOM     54  N   UNL A   1      41.600  29.608  33.352  1.00  0.00    -0.248 NA
ATOM     55  C   UNL A   1      41.717  30.401  35.545  1.00  0.00     0.031 C 
ATOM     56  C   UNL A   1      44.534  26.815  31.550  1.00  0.00     0.029 A 
ATOM     57  C   UNL A   1      43.639  27.694  32.137  1.00  0.00     0.049 A 
ATOM     58  H   UNL A   1      41.831  28.465  31.368  1.00  0.00     0.167 HD
ATOM     59  C   UNL A   1      42.767  29.140  33.946  1.00  0.00     0.074 A 
ATOM     60  C   UNL A   1      42.811  29.699  35.281  1.00  0.00     0.031 C 
ATOM     61  C   UNL A   1      43.701  28.296  33.443  1.00  0.00     0.034 A 
BRANCH  48  62
ATOM     62  C   UNL A   1      42.464  26.328  27.722  1.00  0.00     0.023 A 
ATOM     63  C   UNL A   1      43.140  26.928  26.643  1.00  0.00     0.012 A 
ATOM     64  C   UNL A   1      42.249  24.935  27.717  1.00  0.00     0.148 A 
ATOM     65  C   UNL A   1      43.571  26.161  25.561  1.00  0.00     0.002 A 
ATOM     66  C   UNL A   1      42.718  24.170  26.654  1.00  0.00     0.091 A 
ATOM     67  F   UNL A   1      41.583  24.385  28.741  1.00  0.00    -0.205 F 
ATOM     68  C   UNL A   1      43.369  24.783  25.571  1.00  0.00     0.022 A 
BRANCH  66  69
ATOM     69  S   UNL A   1      42.574  22.380  26.618  1.00  0.00     0.127 S 
ATOM     70  O   UNL A   1      43.922  21.984  26.212  1.00  0.00    -0.237 OA
ATOM     71  O   UNL A   1      42.239  22.066  28.007  1.00  0.00    -0.237 OA
ATOM     72  O   UNL A   1      41.517  22.084  25.661  1.00  0.00    -0.744 OA
ENDBRANCH  66  69
ENDBRANCH  48  62
BRANCH  49  73
ATOM     73  C   UNL A   1      39.228  31.932  35.309  1.00  0.00     0.023 A 
ATOM     74  C   UNL A   1      38.361  31.365  36.264  1.00  0.00     0.012 A 
ATOM     75  C   UNL A   1      39.653  33.263  35.476  1.00  0.00     0.148 A 
ATOM     76  C   UNL A   1      37.914  32.115  37.353  1.00  0.00     0.002 A 
ATOM     77  C   UNL A   1      39.260  33.981  36.600  1.00  0.00     0.091 A 
ATOM     78  F   UNL A   1      40.448  33.801  34.540  1.00  0.00    -0.205 F 
ATOM     79  C   UNL A   1      38.377  33.415  37.531  1.00  0.00     0.022 A 
BRANCH  77  80
ATOM     80  S   UNL A   1      39.946  35.598  36.978  1.00  0.00     0.127 S 
ATOM     81  O   UNL A   1      39.284  35.919  38.238  1.00  0.00    -0.237 OA
ATOM     82  O   UNL A   1      41.377  35.307  37.088  1.00  0.00    -0.237 OA
ATOM     83  O   UNL A   1      39.599  36.436  35.838  1.00  0.00    -0.744 OA
ENDBRANCH  77  80
ENDBRANCH  49  73
BRANCH  61  84
ATOM     84  C   UNL A   1      44.861  27.936  34.332  1.00  0.00     0.023 A 
ATOM     85  C   UNL A   1      46.050  28.689  34.260  1.00  0.00     0.012 A 
ATOM     86  C   UNL A   1      44.761  26.891  35.271  1.00  0.00     0.148 A 
ATOM     87  C   UNL A   1      47.133  28.387  35.085  1.00  0.00     0.002 A 
ATOM     88  C   UNL A   1      45.831  26.622  36.120  1.00  0.00     0.091 A 
ATOM     89  F   UNL A   1      43.632  26.170  35.312  1.00  0.00    -0.205 F 
ATOM     90  C   UNL A   1      47.021  27.362  36.021  1.00  0.00     0.022 A 
BRANCH  88  91
ATOM     91  S   UNL A   1      45.734  25.373  37.406  1.00  0.00     0.127 S 
ATOM     92  O   UNL A   1      45.948  24.143  36.647  1.00  0.00    -0.237 OA
ATOM     93  O   UNL A   1      46.841  25.742  38.291  1.00  0.00    -0.237 OA
ATOM     94  O   UNL A   1      44.414  25.526  38.004  1.00  0.00    -0.744 OA
ENDBRANCH  88  91
ENDBRANCH  61  84
ENDBRANCH  35  36
ENDBRANCH  28  30
ENDBRANCH  27  28
ENDBRANCH  26  27
ENDBRANCH   1  26
TORSDOF 20
ENDMDL
MODEL 2
REMARK VINA RESULT:     -10.6      2.108      8.070
REMARK SMILES CCC[C@H](Nc1cc(C)c(N)c(C(=O)OCCOC(=O)c2ccc(-c3c4nc(c(-c5cccc(S(=O)(=O)[O-])c5F)c5ccc([nH]5)c(-c5cccc(S(=O)(=O)[O-])c5F)c5nc(c(-c6cccc(S(=O)(=O)[O-])c6F)c6ccc3[nH]6)C=C5)C=C4)cc2)c1)c1cccs1
REMARK SMILES IDX 16 1 15 2 13 3 14 4 12 5 6 6 7 7 84 8 8 9 9 10 10 11 5 12
REMARK SMILES IDX 4 14 3 15 2 16 1 17 85 18 86 19 89 20 87 21 88 22 11 23
REMARK SMILES IDX 17 26 18 27 19 28 20 29 21 30 22 31 83 32 23 33 82 34 24 35
REMARK SMILES IDX 25 36 26 37 76 38 27 39 81 40 75 41 77 42 28 43 80 44 74 45
REMARK SMILES IDX 73 46 29 48 61 49 41 50 60 51 42 52 45 53 59 54 78 55 43 56
REMARK SMILES IDX 44 57 58 59 79 60 46 61 30 62 31 63 39 64 32 65 34 66 40 67
REMARK SMILES IDX 33 68 35 69 36 70 37 71 38 72 62 73 63 74 71 75 64 76 66 77
REMARK SMILES IDX 72 78 65 79 67 80 68 81 69 82 70 83 47 84 48 85 56 86 49 87
REMARK SMILES IDX 51 88 57 89 50 90 52 91 53 92 54 93 55 94
REMARK H PARENT 5 13 11 24 11 25 77 47 45 58
REMARK Flexibility Score: inf
ROOT
ATOM      1  C   UNL A   1      32.949  31.135  26.953  1.00  0.00     0.275 C 
ENDROOT
BRANCH   1   2
ATOM      2  O   UNL A   1      32.082  29.984  26.892  1.00  0.00    -0.458 OA
BRANCH   2   3
ATOM      3  C   UNL A   1      32.621  28.843  26.373  1.00  0.00     0.340 C 
ATOM      4  O   UNL A   1      33.757  28.443  26.541  1.00  0.00    -0.246 OA
BRANCH   3   5
ATOM      5  C   UNL A   1      31.573  28.093  25.623  1.00  0.00     0.085 A 
ATOM      6  C   UNL A   1      30.460  25.958  25.198  1.00  0.00     0.036 A 
ATOM      7  C   UNL A   1      29.814  26.559  24.115  1.00  0.00     0.031 A 
ATOM      8  C   UNL A   1      31.343  26.745  25.941  1.00  0.00     0.043 A 
ATOM      9  C   UNL A   1      30.015  27.915  23.785  1.00  0.00    -0.025 A 
ATOM     10  C   UNL A   1      29.394  28.446  22.517  1.00  0.00     0.047 C 
ATOM     11  C   UNL A   1      30.843  28.721  24.592  1.00  0.00     0.049 A 
BRANCH   6  12
ATOM     12  N   UNL A   1      30.324  24.622  25.535  1.00  0.00    -0.377 N 
ATOM     13  H   UNL A   1      29.732  24.399  26.289  1.00  0.00     0.161 HD
BRANCH  12  14
ATOM     14  C   UNL A   1      31.002  23.508  24.846  1.00  0.00     0.119 C 
BRANCH  14  15
ATOM     15  C   UNL A   1      31.661  24.103  23.568  1.00  0.00     0.030 C 
BRANCH  15  16
ATOM     16  C   UNL A   1      33.173  24.360  23.579  1.00  0.00    -0.001 C 
ATOM     17  C   UNL A   1      33.589  25.730  23.068  1.00  0.00     0.004 C 
ENDBRANCH  15  16
ENDBRANCH  14  15
BRANCH  14  18
ATOM     18  C   UNL A   1      32.022  22.821  25.767  1.00  0.00     0.027 A 
ATOM     19  C   UNL A   1      32.579  23.288  26.950  1.00  0.00     0.017 A 
ATOM     20  S   UNL A   1      32.571  21.219  25.455  1.00  0.00    -0.147 S 
ATOM     21  C   UNL A   1      33.536  22.393  27.511  1.00  0.00     0.012 A 
ATOM     22  C   UNL A   1      33.657  21.243  26.771  1.00  0.00     0.065 A 
ENDBRANCH  14  18
ENDBRANCH  12  14
ENDBRANCH   6  12
BRANCH  11  23
ATOM     23  N   UNL A   1      31.051  30.060  24.261  1.00  0.00    -0.398 N 
ATOM     24  H   UNL A   1      31.857  30.526  24.580  1.00  0.00     0.156 HD
ATOM     25  H   UNL A   1      30.390  30.538  23.709  1.00  0.00     0.156 HD
ENDBRANCH  11  23
ENDBRANCH   3   5
ENDBRANCH   2   3
ENDBRANCH   1   2
BRANCH   1  26
ATOM     26  C   UNL A   1      32.140  32.379  27.319  1.00  0.00     0.275 C 
BRANCH  26  27
ATOM     27  O   UNL A   1      32.974  33.533  27.147  1.00  0.00    -0.458 OA
BRANCH  27  28
ATOM     28  C   UNL A   1      33.425  34.112  28.284  1.00  0.00     0.338 C 
ATOM     29  O   UNL A   1      32.986  35.115  28.820  1.00  0.00    -0.246 OA
BRANCH  28  30
ATOM     30  C   UNL A   1      34.563  33.321  28.800  1.00  0.00     0.060 A 
ATOM     31  C   UNL A   1      34.365  32.434  29.858  1.00  0.00     0.016 A 
ATOM     32  C   UNL A   1      35.845  33.507  28.285  1.00  0.00     0.016 A 
ATOM     33  C   UNL A   1      35.445  31.761  30.427  1.00  0.00     0.010 A 
ATOM     34  C   UNL A   1      36.918  32.773  28.811  1.00  0.00     0.010 A 
ATOM     35  C   UNL A   1      36.739  31.911  29.910  1.00  0.00    -0.014 A 
BRANCH  35  36
ATOM     36  C   UNL A   1      37.897  31.225  30.561  1.00  0.00     0.031 A 
ATOM     37  C   UNL A   1      38.237  31.514  32.003  1.00  0.00     0.074 A 
ATOM     38  C   UNL A   1      38.643  30.327  29.883  1.00  0.00     0.049 A 
ATOM     39  N   UNL A   1      39.275  31.130  32.702  1.00  0.00    -0.248 NA
ATOM     40  C   UNL A   1      37.293  32.357  32.753  1.00  0.00     0.031 C 
ATOM     41  C   UNL A   1      38.437  29.932  28.490  1.00  0.00     0.029 A 
ATOM     42  N   UNL A   1      39.729  29.579  30.280  1.00  0.00    -0.354 N 
ATOM     43  C   UNL A   1      39.155  31.756  33.938  1.00  0.00     0.074 A 
ATOM     44  C   UNL A   1      37.933  32.530  33.901  1.00  0.00     0.031 C 
ATOM     45  C   UNL A   1      39.336  28.991  28.159  1.00  0.00     0.029 A 
ATOM     46  C   UNL A   1      40.233  28.767  29.289  1.00  0.00     0.049 A 
ATOM     47  H   UNL A   1      40.110  29.622  31.186  1.00  0.00     0.167 HD
ATOM     48  C   UNL A   1      39.977  31.686  35.013  1.00  0.00     0.034 A 
ATOM     49  C   UNL A   1      41.309  27.953  29.276  1.00  0.00     0.034 A 
ATOM     50  C   UNL A   1      41.140  30.843  35.095  1.00  0.00     0.049 A 
ATOM     51  C   UNL A   1      42.177  27.854  30.500  1.00  0.00     0.074 A 
ATOM     52  C   UNL A   1      42.014  30.684  36.158  1.00  0.00     0.029 A 
ATOM     53  N   UNL A   1      41.582  30.000  34.088  1.00  0.00    -0.354 N 
ATOM     54  N   UNL A   1      42.030  28.433  31.667  1.00  0.00    -0.248 NA
ATOM     55  C   UNL A   1      43.359  26.983  30.409  1.00  0.00     0.031 C 
ATOM     56  C   UNL A   1      42.984  29.744  35.793  1.00  0.00     0.029 A 
ATOM     57  C   UNL A   1      42.708  29.310  34.507  1.00  0.00     0.049 A 
ATOM     58  H   UNL A   1      41.158  29.905  33.205  1.00  0.00     0.167 HD
ATOM     59  C   UNL A   1      43.091  27.991  32.449  1.00  0.00     0.074 A 
ATOM     60  C   UNL A   1      43.851  27.062  31.638  1.00  0.00     0.031 C 
ATOM     61  C   UNL A   1      43.426  28.348  33.713  1.00  0.00     0.034 A 
BRANCH  48  62
ATOM     62  C   UNL A   1      39.634  32.531  36.212  1.00  0.00     0.023 A 
ATOM     63  C   UNL A   1      40.231  33.797  36.372  1.00  0.00     0.012 A 
ATOM     64  C   UNL A   1      38.676  32.093  37.149  1.00  0.00     0.148 A 
ATOM     65  C   UNL A   1      39.903  34.602  37.463  1.00  0.00     0.002 A 
ATOM     66  C   UNL A   1      38.324  32.919  38.211  1.00  0.00     0.091 A 
ATOM     67  F   UNL A   1      38.137  30.876  36.993  1.00  0.00    -0.205 F 
ATOM     68  C   UNL A   1      38.943  34.168  38.375  1.00  0.00     0.022 A 
BRANCH  66  69
ATOM     69  S   UNL A   1      37.041  32.479  39.390  1.00  0.00     0.127 S 
ATOM     70  O   UNL A   1      35.831  32.646  38.586  1.00  0.00    -0.237 OA
ATOM     71  O   UNL A   1      37.374  31.089  39.708  1.00  0.00    -0.237 OA
ATOM     72  O   UNL A   1      37.191  33.405  40.504  1.00  0.00    -0.744 OA
ENDBRANCH  66  69
ENDBRANCH  48  62
BRANCH  49  73
ATOM     73  C   UNL A   1      41.616  27.146  28.057  1.00  0.00     0.023 A 
ATOM     74  C   UNL A   1      42.369  27.724  27.016  1.00  0.00     0.012 A 
ATOM     75  C   UNL A   1      41.202  25.807  27.940  1.00  0.00     0.148 A 
ATOM     76  C   UNL A   1      42.688  26.986  25.875  1.00  0.00     0.002 A 
ATOM     77  C   UNL A   1      41.583  25.056  26.833  1.00  0.00     0.091 A 
ATOM     78  F   UNL A   1      40.454  25.282  28.922  1.00  0.00    -0.205 F 
ATOM     79  C   UNL A   1      42.311  25.648  25.791  1.00  0.00     0.022 A 
BRANCH  77  80
ATOM     80  S   UNL A   1      41.274  23.289  26.735  1.00  0.00     0.127 S 
ATOM     81  O   UNL A   1      39.835  23.248  26.494  1.00  0.00    -0.237 OA
ATOM     82  O   UNL A   1      42.103  22.894  25.596  1.00  0.00    -0.237 OA
ATOM     83  O   UNL A   1      41.726  22.751  28.011  1.00  0.00    -0.744 OA
ENDBRANCH  77  80
ENDBRANCH  49  73
BRANCH  61  84
ATOM     84  C   UNL A   1      44.660  27.722  34.307  1.00  0.00     0.023 A 
ATOM     85  C   UNL A   1      45.904  28.367  34.159  1.00  0.00     0.012 A 
ATOM     86  C   UNL A   1      44.584  26.530  35.053  1.00  0.00     0.148 A 
ATOM     87  C   UNL A   1      47.059  27.818  34.715  1.00  0.00     0.002 A 
ATOM     88  C   UNL A   1      45.734  26.010  35.640  1.00  0.00     0.091 A 
ATOM     89  F   UNL A   1      43.397  25.918  35.166  1.00  0.00    -0.205 F 
ATOM     90  C   UNL A   1      46.973  26.646  35.464  1.00  0.00     0.022 A 
BRANCH  88  91
ATOM     91  S   UNL A   1      45.691  24.551  36.686  1.00  0.00     0.127 S 
ATOM     92  O   UNL A   1      44.770  24.966  37.742  1.00  0.00    -0.237 OA
ATOM     93  O   UNL A   1      45.160  23.528  35.783  1.00  0.00    -0.237 OA
ATOM     94  O   UNL A   1      47.069  24.324  37.102  1.00  0.00    -0.744 OA
ENDBRANCH  88  91
ENDBRANCH  61  84
ENDBRANCH  35  36
ENDBRANCH  28  30
ENDBRANCH  27  28
ENDBRANCH  26  27
ENDBRANCH   1  26
TORSDOF 20
ENDMDL
MODEL 3
REMARK VINA RESULT:     -10.4      2.308      8.003
REMARK SMILES CCC[C@H](Nc1cc(C)c(N)c(C(=O)OCCOC(=O)c2ccc(-c3c4nc(c(-c5cccc(S(=O)(=O)[O-])c5F)c5ccc([nH]5)c(-c5cccc(S(=O)(=O)[O-])c5F)c5nc(c(-c6cccc(S(=O)(=O)[O-])c6F)c6ccc3[nH]6)C=C5)C=C4)cc2)c1)c1cccs1
REMARK SMILES IDX 16 1 15 2 13 3 14 4 12 5 6 6 7 7 84 8 8 9 9 10 10 11 5 12
REMARK SMILES IDX 4 14 3 15 2 16 1 17 85 18 86 19 89 20 87 21 88 22 11 23
REMARK SMILES IDX 17 26 18 27 19 28 20 29 21 30 22 31 83 32 23 33 82 34 24 35
REMARK SMILES IDX 25 36 26 37 76 38 27 39 81 40 75 41 77 42 28 43 80 44 74 45
REMARK SMILES IDX 73 46 29 48 61 49 41 50 60 51 42 52 45 53 59 54 78 55 43 56
REMARK SMILES IDX 44 57 58 59 79 60 46 61 30 62 31 63 39 64 32 65 34 66 40 67
REMARK SMILES IDX 33 68 35 69 36 70 37 71 38 72 62 73 63 74 71 75 64 76 66 77
REMARK SMILES IDX 72 78 65 79 67 80 68 81 69 82 70 83 47 84 48 85 56 86 49 87
REMARK SMILES IDX 51 88 57 89 50 90 52 91 53 92 54 93 55 94
REMARK H PARENT 5 13 11 24 11 25 77 47 45 58
REMARK Flexibility Score: inf
ROOT
ATOM      1  C   UNL A   1      31.292  29.900  25.263  1.00  0.00     0.275 C 
ENDROOT
BRANCH   1   2
ATOM      2  O   UNL A   1      31.614  28.508  25.063  1.00  0.00    -0.458 OA
BRANCH   2   3
ATOM      3  C   UNL A   1      30.713  27.772  24.351  1.00  0.00     0.340 C 
ATOM      4  O   UNL A   1      29.560  28.078  24.116  1.00  0.00    -0.246 OA
BRANCH   3   5
ATOM      5  C   UNL A   1      31.379  26.549  23.818  1.00  0.00     0.085 A 
ATOM      6  C   UNL A   1      32.579  24.472  24.291  1.00  0.00     0.036 A 
ATOM      7  C   UNL A   1      32.842  24.363  22.924  1.00  0.00     0.031 A 
ATOM      8  C   UNL A   1      31.845  25.580  24.721  1.00  0.00     0.043 A 
ATOM      9  C   UNL A   1      32.372  25.313  21.994  1.00  0.00    -0.025 A 
ATOM     10  C   UNL A   1      32.824  25.201  20.560  1.00  0.00     0.047 C 
ATOM     11  C   UNL A   1      31.562  26.382  22.429  1.00  0.00     0.049 A 
BRANCH   6  12
ATOM     12  N   UNL A   1      33.053  23.586  25.243  1.00  0.00    -0.377 N 
ATOM     13  H   UNL A   1      32.555  23.515  26.090  1.00  0.00     0.161 HD
BRANCH  12  14
ATOM     14  C   UNL A   1      34.249  22.738  25.081  1.00  0.00     0.119 C 
BRANCH  14  15
ATOM     15  C   UNL A   1      35.149  22.986  26.326  1.00  0.00     0.030 C 
BRANCH  15  16
ATOM     16  C   UNL A   1      36.604  23.416  26.100  1.00  0.00    -0.001 C 
ATOM     17  C   UNL A   1      37.042  23.440  24.645  1.00  0.00     0.004 C 
ENDBRANCH  15  16
ENDBRANCH  14  15
BRANCH  14  18
ATOM     18  C   UNL A   1      33.867  21.259  24.918  1.00  0.00     0.027 A 
ATOM     19  C   UNL A   1      34.696  20.148  24.853  1.00  0.00     0.017 A 
ATOM     20  S   UNL A   1      32.219  20.761  24.885  1.00  0.00    -0.147 S 
ATOM     21  C   UNL A   1      33.987  18.929  24.647  1.00  0.00     0.012 A 
ATOM     22  C   UNL A   1      32.628  19.128  24.605  1.00  0.00     0.065 A 
ENDBRANCH  14  18
ENDBRANCH  12  14
ENDBRANCH   6  12
BRANCH  11  23
ATOM     23  N   UNL A   1      31.103  27.328  21.513  1.00  0.00    -0.398 N 
ATOM     24  H   UNL A   1      30.764  28.196  21.829  1.00  0.00     0.156 HD
ATOM     25  H   UNL A   1      31.119  27.128  20.549  1.00  0.00     0.156 HD
ENDBRANCH  11  23
ENDBRANCH   3   5
ENDBRANCH   2   3
ENDBRANCH   1   2
BRANCH   1  26
ATOM     26  C   UNL A   1      31.830  30.371  26.614  1.00  0.00     0.275 C 
BRANCH  26  27
ATOM     27  O   UNL A   1      33.189  30.796  26.441  1.00  0.00    -0.458 OA
BRANCH  27  28
ATOM     28  C   UNL A   1      33.650  31.690  27.347  1.00  0.00     0.338 C 
ATOM     29  O   UNL A   1      33.105  32.720  27.703  1.00  0.00    -0.246 OA
BRANCH  28  30
ATOM     30  C   UNL A   1      34.952  31.214  27.863  1.00  0.00     0.060 A 
ATOM     31  C   UNL A   1      35.122  29.865  28.175  1.00  0.00     0.016 A 
ATOM     32  C   UNL A   1      35.988  32.115  28.106  1.00  0.00     0.016 A 
ATOM     33  C   UNL A   1      36.305  29.419  28.762  1.00  0.00     0.010 A 
ATOM     34  C   UNL A   1      37.204  31.651  28.630  1.00  0.00     0.010 A 
ATOM     35  C   UNL A   1      37.370  30.301  28.993  1.00  0.00    -0.014 A 
BRANCH  35  36
ATOM     36  C   UNL A   1      38.613  29.822  29.671  1.00  0.00     0.031 A 
ATOM     37  C   UNL A   1      38.949  30.298  31.063  1.00  0.00     0.074 A 
ATOM     38  C   UNL A   1      39.442  28.947  29.064  1.00  0.00     0.049 A 
ATOM     39  N   UNL A   1      40.040  30.110  31.762  1.00  0.00    -0.248 NA
ATOM     40  C   UNL A   1      37.932  31.105  31.755  1.00  0.00     0.031 C 
ATOM     41  C   UNL A   1      39.252  28.386  27.726  1.00  0.00     0.029 A 
ATOM     42  N   UNL A   1      40.615  28.372  29.497  1.00  0.00    -0.354 N 
ATOM     43  C   UNL A   1      39.877  30.845  32.931  1.00  0.00     0.074 A 
ATOM     44  C   UNL A   1      38.573  31.469  32.856  1.00  0.00     0.031 C 
ATOM     45  C   UNL A   1      40.246  27.522  27.463  1.00  0.00     0.029 A 
ATOM     46  C   UNL A   1      41.187  27.521  28.579  1.00  0.00     0.049 A 
ATOM     47  H   UNL A   1      41.009  28.553  30.381  1.00  0.00     0.167 HD
ATOM     48  C   UNL A   1      40.725  30.982  33.978  1.00  0.00     0.034 A 
ATOM     49  C   UNL A   1      42.349  26.836  28.612  1.00  0.00     0.034 A 
ATOM     50  C   UNL A   1      41.979  30.289  34.106  1.00  0.00     0.049 A 
ATOM     51  C   UNL A   1      43.251  26.965  29.810  1.00  0.00     0.074 A 
ATOM     52  C   UNL A   1      42.889  30.342  35.149  1.00  0.00     0.029 A 
ATOM     53  N   UNL A   1      42.493  29.399  33.177  1.00  0.00    -0.354 N 
ATOM     54  N   UNL A   1      43.063  27.644  30.915  1.00  0.00    -0.248 NA
ATOM     55  C   UNL A   1      44.522  26.227  29.768  1.00  0.00     0.031 C 
ATOM     56  C   UNL A   1      43.952  29.483  34.850  1.00  0.00     0.029 A 
ATOM     57  C   UNL A   1      43.699  28.887  33.626  1.00  0.00     0.049 A 
ATOM     58  H   UNL A   1      42.062  29.164  32.323  1.00  0.00     0.167 HD
ATOM     59  C   UNL A   1      44.186  27.409  31.701  1.00  0.00     0.074 A 
ATOM     60  C   UNL A   1      45.029  26.491  30.965  1.00  0.00     0.031 C 
ATOM     61  C   UNL A   1      44.506  27.933  32.910  1.00  0.00     0.034 A 
BRANCH  48  62
ATOM     62  C   UNL A   1      40.314  31.906  35.095  1.00  0.00     0.023 A 
ATOM     63  C   UNL A   1      40.819  33.219  35.142  1.00  0.00     0.012 A 
ATOM     64  C   UNL A   1      39.382  31.488  36.066  1.00  0.00     0.148 A 
ATOM     65  C   UNL A   1      40.427  34.094  36.154  1.00  0.00     0.002 A 
ATOM     66  C   UNL A   1      38.963  32.379  37.048  1.00  0.00     0.091 A 
ATOM     67  F   UNL A   1      38.930  30.226  36.019  1.00  0.00    -0.205 F 
ATOM     68  C   UNL A   1      39.493  33.678  37.099  1.00  0.00     0.022 A 
BRANCH  66  69
ATOM     69  S   UNL A   1      37.705  31.957  38.259  1.00  0.00     0.127 S 
ATOM     70  O   UNL A   1      38.437  32.121  39.515  1.00  0.00    -0.237 OA
ATOM     71  O   UNL A   1      36.683  32.975  38.013  1.00  0.00    -0.237 OA
ATOM     72  O   UNL A   1      37.290  30.597  37.946  1.00  0.00    -0.744 OA
ENDBRANCH  66  69
ENDBRANCH  48  62
BRANCH  49  73
ATOM     73  C   UNL A   1      42.720  25.944  27.473  1.00  0.00     0.023 A 
ATOM     74  C   UNL A   1      43.603  26.417  26.482  1.00  0.00     0.012 A 
ATOM     75  C   UNL A   1      42.237  24.626  27.386  1.00  0.00     0.148 A 
ATOM     76  C   UNL A   1      43.982  25.598  25.417  1.00  0.00     0.002 A 
ATOM     77  C   UNL A   1      42.674  23.792  26.361  1.00  0.00     0.091 A 
ATOM     78  F   UNL A   1      41.369  24.201  28.315  1.00  0.00    -0.205 F 
ATOM     79  C   UNL A   1      43.533  24.281  25.366  1.00  0.00     0.022 A 
BRANCH  77  80
ATOM     80  S   UNL A   1      42.268  22.043  26.326  1.00  0.00     0.127 S 
ATOM     81  O   UNL A   1      43.109  21.560  25.236  1.00  0.00    -0.237 OA
ATOM     82  O   UNL A   1      42.675  21.605  27.662  1.00  0.00    -0.237 OA
ATOM     83  O   UNL A   1      40.830  21.989  26.099  1.00  0.00    -0.744 OA
ENDBRANCH  77  80
ENDBRANCH  49  73
BRANCH  61  84
ATOM     84  C   UNL A   1      45.816  27.516  33.523  1.00  0.00     0.023 A 
ATOM     85  C   UNL A   1      45.858  26.389  34.369  1.00  0.00     0.012 A 
ATOM     86  C   UNL A   1      47.010  28.201  33.224  1.00  0.00     0.148 A 
ATOM     87  C   UNL A   1      47.062  25.971  34.935  1.00  0.00     0.002 A 
ATOM     88  C   UNL A   1      48.214  27.753  33.761  1.00  0.00     0.091 A 
ATOM     89  F   UNL A   1      46.950  29.283  32.437  1.00  0.00    -0.205 F 
ATOM     90  C   UNL A   1      48.241  26.646  34.623  1.00  0.00     0.022 A 
BRANCH  88  91
ATOM     91  S   UNL A   1      49.784  28.518  33.342  1.00  0.00     0.127 S 
ATOM     92  O   UNL A   1      49.426  29.933  33.298  1.00  0.00    -0.237 OA
ATOM     93  O   UNL A   1      50.634  28.139  34.472  1.00  0.00    -0.237 OA
ATOM     94  O   UNL A   1      50.183  27.926  32.070  1.00  0.00    -0.744 OA
ENDBRANCH  88  91
ENDBRANCH  61  84
ENDBRANCH  35  36
ENDBRANCH  28  30
ENDBRANCH  27  28
ENDBRANCH  26  27
ENDBRANCH   1  26
TORSDOF 20
ENDMDL
