MODEL 1
REMARK VINA RESULT:     -12.0      0.000      0.000
REMARK SMILES Cc1ccc(C(=O)OCCOC(=O)c2ccc(-c3c4nc(c(-c5cccc(S(=O)(=O)[O-])c5F)c5ccc([nH]5)c(-c5cccc(S(=O)(=O)[O-])c5F)c5nc(c(-c6cccc(S(=O)(=O)[O-])c6F)c6ccc3[nH]6)C=C5)C=C4)cc2)cc1N1C(=O)/C(=C/c2ccc([N+](=O)[O-])cc2)SC1=S
REMARK SMILES IDX 9 1 8 2 6 3 7 4 5 5 1 6 2 7 3 8 78 9 4 10 77 11 79 12 80 13
REMARK SMILES IDX 94 14 81 15 82 16 93 17 95 18 83 19 84 20 85 21 92 22 86 23
REMARK SMILES IDX 91 24 87 25 88 26 89 27 90 28 10 29 11 30 12 31 13 32 14 33
REMARK SMILES IDX 15 34 76 35 16 36 75 37 17 38 18 39 19 40 69 41 20 42 74 43
REMARK SMILES IDX 68 44 70 45 21 46 73 47 67 48 66 49 22 51 54 52 34 53 53 54
REMARK SMILES IDX 35 55 38 56 52 57 71 58 36 59 37 60 51 62 72 63 39 64 23 65
REMARK SMILES IDX 24 66 32 67 25 68 27 69 33 70 26 71 28 72 29 73 30 74 31 75
REMARK SMILES IDX 55 76 56 77 64 78 57 79 59 80 65 81 58 82 60 83 61 84 62 85
REMARK SMILES IDX 63 86 40 87 41 88 49 89 42 90 44 91 50 92 43 93 45 94 46 95
REMARK SMILES IDX 47 96 48 97
REMARK H PARENT 70 50 38 61
REMARK Flexibility Score: inf
ROOT
ATOM      1  C   UNL A   1      36.912  21.453  25.500  1.00  0.00     0.275 C 
ENDROOT
BRANCH   1   2
ATOM      2  O   UNL A   1      35.989  21.422  24.412  1.00  0.00    -0.458 OA
BRANCH   2   3
ATOM      3  C   UNL A   1      34.811  20.802  24.582  1.00  0.00     0.338 C 
ATOM      4  O   UNL A   1      34.623  19.715  25.110  1.00  0.00    -0.246 OA
BRANCH   3   5
ATOM      5  C   UNL A   1      33.742  21.644  24.015  1.00  0.00     0.062 A 
ATOM      6  C   UNL A   1      30.374  24.147  23.069  1.00  0.00     0.046 C 
ATOM      7  C   UNL A   1      31.608  23.352  23.398  1.00  0.00    -0.027 A 
ATOM      8  C   UNL A   1      31.457  21.949  23.357  1.00  0.00     0.006 A 
ATOM      9  C   UNL A   1      32.868  23.884  23.756  1.00  0.00     0.054 A 
ATOM     10  C   UNL A   1      32.485  21.108  23.768  1.00  0.00     0.016 A 
ATOM     11  C   UNL A   1      33.957  23.013  23.882  1.00  0.00     0.042 A 
BRANCH   9  12
ATOM     12  N   UNL A   1      33.017  25.178  24.348  1.00  0.00    -0.261 N 
ATOM     13  C   UNL A   1      32.918  25.409  25.716  1.00  0.00     0.270 C 
ATOM     14  C   UNL A   1      33.345  26.306  23.585  1.00  0.00     0.152 C 
ATOM     15  O   UNL A   1      32.668  24.629  26.622  1.00  0.00    -0.268 OA
ATOM     16  C   UNL A   1      33.149  26.865  25.952  1.00  0.00     0.081 C 
ATOM     17  S   UNL A   1      34.046  27.518  24.647  1.00  0.00    -0.054 SA
ATOM     18  S   UNL A   1      33.210  26.665  21.954  1.00  0.00    -0.051 S 
ATOM     19  C   UNL A   1      32.556  27.590  26.907  1.00  0.00     0.029 C 
BRANCH  19  20
ATOM     20  C   UNL A   1      32.776  29.033  27.059  1.00  0.00    -0.024 A 
ATOM     21  C   UNL A   1      31.788  29.976  26.746  1.00  0.00     0.015 A 
ATOM     22  C   UNL A   1      34.033  29.462  27.501  1.00  0.00     0.015 A 
ATOM     23  C   UNL A   1      32.029  31.341  26.954  1.00  0.00     0.086 A 
ATOM     24  C   UNL A   1      34.282  30.816  27.713  1.00  0.00     0.086 A 
ATOM     25  C   UNL A   1      33.267  31.750  27.468  1.00  0.00     0.269 A 
BRANCH  25  26
ATOM     26  N   UNL A   1      33.503  33.162  27.793  1.00  0.00     0.062 N 
ATOM     27  O   UNL A   1      32.527  33.924  27.822  1.00  0.00    -0.258 OA
ATOM     28  O   UNL A   1      34.670  33.514  28.024  1.00  0.00    -0.258 OA
ENDBRANCH  25  26
ENDBRANCH  19  20
ENDBRANCH   9  12
ENDBRANCH   3   5
ENDBRANCH   2   3
ENDBRANCH   1   2
BRANCH   1  29
ATOM     29  C   UNL A   1      37.759  22.719  25.783  1.00  0.00     0.275 C 
BRANCH  29  30
ATOM     30  O   UNL A   1      39.218  22.758  25.906  1.00  0.00    -0.458 OA
BRANCH  30  31
ATOM     31  C   UNL A   1      40.065  23.021  26.926  1.00  0.00     0.338 C 
ATOM     32  O   UNL A   1      40.716  22.156  27.497  1.00  0.00    -0.246 OA
BRANCH  31  33
ATOM     33  C   UNL A   1      40.187  24.416  27.317  1.00  0.00     0.060 A 
ATOM     34  C   UNL A   1      40.827  25.334  26.467  1.00  0.00     0.016 A 
ATOM     35  C   UNL A   1      39.545  24.801  28.485  1.00  0.00     0.016 A 
ATOM     36  C   UNL A   1      40.758  26.685  26.752  1.00  0.00     0.010 A 
ATOM     37  C   UNL A   1      39.328  26.131  28.682  1.00  0.00     0.010 A 
ATOM     38  C   UNL A   1      40.038  27.045  27.884  1.00  0.00    -0.014 A 
BRANCH  38  39
ATOM     39  C   UNL A   1      40.382  28.220  28.656  1.00  0.00     0.031 A 
ATOM     40  C   UNL A   1      39.430  29.325  28.749  1.00  0.00     0.074 A 
ATOM     41  C   UNL A   1      41.434  27.906  29.453  1.00  0.00     0.049 A 
ATOM     42  N   UNL A   1      39.736  30.510  29.137  1.00  0.00    -0.248 NA
ATOM     43  C   UNL A   1      38.027  29.201  28.345  1.00  0.00     0.031 C 
ATOM     44  C   UNL A   1      41.838  28.363  30.763  1.00  0.00     0.029 A 
ATOM     45  N   UNL A   1      42.435  26.964  29.130  1.00  0.00    -0.354 N 
ATOM     46  C   UNL A   1      38.538  31.112  29.472  1.00  0.00     0.074 A 
ATOM     47  C   UNL A   1      37.529  30.375  28.754  1.00  0.00     0.031 C 
ATOM     48  C   UNL A   1      43.117  27.975  30.970  1.00  0.00     0.029 A 
ATOM     49  C   UNL A   1      43.610  27.408  29.713  1.00  0.00     0.049 A 
ATOM     50  H   UNL A   1      42.320  26.147  28.592  1.00  0.00     0.167 HD
ATOM     51  C   UNL A   1      38.519  31.940  30.557  1.00  0.00     0.034 A 
ATOM     52  C   UNL A   1      44.598  27.913  28.909  1.00  0.00     0.034 A 
ATOM     53  C   UNL A   1      39.872  31.987  31.145  1.00  0.00     0.049 A 
ATOM     54  C   UNL A   1      44.739  29.396  29.172  1.00  0.00     0.074 A 
ATOM     55  C   UNL A   1      40.427  31.296  32.211  1.00  0.00     0.029 A 
ATOM     56  N   UNL A   1      40.939  32.503  30.416  1.00  0.00    -0.354 N 
ATOM     57  N   UNL A   1      43.776  30.138  29.646  1.00  0.00    -0.248 NA
ATOM     58  C   UNL A   1      45.972  30.143  28.961  1.00  0.00     0.031 C 
ATOM     59  C   UNL A   1      41.840  31.329  32.067  1.00  0.00     0.029 A 
ATOM     60  C   UNL A   1      42.146  32.027  30.910  1.00  0.00     0.049 A 
ATOM     61  H   UNL A   1      40.850  33.121  29.654  1.00  0.00     0.167 HD
ATOM     62  C   UNL A   1      44.216  31.414  29.818  1.00  0.00     0.074 A 
ATOM     63  C   UNL A   1      45.605  31.366  29.384  1.00  0.00     0.031 C 
ATOM     64  C   UNL A   1      43.404  32.411  30.281  1.00  0.00     0.034 A 
BRANCH  51  65
ATOM     65  C   UNL A   1      37.284  32.370  31.347  1.00  0.00     0.023 A 
ATOM     66  C   UNL A   1      36.789  31.440  32.292  1.00  0.00     0.012 A 
ATOM     67  C   UNL A   1      36.554  33.578  31.237  1.00  0.00     0.148 A 
ATOM     68  C   UNL A   1      35.608  31.636  33.014  1.00  0.00     0.002 A 
ATOM     69  C   UNL A   1      35.355  33.770  31.942  1.00  0.00     0.091 A 
ATOM     70  F   UNL A   1      37.034  34.581  30.497  1.00  0.00    -0.205 F 
ATOM     71  C   UNL A   1      34.876  32.795  32.823  1.00  0.00     0.022 A 
BRANCH  69  72
ATOM     72  S   UNL A   1      34.326  35.241  31.761  1.00  0.00     0.127 S 
ATOM     73  O   UNL A   1      33.060  34.806  32.359  1.00  0.00    -0.237 OA
ATOM     74  O   UNL A   1      35.056  36.233  32.547  1.00  0.00    -0.237 OA
ATOM     75  O   UNL A   1      34.248  35.514  30.332  1.00  0.00    -0.744 OA
ENDBRANCH  69  72
ENDBRANCH  51  65
BRANCH  52  76
ATOM     76  C   UNL A   1      44.689  27.278  27.538  1.00  0.00     0.023 A 
ATOM     77  C   UNL A   1      44.576  28.133  26.410  1.00  0.00     0.012 A 
ATOM     78  C   UNL A   1      45.193  25.980  27.327  1.00  0.00     0.148 A 
ATOM     79  C   UNL A   1      45.067  27.759  25.153  1.00  0.00     0.002 A 
ATOM     80  C   UNL A   1      45.666  25.607  26.061  1.00  0.00     0.091 A 
ATOM     81  F   UNL A   1      45.279  25.135  28.362  1.00  0.00    -0.205 F 
ATOM     82  C   UNL A   1      45.630  26.501  24.983  1.00  0.00     0.022 A 
BRANCH  80  83
ATOM     83  S   UNL A   1      46.434  23.996  25.824  1.00  0.00     0.127 S 
ATOM     84  O   UNL A   1      45.389  23.058  26.240  1.00  0.00    -0.237 OA
ATOM     85  O   UNL A   1      46.709  23.973  24.394  1.00  0.00    -0.237 OA
ATOM     86  O   UNL A   1      47.582  24.057  26.723  1.00  0.00    -0.744 OA
ENDBRANCH  80  83
ENDBRANCH  52  76
BRANCH  64  87
ATOM     87  C   UNL A   1      43.742  33.874  30.198  1.00  0.00     0.023 A 
ATOM     88  C   UNL A   1      44.343  34.553  31.274  1.00  0.00     0.012 A 
ATOM     89  C   UNL A   1      43.640  34.565  28.967  1.00  0.00     0.148 A 
ATOM     90  C   UNL A   1      44.751  35.881  31.160  1.00  0.00     0.002 A 
ATOM     91  C   UNL A   1      44.174  35.837  28.823  1.00  0.00     0.091 A 
ATOM     92  F   UNL A   1      43.016  33.996  27.925  1.00  0.00    -0.205 F 
ATOM     93  C   UNL A   1      44.691  36.516  29.927  1.00  0.00     0.022 A 
BRANCH  91  94
ATOM     94  S   UNL A   1      44.374  36.565  27.193  1.00  0.00     0.127 S 
ATOM     95  O   UNL A   1      45.087  37.802  27.502  1.00  0.00    -0.237 OA
ATOM     96  O   UNL A   1      45.174  35.557  26.497  1.00  0.00    -0.237 OA
ATOM     97  O   UNL A   1      43.023  36.716  26.671  1.00  0.00    -0.744 OA
ENDBRANCH  91  94
ENDBRANCH  64  87
ENDBRANCH  38  39
ENDBRANCH  31  33
ENDBRANCH  30  31
ENDBRANCH  29  30
ENDBRANCH   1  29
TORSDOF 17
ENDMDL
MODEL 2
REMARK VINA RESULT:     -11.6      3.736     10.413
REMARK SMILES Cc1ccc(C(=O)OCCOC(=O)c2ccc(-c3c4nc(c(-c5cccc(S(=O)(=O)[O-])c5F)c5ccc([nH]5)c(-c5cccc(S(=O)(=O)[O-])c5F)c5nc(c(-c6cccc(S(=O)(=O)[O-])c6F)c6ccc3[nH]6)C=C5)C=C4)cc2)cc1N1C(=O)/C(=C/c2ccc([N+](=O)[O-])cc2)SC1=S
REMARK SMILES IDX 9 1 8 2 6 3 7 4 5 5 1 6 2 7 3 8 78 9 4 10 77 11 79 12 80 13
REMARK SMILES IDX 94 14 81 15 82 16 93 17 95 18 83 19 84 20 85 21 92 22 86 23
REMARK SMILES IDX 91 24 87 25 88 26 89 27 90 28 10 29 11 30 12 31 13 32 14 33
REMARK SMILES IDX 15 34 76 35 16 36 75 37 17 38 18 39 19 40 69 41 20 42 74 43
REMARK SMILES IDX 68 44 70 45 21 46 73 47 67 48 66 49 22 51 54 52 34 53 53 54
REMARK SMILES IDX 35 55 38 56 52 57 71 58 36 59 37 60 51 62 72 63 39 64 23 65
REMARK SMILES IDX 24 66 32 67 25 68 27 69 33 70 26 71 28 72 29 73 30 74 31 75
REMARK SMILES IDX 55 76 56 77 64 78 57 79 59 80 65 81 58 82 60 83 61 84 62 85
REMARK SMILES IDX 63 86 40 87 41 88 49 89 42 90 44 91 50 92 43 93 45 94 46 95
REMARK SMILES IDX 47 96 48 97
REMARK H PARENT 70 50 38 61
REMARK Flexibility Score: inf
ROOT
ATOM      1  C   UNL A   1      34.583  31.611  27.733  1.00  0.00     0.275 C 
ENDROOT
BRANCH   1   2
ATOM      2  O   UNL A   1      33.567  30.816  27.124  1.00  0.00    -0.458 OA
BRANCH   2   3
ATOM      3  C   UNL A   1      33.808  29.513  26.910  1.00  0.00     0.338 C 
ATOM      4  O   UNL A   1      34.802  28.886  27.247  1.00  0.00    -0.246 OA
BRANCH   3   5
ATOM      5  C   UNL A   1      32.669  28.929  26.177  1.00  0.00     0.062 A 
ATOM      6  C   UNL A   1      29.844  27.118  23.486  1.00  0.00     0.046 C 
ATOM      7  C   UNL A   1      30.840  27.664  24.473  1.00  0.00    -0.027 A 
ATOM      8  C   UNL A   1      31.010  29.066  24.452  1.00  0.00     0.006 A 
ATOM      9  C   UNL A   1      31.614  26.905  25.380  1.00  0.00     0.054 A 
ATOM     10  C   UNL A   1      31.995  29.677  25.222  1.00  0.00     0.016 A 
ATOM     11  C   UNL A   1      32.383  27.577  26.338  1.00  0.00     0.042 A 
BRANCH   9  12
ATOM     12  N   UNL A   1      31.945  25.533  25.147  1.00  0.00    -0.261 N 
ATOM     13  C   UNL A   1      31.579  24.501  26.006  1.00  0.00     0.270 C 
ATOM     14  C   UNL A   1      32.610  25.120  23.986  1.00  0.00     0.152 C 
ATOM     15  O   UNL A   1      30.981  24.548  27.069  1.00  0.00    -0.268 OA
ATOM     16  C   UNL A   1      32.080  23.221  25.423  1.00  0.00     0.081 C 
ATOM     17  S   UNL A   1      32.294  23.410  23.734  1.00  0.00    -0.054 SA
ATOM     18  S   UNL A   1      33.569  25.920  22.869  1.00  0.00    -0.051 S 
ATOM     19  C   UNL A   1      32.512  22.173  26.133  1.00  0.00     0.029 C 
BRANCH  19  20
ATOM     20  C   UNL A   1      33.049  20.959  25.508  1.00  0.00    -0.024 A 
ATOM     21  C   UNL A   1      34.426  20.734  25.373  1.00  0.00     0.015 A 
ATOM     22  C   UNL A   1      32.138  20.021  25.007  1.00  0.00     0.015 A 
ATOM     23  C   UNL A   1      34.890  19.536  24.812  1.00  0.00     0.086 A 
ATOM     24  C   UNL A   1      32.589  18.827  24.450  1.00  0.00     0.086 A 
ATOM     25  C   UNL A   1      33.965  18.574  24.383  1.00  0.00     0.269 A 
BRANCH  25  26
ATOM     26  N   UNL A   1      34.429  17.270  23.892  1.00  0.00     0.062 N 
ATOM     27  O   UNL A   1      35.052  16.541  24.675  1.00  0.00    -0.258 OA
ATOM     28  O   UNL A   1      34.168  16.972  22.717  1.00  0.00    -0.258 OA
ENDBRANCH  25  26
ENDBRANCH  19  20
ENDBRANCH   9  12
ENDBRANCH   3   5
ENDBRANCH   2   3
ENDBRANCH   1   2
BRANCH   1  29
ATOM     29  C   UNL A   1      34.210  32.792  28.665  1.00  0.00     0.275 C 
BRANCH  29  30
ATOM     30  O   UNL A   1      34.499  32.870  30.099  1.00  0.00    -0.458 OA
BRANCH  30  31
ATOM     31  C   UNL A   1      35.592  33.213  30.817  1.00  0.00     0.338 C 
ATOM     32  O   UNL A   1      35.690  34.271  31.423  1.00  0.00    -0.246 OA
BRANCH  31  33
ATOM     33  C   UNL A   1      36.669  32.238  30.852  1.00  0.00     0.060 A 
ATOM     34  C   UNL A   1      36.692  31.247  31.848  1.00  0.00     0.016 A 
ATOM     35  C   UNL A   1      37.578  32.266  29.805  1.00  0.00     0.016 A 
ATOM     36  C   UNL A   1      37.601  30.210  31.754  1.00  0.00     0.010 A 
ATOM     37  C   UNL A   1      38.358  31.166  29.611  1.00  0.00     0.010 A 
ATOM     38  C   UNL A   1      38.443  30.221  30.648  1.00  0.00    -0.014 A 
BRANCH  38  39
ATOM     39  C   UNL A   1      39.779  29.666  30.710  1.00  0.00     0.031 A 
ATOM     40  C   UNL A   1      40.053  28.377  30.079  1.00  0.00     0.074 A 
ATOM     41  C   UNL A   1      40.630  30.659  31.071  1.00  0.00     0.049 A 
ATOM     42  N   UNL A   1      41.088  27.660  30.324  1.00  0.00    -0.248 NA
ATOM     43  C   UNL A   1      39.128  27.741  29.138  1.00  0.00     0.031 C 
ATOM     44  C   UNL A   1      42.016  30.918  30.758  1.00  0.00     0.029 A 
ATOM     45  N   UNL A   1      40.288  31.751  31.898  1.00  0.00    -0.354 N 
ATOM     46  C   UNL A   1      41.183  26.771  29.270  1.00  0.00     0.074 A 
ATOM     47  C   UNL A   1      39.856  26.700  28.714  1.00  0.00     0.031 C 
ATOM     48  C   UNL A   1      42.475  31.858  31.617  1.00  0.00     0.029 A 
ATOM     49  C   UNL A   1      41.426  32.089  32.612  1.00  0.00     0.049 A 
ATOM     50  H   UNL A   1      39.408  32.189  31.957  1.00  0.00     0.167 HD
ATOM     51  C   UNL A   1      42.427  26.463  28.802  1.00  0.00     0.034 A 
ATOM     52  C   UNL A   1      41.477  31.799  33.950  1.00  0.00     0.034 A 
ATOM     53  C   UNL A   1      43.431  27.208  29.588  1.00  0.00     0.049 A 
ATOM     54  C   UNL A   1      42.511  30.719  34.183  1.00  0.00     0.074 A 
ATOM     55  C   UNL A   1      44.090  28.400  29.328  1.00  0.00     0.029 A 
ATOM     56  N   UNL A   1      43.575  26.969  30.951  1.00  0.00    -0.354 N 
ATOM     57  N   UNL A   1      42.876  29.863  33.269  1.00  0.00    -0.248 NA
ATOM     58  C   UNL A   1      43.233  30.544  35.436  1.00  0.00     0.031 C 
ATOM     59  C   UNL A   1      44.558  28.919  30.565  1.00  0.00     0.029 A 
ATOM     60  C   UNL A   1      44.175  28.054  31.577  1.00  0.00     0.049 A 
ATOM     61  H   UNL A   1      43.292  26.145  31.409  1.00  0.00     0.167 HD
ATOM     62  C   UNL A   1      43.851  29.049  33.758  1.00  0.00     0.074 A 
ATOM     63  C   UNL A   1      44.049  29.523  35.121  1.00  0.00     0.031 C 
ATOM     64  C   UNL A   1      44.402  28.042  33.017  1.00  0.00     0.034 A 
BRANCH  51  65
ATOM     65  C   UNL A   1      42.759  25.864  27.436  1.00  0.00     0.023 A 
ATOM     66  C   UNL A   1      42.780  26.766  26.344  1.00  0.00     0.012 A 
ATOM     67  C   UNL A   1      43.027  24.511  27.117  1.00  0.00     0.148 A 
ATOM     68  C   UNL A   1      42.958  26.360  25.019  1.00  0.00     0.002 A 
ATOM     69  C   UNL A   1      43.183  24.096  25.784  1.00  0.00     0.091 A 
ATOM     70  F   UNL A   1      43.194  23.617  28.095  1.00  0.00    -0.205 F 
ATOM     71  C   UNL A   1      43.139  25.018  24.734  1.00  0.00     0.022 A 
BRANCH  69  72
ATOM     72  S   UNL A   1      43.420  22.371  25.308  1.00  0.00     0.127 S 
ATOM     73  O   UNL A   1      42.102  21.792  25.584  1.00  0.00    -0.237 OA
ATOM     74  O   UNL A   1      43.746  22.481  23.887  1.00  0.00    -0.237 OA
ATOM     75  O   UNL A   1      44.488  21.855  26.154  1.00  0.00    -0.744 OA
ENDBRANCH  69  72
ENDBRANCH  51  65
BRANCH  52  76
ATOM     76  C   UNL A   1      40.147  31.875  34.670  1.00  0.00     0.023 A 
ATOM     77  C   UNL A   1      39.260  30.775  34.527  1.00  0.00     0.012 A 
ATOM     78  C   UNL A   1      39.886  32.796  35.702  1.00  0.00     0.148 A 
ATOM     79  C   UNL A   1      38.239  30.530  35.453  1.00  0.00     0.002 A 
ATOM     80  C   UNL A   1      38.850  32.553  36.615  1.00  0.00     0.091 A 
ATOM     81  F   UNL A   1      40.682  33.864  35.843  1.00  0.00    -0.205 F 
ATOM     82  C   UNL A   1      38.045  31.411  36.509  1.00  0.00     0.022 A 
BRANCH  80  83
ATOM     83  S   UNL A   1      38.604  33.659  38.014  1.00  0.00     0.127 S 
ATOM     84  O   UNL A   1      39.715  33.327  38.908  1.00  0.00    -0.237 OA
ATOM     85  O   UNL A   1      38.711  34.979  37.408  1.00  0.00    -0.237 OA
ATOM     86  O   UNL A   1      37.291  33.258  38.509  1.00  0.00    -0.744 OA
ENDBRANCH  80  83
ENDBRANCH  52  76
BRANCH  64  87
ATOM     87  C   UNL A   1      45.243  26.938  33.598  1.00  0.00     0.023 A 
ATOM     88  C   UNL A   1      46.641  27.053  33.698  1.00  0.00     0.012 A 
ATOM     89  C   UNL A   1      44.632  25.831  34.235  1.00  0.00     0.148 A 
ATOM     90  C   UNL A   1      47.408  26.075  34.330  1.00  0.00     0.002 A 
ATOM     91  C   UNL A   1      45.388  24.938  34.979  1.00  0.00     0.091 A 
ATOM     92  F   UNL A   1      43.311  25.630  34.116  1.00  0.00    -0.205 F 
ATOM     93  C   UNL A   1      46.781  25.031  34.994  1.00  0.00     0.022 A 
BRANCH  91  94
ATOM     94  S   UNL A   1      44.592  23.760  36.077  1.00  0.00     0.127 S 
ATOM     95  O   UNL A   1      43.880  24.640  36.999  1.00  0.00    -0.237 OA
ATOM     96  O   UNL A   1      43.732  23.011  35.160  1.00  0.00    -0.237 OA
ATOM     97  O   UNL A   1      45.678  22.974  36.648  1.00  0.00    -0.744 OA
ENDBRANCH  91  94
ENDBRANCH  64  87
ENDBRANCH  38  39
ENDBRANCH  31  33
ENDBRANCH  30  31
ENDBRANCH  29  30
ENDBRANCH   1  29
TORSDOF 17
ENDMDL
MODEL 3
REMARK VINA RESULT:     -11.5      5.987     10.605
REMARK SMILES Cc1ccc(C(=O)OCCOC(=O)c2ccc(-c3c4nc(c(-c5cccc(S(=O)(=O)[O-])c5F)c5ccc([nH]5)c(-c5cccc(S(=O)(=O)[O-])c5F)c5nc(c(-c6cccc(S(=O)(=O)[O-])c6F)c6ccc3[nH]6)C=C5)C=C4)cc2)cc1N1C(=O)/C(=C/c2ccc([N+](=O)[O-])cc2)SC1=S
REMARK SMILES IDX 9 1 8 2 6 3 7 4 5 5 1 6 2 7 3 8 78 9 4 10 77 11 79 12 80 13
REMARK SMILES IDX 94 14 81 15 82 16 93 17 95 18 83 19 84 20 85 21 92 22 86 23
REMARK SMILES IDX 91 24 87 25 88 26 89 27 90 28 10 29 11 30 12 31 13 32 14 33
REMARK SMILES IDX 15 34 76 35 16 36 75 37 17 38 18 39 19 40 69 41 20 42 74 43
REMARK SMILES IDX 68 44 70 45 21 46 73 47 67 48 66 49 22 51 54 52 34 53 53 54
REMARK SMILES IDX 35 55 38 56 52 57 71 58 36 59 37 60 51 62 72 63 39 64 23 65
REMARK SMILES IDX 24 66 32 67 25 68 27 69 33 70 26 71 28 72 29 73 30 74 31 75
REMARK SMILES IDX 55 76 56 77 64 78 57 79 59 80 65 81 58 82 60 83 61 84 62 85
REMARK SMILES IDX 63 86 40 87 41 88 49 89 42 90 44 91 50 92 43 93 45 94 46 95
REMARK SMILES IDX 47 96 48 97
REMARK H PARENT 70 50 38 61
REMARK Flexibility Score: inf
ROOT
ATOM      1  C   UNL A   1      39.753  21.745  25.918  1.00  0.00     0.275 C 
ENDROOT
BRANCH   1   2
ATOM      2  O   UNL A   1      38.354  21.533  25.734  1.00  0.00    -0.458 OA
BRANCH   2   3
ATOM      3  C   UNL A   1      37.562  22.596  25.526  1.00  0.00     0.338 C 
ATOM      4  O   UNL A   1      37.818  23.764  25.784  1.00  0.00    -0.246 OA
BRANCH   3   5
ATOM      5  C   UNL A   1      36.293  22.138  24.931  1.00  0.00     0.062 A 
ATOM      6  C   UNL A   1      32.279  21.050  23.832  1.00  0.00     0.046 C 
ATOM      7  C   UNL A   1      33.673  21.512  24.161  1.00  0.00    -0.027 A 
ATOM      8  C   UNL A   1      34.480  20.572  24.837  1.00  0.00     0.006 A 
ATOM      9  C   UNL A   1      34.217  22.785  23.874  1.00  0.00     0.054 A 
ATOM     10  C   UNL A   1      35.740  20.923  25.312  1.00  0.00     0.016 A 
ATOM     11  C   UNL A   1      35.579  23.005  24.109  1.00  0.00     0.042 A 
BRANCH   9  12
ATOM     12  N   UNL A   1      33.402  23.950  23.713  1.00  0.00    -0.261 N 
ATOM     13  C   UNL A   1      32.954  24.723  24.779  1.00  0.00     0.270 C 
ATOM     14  C   UNL A   1      33.053  24.438  22.448  1.00  0.00     0.152 C 
ATOM     15  O   UNL A   1      33.115  24.564  25.979  1.00  0.00    -0.268 OA
ATOM     16  C   UNL A   1      32.156  25.855  24.220  1.00  0.00     0.081 C 
ATOM     17  S   UNL A   1      32.628  26.137  22.598  1.00  0.00    -0.054 SA
ATOM     18  S   UNL A   1      32.992  23.739  20.927  1.00  0.00    -0.051 S 
ATOM     19  C   UNL A   1      31.090  26.406  24.809  1.00  0.00     0.029 C 
BRANCH  19  20
ATOM     20  C   UNL A   1      30.307  27.480  24.188  1.00  0.00    -0.024 A 
ATOM     21  C   UNL A   1      29.116  27.230  23.492  1.00  0.00     0.015 A 
ATOM     22  C   UNL A   1      30.800  28.787  24.277  1.00  0.00     0.015 A 
ATOM     23  C   UNL A   1      28.379  28.296  22.957  1.00  0.00     0.086 A 
ATOM     24  C   UNL A   1      30.073  29.853  23.751  1.00  0.00     0.086 A 
ATOM     25  C   UNL A   1      28.848  29.606  23.120  1.00  0.00     0.269 A 
BRANCH  25  26
ATOM     26  N   UNL A   1      28.039  30.743  22.661  1.00  0.00     0.062 N 
ATOM     27  O   UNL A   1      27.325  31.322  23.491  1.00  0.00    -0.258 OA
ATOM     28  O   UNL A   1      28.119  31.061  21.465  1.00  0.00    -0.258 OA
ENDBRANCH  25  26
ENDBRANCH  19  20
ENDBRANCH   9  12
ENDBRANCH   3   5
ENDBRANCH   2   3
ENDBRANCH   1   2
BRANCH   1  29
ATOM     29  C   UNL A   1      40.353  21.875  27.341  1.00  0.00     0.275 C 
BRANCH  29  30
ATOM     30  O   UNL A   1      41.391  22.827  27.744  1.00  0.00    -0.458 OA
BRANCH  30  31
ATOM     31  C   UNL A   1      41.454  24.177  27.799  1.00  0.00     0.338 C 
ATOM     32  O   UNL A   1      40.518  24.904  27.498  1.00  0.00    -0.246 OA
BRANCH  31  33
ATOM     33  C   UNL A   1      42.712  24.742  28.258  1.00  0.00     0.060 A 
ATOM     34  C   UNL A   1      43.121  26.011  27.811  1.00  0.00     0.016 A 
ATOM     35  C   UNL A   1      43.404  24.033  29.229  1.00  0.00     0.016 A 
ATOM     36  C   UNL A   1      44.208  26.622  28.406  1.00  0.00     0.010 A 
ATOM     37  C   UNL A   1      44.365  24.693  29.934  1.00  0.00     0.010 A 
ATOM     38  C   UNL A   1      44.830  25.921  29.433  1.00  0.00    -0.014 A 
BRANCH  38  39
ATOM     39  C   UNL A   1      46.247  26.063  29.695  1.00  0.00     0.031 A 
ATOM     40  C   UNL A   1      47.213  25.476  28.768  1.00  0.00     0.074 A 
ATOM     41  C   UNL A   1      46.408  27.048  30.614  1.00  0.00     0.049 A 
ATOM     42  N   UNL A   1      48.449  25.276  29.046  1.00  0.00    -0.248 NA
ATOM     43  C   UNL A   1      46.842  24.996  27.434  1.00  0.00     0.031 C 
ATOM     44  C   UNL A   1      47.461  28.010  30.839  1.00  0.00     0.029 A 
ATOM     45  N   UNL A   1      45.475  27.364  31.626  1.00  0.00    -0.354 N 
ATOM     46  C   UNL A   1      49.081  25.108  27.829  1.00  0.00     0.074 A 
ATOM     47  C   UNL A   1      48.043  24.710  26.914  1.00  0.00     0.031 C 
ATOM     48  C   UNL A   1      47.282  28.553  32.065  1.00  0.00     0.029 A 
ATOM     49  C   UNL A   1      46.201  27.812  32.718  1.00  0.00     0.049 A 
ATOM     50  H   UNL A   1      44.495  27.282  31.567  1.00  0.00     0.167 HD
ATOM     51  C   UNL A   1      50.329  25.639  27.677  1.00  0.00     0.034 A 
ATOM     52  C   UNL A   1      46.298  27.007  33.822  1.00  0.00     0.034 A 
ATOM     53  C   UNL A   1      50.719  26.309  28.934  1.00  0.00     0.049 A 
ATOM     54  C   UNL A   1      47.728  26.532  33.963  1.00  0.00     0.074 A 
ATOM     55  C   UNL A   1      50.659  27.641  29.313  1.00  0.00     0.029 A 
ATOM     56  N   UNL A   1      50.866  25.574  30.106  1.00  0.00    -0.354 N 
ATOM     57  N   UNL A   1      48.560  26.448  32.962  1.00  0.00    -0.248 NA
ATOM     58  C   UNL A   1      48.335  26.155  35.232  1.00  0.00     0.031 C 
ATOM     59  C   UNL A   1      50.684  27.693  30.733  1.00  0.00     0.029 A 
ATOM     60  C   UNL A   1      50.747  26.397  31.218  1.00  0.00     0.049 A 
ATOM     61  H   UNL A   1      51.033  24.604  30.143  1.00  0.00     0.167 HD
ATOM     62  C   UNL A   1      49.779  26.035  33.406  1.00  0.00     0.074 A 
ATOM     63  C   UNL A   1      49.591  25.874  34.841  1.00  0.00     0.031 C 
ATOM     64  C   UNL A   1      50.836  25.839  32.563  1.00  0.00     0.034 A 
BRANCH  51  65
ATOM     65  C   UNL A   1      51.031  25.943  26.355  1.00  0.00     0.023 A 
ATOM     66  C   UNL A   1      52.181  25.170  26.062  1.00  0.00     0.012 A 
ATOM     67  C   UNL A   1      50.689  26.920  25.389  1.00  0.00     0.148 A 
ATOM     68  C   UNL A   1      52.995  25.398  24.950  1.00  0.00     0.002 A 
ATOM     69  C   UNL A   1      51.518  27.169  24.282  1.00  0.00     0.091 A 
ATOM     70  F   UNL A   1      49.534  27.582  25.491  1.00  0.00    -0.205 F 
ATOM     71  C   UNL A   1      52.676  26.415  24.067  1.00  0.00     0.022 A 
BRANCH  69  72
ATOM     72  S   UNL A   1      51.192  28.472  23.077  1.00  0.00     0.127 S 
ATOM     73  O   UNL A   1      51.330  29.683  23.889  1.00  0.00    -0.237 OA
ATOM     74  O   UNL A   1      52.263  28.272  22.102  1.00  0.00    -0.237 OA
ATOM     75  O   UNL A   1      49.843  28.239  22.576  1.00  0.00    -0.744 OA
ENDBRANCH  69  72
ENDBRANCH  51  65
BRANCH  52  76
ATOM     76  C   UNL A   1      45.083  26.146  34.091  1.00  0.00     0.023 A 
ATOM     77  C   UNL A   1      45.195  24.753  33.831  1.00  0.00     0.012 A 
ATOM     78  C   UNL A   1      43.992  26.580  34.869  1.00  0.00     0.148 A 
ATOM     79  C   UNL A   1      44.336  23.823  34.430  1.00  0.00     0.002 A 
ATOM     80  C   UNL A   1      43.127  25.643  35.450  1.00  0.00     0.091 A 
ATOM     81  F   UNL A   1      43.836  27.889  35.103  1.00  0.00    -0.205 F 
ATOM     82  C   UNL A   1      43.312  24.268  35.256  1.00  0.00     0.022 A 
BRANCH  80  83
ATOM     83  S   UNL A   1      41.815  26.192  36.554  1.00  0.00     0.127 S 
ATOM     84  O   UNL A   1      42.532  26.561  37.776  1.00  0.00    -0.237 OA
ATOM     85  O   UNL A   1      41.244  27.327  35.842  1.00  0.00    -0.237 OA
ATOM     86  O   UNL A   1      40.985  24.998  36.679  1.00  0.00    -0.744 OA
ENDBRANCH  80  83
ENDBRANCH  52  76
BRANCH  64  87
ATOM     87  C   UNL A   1      52.090  25.102  32.947  1.00  0.00     0.023 A 
ATOM     88  C   UNL A   1      53.135  25.739  33.639  1.00  0.00     0.012 A 
ATOM     89  C   UNL A   1      52.171  23.697  32.792  1.00  0.00     0.148 A 
ATOM     90  C   UNL A   1      54.250  25.031  34.085  1.00  0.00     0.002 A 
ATOM     91  C   UNL A   1      53.214  22.982  33.360  1.00  0.00     0.091 A 
ATOM     92  F   UNL A   1      51.239  23.043  32.083  1.00  0.00    -0.205 F 
ATOM     93  C   UNL A   1      54.278  23.648  33.970  1.00  0.00     0.022 A 
BRANCH  91  94
ATOM     94  S   UNL A   1      53.136  21.192  33.483  1.00  0.00     0.127 S 
ATOM     95  O   UNL A   1      53.193  20.790  32.080  1.00  0.00    -0.237 OA
ATOM     96  O   UNL A   1      54.338  20.879  34.257  1.00  0.00    -0.237 OA
ATOM     97  O   UNL A   1      51.889  20.909  34.181  1.00  0.00    -0.744 OA
ENDBRANCH  91  94
ENDBRANCH  64  87
ENDBRANCH  38  39
ENDBRANCH  31  33
ENDBRANCH  30  31
ENDBRANCH  29  30
ENDBRANCH   1  29
TORSDOF 17
ENDMDL
