MODEL 1
REMARK VINA RESULT:     -11.2      0.000      0.000
REMARK SMILES CO[C@H]1C[C@H](C(=O)OCCOC(=O)c2ccc(-c3c4nc(c(-c5cccc(S(=O)(=O)[O-])c5F)c5ccc([nH]5)c(-c5cccc(S(=O)(=O)[O-])c5F)c5nc(c(-c6cccc(S(=O)(=O)[O-])c6F)c6ccc3[nH]6)C=C5)C=C4)cc2)N(C(=O)[C@H]2C=C[C@@H]([NH3+])C2)C1
REMARK SMILES IDX 9 1 8 2 6 3 7 4 5 5 3 6 4 7 86 8 77 9 2 10 1 11 78 12 79 13
REMARK SMILES IDX 80 14 81 15 85 16 82 17 83 18 84 19 10 23 11 24 12 25 13 26
REMARK SMILES IDX 14 27 15 28 76 29 16 30 75 31 17 32 18 33 19 34 69 35 20 36
REMARK SMILES IDX 74 37 68 38 70 39 21 40 73 41 67 42 66 43 22 45 54 46 34 47
REMARK SMILES IDX 53 48 35 49 38 50 52 51 71 52 36 53 37 54 51 56 72 57 39 58
REMARK SMILES IDX 23 59 24 60 32 61 25 62 27 63 33 64 26 65 28 66 29 67 30 68
REMARK SMILES IDX 31 69 55 70 56 71 64 72 57 73 59 74 65 75 58 76 60 77 61 78
REMARK SMILES IDX 62 79 63 80 40 81 41 82 49 83 42 84 44 85 50 86 43 87 45 88
REMARK SMILES IDX 46 89 47 90 48 91
REMARK H PARENT 84 20 84 21 84 22 70 44 38 55
REMARK Flexibility Score: inf
ROOT
ATOM      1  C   UNL A   1      34.961  20.284  25.107  1.00  0.00     0.274 C 
ENDROOT
BRANCH   1   2
ATOM      2  O   UNL A   1      34.567  21.404  25.926  1.00  0.00    -0.461 OA
BRANCH   2   3
ATOM      3  C   UNL A   1      33.475  22.101  25.504  1.00  0.00     0.329 C 
ATOM      4  O   UNL A   1      32.358  21.608  25.436  1.00  0.00    -0.250 OA
BRANCH   3   5
ATOM      5  C   UNL A   1      33.814  23.548  25.063  1.00  0.00     0.197 C 
ATOM      6  C   UNL A   1      33.119  23.675  22.771  1.00  0.00     0.140 C 
ATOM      7  C   UNL A   1      34.374  23.642  23.645  1.00  0.00     0.071 C 
ATOM      8  C   UNL A   1      32.153  24.508  23.621  1.00  0.00     0.152 C 
ATOM      9  N   UNL A   1      32.634  24.417  25.000  1.00  0.00    -0.326 N 
BRANCH   6  10
ATOM     10  O   UNL A   1      33.368  24.289  21.509  1.00  0.00    -0.380 OA
ATOM     11  C   UNL A   1      32.845  25.611  21.433  1.00  0.00     0.195 C 
ENDBRANCH   6  10
BRANCH   9  12
ATOM     12  C   UNL A   1      32.024  25.182  25.967  1.00  0.00     0.230 C 
ATOM     13  O   UNL A   1      31.320  24.623  26.821  1.00  0.00    -0.274 OA
BRANCH  12  14
ATOM     14  C   UNL A   1      32.078  26.720  25.982  1.00  0.00     0.107 C 
ATOM     15  C   UNL A   1      31.241  27.468  26.967  1.00  0.00    -0.012 C 
ATOM     16  C   UNL A   1      33.479  27.282  26.253  1.00  0.00     0.087 C 
ATOM     17  C   UNL A   1      31.890  28.530  27.462  1.00  0.00     0.033 C 
ATOM     18  C   UNL A   1      33.232  28.684  26.830  1.00  0.00     0.205 C 
BRANCH  18  19
ATOM     19  N   UNL A   1      34.272  29.076  27.753  1.00  0.00    -0.352 N 
ATOM     20  H   UNL A   1      35.127  28.560  27.541  1.00  0.00     0.345 HD
ATOM     21  H   UNL A   1      33.977  28.868  28.707  1.00  0.00     0.345 HD
ATOM     22  H   UNL A   1      34.448  30.076  27.661  1.00  0.00     0.345 HD
ENDBRANCH  18  19
ENDBRANCH  12  14
ENDBRANCH   9  12
ENDBRANCH   3   5
ENDBRANCH   2   3
ENDBRANCH   1   2
BRANCH   1  23
ATOM     23  C   UNL A   1      36.468  20.314  24.844  1.00  0.00     0.275 C 
BRANCH  23  24
ATOM     24  O   UNL A   1      37.125  21.310  25.651  1.00  0.00    -0.458 OA
BRANCH  24  25
ATOM     25  C   UNL A   1      38.430  21.062  25.921  1.00  0.00     0.338 C 
ATOM     26  O   UNL A   1      39.017  20.004  25.773  1.00  0.00    -0.246 OA
BRANCH  25  27
ATOM     27  C   UNL A   1      39.125  22.319  26.259  1.00  0.00     0.060 A 
ATOM     28  C   UNL A   1      40.302  22.225  27.008  1.00  0.00     0.016 A 
ATOM     29  C   UNL A   1      38.619  23.568  25.894  1.00  0.00     0.016 A 
ATOM     30  C   UNL A   1      40.998  23.378  27.360  1.00  0.00     0.010 A 
ATOM     31  C   UNL A   1      39.311  24.727  26.267  1.00  0.00     0.010 A 
ATOM     32  C   UNL A   1      40.511  24.635  26.990  1.00  0.00    -0.014 A 
BRANCH  32  33
ATOM     33  C   UNL A   1      41.266  25.844  27.391  1.00  0.00     0.031 A 
ATOM     34  C   UNL A   1      40.612  26.887  28.245  1.00  0.00     0.074 A 
ATOM     35  C   UNL A   1      42.555  25.978  27.024  1.00  0.00     0.049 A 
ATOM     36  N   UNL A   1      41.098  28.024  28.670  1.00  0.00    -0.248 NA
ATOM     37  C   UNL A   1      39.239  26.608  28.697  1.00  0.00     0.031 C 
ATOM     38  C   UNL A   1      43.318  24.999  26.253  1.00  0.00     0.029 A 
ATOM     39  N   UNL A   1      43.444  27.000  27.243  1.00  0.00    -0.354 N 
ATOM     40  C   UNL A   1      40.083  28.613  29.414  1.00  0.00     0.074 A 
ATOM     41  C   UNL A   1      38.964  27.695  29.406  1.00  0.00     0.031 C 
ATOM     42  C   UNL A   1      44.555  25.478  26.039  1.00  0.00     0.029 A 
ATOM     43  C   UNL A   1      44.657  26.816  26.620  1.00  0.00     0.049 A 
ATOM     44  H   UNL A   1      43.235  27.790  27.794  1.00  0.00     0.167 HD
ATOM     45  C   UNL A   1      40.084  29.813  30.036  1.00  0.00     0.034 A 
ATOM     46  C   UNL A   1      45.710  27.649  26.497  1.00  0.00     0.034 A 
ATOM     47  C   UNL A   1      41.193  30.729  30.040  1.00  0.00     0.049 A 
ATOM     48  C   UNL A   1      45.644  29.014  27.135  1.00  0.00     0.074 A 
ATOM     49  C   UNL A   1      41.276  31.973  30.641  1.00  0.00     0.029 A 
ATOM     50  N   UNL A   1      42.400  30.515  29.396  1.00  0.00    -0.354 N 
ATOM     51  N   UNL A   1      44.712  29.526  27.903  1.00  0.00    -0.248 NA
ATOM     52  C   UNL A   1      46.784  29.915  26.897  1.00  0.00     0.031 C 
ATOM     53  C   UNL A   1      42.524  32.523  30.336  1.00  0.00     0.029 A 
ATOM     54  C   UNL A   1      43.227  31.611  29.565  1.00  0.00     0.049 A 
ATOM     55  H   UNL A   1      42.634  29.702  28.893  1.00  0.00     0.167 HD
ATOM     56  C   UNL A   1      45.163  30.793  28.258  1.00  0.00     0.074 A 
ATOM     57  C   UNL A   1      46.465  30.961  27.647  1.00  0.00     0.031 C 
ATOM     58  C   UNL A   1      44.544  31.744  29.000  1.00  0.00     0.034 A 
BRANCH  45  59
ATOM     59  C   UNL A   1      38.833  30.225  30.761  1.00  0.00     0.023 A 
ATOM     60  C   UNL A   1      38.698  29.951  32.134  1.00  0.00     0.012 A 
ATOM     61  C   UNL A   1      37.829  30.948  30.090  1.00  0.00     0.148 A 
ATOM     62  C   UNL A   1      37.571  30.384  32.832  1.00  0.00     0.002 A 
ATOM     63  C   UNL A   1      36.724  31.405  30.798  1.00  0.00     0.091 A 
ATOM     64  F   UNL A   1      37.973  31.172  28.777  1.00  0.00    -0.205 F 
ATOM     65  C   UNL A   1      36.591  31.120  32.167  1.00  0.00     0.022 A 
BRANCH  63  66
ATOM     66  S   UNL A   1      35.440  32.408  30.045  1.00  0.00     0.127 S 
ATOM     67  O   UNL A   1      34.997  31.544  28.951  1.00  0.00    -0.237 OA
ATOM     68  O   UNL A   1      34.479  32.549  31.139  1.00  0.00    -0.237 OA
ATOM     69  O   UNL A   1      36.084  33.648  29.636  1.00  0.00    -0.744 OA
ENDBRANCH  63  66
ENDBRANCH  45  59
BRANCH  46  70
ATOM     70  C   UNL A   1      46.916  27.239  25.723  1.00  0.00     0.023 A 
ATOM     71  C   UNL A   1      47.902  26.442  26.338  1.00  0.00     0.012 A 
ATOM     72  C   UNL A   1      47.107  27.657  24.392  1.00  0.00     0.148 A 
ATOM     73  C   UNL A   1      49.071  26.102  25.653  1.00  0.00     0.002 A 
ATOM     74  C   UNL A   1      48.244  27.265  23.696  1.00  0.00     0.091 A 
ATOM     75  F   UNL A   1      46.178  28.444  23.830  1.00  0.00    -0.205 F 
ATOM     76  C   UNL A   1      49.237  26.503  24.330  1.00  0.00     0.022 A 
BRANCH  74  77
ATOM     77  S   UNL A   1      48.459  27.636  21.952  1.00  0.00     0.127 S 
ATOM     78  O   UNL A   1      48.910  26.351  21.424  1.00  0.00    -0.237 OA
ATOM     79  O   UNL A   1      47.106  28.027  21.550  1.00  0.00    -0.237 OA
ATOM     80  O   UNL A   1      49.428  28.724  21.911  1.00  0.00    -0.744 OA
ENDBRANCH  74  77
ENDBRANCH  46  70
BRANCH  58  81
ATOM     81  C   UNL A   1      45.268  33.048  29.216  1.00  0.00     0.023 A 
ATOM     82  C   UNL A   1      46.143  33.185  30.313  1.00  0.00     0.012 A 
ATOM     83  C   UNL A   1      45.150  34.104  28.291  1.00  0.00     0.148 A 
ATOM     84  C   UNL A   1      46.866  34.361  30.502  1.00  0.00     0.002 A 
ATOM     85  C   UNL A   1      45.910  35.256  28.459  1.00  0.00     0.091 A 
ATOM     86  F   UNL A   1      44.300  33.963  27.264  1.00  0.00    -0.205 F 
ATOM     87  C   UNL A   1      46.760  35.391  29.569  1.00  0.00     0.022 A 
BRANCH  85  88
ATOM     88  S   UNL A   1      45.909  36.591  27.257  1.00  0.00     0.127 S 
ATOM     89  O   UNL A   1      46.379  35.908  26.053  1.00  0.00    -0.237 OA
ATOM     90  O   UNL A   1      44.499  36.982  27.225  1.00  0.00    -0.237 OA
ATOM     91  O   UNL A   1      46.803  37.610  27.791  1.00  0.00    -0.744 OA
ENDBRANCH  85  88
ENDBRANCH  58  81
ENDBRANCH  32  33
ENDBRANCH  25  27
ENDBRANCH  24  25
ENDBRANCH  23  24
ENDBRANCH   1  23
TORSDOF 18
ENDMDL
MODEL 2
REMARK VINA RESULT:     -11.1      5.185     10.081
REMARK SMILES CO[C@H]1C[C@H](C(=O)OCCOC(=O)c2ccc(-c3c4nc(c(-c5cccc(S(=O)(=O)[O-])c5F)c5ccc([nH]5)c(-c5cccc(S(=O)(=O)[O-])c5F)c5nc(c(-c6cccc(S(=O)(=O)[O-])c6F)c6ccc3[nH]6)C=C5)C=C4)cc2)N(C(=O)[C@H]2C=C[C@@H]([NH3+])C2)C1
REMARK SMILES IDX 9 1 8 2 6 3 7 4 5 5 3 6 4 7 86 8 77 9 2 10 1 11 78 12 79 13
REMARK SMILES IDX 80 14 81 15 85 16 82 17 83 18 84 19 10 23 11 24 12 25 13 26
REMARK SMILES IDX 14 27 15 28 76 29 16 30 75 31 17 32 18 33 19 34 69 35 20 36
REMARK SMILES IDX 74 37 68 38 70 39 21 40 73 41 67 42 66 43 22 45 54 46 34 47
REMARK SMILES IDX 53 48 35 49 38 50 52 51 71 52 36 53 37 54 51 56 72 57 39 58
REMARK SMILES IDX 23 59 24 60 32 61 25 62 27 63 33 64 26 65 28 66 29 67 30 68
REMARK SMILES IDX 31 69 55 70 56 71 64 72 57 73 59 74 65 75 58 76 60 77 61 78
REMARK SMILES IDX 62 79 63 80 40 81 41 82 49 83 42 84 44 85 50 86 43 87 45 88
REMARK SMILES IDX 46 89 47 90 48 91
REMARK H PARENT 84 20 84 21 84 22 70 44 38 55
REMARK Flexibility Score: inf
ROOT
ATOM      1  C   UNL A   1      31.254  29.370  24.398  1.00  0.00     0.274 C 
ENDROOT
BRANCH   1   2
ATOM      2  O   UNL A   1      32.401  28.551  24.095  1.00  0.00    -0.461 OA
BRANCH   2   3
ATOM      3  C   UNL A   1      32.142  27.254  23.769  1.00  0.00     0.329 C 
ATOM      4  O   UNL A   1      31.465  26.935  22.802  1.00  0.00    -0.250 OA
BRANCH   3   5
ATOM      5  C   UNL A   1      32.740  26.244  24.781  1.00  0.00     0.197 C 
ATOM      6  C   UNL A   1      30.855  25.017  25.615  1.00  0.00     0.140 C 
ATOM      7  C   UNL A   1      31.890  26.061  26.038  1.00  0.00     0.071 C 
ATOM      8  C   UNL A   1      31.676  24.094  24.708  1.00  0.00     0.152 C 
ATOM      9  N   UNL A   1      32.821  24.880  24.248  1.00  0.00    -0.326 N 
BRANCH   6  10
ATOM     10  O   UNL A   1      30.324  24.313  26.736  1.00  0.00    -0.380 OA
ATOM     11  C   UNL A   1      30.675  22.934  26.729  1.00  0.00     0.195 C 
ENDBRANCH   6  10
BRANCH   9  12
ATOM     12  C   UNL A   1      33.803  24.255  23.515  1.00  0.00     0.230 C 
ATOM     13  O   UNL A   1      33.854  24.448  22.291  1.00  0.00    -0.274 OA
BRANCH  12  14
ATOM     14  C   UNL A   1      34.782  23.233  24.118  1.00  0.00     0.107 C 
ATOM     15  C   UNL A   1      36.055  22.932  23.398  1.00  0.00    -0.012 C 
ATOM     16  C   UNL A   1      35.282  23.614  25.517  1.00  0.00     0.087 C 
ATOM     17  C   UNL A   1      37.079  22.775  24.248  1.00  0.00     0.033 C 
ATOM     18  C   UNL A   1      36.625  22.883  25.664  1.00  0.00     0.205 C 
BRANCH  18  19
ATOM     19  N   UNL A   1      37.540  23.605  26.518  1.00  0.00    -0.352 N 
ATOM     20  H   UNL A   1      38.008  22.951  27.145  1.00  0.00     0.345 HD
ATOM     21  H   UNL A   1      37.023  24.292  27.067  1.00  0.00     0.345 HD
ATOM     22  H   UNL A   1      38.235  24.082  25.944  1.00  0.00     0.345 HD
ENDBRANCH  18  19
ENDBRANCH  12  14
ENDBRANCH   9  12
ENDBRANCH   3   5
ENDBRANCH   2   3
ENDBRANCH   1   2
BRANCH   1  23
ATOM     23  C   UNL A   1      31.485  30.161  25.688  1.00  0.00     0.275 C 
BRANCH  23  24
ATOM     24  O   UNL A   1      32.880  30.466  25.878  1.00  0.00    -0.458 OA
BRANCH  24  25
ATOM     25  C   UNL A   1      33.142  31.391  26.834  1.00  0.00     0.338 C 
ATOM     26  O   UNL A   1      32.434  32.330  27.153  1.00  0.00    -0.246 OA
BRANCH  25  27
ATOM     27  C   UNL A   1      34.348  31.007  27.592  1.00  0.00     0.060 A 
ATOM     28  C   UNL A   1      35.264  32.017  27.902  1.00  0.00     0.016 A 
ATOM     29  C   UNL A   1      34.605  29.685  27.956  1.00  0.00     0.016 A 
ATOM     30  C   UNL A   1      36.423  31.713  28.612  1.00  0.00     0.010 A 
ATOM     31  C   UNL A   1      35.782  29.379  28.654  1.00  0.00     0.010 A 
ATOM     32  C   UNL A   1      36.688  30.396  28.996  1.00  0.00    -0.014 A 
BRANCH  32  33
ATOM     33  C   UNL A   1      37.935  30.101  29.739  1.00  0.00     0.031 A 
ATOM     34  C   UNL A   1      38.967  29.195  29.140  1.00  0.00     0.074 A 
ATOM     35  C   UNL A   1      38.156  30.688  30.930  1.00  0.00     0.049 A 
ATOM     36  N   UNL A   1      40.103  28.795  29.649  1.00  0.00    -0.248 NA
ATOM     37  C   UNL A   1      38.697  28.688  27.785  1.00  0.00     0.031 C 
ATOM     38  C   UNL A   1      37.257  31.640  31.581  1.00  0.00     0.029 A 
ATOM     39  N   UNL A   1      39.202  30.558  31.809  1.00  0.00    -0.354 N 
ATOM     40  C   UNL A   1      40.672  27.964  28.693  1.00  0.00     0.074 A 
ATOM     41  C   UNL A   1      39.770  27.939  27.561  1.00  0.00     0.031 C 
ATOM     42  C   UNL A   1      37.777  31.989  32.770  1.00  0.00     0.029 A 
ATOM     43  C   UNL A   1      39.022  31.253  32.983  1.00  0.00     0.049 A 
ATOM     44  H   UNL A   1      40.004  30.020  31.619  1.00  0.00     0.167 HD
ATOM     45  C   UNL A   1      41.835  27.277  28.759  1.00  0.00     0.034 A 
ATOM     46  C   UNL A   1      39.756  31.259  34.114  1.00  0.00     0.034 A 
ATOM     47  C   UNL A   1      42.729  27.295  29.885  1.00  0.00     0.049 A 
ATOM     48  C   UNL A   1      41.004  30.416  34.184  1.00  0.00     0.074 A 
ATOM     49  C   UNL A   1      43.929  26.621  30.039  1.00  0.00     0.029 A 
ATOM     50  N   UNL A   1      42.515  28.002  31.056  1.00  0.00    -0.354 N 
ATOM     51  N   UNL A   1      41.573  29.700  33.244  1.00  0.00    -0.248 NA
ATOM     52  C   UNL A   1      41.720  30.392  35.470  1.00  0.00     0.031 C 
ATOM     53  C   UNL A   1      44.425  26.899  31.316  1.00  0.00     0.029 A 
ATOM     54  C   UNL A   1      43.546  27.764  31.947  1.00  0.00     0.049 A 
ATOM     55  H   UNL A   1      41.742  28.587  31.229  1.00  0.00     0.167 HD
ATOM     56  C   UNL A   1      42.721  29.162  33.817  1.00  0.00     0.074 A 
ATOM     57  C   UNL A   1      42.785  29.659  35.175  1.00  0.00     0.031 C 
ATOM     58  C   UNL A   1      43.628  28.310  33.277  1.00  0.00     0.034 A 
BRANCH  45  59
ATOM     59  C   UNL A   1      42.210  26.424  27.580  1.00  0.00     0.023 A 
ATOM     60  C   UNL A   1      43.011  26.961  26.555  1.00  0.00     0.012 A 
ATOM     61  C   UNL A   1      41.828  25.070  27.532  1.00  0.00     0.148 A 
ATOM     62  C   UNL A   1      43.419  26.161  25.488  1.00  0.00     0.002 A 
ATOM     63  C   UNL A   1      42.265  24.271  26.484  1.00  0.00     0.091 A 
ATOM     64  F   UNL A   1      41.044  24.593  28.510  1.00  0.00    -0.205 F 
ATOM     65  C   UNL A   1      43.056  24.815  25.458  1.00  0.00     0.022 A 
BRANCH  63  66
ATOM     66  S   UNL A   1      41.899  22.516  26.387  1.00  0.00     0.127 S 
ATOM     67  O   UNL A   1      40.442  22.526  26.263  1.00  0.00    -0.237 OA
ATOM     68  O   UNL A   1      42.614  22.119  25.174  1.00  0.00    -0.237 OA
ATOM     69  O   UNL A   1      42.414  21.928  27.616  1.00  0.00    -0.744 OA
ENDBRANCH  63  66
ENDBRANCH  45  59
BRANCH  46  70
ATOM     70  C   UNL A   1      39.329  32.069  35.292  1.00  0.00     0.023 A 
ATOM     71  C   UNL A   1      38.429  31.522  36.225  1.00  0.00     0.012 A 
ATOM     72  C   UNL A   1      39.787  33.388  35.475  1.00  0.00     0.148 A 
ATOM     73  C   UNL A   1      37.965  32.286  37.299  1.00  0.00     0.002 A 
ATOM     74  C   UNL A   1      39.369  34.122  36.578  1.00  0.00     0.091 A 
ATOM     75  F   UNL A   1      40.617  33.910  34.559  1.00  0.00    -0.205 F 
ATOM     76  C   UNL A   1      38.442  33.582  37.481  1.00  0.00     0.022 A 
BRANCH  74  77
ATOM     77  S   UNL A   1      40.045  35.746  36.943  1.00  0.00     0.127 S 
ATOM     78  O   UNL A   1      39.382  36.071  38.203  1.00  0.00    -0.237 OA
ATOM     79  O   UNL A   1      41.478  35.467  37.055  1.00  0.00    -0.237 OA
ATOM     80  O   UNL A   1      39.689  36.573  35.798  1.00  0.00    -0.744 OA
ENDBRANCH  74  77
ENDBRANCH  46  70
BRANCH  58  81
ATOM     81  C   UNL A   1      44.782  27.873  34.141  1.00  0.00     0.023 A 
ATOM     82  C   UNL A   1      45.944  28.667  34.206  1.00  0.00     0.012 A 
ATOM     83  C   UNL A   1      44.685  26.725  34.952  1.00  0.00     0.148 A 
ATOM     84  C   UNL A   1      47.002  28.313  35.041  1.00  0.00     0.002 A 
ATOM     85  C   UNL A   1      45.724  26.403  35.818  1.00  0.00     0.091 A 
ATOM     86  F   UNL A   1      43.579  25.971  34.864  1.00  0.00    -0.205 F 
ATOM     87  C   UNL A   1      46.887  27.189  35.856  1.00  0.00     0.022 A 
BRANCH  85  88
ATOM     88  S   UNL A   1      45.621  25.030  36.973  1.00  0.00     0.127 S 
ATOM     89  O   UNL A   1      45.941  23.892  36.113  1.00  0.00    -0.237 OA
ATOM     90  O   UNL A   1      46.658  25.365  37.950  1.00  0.00    -0.237 OA
ATOM     91  O   UNL A   1      44.265  25.055  37.504  1.00  0.00    -0.744 OA
ENDBRANCH  85  88
ENDBRANCH  58  81
ENDBRANCH  32  33
ENDBRANCH  25  27
ENDBRANCH  24  25
ENDBRANCH  23  24
ENDBRANCH   1  23
TORSDOF 18
ENDMDL
MODEL 3
REMARK VINA RESULT:     -11.0      1.518      7.778
REMARK SMILES CO[C@H]1C[C@H](C(=O)OCCOC(=O)c2ccc(-c3c4nc(c(-c5cccc(S(=O)(=O)[O-])c5F)c5ccc([nH]5)c(-c5cccc(S(=O)(=O)[O-])c5F)c5nc(c(-c6cccc(S(=O)(=O)[O-])c6F)c6ccc3[nH]6)C=C5)C=C4)cc2)N(C(=O)[C@H]2C=C[C@@H]([NH3+])C2)C1
REMARK SMILES IDX 9 1 8 2 6 3 7 4 5 5 3 6 4 7 86 8 77 9 2 10 1 11 78 12 79 13
REMARK SMILES IDX 80 14 81 15 85 16 82 17 83 18 84 19 10 23 11 24 12 25 13 26
REMARK SMILES IDX 14 27 15 28 76 29 16 30 75 31 17 32 18 33 19 34 69 35 20 36
REMARK SMILES IDX 74 37 68 38 70 39 21 40 73 41 67 42 66 43 22 45 54 46 34 47
REMARK SMILES IDX 53 48 35 49 38 50 52 51 71 52 36 53 37 54 51 56 72 57 39 58
REMARK SMILES IDX 23 59 24 60 32 61 25 62 27 63 33 64 26 65 28 66 29 67 30 68
REMARK SMILES IDX 31 69 55 70 56 71 64 72 57 73 59 74 65 75 58 76 60 77 61 78
REMARK SMILES IDX 62 79 63 80 40 81 41 82 49 83 42 84 44 85 50 86 43 87 45 88
REMARK SMILES IDX 46 89 47 90 48 91
REMARK H PARENT 84 20 84 21 84 22 70 44 38 55
REMARK Flexibility Score: inf
ROOT
ATOM      1  C   UNL A   1      35.101  20.540  24.932  1.00  0.00     0.274 C 
ENDROOT
BRANCH   1   2
ATOM      2  O   UNL A   1      34.776  21.585  25.871  1.00  0.00    -0.461 OA
BRANCH   2   3
ATOM      3  C   UNL A   1      33.647  22.301  25.605  1.00  0.00     0.329 C 
ATOM      4  O   UNL A   1      32.523  21.829  25.703  1.00  0.00    -0.250 OA
BRANCH   3   5
ATOM      5  C   UNL A   1      33.945  23.738  25.108  1.00  0.00     0.197 C 
ATOM      6  C   UNL A   1      33.170  23.782  22.839  1.00  0.00     0.140 C 
ATOM      7  C   UNL A   1      34.454  23.797  23.669  1.00  0.00     0.071 C 
ATOM      8  C   UNL A   1      32.219  24.625  23.696  1.00  0.00     0.152 C 
ATOM      9  N   UNL A   1      32.749  24.586  25.060  1.00  0.00    -0.326 N 
BRANCH   6  10
ATOM     10  O   UNL A   1      33.364  24.360  21.550  1.00  0.00    -0.380 OA
ATOM     11  C   UNL A   1      32.868  25.691  21.470  1.00  0.00     0.195 C 
ENDBRANCH   6  10
BRANCH   9  12
ATOM     12  C   UNL A   1      32.160  25.371  26.023  1.00  0.00     0.230 C 
ATOM     13  O   UNL A   1      31.463  24.831  26.895  1.00  0.00    -0.274 OA
BRANCH  12  14
ATOM     14  C   UNL A   1      32.228  26.909  26.014  1.00  0.00     0.107 C 
ATOM     15  C   UNL A   1      31.377  27.681  26.967  1.00  0.00    -0.012 C 
ATOM     16  C   UNL A   1      33.629  27.461  26.308  1.00  0.00     0.087 C 
ATOM     17  C   UNL A   1      32.025  28.744  27.460  1.00  0.00     0.033 C 
ATOM     18  C   UNL A   1      33.382  28.875  26.856  1.00  0.00     0.205 C 
BRANCH  18  19
ATOM     19  N   UNL A   1      34.405  29.272  27.796  1.00  0.00    -0.352 N 
ATOM     20  H   UNL A   1      35.265  29.486  27.292  1.00  0.00     0.345 HD
ATOM     21  H   UNL A   1      34.576  28.513  28.455  1.00  0.00     0.345 HD
ATOM     22  H   UNL A   1      34.095  30.100  28.305  1.00  0.00     0.345 HD
ENDBRANCH  18  19
ENDBRANCH  12  14
ENDBRANCH   9  12
ENDBRANCH   3   5
ENDBRANCH   2   3
ENDBRANCH   1   2
BRANCH   1  23
ATOM     23  C   UNL A   1      36.603  20.251  24.949  1.00  0.00     0.275 C 
BRANCH  23  24
ATOM     24  O   UNL A   1      37.350  21.366  25.473  1.00  0.00    -0.458 OA
BRANCH  24  25
ATOM     25  C   UNL A   1      38.617  21.079  25.859  1.00  0.00     0.338 C 
ATOM     26  O   UNL A   1      39.191  20.010  25.742  1.00  0.00    -0.246 OA
BRANCH  25  27
ATOM     27  C   UNL A   1      39.306  22.311  26.289  1.00  0.00     0.060 A 
ATOM     28  C   UNL A   1      38.667  23.530  26.036  1.00  0.00     0.016 A 
ATOM     29  C   UNL A   1      40.567  22.286  26.886  1.00  0.00     0.016 A 
ATOM     30  C   UNL A   1      39.272  24.725  26.415  1.00  0.00     0.010 A 
ATOM     31  C   UNL A   1      41.181  23.492  27.249  1.00  0.00     0.010 A 
ATOM     32  C   UNL A   1      40.529  24.715  27.028  1.00  0.00    -0.014 A 
BRANCH  32  33
ATOM     33  C   UNL A   1      41.152  26.003  27.408  1.00  0.00     0.031 A 
ATOM     34  C   UNL A   1      42.571  26.292  27.020  1.00  0.00     0.074 A 
ATOM     35  C   UNL A   1      40.425  26.930  28.060  1.00  0.00     0.049 A 
ATOM     36  N   UNL A   1      43.297  27.346  27.288  1.00  0.00    -0.248 NA
ATOM     37  C   UNL A   1      43.256  25.274  26.209  1.00  0.00     0.031 C 
ATOM     38  C   UNL A   1      39.017  26.790  28.429  1.00  0.00     0.029 A 
ATOM     39  N   UNL A   1      40.776  28.167  28.538  1.00  0.00    -0.354 N 
ATOM     40  C   UNL A   1      44.535  27.107  26.708  1.00  0.00     0.074 A 
ATOM     41  C   UNL A   1      44.454  25.821  26.047  1.00  0.00     0.031 C 
ATOM     42  C   UNL A   1      38.630  27.888  29.101  1.00  0.00     0.029 A 
ATOM     43  C   UNL A   1      39.773  28.788  29.246  1.00  0.00     0.049 A 
ATOM     44  H   UNL A   1      41.661  28.573  28.388  1.00  0.00     0.167 HD
ATOM     45  C   UNL A   1      45.641  27.886  26.732  1.00  0.00     0.034 A 
ATOM     46  C   UNL A   1      39.790  29.929  29.964  1.00  0.00     0.034 A 
ATOM     47  C   UNL A   1      45.726  29.161  27.393  1.00  0.00     0.049 A 
ATOM     48  C   UNL A   1      41.064  30.731  30.039  1.00  0.00     0.074 A 
ATOM     49  C   UNL A   1      46.812  30.014  27.473  1.00  0.00     0.029 A 
ATOM     50  N   UNL A   1      44.697  29.755  28.103  1.00  0.00    -0.354 N 
ATOM     51  N   UNL A   1      42.203  30.536  29.419  1.00  0.00    -0.248 NA
ATOM     52  C   UNL A   1      41.052  31.920  30.906  1.00  0.00     0.031 C 
ATOM     53  C   UNL A   1      46.448  31.112  28.258  1.00  0.00     0.029 A 
ATOM     54  C   UNL A   1      45.127  30.953  28.645  1.00  0.00     0.049 A 
ATOM     55  H   UNL A   1      43.792  29.380  28.207  1.00  0.00     0.167 HD
ATOM     56  C   UNL A   1      43.031  31.587  29.800  1.00  0.00     0.074 A 
ATOM     57  C   UNL A   1      42.254  32.434  30.681  1.00  0.00     0.031 C 
ATOM     58  C   UNL A   1      44.327  31.817  29.474  1.00  0.00     0.034 A 
BRANCH  45  59
ATOM     59  C   UNL A   1      46.870  27.375  26.035  1.00  0.00     0.023 A 
ATOM     60  C   UNL A   1      47.054  27.632  24.663  1.00  0.00     0.012 A 
ATOM     61  C   UNL A   1      47.873  26.706  26.761  1.00  0.00     0.148 A 
ATOM     62  C   UNL A   1      48.220  27.220  24.019  1.00  0.00     0.002 A 
ATOM     63  C   UNL A   1      49.046  26.327  26.120  1.00  0.00     0.091 A 
ATOM     64  F   UNL A   1      47.659  26.453  28.059  1.00  0.00    -0.205 F 
ATOM     65  C   UNL A   1      49.219  26.578  24.749  1.00  0.00     0.022 A 
BRANCH  63  66
ATOM     66  S   UNL A   1      50.413  25.548  26.986  1.00  0.00     0.127 S 
ATOM     67  O   UNL A   1      50.740  26.561  27.989  1.00  0.00    -0.237 OA
ATOM     68  O   UNL A   1      49.788  24.338  27.520  1.00  0.00    -0.237 OA
ATOM     69  O   UNL A   1      51.443  25.312  25.984  1.00  0.00    -0.744 OA
ENDBRANCH  63  66
ENDBRANCH  45  59
BRANCH  46  70
ATOM     70  C   UNL A   1      38.572  30.383  30.696  1.00  0.00     0.023 A 
ATOM     71  C   UNL A   1      38.395  30.024  32.046  1.00  0.00     0.012 A 
ATOM     72  C   UNL A   1      37.575  31.143  30.054  1.00  0.00     0.148 A 
ATOM     73  C   UNL A   1      37.232  30.382  32.731  1.00  0.00     0.002 A 
ATOM     74  C   UNL A   1      36.448  31.547  30.758  1.00  0.00     0.091 A 
ATOM     75  F   UNL A   1      37.740  31.448  28.758  1.00  0.00    -0.205 F 
ATOM     76  C   UNL A   1      36.263  31.152  32.092  1.00  0.00     0.022 A 
BRANCH  74  77
ATOM     77  S   UNL A   1      35.228  32.649  30.035  1.00  0.00     0.127 S 
ATOM     78  O   UNL A   1      34.293  32.830  31.142  1.00  0.00    -0.237 OA
ATOM     79  O   UNL A   1      36.031  33.828  29.707  1.00  0.00    -0.237 OA
ATOM     80  O   UNL A   1      34.715  31.938  28.871  1.00  0.00    -0.744 OA
ENDBRANCH  74  77
ENDBRANCH  46  70
BRANCH  58  81
ATOM     81  C   UNL A   1      44.990  33.041  30.050  1.00  0.00     0.023 A 
ATOM     82  C   UNL A   1      45.711  32.939  31.256  1.00  0.00     0.012 A 
ATOM     83  C   UNL A   1      44.970  34.268  29.359  1.00  0.00     0.148 A 
ATOM     84  C   UNL A   1      46.379  34.045  31.780  1.00  0.00     0.002 A 
ATOM     85  C   UNL A   1      45.678  35.354  29.862  1.00  0.00     0.091 A 
ATOM     86  F   UNL A   1      44.264  34.351  28.222  1.00  0.00    -0.205 F 
ATOM     87  C   UNL A   1      46.373  35.248  31.077  1.00  0.00     0.022 A 
BRANCH  85  88
ATOM     88  S   UNL A   1      45.805  36.912  28.975  1.00  0.00     0.127 S 
ATOM     89  O   UNL A   1      46.348  37.797  30.004  1.00  0.00    -0.237 OA
ATOM     90  O   UNL A   1      46.741  36.583  27.899  1.00  0.00    -0.237 OA
ATOM     91  O   UNL A   1      44.456  37.225  28.523  1.00  0.00    -0.744 OA
ENDBRANCH  85  88
ENDBRANCH  58  81
ENDBRANCH  32  33
ENDBRANCH  25  27
ENDBRANCH  24  25
ENDBRANCH  23  24
ENDBRANCH   1  23
TORSDOF 18
ENDMDL
