MODEL 1
REMARK VINA RESULT:     -11.1      0.000      0.000
REMARK SMILES Cc1nc(C)n(CC[C@H]2CCC[C@@]2([NH2+]C(C)C)C(=O)OCCOC(=O)c2ccc(-c3c4nc(c(-c5cccc(S(=O)(=O)[O-])c5F)c5ccc([nH]5)c(-c5cccc(S(=O)(=O)[O-])c5F)c5nc(c(-c6cccc(S(=O)(=O)[O-])c6F)c6ccc3[nH]6)C=C5)C=C4)cc2)n1
REMARK SMILES IDX 21 1 20 2 18 3 19 4 13 5 9 6 10 7 11 8 12 9 8 10 7 11 6 12
REMARK SMILES IDX 1 13 2 14 3 15 89 16 4 17 5 18 14 19 15 22 16 23 17 24 22 25
REMARK SMILES IDX 23 26 24 27 25 28 26 29 27 30 88 31 28 32 87 33 29 34 30 35
REMARK SMILES IDX 31 36 81 37 32 38 86 39 80 40 82 41 33 42 85 43 79 44 78 45
REMARK SMILES IDX 34 47 66 48 46 49 65 50 47 51 50 52 64 53 83 54 48 55 49 56
REMARK SMILES IDX 63 58 84 59 51 60 35 61 36 62 44 63 37 64 39 65 45 66 38 67
REMARK SMILES IDX 40 68 41 69 42 70 43 71 67 72 68 73 76 74 69 75 71 76 77 77
REMARK SMILES IDX 70 78 72 79 73 80 74 81 75 82 52 83 53 84 61 85 54 86 56 87
REMARK SMILES IDX 62 88 55 89 57 90 58 91 59 92 60 93
REMARK H PARENT 14 20 14 21 82 46 50 57
REMARK Flexibility Score: inf
ROOT
ATOM      1  C   UNL A   1      37.627  22.229  24.772  1.00  0.00     0.274 C 
ENDROOT
BRANCH   1   2
ATOM      2  O   UNL A   1      36.263  22.536  25.123  1.00  0.00    -0.457 OA
BRANCH   2   3
ATOM      3  C   UNL A   1      35.337  22.693  24.121  1.00  0.00     0.368 C 
ATOM      4  O   UNL A   1      35.554  23.243  23.043  1.00  0.00    -0.245 OA
BRANCH   3   5
ATOM      5  C   UNL A   1      33.926  22.347  24.662  1.00  0.00     0.197 C 
ATOM      6  C   UNL A   1      33.320  23.370  25.692  1.00  0.00     0.064 C 
ATOM      7  C   UNL A   1      31.835  22.977  25.691  1.00  0.00     0.011 C 
ATOM      8  C   UNL A   1      31.511  22.699  24.233  1.00  0.00     0.008 C 
ATOM      9  C   UNL A   1      32.840  22.346  23.560  1.00  0.00     0.081 C 
BRANCH   6  10
ATOM     10  C   UNL A   1      33.533  24.868  25.391  1.00  0.00     0.034 C 
BRANCH  10  11
ATOM     11  C   UNL A   1      32.578  25.901  26.032  1.00  0.00     0.147 C 
BRANCH  11  12
ATOM     12  N   UNL A   1      32.476  27.242  25.482  1.00  0.00    -0.250 N 
ATOM     13  C   UNL A   1      30.411  29.602  23.852  1.00  0.00     0.092 C 
ATOM     14  C   UNL A   1      31.433  28.827  24.582  1.00  0.00     0.147 A 
ATOM     15  N   UNL A   1      32.422  29.433  25.295  1.00  0.00    -0.217 NA
ATOM     16  N   UNL A   1      31.438  27.495  24.648  1.00  0.00    -0.156 NA
ATOM     17  C   UNL A   1      33.058  28.430  25.867  1.00  0.00     0.124 A 
ATOM     18  C   UNL A   1      34.190  28.612  26.792  1.00  0.00     0.089 C 
ENDBRANCH  11  12
ENDBRANCH  10  11
ENDBRANCH   6  10
BRANCH   5  19
ATOM     19  N   UNL A   1      33.959  21.023  25.389  1.00  0.00    -0.330 N 
ATOM     20  H   UNL A   1      33.282  21.076  26.149  1.00  0.00     0.347 HD
ATOM     21  H   UNL A   1      34.931  20.911  25.675  1.00  0.00     0.347 HD
BRANCH  19  22
ATOM     22  C   UNL A   1      33.657  19.813  24.617  1.00  0.00     0.176 C 
ATOM     23  C   UNL A   1      34.906  18.933  24.611  1.00  0.00     0.075 C 
ATOM     24  C   UNL A   1      32.473  19.038  25.191  1.00  0.00     0.075 C 
ENDBRANCH  19  22
ENDBRANCH   5  19
ENDBRANCH   3   5
ENDBRANCH   2   3
ENDBRANCH   1   2
BRANCH   1  25
ATOM     25  C   UNL A   1      37.992  20.779  25.046  1.00  0.00     0.275 C 
BRANCH  25  26
ATOM     26  O   UNL A   1      38.897  20.715  26.142  1.00  0.00    -0.458 OA
BRANCH  26  27
ATOM     27  C   UNL A   1      39.872  19.807  25.942  1.00  0.00     0.338 C 
ATOM     28  O   UNL A   1      39.765  18.664  25.521  1.00  0.00    -0.246 OA
BRANCH  27  29
ATOM     29  C   UNL A   1      41.120  20.303  26.506  1.00  0.00     0.060 A 
ATOM     30  C   UNL A   1      41.010  20.687  27.843  1.00  0.00     0.016 A 
ATOM     31  C   UNL A   1      41.875  21.015  25.575  1.00  0.00     0.016 A 
ATOM     32  C   UNL A   1      41.323  21.979  28.167  1.00  0.00     0.010 A 
ATOM     33  C   UNL A   1      42.241  22.289  25.913  1.00  0.00     0.010 A 
ATOM     34  C   UNL A   1      41.865  22.788  27.169  1.00  0.00    -0.014 A 
BRANCH  34  35
ATOM     35  C   UNL A   1      42.289  24.121  27.544  1.00  0.00     0.031 A 
ATOM     36  C   UNL A   1      41.155  25.087  27.549  1.00  0.00     0.074 A 
ATOM     37  C   UNL A   1      43.510  24.313  28.080  1.00  0.00     0.049 A 
ATOM     38  N   UNL A   1      41.115  26.301  27.107  1.00  0.00    -0.248 NA
ATOM     39  C   UNL A   1      39.838  24.563  27.978  1.00  0.00     0.031 C 
ATOM     40  C   UNL A   1      44.525  23.283  28.345  1.00  0.00     0.029 A 
ATOM     41  N   UNL A   1      43.989  25.403  28.740  1.00  0.00    -0.354 N 
ATOM     42  C   UNL A   1      39.829  26.746  27.416  1.00  0.00     0.074 A 
ATOM     43  C   UNL A   1      39.039  25.595  27.738  1.00  0.00     0.031 C 
ATOM     44  C   UNL A   1      45.305  23.701  29.363  1.00  0.00     0.029 A 
ATOM     45  C   UNL A   1      44.900  25.047  29.732  1.00  0.00     0.049 A 
ATOM     46  H   UNL A   1      43.724  26.331  28.541  1.00  0.00     0.167 HD
ATOM     47  C   UNL A   1      39.571  28.050  27.689  1.00  0.00     0.034 A 
ATOM     48  C   UNL A   1      45.177  25.743  30.860  1.00  0.00     0.034 A 
ATOM     49  C   UNL A   1      40.558  28.924  27.126  1.00  0.00     0.049 A 
ATOM     50  C   UNL A   1      44.642  27.113  30.689  1.00  0.00     0.074 A 
ATOM     51  C   UNL A   1      41.041  29.144  25.851  1.00  0.00     0.029 A 
ATOM     52  N   UNL A   1      41.465  29.492  27.985  1.00  0.00    -0.354 N 
ATOM     53  N   UNL A   1      45.108  27.983  29.836  1.00  0.00    -0.248 NA
ATOM     54  C   UNL A   1      43.314  27.402  31.209  1.00  0.00     0.031 C 
ATOM     55  C   UNL A   1      42.424  29.436  26.026  1.00  0.00     0.029 A 
ATOM     56  C   UNL A   1      42.697  29.402  27.396  1.00  0.00     0.049 A 
ATOM     57  H   UNL A   1      41.265  29.892  28.862  1.00  0.00     0.167 HD
ATOM     58  C   UNL A   1      43.989  28.674  29.392  1.00  0.00     0.074 A 
ATOM     59  C   UNL A   1      42.944  28.369  30.366  1.00  0.00     0.031 C 
ATOM     60  C   UNL A   1      43.928  29.182  28.124  1.00  0.00     0.034 A 
BRANCH  47  61
ATOM     61  C   UNL A   1      38.633  28.481  28.791  1.00  0.00     0.023 A 
ATOM     62  C   UNL A   1      37.635  29.420  28.458  1.00  0.00     0.012 A 
ATOM     63  C   UNL A   1      38.844  28.230  30.169  1.00  0.00     0.148 A 
ATOM     64  C   UNL A   1      36.919  30.104  29.445  1.00  0.00     0.002 A 
ATOM     65  C   UNL A   1      38.065  28.844  31.142  1.00  0.00     0.091 A 
ATOM     66  F   UNL A   1      39.892  27.507  30.576  1.00  0.00    -0.205 F 
ATOM     67  C   UNL A   1      37.124  29.808  30.787  1.00  0.00     0.022 A 
BRANCH  65  68
ATOM     68  S   UNL A   1      38.264  28.425  32.878  1.00  0.00     0.127 S 
ATOM     69  O   UNL A   1      39.490  29.141  33.215  1.00  0.00    -0.237 OA
ATOM     70  O   UNL A   1      37.042  28.975  33.467  1.00  0.00    -0.237 OA
ATOM     71  O   UNL A   1      38.331  26.968  32.910  1.00  0.00    -0.744 OA
ENDBRANCH  65  68
ENDBRANCH  47  61
BRANCH  48  72
ATOM     72  C   UNL A   1      45.635  25.236  32.175  1.00  0.00     0.023 A 
ATOM     73  C   UNL A   1      46.771  25.812  32.774  1.00  0.00     0.012 A 
ATOM     74  C   UNL A   1      44.860  24.337  32.946  1.00  0.00     0.148 A 
ATOM     75  C   UNL A   1      47.120  25.513  34.096  1.00  0.00     0.002 A 
ATOM     76  C   UNL A   1      45.228  24.019  34.251  1.00  0.00     0.091 A 
ATOM     77  F   UNL A   1      43.715  23.863  32.438  1.00  0.00    -0.205 F 
ATOM     78  C   UNL A   1      46.353  24.615  34.834  1.00  0.00     0.022 A 
BRANCH  76  79
ATOM     79  S   UNL A   1      44.297  22.842  35.243  1.00  0.00     0.127 S 
ATOM     80  O   UNL A   1      44.507  21.590  34.515  1.00  0.00    -0.237 OA
ATOM     81  O   UNL A   1      44.979  22.922  36.532  1.00  0.00    -0.237 OA
ATOM     82  O   UNL A   1      42.919  23.316  35.220  1.00  0.00    -0.744 OA
ENDBRANCH  76  79
ENDBRANCH  48  72
BRANCH  60  83
ATOM     83  C   UNL A   1      45.193  29.213  27.302  1.00  0.00     0.023 A 
ATOM     84  C   UNL A   1      46.169  30.215  27.482  1.00  0.00     0.012 A 
ATOM     85  C   UNL A   1      45.500  28.110  26.487  1.00  0.00     0.148 A 
ATOM     86  C   UNL A   1      47.408  30.136  26.844  1.00  0.00     0.002 A 
ATOM     87  C   UNL A   1      46.753  28.009  25.894  1.00  0.00     0.091 A 
ATOM     88  F   UNL A   1      44.569  27.155  26.330  1.00  0.00    -0.205 F 
ATOM     89  C   UNL A   1      47.706  29.025  26.061  1.00  0.00     0.022 A 
BRANCH  87  90
ATOM     90  S   UNL A   1      47.242  26.534  24.995  1.00  0.00     0.127 S 
ATOM     91  O   UNL A   1      48.110  25.860  25.958  1.00  0.00    -0.237 OA
ATOM     92  O   UNL A   1      45.961  25.864  24.755  1.00  0.00    -0.237 OA
ATOM     93  O   UNL A   1      47.893  27.011  23.780  1.00  0.00    -0.744 OA
ENDBRANCH  87  90
ENDBRANCH  60  83
ENDBRANCH  34  35
ENDBRANCH  27  29
ENDBRANCH  26  27
ENDBRANCH  25  26
ENDBRANCH   1  25
TORSDOF 19
ENDMDL
MODEL 2
REMARK VINA RESULT:     -10.9      1.479      2.035
REMARK SMILES Cc1nc(C)n(CC[C@H]2CCC[C@@]2([NH2+]C(C)C)C(=O)OCCOC(=O)c2ccc(-c3c4nc(c(-c5cccc(S(=O)(=O)[O-])c5F)c5ccc([nH]5)c(-c5cccc(S(=O)(=O)[O-])c5F)c5nc(c(-c6cccc(S(=O)(=O)[O-])c6F)c6ccc3[nH]6)C=C5)C=C4)cc2)n1
REMARK SMILES IDX 21 1 20 2 18 3 19 4 13 5 9 6 10 7 11 8 12 9 8 10 7 11 6 12
REMARK SMILES IDX 1 13 2 14 3 15 89 16 4 17 5 18 14 19 15 22 16 23 17 24 22 25
REMARK SMILES IDX 23 26 24 27 25 28 26 29 27 30 88 31 28 32 87 33 29 34 30 35
REMARK SMILES IDX 31 36 81 37 32 38 86 39 80 40 82 41 33 42 85 43 79 44 78 45
REMARK SMILES IDX 34 47 66 48 46 49 65 50 47 51 50 52 64 53 83 54 48 55 49 56
REMARK SMILES IDX 63 58 84 59 51 60 35 61 36 62 44 63 37 64 39 65 45 66 38 67
REMARK SMILES IDX 40 68 41 69 42 70 43 71 67 72 68 73 76 74 69 75 71 76 77 77
REMARK SMILES IDX 70 78 72 79 73 80 74 81 75 82 52 83 53 84 61 85 54 86 56 87
REMARK SMILES IDX 62 88 55 89 57 90 58 91 59 92 60 93
REMARK H PARENT 14 20 14 21 82 46 50 57
REMARK Flexibility Score: inf
ROOT
ATOM      1  C   UNL A   1      37.146  22.394  25.653  1.00  0.00     0.274 C 
ENDROOT
BRANCH   1   2
ATOM      2  O   UNL A   1      35.987  22.596  24.820  1.00  0.00    -0.457 OA
BRANCH   2   3
ATOM      3  C   UNL A   1      34.873  23.189  25.363  1.00  0.00     0.368 C 
ATOM      4  O   UNL A   1      34.723  23.443  26.557  1.00  0.00    -0.245 OA
BRANCH   3   5
ATOM      5  C   UNL A   1      33.735  23.214  24.311  1.00  0.00     0.197 C 
ATOM      6  C   UNL A   1      32.871  24.527  24.270  1.00  0.00     0.064 C 
ATOM      7  C   UNL A   1      32.163  24.397  22.912  1.00  0.00     0.011 C 
ATOM      8  C   UNL A   1      33.228  23.858  21.972  1.00  0.00     0.008 C 
ATOM      9  C   UNL A   1      34.256  23.147  22.856  1.00  0.00     0.081 C 
BRANCH   6  10
ATOM     10  C   UNL A   1      33.630  25.863  24.412  1.00  0.00     0.034 C 
BRANCH  10  11
ATOM     11  C   UNL A   1      32.961  27.159  23.900  1.00  0.00     0.147 C 
BRANCH  11  12
ATOM     12  N   UNL A   1      32.627  28.226  24.830  1.00  0.00    -0.250 N 
ATOM     13  C   UNL A   1      33.834  30.502  27.250  1.00  0.00     0.092 C 
ATOM     14  C   UNL A   1      33.109  29.704  26.241  1.00  0.00     0.147 A 
ATOM     15  N   UNL A   1      31.961  30.149  25.662  1.00  0.00    -0.217 NA
ATOM     16  N   UNL A   1      33.542  28.528  25.783  1.00  0.00    -0.156 NA
ATOM     17  C   UNL A   1      31.679  29.223  24.768  1.00  0.00     0.124 A 
ATOM     18  C   UNL A   1      30.530  29.307  23.849  1.00  0.00     0.089 C 
ENDBRANCH  11  12
ENDBRANCH  10  11
ENDBRANCH   6  10
BRANCH   5  19
ATOM     19  N   UNL A   1      32.752  22.100  24.584  1.00  0.00    -0.330 N 
ATOM     20  H   UNL A   1      31.950  22.245  23.972  1.00  0.00     0.347 HD
ATOM     21  H   UNL A   1      32.559  22.166  25.583  1.00  0.00     0.347 HD
BRANCH  19  22
ATOM     22  C   UNL A   1      33.211  20.721  24.385  1.00  0.00     0.176 C 
ATOM     23  C   UNL A   1      33.196  20.018  25.742  1.00  0.00     0.075 C 
ATOM     24  C   UNL A   1      32.340  19.957  23.390  1.00  0.00     0.075 C 
ENDBRANCH  19  22
ENDBRANCH   5  19
ENDBRANCH   3   5
ENDBRANCH   2   3
ENDBRANCH   1   2
BRANCH   1  25
ATOM     25  C   UNL A   1      37.874  21.096  25.341  1.00  0.00     0.275 C 
BRANCH  25  26
ATOM     26  O   UNL A   1      39.278  21.311  25.403  1.00  0.00    -0.458 OA
BRANCH  26  27
ATOM     27  C   UNL A   1      39.951  20.185  25.711  1.00  0.00     0.338 C 
ATOM     28  O   UNL A   1      39.593  19.027  25.558  1.00  0.00    -0.246 OA
BRANCH  27  29
ATOM     29  C   UNL A   1      41.142  20.526  26.477  1.00  0.00     0.060 A 
ATOM     30  C   UNL A   1      40.878  20.801  27.819  1.00  0.00     0.016 A 
ATOM     31  C   UNL A   1      42.065  21.250  25.724  1.00  0.00     0.016 A 
ATOM     32  C   UNL A   1      41.235  22.030  28.304  1.00  0.00     0.010 A 
ATOM     33  C   UNL A   1      42.472  22.456  26.228  1.00  0.00     0.010 A 
ATOM     34  C   UNL A   1      41.964  22.874  27.467  1.00  0.00    -0.014 A 
BRANCH  34  35
ATOM     35  C   UNL A   1      42.427  24.130  28.021  1.00  0.00     0.031 A 
ATOM     36  C   UNL A   1      41.447  25.231  27.802  1.00  0.00     0.074 A 
ATOM     37  C   UNL A   1      43.482  24.148  28.857  1.00  0.00     0.049 A 
ATOM     38  N   UNL A   1      41.660  26.454  27.442  1.00  0.00    -0.248 NA
ATOM     39  C   UNL A   1      40.013  24.863  27.852  1.00  0.00     0.031 C 
ATOM     40  C   UNL A   1      44.271  22.991  29.302  1.00  0.00     0.029 A 
ATOM     41  N   UNL A   1      43.897  25.148  29.683  1.00  0.00    -0.354 N 
ATOM     42  C   UNL A   1      40.397  27.048  27.446  1.00  0.00     0.074 A 
ATOM     43  C   UNL A   1      39.426  25.995  27.486  1.00  0.00     0.031 C 
ATOM     44  C   UNL A   1      44.807  23.273  30.507  1.00  0.00     0.029 A 
ATOM     45  C   UNL A   1      44.476  24.647  30.848  1.00  0.00     0.049 A 
ATOM     46  H   UNL A   1      43.800  26.107  29.483  1.00  0.00     0.167 HD
ATOM     47  C   UNL A   1      40.228  28.364  27.728  1.00  0.00     0.034 A 
ATOM     48  C   UNL A   1      44.531  25.265  32.051  1.00  0.00     0.034 A 
ATOM     49  C   UNL A   1      41.420  29.124  27.487  1.00  0.00     0.049 A 
ATOM     50  C   UNL A   1      44.218  26.697  31.838  1.00  0.00     0.074 A 
ATOM     51  C   UNL A   1      42.236  29.323  26.391  1.00  0.00     0.029 A 
ATOM     52  N   UNL A   1      42.134  29.545  28.580  1.00  0.00    -0.354 N 
ATOM     53  N   UNL A   1      44.983  27.528  31.187  1.00  0.00    -0.248 NA
ATOM     54  C   UNL A   1      42.843  27.135  32.026  1.00  0.00     0.031 C 
ATOM     55  C   UNL A   1      43.551  29.431  26.926  1.00  0.00     0.029 A 
ATOM     56  C   UNL A   1      43.457  29.318  28.314  1.00  0.00     0.049 A 
ATOM     57  H   UNL A   1      41.762  29.938  29.403  1.00  0.00     0.167 HD
ATOM     58  C   UNL A   1      44.102  28.369  30.521  1.00  0.00     0.074 A 
ATOM     59  C   UNL A   1      42.815  28.167  31.180  1.00  0.00     0.031 C 
ATOM     60  C   UNL A   1      44.426  28.921  29.313  1.00  0.00     0.034 A 
BRANCH  47  61
ATOM     61  C   UNL A   1      39.094  28.874  28.584  1.00  0.00     0.023 A 
ATOM     62  C   UNL A   1      38.203  29.792  27.993  1.00  0.00     0.012 A 
ATOM     63  C   UNL A   1      39.016  28.717  29.990  1.00  0.00     0.148 A 
ATOM     64  C   UNL A   1      37.314  30.546  28.766  1.00  0.00     0.002 A 
ATOM     65  C   UNL A   1      38.067  29.399  30.740  1.00  0.00     0.091 A 
ATOM     66  F   UNL A   1      39.946  28.018  30.649  1.00  0.00    -0.205 F 
ATOM     67  C   UNL A   1      37.236  30.342  30.139  1.00  0.00     0.022 A 
BRANCH  65  68
ATOM     68  S   UNL A   1      37.901  29.100  32.504  1.00  0.00     0.127 S 
ATOM     69  O   UNL A   1      36.665  29.811  32.809  1.00  0.00    -0.237 OA
ATOM     70  O   UNL A   1      37.807  27.640  32.559  1.00  0.00    -0.237 OA
ATOM     71  O   UNL A   1      39.124  29.635  33.095  1.00  0.00    -0.744 OA
ENDBRANCH  65  68
ENDBRANCH  47  61
BRANCH  48  72
ATOM     72  C   UNL A   1      44.576  24.663  33.404  1.00  0.00     0.023 A 
ATOM     73  C   UNL A   1      43.385  24.189  33.983  1.00  0.00     0.012 A 
ATOM     74  C   UNL A   1      45.797  24.359  34.052  1.00  0.00     0.148 A 
ATOM     75  C   UNL A   1      43.405  23.432  35.161  1.00  0.00     0.002 A 
ATOM     76  C   UNL A   1      45.811  23.633  35.239  1.00  0.00     0.091 A 
ATOM     77  F   UNL A   1      46.951  24.703  33.463  1.00  0.00    -0.205 F 
ATOM     78  C   UNL A   1      44.616  23.157  35.791  1.00  0.00     0.022 A 
BRANCH  76  79
ATOM     79  S   UNL A   1      47.339  23.272  36.118  1.00  0.00     0.127 S 
ATOM     80  O   UNL A   1      46.850  22.608  37.328  1.00  0.00    -0.237 OA
ATOM     81  O   UNL A   1      48.033  22.397  35.178  1.00  0.00    -0.237 OA
ATOM     82  O   UNL A   1      47.962  24.567  36.365  1.00  0.00    -0.744 OA
ENDBRANCH  76  79
ENDBRANCH  48  72
BRANCH  60  83
ATOM     83  C   UNL A   1      45.855  28.819  28.839  1.00  0.00     0.023 A 
ATOM     84  C   UNL A   1      46.835  29.754  29.232  1.00  0.00     0.012 A 
ATOM     85  C   UNL A   1      46.263  27.658  28.160  1.00  0.00     0.148 A 
ATOM     86  C   UNL A   1      48.184  29.553  28.932  1.00  0.00     0.002 A 
ATOM     87  C   UNL A   1      47.612  27.437  27.907  1.00  0.00     0.091 A 
ATOM     88  F   UNL A   1      45.325  26.768  27.799  1.00  0.00    -0.205 F 
ATOM     89  C   UNL A   1      48.575  28.386  28.282  1.00  0.00     0.022 A 
BRANCH  87  90
ATOM     90  S   UNL A   1      48.186  25.888  27.204  1.00  0.00     0.127 S 
ATOM     91  O   UNL A   1      47.597  24.902  28.108  1.00  0.00    -0.237 OA
ATOM     92  O   UNL A   1      47.601  25.908  25.860  1.00  0.00    -0.237 OA
ATOM     93  O   UNL A   1      49.642  25.966  27.213  1.00  0.00    -0.744 OA
ENDBRANCH  87  90
ENDBRANCH  60  83
ENDBRANCH  34  35
ENDBRANCH  27  29
ENDBRANCH  26  27
ENDBRANCH  25  26
ENDBRANCH   1  25
TORSDOF 19
ENDMDL
MODEL 3
REMARK VINA RESULT:     -10.8      4.884     10.000
REMARK SMILES Cc1nc(C)n(CC[C@H]2CCC[C@@]2([NH2+]C(C)C)C(=O)OCCOC(=O)c2ccc(-c3c4nc(c(-c5cccc(S(=O)(=O)[O-])c5F)c5ccc([nH]5)c(-c5cccc(S(=O)(=O)[O-])c5F)c5nc(c(-c6cccc(S(=O)(=O)[O-])c6F)c6ccc3[nH]6)C=C5)C=C4)cc2)n1
REMARK SMILES IDX 21 1 20 2 18 3 19 4 13 5 9 6 10 7 11 8 12 9 8 10 7 11 6 12
REMARK SMILES IDX 1 13 2 14 3 15 89 16 4 17 5 18 14 19 15 22 16 23 17 24 22 25
REMARK SMILES IDX 23 26 24 27 25 28 26 29 27 30 88 31 28 32 87 33 29 34 30 35
REMARK SMILES IDX 31 36 81 37 32 38 86 39 80 40 82 41 33 42 85 43 79 44 78 45
REMARK SMILES IDX 34 47 66 48 46 49 65 50 47 51 50 52 64 53 83 54 48 55 49 56
REMARK SMILES IDX 63 58 84 59 51 60 35 61 36 62 44 63 37 64 39 65 45 66 38 67
REMARK SMILES IDX 40 68 41 69 42 70 43 71 67 72 68 73 76 74 69 75 71 76 77 77
REMARK SMILES IDX 70 78 72 79 73 80 74 81 75 82 52 83 53 84 61 85 54 86 56 87
REMARK SMILES IDX 62 88 55 89 57 90 58 91 59 92 60 93
REMARK H PARENT 14 20 14 21 82 46 50 57
REMARK Flexibility Score: inf
ROOT
ATOM      1  C   UNL A   1      32.867  30.057  25.841  1.00  0.00     0.274 C 
ENDROOT
BRANCH   1   2
ATOM      2  O   UNL A   1      31.895  29.297  25.097  1.00  0.00    -0.457 OA
BRANCH   2   3
ATOM      3  C   UNL A   1      32.275  28.699  23.920  1.00  0.00     0.368 C 
ATOM      4  O   UNL A   1      33.135  29.134  23.156  1.00  0.00    -0.245 OA
BRANCH   3   5
ATOM      5  C   UNL A   1      31.267  27.578  23.559  1.00  0.00     0.197 C 
ATOM      6  C   UNL A   1      31.895  26.248  23.003  1.00  0.00     0.064 C 
ATOM      7  C   UNL A   1      30.726  25.261  23.150  1.00  0.00     0.011 C 
ATOM      8  C   UNL A   1      30.102  25.600  24.493  1.00  0.00     0.008 C 
ATOM      9  C   UNL A   1      30.482  27.055  24.785  1.00  0.00     0.081 C 
BRANCH   6  10
ATOM     10  C   UNL A   1      33.180  25.744  23.693  1.00  0.00     0.034 C 
BRANCH  10  11
ATOM     11  C   UNL A   1      33.854  24.457  23.166  1.00  0.00     0.147 C 
BRANCH  11  12
ATOM     12  N   UNL A   1      34.001  23.300  24.035  1.00  0.00    -0.250 N 
ATOM     13  C   UNL A   1      33.193  19.901  24.566  1.00  0.00     0.092 C 
ATOM     14  C   UNL A   1      33.715  21.282  24.535  1.00  0.00     0.147 A 
ATOM     15  N   UNL A   1      34.867  21.629  25.172  1.00  0.00    -0.217 NA
ATOM     16  N   UNL A   1      33.141  22.270  23.848  1.00  0.00    -0.156 NA
ATOM     17  C   UNL A   1      35.044  22.891  24.836  1.00  0.00     0.124 A 
ATOM     18  C   UNL A   1      36.212  23.685  25.257  1.00  0.00     0.089 C 
ENDBRANCH  11  12
ENDBRANCH  10  11
ENDBRANCH   6  10
BRANCH   5  19
ATOM     19  N   UNL A   1      30.326  28.056  22.479  1.00  0.00    -0.330 N 
ATOM     20  H   UNL A   1      29.795  27.246  22.158  1.00  0.00     0.347 HD
ATOM     21  H   UNL A   1      30.931  28.488  21.781  1.00  0.00     0.347 HD
BRANCH  19  22
ATOM     22  C   UNL A   1      29.359  29.102  22.829  1.00  0.00     0.176 C 
ATOM     23  C   UNL A   1      29.545  30.262  21.853  1.00  0.00     0.075 C 
ATOM     24  C   UNL A   1      27.917  28.601  22.779  1.00  0.00     0.075 C 
ENDBRANCH  19  22
ENDBRANCH   5  19
ENDBRANCH   3   5
ENDBRANCH   2   3
ENDBRANCH   1   2
BRANCH   1  25
ATOM     25  C   UNL A   1      32.230  31.004  26.845  1.00  0.00     0.275 C 
BRANCH  25  26
ATOM     26  O   UNL A   1      33.246  31.731  27.524  1.00  0.00    -0.458 OA
BRANCH  26  27
ATOM     27  C   UNL A   1      32.904  33.020  27.717  1.00  0.00     0.338 C 
ATOM     28  O   UNL A   1      31.949  33.625  27.253  1.00  0.00    -0.246 OA
BRANCH  27  29
ATOM     29  C   UNL A   1      33.977  33.706  28.424  1.00  0.00     0.060 A 
ATOM     30  C   UNL A   1      35.121  33.894  27.648  1.00  0.00     0.016 A 
ATOM     31  C   UNL A   1      34.028  33.358  29.773  1.00  0.00     0.016 A 
ATOM     32  C   UNL A   1      36.297  33.361  28.099  1.00  0.00     0.010 A 
ATOM     33  C   UNL A   1      35.217  32.876  30.248  1.00  0.00     0.010 A 
ATOM     34  C   UNL A   1      36.307  32.786  29.370  1.00  0.00    -0.014 A 
BRANCH  34  35
ATOM     35  C   UNL A   1      37.577  32.316  29.883  1.00  0.00     0.031 A 
ATOM     36  C   UNL A   1      37.788  30.867  29.608  1.00  0.00     0.074 A 
ATOM     37  C   UNL A   1      38.508  33.201  30.287  1.00  0.00     0.049 A 
ATOM     38  N   UNL A   1      38.265  29.950  30.383  1.00  0.00    -0.248 NA
ATOM     39  C   UNL A   1      37.249  30.349  28.330  1.00  0.00     0.031 C 
ATOM     40  C   UNL A   1      38.392  34.666  30.276  1.00  0.00     0.029 A 
ATOM     41  N   UNL A   1      39.831  32.992  30.533  1.00  0.00    -0.354 N 
ATOM     42  C   UNL A   1      38.285  28.798  29.596  1.00  0.00     0.074 A 
ATOM     43  C   UNL A   1      37.463  29.045  28.449  1.00  0.00     0.031 C 
ATOM     44  C   UNL A   1      39.629  35.195  30.174  1.00  0.00     0.029 A 
ATOM     45  C   UNL A   1      40.597  34.112  30.215  1.00  0.00     0.049 A 
ATOM     46  H   UNL A   1      40.202  32.153  30.892  1.00  0.00     0.167 HD
ATOM     47  C   UNL A   1      39.217  27.827  29.774  1.00  0.00     0.034 A 
ATOM     48  C   UNL A   1      41.902  34.120  29.854  1.00  0.00     0.034 A 
ATOM     49  C   UNL A   1      39.772  27.849  31.096  1.00  0.00     0.049 A 
ATOM     50  C   UNL A   1      42.479  32.804  30.213  1.00  0.00     0.074 A 
ATOM     51  C   UNL A   1      39.243  27.766  32.369  1.00  0.00     0.029 A 
ATOM     52  N   UNL A   1      41.047  28.336  31.239  1.00  0.00    -0.354 N 
ATOM     53  N   UNL A   1      42.646  32.384  31.436  1.00  0.00    -0.248 NA
ATOM     54  C   UNL A   1      42.523  31.771  29.188  1.00  0.00     0.031 C 
ATOM     55  C   UNL A   1      40.059  28.621  33.163  1.00  0.00     0.029 A 
ATOM     56  C   UNL A   1      41.049  29.154  32.336  1.00  0.00     0.049 A 
ATOM     57  H   UNL A   1      41.817  28.132  30.661  1.00  0.00     0.167 HD
ATOM     58  C   UNL A   1      42.385  31.021  31.378  1.00  0.00     0.074 A 
ATOM     59  C   UNL A   1      42.451  30.683  29.959  1.00  0.00     0.031 C 
ATOM     60  C   UNL A   1      41.847  30.358  32.445  1.00  0.00     0.034 A 
BRANCH  47  61
ATOM     61  C   UNL A   1      39.885  27.119  28.621  1.00  0.00     0.023 A 
ATOM     62  C   UNL A   1      39.738  25.718  28.552  1.00  0.00     0.012 A 
ATOM     63  C   UNL A   1      40.856  27.705  27.771  1.00  0.00     0.148 A 
ATOM     64  C   UNL A   1      40.547  24.941  27.717  1.00  0.00     0.002 A 
ATOM     65  C   UNL A   1      41.591  26.937  26.877  1.00  0.00     0.091 A 
ATOM     66  F   UNL A   1      41.194  28.992  27.910  1.00  0.00    -0.205 F 
ATOM     67  C   UNL A   1      41.465  25.549  26.870  1.00  0.00     0.022 A 
BRANCH  65  68
ATOM     68  S   UNL A   1      42.732  27.709  25.724  1.00  0.00     0.127 S 
ATOM     69  O   UNL A   1      43.664  28.372  26.631  1.00  0.00    -0.237 OA
ATOM     70  O   UNL A   1      43.277  26.552  25.012  1.00  0.00    -0.237 OA
ATOM     71  O   UNL A   1      41.902  28.576  24.895  1.00  0.00    -0.744 OA
ENDBRANCH  65  68
ENDBRANCH  47  61
BRANCH  48  72
ATOM     72  C   UNL A   1      42.620  35.082  28.984  1.00  0.00     0.023 A 
ATOM     73  C   UNL A   1      42.423  35.026  27.592  1.00  0.00     0.012 A 
ATOM     74  C   UNL A   1      43.335  36.183  29.511  1.00  0.00     0.148 A 
ATOM     75  C   UNL A   1      42.912  36.034  26.752  1.00  0.00     0.002 A 
ATOM     76  C   UNL A   1      43.846  37.168  28.670  1.00  0.00     0.091 A 
ATOM     77  F   UNL A   1      43.439  36.317  30.840  1.00  0.00    -0.205 F 
ATOM     78  C   UNL A   1      43.627  37.102  27.289  1.00  0.00     0.022 A 
BRANCH  76  79
ATOM     79  S   UNL A   1      44.804  38.555  29.299  1.00  0.00     0.127 S 
ATOM     80  O   UNL A   1      45.706  37.902  30.249  1.00  0.00    -0.237 OA
ATOM     81  O   UNL A   1      45.448  39.055  28.088  1.00  0.00    -0.237 OA
ATOM     82  O   UNL A   1      43.835  39.449  29.921  1.00  0.00    -0.744 OA
ENDBRANCH  76  79
ENDBRANCH  48  72
BRANCH  60  83
ATOM     83  C   UNL A   1      41.785  31.069  33.775  1.00  0.00     0.023 A 
ATOM     84  C   UNL A   1      42.886  31.086  34.657  1.00  0.00     0.012 A 
ATOM     85  C   UNL A   1      40.686  31.899  34.050  1.00  0.00     0.148 A 
ATOM     86  C   UNL A   1      42.880  31.889  35.799  1.00  0.00     0.002 A 
ATOM     87  C   UNL A   1      40.704  32.734  35.161  1.00  0.00     0.091 A 
ATOM     88  F   UNL A   1      39.647  31.884  33.199  1.00  0.00    -0.205 F 
ATOM     89  C   UNL A   1      41.795  32.725  36.044  1.00  0.00     0.022 A 
BRANCH  87  90
ATOM     90  S   UNL A   1      39.400  33.934  35.446  1.00  0.00     0.127 S 
ATOM     91  O   UNL A   1      39.475  34.761  34.243  1.00  0.00    -0.237 OA
ATOM     92  O   UNL A   1      38.203  33.094  35.535  1.00  0.00    -0.237 OA
ATOM     93  O   UNL A   1      39.745  34.602  36.696  1.00  0.00    -0.744 OA
ENDBRANCH  87  90
ENDBRANCH  60  83
ENDBRANCH  34  35
ENDBRANCH  27  29
ENDBRANCH  26  27
ENDBRANCH  25  26
ENDBRANCH   1  25
TORSDOF 19
ENDMDL
