MODEL 1
REMARK VINA RESULT:     -12.1      0.000      0.000
REMARK SMILES CC[C@@](C)(NC(=O)Nc1ccccc1C#N)C(=O)OCCOC(=O)c1ccc(-c2c3nc(c(-c4cccc(S(=O)(=O)[O-])c4F)c4ccc([nH]4)c(-c4cccc(S(=O)(=O)[O-])c4F)c4nc(c(-c5cccc(S(=O)(=O)[O-])c5F)c5ccc2[nH]5)C=C4)C=C3)cc1
REMARK SMILES IDX 20 1 19 2 17 3 18 4 3 5 4 6 2 7 1 8 5 9 6 10 7 12 8 13 9 15
REMARK SMILES IDX 10 16 14 17 11 18 13 19 12 20 15 21 16 22 21 23 22 24 23 25
REMARK SMILES IDX 24 26 25 27 26 28 87 29 27 30 86 31 28 32 29 33 30 34 80 35
REMARK SMILES IDX 31 36 85 37 79 38 81 39 32 40 84 41 78 42 77 43 33 45 65 46
REMARK SMILES IDX 45 47 64 48 46 49 49 50 63 51 82 52 47 53 48 54 62 56 83 57
REMARK SMILES IDX 50 58 34 59 35 60 43 61 36 62 38 63 44 64 37 65 39 66 40 67
REMARK SMILES IDX 41 68 42 69 66 70 67 71 75 72 68 73 70 74 76 75 69 76 71 77
REMARK SMILES IDX 72 78 73 79 74 80 51 81 52 82 60 83 53 84 55 85 61 86 54 87
REMARK SMILES IDX 56 88 57 89 58 90 59 91
REMARK H PARENT 5 11 8 14 81 44 49 55
REMARK Flexibility Score: inf
ROOT
ATOM      1  C   UNL A   1      33.403  28.090  25.198  1.00  0.00     0.274 C 
ENDROOT
BRANCH   1   2
ATOM      2  O   UNL A   1      32.739  26.762  24.507  1.00  0.00    -0.460 OA
BRANCH   2   3
ATOM      3  C   UNL A   1      33.136  25.460  23.974  1.00  0.00     0.331 C 
ATOM      4  O   UNL A   1      34.141  25.267  23.288  1.00  0.00    -0.249 OA
BRANCH   3   5
ATOM      5  C   UNL A   1      32.046  24.303  24.014  1.00  0.00     0.136 C 
ATOM      6  C   UNL A   1      31.161  24.578  22.794  1.00  0.00     0.047 C 
BRANCH   5   7
ATOM      7  C   UNL A   1      32.093  22.737  24.161  1.00  0.00     0.037 C 
ATOM      8  C   UNL A   1      32.036  21.811  22.979  1.00  0.00     0.007 C 
ENDBRANCH   5   7
BRANCH   5   9
ATOM      9  N   UNL A   1      31.568  24.683  25.272  1.00  0.00    -0.322 N 
ATOM     10  C   UNL A   1      32.102  24.044  26.323  1.00  0.00     0.320 C 
ATOM     11  H   UNL A   1      30.879  25.379  25.378  1.00  0.00     0.166 HD
ATOM     12  O   UNL A   1      31.423  24.158  27.347  1.00  0.00    -0.248 OA
ATOM     13  N   UNL A   1      33.271  23.253  26.288  1.00  0.00    -0.307 N 
ATOM     14  H   UNL A   1      33.096  22.654  27.049  1.00  0.00     0.171 HD
BRANCH  13  15
ATOM     15  C   UNL A   1      34.599  22.734  25.850  1.00  0.00     0.060 A 
ATOM     16  C   UNL A   1      35.466  23.827  25.554  1.00  0.00     0.027 A 
ATOM     17  C   UNL A   1      35.192  21.482  25.487  1.00  0.00     0.076 A 
ATOM     18  C   UNL A   1      36.805  23.723  25.160  1.00  0.00     0.002 A 
ATOM     19  C   UNL A   1      36.593  21.377  25.252  1.00  0.00     0.021 A 
ATOM     20  C   UNL A   1      37.397  22.488  25.093  1.00  0.00     0.002 A 
BRANCH  17  21
ATOM     21  C   UNL A   1      34.585  20.294  24.924  1.00  0.00     0.101 C 
ATOM     22  N   UNL A   1      34.088  19.279  24.613  1.00  0.00    -0.192 NA
ENDBRANCH  17  21
ENDBRANCH  13  15
ENDBRANCH   5   9
ENDBRANCH   3   5
ENDBRANCH   2   3
ENDBRANCH   1   2
BRANCH   1  23
ATOM     23  C   UNL A   1      32.857  29.721  25.461  1.00  0.00     0.275 C 
BRANCH  23  24
ATOM     24  O   UNL A   1      32.658  30.340  26.847  1.00  0.00    -0.458 OA
BRANCH  24  25
ATOM     25  C   UNL A   1      33.349  31.452  27.339  1.00  0.00     0.338 C 
ATOM     26  O   UNL A   1      32.857  32.566  27.431  1.00  0.00    -0.246 OA
BRANCH  25  27
ATOM     27  C   UNL A   1      34.818  31.142  27.805  1.00  0.00     0.060 A 
ATOM     28  C   UNL A   1      35.252  29.869  28.231  1.00  0.00     0.016 A 
ATOM     29  C   UNL A   1      35.781  32.141  27.962  1.00  0.00     0.016 A 
ATOM     30  C   UNL A   1      36.536  29.544  28.695  1.00  0.00     0.010 A 
ATOM     31  C   UNL A   1      37.085  31.842  28.477  1.00  0.00     0.010 A 
ATOM     32  C   UNL A   1      37.476  30.538  28.861  1.00  0.00    -0.014 A 
BRANCH  32  33
ATOM     33  C   UNL A   1      38.717  30.236  29.649  1.00  0.00     0.031 A 
ATOM     34  C   UNL A   1      39.710  29.263  29.065  1.00  0.00     0.074 A 
ATOM     35  C   UNL A   1      39.042  30.854  30.807  1.00  0.00     0.049 A 
ATOM     36  N   UNL A   1      40.731  28.671  29.626  1.00  0.00    -0.248 NA
ATOM     37  C   UNL A   1      39.517  28.916  27.648  1.00  0.00     0.031 C 
ATOM     38  C   UNL A   1      38.296  31.941  31.441  1.00  0.00     0.029 A 
ATOM     39  N   UNL A   1      40.087  30.623  31.680  1.00  0.00    -0.354 N 
ATOM     40  C   UNL A   1      41.242  27.806  28.663  1.00  0.00     0.074 A 
ATOM     41  C   UNL A   1      40.435  27.977  27.474  1.00  0.00     0.031 C 
ATOM     42  C   UNL A   1      38.868  32.240  32.622  1.00  0.00     0.029 A 
ATOM     43  C   UNL A   1      39.982  31.325  32.863  1.00  0.00     0.049 A 
ATOM     44  H   UNL A   1      40.835  30.015  31.478  1.00  0.00     0.167 HD
ATOM     45  C   UNL A   1      42.277  26.938  28.762  1.00  0.00     0.034 A 
ATOM     46  C   UNL A   1      40.653  31.201  34.030  1.00  0.00     0.034 A 
ATOM     47  C   UNL A   1      43.110  26.800  29.927  1.00  0.00     0.049 A 
ATOM     48  C   UNL A   1      41.744  30.164  34.158  1.00  0.00     0.074 A 
ATOM     49  C   UNL A   1      44.188  25.954  30.115  1.00  0.00     0.029 A 
ATOM     50  N   UNL A   1      42.955  27.517  31.101  1.00  0.00    -0.354 N 
ATOM     51  N   UNL A   1      42.211  29.339  33.252  1.00  0.00    -0.248 NA
ATOM     52  C   UNL A   1      42.411  30.050  35.465  1.00  0.00     0.031 C 
ATOM     53  C   UNL A   1      44.651  26.122  31.424  1.00  0.00     0.029 A 
ATOM     54  C   UNL A   1      43.903  27.118  32.028  1.00  0.00     0.049 A 
ATOM     55  H   UNL A   1      42.271  28.209  31.255  1.00  0.00     0.167 HD
ATOM     56  C   UNL A   1      43.248  28.641  33.864  1.00  0.00     0.074 A 
ATOM     57  C   UNL A   1      43.354  29.149  35.215  1.00  0.00     0.031 C 
ATOM     58  C   UNL A   1      44.036  27.661  33.356  1.00  0.00     0.034 A 
BRANCH  45  59
ATOM     59  C   UNL A   1      42.537  26.028  27.588  1.00  0.00     0.023 A 
ATOM     60  C   UNL A   1      43.279  26.479  26.478  1.00  0.00     0.012 A 
ATOM     61  C   UNL A   1      42.060  24.701  27.607  1.00  0.00     0.148 A 
ATOM     62  C   UNL A   1      43.501  25.638  25.386  1.00  0.00     0.002 A 
ATOM     63  C   UNL A   1      42.333  23.854  26.541  1.00  0.00     0.091 A 
ATOM     64  F   UNL A   1      41.341  24.296  28.664  1.00  0.00    -0.205 F 
ATOM     65  C   UNL A   1      43.037  24.325  25.422  1.00  0.00     0.022 A 
BRANCH  63  66
ATOM     66  S   UNL A   1      41.852  22.124  26.533  1.00  0.00     0.127 S 
ATOM     67  O   UNL A   1      42.369  21.680  25.238  1.00  0.00    -0.237 OA
ATOM     68  O   UNL A   1      42.578  21.601  27.691  1.00  0.00    -0.237 OA
ATOM     69  O   UNL A   1      40.403  22.105  26.663  1.00  0.00    -0.744 OA
ENDBRANCH  63  66
ENDBRANCH  45  59
BRANCH  46  70
ATOM     70  C   UNL A   1      40.289  32.049  35.208  1.00  0.00     0.023 A 
ATOM     71  C   UNL A   1      41.029  33.214  35.490  1.00  0.00     0.012 A 
ATOM     72  C   UNL A   1      39.227  31.692  36.063  1.00  0.00     0.148 A 
ATOM     73  C   UNL A   1      40.735  33.991  36.614  1.00  0.00     0.002 A 
ATOM     74  C   UNL A   1      38.901  32.503  37.144  1.00  0.00     0.091 A 
ATOM     75  F   UNL A   1      38.550  30.566  35.798  1.00  0.00    -0.205 F 
ATOM     76  C   UNL A   1      39.666  33.643  37.434  1.00  0.00     0.022 A 
BRANCH  74  77
ATOM     77  S   UNL A   1      37.465  32.202  38.182  1.00  0.00     0.127 S 
ATOM     78  O   UNL A   1      37.342  30.748  38.111  1.00  0.00    -0.237 OA
ATOM     79  O   UNL A   1      37.918  32.720  39.473  1.00  0.00    -0.237 OA
ATOM     80  O   UNL A   1      36.373  32.954  37.579  1.00  0.00    -0.744 OA
ENDBRANCH  74  77
ENDBRANCH  46  70
BRANCH  58  81
ATOM     81  C   UNL A   1      45.134  27.107  34.231  1.00  0.00     0.023 A 
ATOM     82  C   UNL A   1      46.406  27.711  34.251  1.00  0.00     0.012 A 
ATOM     83  C   UNL A   1      44.873  26.021  35.093  1.00  0.00     0.148 A 
ATOM     84  C   UNL A   1      47.412  27.221  35.087  1.00  0.00     0.002 A 
ATOM     85  C   UNL A   1      45.862  25.574  35.962  1.00  0.00     0.091 A 
ATOM     86  F   UNL A   1      43.661  25.448  35.050  1.00  0.00    -0.205 F 
ATOM     87  C   UNL A   1      47.136  26.162  35.949  1.00  0.00     0.022 A 
BRANCH  85  88
ATOM     88  S   UNL A   1      45.568  24.283  37.177  1.00  0.00     0.127 S 
ATOM     89  O   UNL A   1      44.444  24.837  37.932  1.00  0.00    -0.237 OA
ATOM     90  O   UNL A   1      45.231  23.138  36.334  1.00  0.00    -0.237 OA
ATOM     91  O   UNL A   1      46.809  24.143  37.927  1.00  0.00    -0.744 OA
ENDBRANCH  85  88
ENDBRANCH  58  81
ENDBRANCH  32  33
ENDBRANCH  25  27
ENDBRANCH  24  25
ENDBRANCH  23  24
ENDBRANCH   1  23
TORSDOF 18
ENDMDL
MODEL 2
REMARK VINA RESULT:     -12.0      5.151      9.982
REMARK SMILES CC[C@@](C)(NC(=O)Nc1ccccc1C#N)C(=O)OCCOC(=O)c1ccc(-c2c3nc(c(-c4cccc(S(=O)(=O)[O-])c4F)c4ccc([nH]4)c(-c4cccc(S(=O)(=O)[O-])c4F)c4nc(c(-c5cccc(S(=O)(=O)[O-])c5F)c5ccc2[nH]5)C=C4)C=C3)cc1
REMARK SMILES IDX 20 1 19 2 17 3 18 4 3 5 4 6 2 7 1 8 5 9 6 10 7 12 8 13 9 15
REMARK SMILES IDX 10 16 14 17 11 18 13 19 12 20 15 21 16 22 21 23 22 24 23 25
REMARK SMILES IDX 24 26 25 27 26 28 87 29 27 30 86 31 28 32 29 33 30 34 80 35
REMARK SMILES IDX 31 36 85 37 79 38 81 39 32 40 84 41 78 42 77 43 33 45 65 46
REMARK SMILES IDX 45 47 64 48 46 49 49 50 63 51 82 52 47 53 48 54 62 56 83 57
REMARK SMILES IDX 50 58 34 59 35 60 43 61 36 62 38 63 44 64 37 65 39 66 40 67
REMARK SMILES IDX 41 68 42 69 66 70 67 71 75 72 68 73 70 74 76 75 69 76 71 77
REMARK SMILES IDX 72 78 73 79 74 80 51 81 52 82 60 83 53 84 55 85 61 86 54 87
REMARK SMILES IDX 56 88 57 89 58 90 59 91
REMARK H PARENT 5 11 8 14 81 44 49 55
REMARK Flexibility Score: inf
ROOT
ATOM      1  C   UNL A   1      34.402  21.105  25.973  1.00  0.00     0.274 C 
ENDROOT
BRANCH   1   2
ATOM      2  O   UNL A   1      32.790  21.214  25.699  1.00  0.00    -0.460 OA
BRANCH   2   3
ATOM      3  C   UNL A   1      31.740  22.225  25.585  1.00  0.00     0.331 C 
ATOM      4  O   UNL A   1      30.539  21.971  25.491  1.00  0.00    -0.249 OA
BRANCH   3   5
ATOM      5  C   UNL A   1      32.203  23.706  25.241  1.00  0.00     0.136 C 
ATOM      6  C   UNL A   1      32.065  24.461  26.568  1.00  0.00     0.047 C 
BRANCH   5   7
ATOM      7  C   UNL A   1      33.446  24.343  24.518  1.00  0.00     0.037 C 
ATOM      8  C   UNL A   1      34.294  23.578  23.540  1.00  0.00     0.007 C 
ENDBRANCH   5   7
BRANCH   5   9
ATOM      9  N   UNL A   1      31.204  23.884  24.279  1.00  0.00    -0.322 N 
ATOM     10  C   UNL A   1      30.650  25.105  24.224  1.00  0.00     0.320 C 
ATOM     11  H   UNL A   1      30.924  23.156  23.677  1.00  0.00     0.166 HD
ATOM     12  O   UNL A   1      29.572  25.114  23.623  1.00  0.00    -0.248 OA
ATOM     13  N   UNL A   1      31.171  26.264  24.837  1.00  0.00    -0.307 N 
ATOM     14  H   UNL A   1      30.344  26.787  24.947  1.00  0.00     0.171 HD
BRANCH  13  15
ATOM     15  C   UNL A   1      32.157  27.215  25.427  1.00  0.00     0.060 A 
ATOM     16  C   UNL A   1      31.636  27.751  26.642  1.00  0.00     0.027 A 
ATOM     17  C   UNL A   1      33.380  27.858  25.053  1.00  0.00     0.076 A 
ATOM     18  C   UNL A   1      32.303  28.638  27.495  1.00  0.00     0.002 A 
ATOM     19  C   UNL A   1      34.124  28.624  25.997  1.00  0.00     0.021 A 
ATOM     20  C   UNL A   1      33.593  29.009  27.211  1.00  0.00     0.002 A 
BRANCH  17  21
ATOM     21  C   UNL A   1      33.877  28.219  23.741  1.00  0.00     0.101 C 
ATOM     22  N   UNL A   1      34.387  28.591  22.754  1.00  0.00    -0.192 NA
ENDBRANCH  17  21
ENDBRANCH  13  15
ENDBRANCH   5   9
ENDBRANCH   3   5
ENDBRANCH   2   3
ENDBRANCH   1   2
BRANCH   1  23
ATOM     23  C   UNL A   1      35.767  20.644  24.999  1.00  0.00     0.275 C 
BRANCH  23  24
ATOM     24  O   UNL A   1      37.054  21.468  24.890  1.00  0.00    -0.458 OA
BRANCH  24  25
ATOM     25  C   UNL A   1      38.279  21.128  25.470  1.00  0.00     0.338 C 
ATOM     26  O   UNL A   1      38.786  20.021  25.376  1.00  0.00    -0.246 OA
BRANCH  25  27
ATOM     27  C   UNL A   1      38.981  22.311  26.232  1.00  0.00     0.060 A 
ATOM     28  C   UNL A   1      38.674  23.671  26.018  1.00  0.00     0.016 A 
ATOM     29  C   UNL A   1      40.063  22.112  27.091  1.00  0.00     0.016 A 
ATOM     30  C   UNL A   1      39.294  24.767  26.637  1.00  0.00     0.010 A 
ATOM     31  C   UNL A   1      40.741  23.217  27.701  1.00  0.00     0.010 A 
ATOM     32  C   UNL A   1      40.371  24.563  27.472  1.00  0.00    -0.014 A 
BRANCH  32  33
ATOM     33  C   UNL A   1      41.215  25.740  27.866  1.00  0.00     0.031 A 
ATOM     34  C   UNL A   1      40.579  26.819  28.707  1.00  0.00     0.074 A 
ATOM     35  C   UNL A   1      42.534  25.846  27.591  1.00  0.00     0.049 A 
ATOM     36  N   UNL A   1      41.009  28.020  28.992  1.00  0.00    -0.248 NA
ATOM     37  C   UNL A   1      39.278  26.487  29.308  1.00  0.00     0.031 C 
ATOM     38  C   UNL A   1      43.361  24.830  26.940  1.00  0.00     0.029 A 
ATOM     39  N   UNL A   1      43.410  26.893  27.805  1.00  0.00    -0.354 N 
ATOM     40  C   UNL A   1      39.988  28.624  29.719  1.00  0.00     0.074 A 
ATOM     41  C   UNL A   1      38.934  27.642  29.858  1.00  0.00     0.031 C 
ATOM     42  C   UNL A   1      44.600  25.323  26.753  1.00  0.00     0.029 A 
ATOM     43  C   UNL A   1      44.642  26.710  27.212  1.00  0.00     0.049 A 
ATOM     44  H   UNL A   1      43.177  27.692  28.331  1.00  0.00     0.167 HD
ATOM     45  C   UNL A   1      39.925  29.882  30.214  1.00  0.00     0.034 A 
ATOM     46  C   UNL A   1      45.658  27.574  26.996  1.00  0.00     0.034 A 
ATOM     47  C   UNL A   1      40.991  30.844  30.119  1.00  0.00     0.049 A 
ATOM     48  C   UNL A   1      45.538  29.003  27.472  1.00  0.00     0.074 A 
ATOM     49  C   UNL A   1      41.021  32.141  30.600  1.00  0.00     0.029 A 
ATOM     50  N   UNL A   1      42.207  30.621  29.496  1.00  0.00    -0.354 N 
ATOM     51  N   UNL A   1      44.566  29.571  28.143  1.00  0.00    -0.248 NA
ATOM     52  C   UNL A   1      46.662  29.906  27.172  1.00  0.00     0.031 C 
ATOM     53  C   UNL A   1      42.237  32.719  30.220  1.00  0.00     0.029 A 
ATOM     54  C   UNL A   1      42.989  31.761  29.560  1.00  0.00     0.049 A 
ATOM     55  H   UNL A   1      42.476  29.774  29.071  1.00  0.00     0.167 HD
ATOM     56  C   UNL A   1      44.977  30.880  28.380  1.00  0.00     0.074 A 
ATOM     57  C   UNL A   1      46.293  31.019  27.796  1.00  0.00     0.031 C 
ATOM     58  C   UNL A   1      44.319  31.880  29.019  1.00  0.00     0.034 A 
BRANCH  45  59
ATOM     59  C   UNL A   1      38.634  30.312  30.865  1.00  0.00     0.023 A 
ATOM     60  C   UNL A   1      38.373  30.007  32.216  1.00  0.00     0.012 A 
ATOM     61  C   UNL A   1      37.686  31.050  30.128  1.00  0.00     0.148 A 
ATOM     62  C   UNL A   1      37.169  30.391  32.808  1.00  0.00     0.002 A 
ATOM     63  C   UNL A   1      36.515  31.475  30.740  1.00  0.00     0.091 A 
ATOM     64  F   UNL A   1      37.945  31.314  28.839  1.00  0.00    -0.205 F 
ATOM     65  C   UNL A   1      36.246  31.132  32.074  1.00  0.00     0.022 A 
BRANCH  63  66
ATOM     66  S   UNL A   1      35.305  32.506  29.904  1.00  0.00     0.127 S 
ATOM     67  O   UNL A   1      34.869  31.628  28.818  1.00  0.00    -0.237 OA
ATOM     68  O   UNL A   1      34.309  32.718  30.954  1.00  0.00    -0.237 OA
ATOM     69  O   UNL A   1      36.015  33.706  29.486  1.00  0.00    -0.744 OA
ENDBRANCH  63  66
ENDBRANCH  45  59
BRANCH  46  70
ATOM     70  C   UNL A   1      46.879  27.138  26.247  1.00  0.00     0.023 A 
ATOM     71  C   UNL A   1      46.953  27.326  24.853  1.00  0.00     0.012 A 
ATOM     72  C   UNL A   1      47.958  26.517  26.910  1.00  0.00     0.148 A 
ATOM     73  C   UNL A   1      48.063  26.881  24.131  1.00  0.00     0.002 A 
ATOM     74  C   UNL A   1      49.085  26.133  26.195  1.00  0.00     0.091 A 
ATOM     75  F   UNL A   1      47.861  26.320  28.232  1.00  0.00    -0.205 F 
ATOM     76  C   UNL A   1      49.133  26.295  24.801  1.00  0.00     0.022 A 
BRANCH  74  77
ATOM     77  S   UNL A   1      50.561  25.484  26.989  1.00  0.00     0.127 S 
ATOM     78  O   UNL A   1      50.054  24.267  27.618  1.00  0.00    -0.237 OA
ATOM     79  O   UNL A   1      51.442  25.263  25.842  1.00  0.00    -0.237 OA
ATOM     80  O   UNL A   1      51.010  26.524  27.905  1.00  0.00    -0.744 OA
ENDBRANCH  74  77
ENDBRANCH  46  70
BRANCH  58  81
ATOM     81  C   UNL A   1      45.026  33.203  29.186  1.00  0.00     0.023 A 
ATOM     82  C   UNL A   1      45.816  33.454  30.324  1.00  0.00     0.012 A 
ATOM     83  C   UNL A   1      44.961  34.175  28.165  1.00  0.00     0.148 A 
ATOM     84  C   UNL A   1      46.499  34.663  30.463  1.00  0.00     0.002 A 
ATOM     85  C   UNL A   1      45.688  35.353  28.284  1.00  0.00     0.091 A 
ATOM     86  F   UNL A   1      44.192  33.927  27.094  1.00  0.00    -0.205 F 
ATOM     87  C   UNL A   1      46.445  35.607  29.438  1.00  0.00     0.022 A 
BRANCH  85  88
ATOM     88  S   UNL A   1      45.759  36.581  26.974  1.00  0.00     0.127 S 
ATOM     89  O   UNL A   1      46.827  37.461  27.449  1.00  0.00    -0.237 OA
ATOM     90  O   UNL A   1      46.110  35.770  25.810  1.00  0.00    -0.237 OA
ATOM     91  O   UNL A   1      44.436  37.188  26.915  1.00  0.00    -0.744 OA
ENDBRANCH  85  88
ENDBRANCH  58  81
ENDBRANCH  32  33
ENDBRANCH  25  27
ENDBRANCH  24  25
ENDBRANCH  23  24
ENDBRANCH   1  23
TORSDOF 18
ENDMDL
MODEL 3
REMARK VINA RESULT:     -11.9      1.825      2.157
REMARK SMILES CC[C@@](C)(NC(=O)Nc1ccccc1C#N)C(=O)OCCOC(=O)c1ccc(-c2c3nc(c(-c4cccc(S(=O)(=O)[O-])c4F)c4ccc([nH]4)c(-c4cccc(S(=O)(=O)[O-])c4F)c4nc(c(-c5cccc(S(=O)(=O)[O-])c5F)c5ccc2[nH]5)C=C4)C=C3)cc1
REMARK SMILES IDX 20 1 19 2 17 3 18 4 3 5 4 6 2 7 1 8 5 9 6 10 7 12 8 13 9 15
REMARK SMILES IDX 10 16 14 17 11 18 13 19 12 20 15 21 16 22 21 23 22 24 23 25
REMARK SMILES IDX 24 26 25 27 26 28 87 29 27 30 86 31 28 32 29 33 30 34 80 35
REMARK SMILES IDX 31 36 85 37 79 38 81 39 32 40 84 41 78 42 77 43 33 45 65 46
REMARK SMILES IDX 45 47 64 48 46 49 49 50 63 51 82 52 47 53 48 54 62 56 83 57
REMARK SMILES IDX 50 58 34 59 35 60 43 61 36 62 38 63 44 64 37 65 39 66 40 67
REMARK SMILES IDX 41 68 42 69 66 70 67 71 75 72 68 73 70 74 76 75 69 76 71 77
REMARK SMILES IDX 72 78 73 79 74 80 51 81 52 82 60 83 53 84 55 85 61 86 54 87
REMARK SMILES IDX 56 88 57 89 58 90 59 91
REMARK H PARENT 5 11 8 14 81 44 49 55
REMARK Flexibility Score: inf
ROOT
ATOM      1  C   UNL A   1      32.249  27.344  26.670  1.00  0.00     0.274 C 
ENDROOT
BRANCH   1   2
ATOM      2  O   UNL A   1      32.400  25.851  26.011  1.00  0.00    -0.460 OA
BRANCH   2   3
ATOM      3  C   UNL A   1      32.488  25.210  24.700  1.00  0.00     0.331 C 
ATOM      4  O   UNL A   1      33.069  25.692  23.728  1.00  0.00    -0.249 OA
BRANCH   3   5
ATOM      5  C   UNL A   1      31.512  23.984  24.433  1.00  0.00     0.136 C 
ATOM      6  C   UNL A   1      30.672  24.426  23.230  1.00  0.00     0.047 C 
BRANCH   5   7
ATOM      7  C   UNL A   1      31.698  22.430  24.271  1.00  0.00     0.037 C 
ATOM      8  C   UNL A   1      32.149  21.797  22.985  1.00  0.00     0.007 C 
ENDBRANCH   5   7
BRANCH   5   9
ATOM      9  N   UNL A   1      30.931  24.061  25.702  1.00  0.00    -0.322 N 
ATOM     10  C   UNL A   1      31.479  23.284  26.648  1.00  0.00     0.320 C 
ATOM     11  H   UNL A   1      30.165  24.651  25.890  1.00  0.00     0.166 HD
ATOM     12  O   UNL A   1      30.741  23.127  27.625  1.00  0.00    -0.248 OA
ATOM     13  N   UNL A   1      32.728  22.634  26.547  1.00  0.00    -0.307 N 
ATOM     14  H   UNL A   1      32.582  21.884  27.167  1.00  0.00     0.171 HD
BRANCH  13  15
ATOM     15  C   UNL A   1      34.126  22.344  26.113  1.00  0.00     0.060 A 
ATOM     16  C   UNL A   1      34.834  23.569  25.932  1.00  0.00     0.027 A 
ATOM     17  C   UNL A   1      34.899  21.223  25.674  1.00  0.00     0.076 A 
ATOM     18  C   UNL A   1      36.182  23.688  25.575  1.00  0.00     0.002 A 
ATOM     19  C   UNL A   1      36.306  21.335  25.478  1.00  0.00     0.021 A 
ATOM     20  C   UNL A   1      36.946  22.558  25.432  1.00  0.00     0.002 A 
BRANCH  17  21
ATOM     21  C   UNL A   1      34.480  20.011  25.001  1.00  0.00     0.101 C 
ATOM     22  N   UNL A   1      34.282  18.975  24.491  1.00  0.00    -0.192 NA
ENDBRANCH  17  21
ENDBRANCH  13  15
ENDBRANCH   5   9
ENDBRANCH   3   5
ENDBRANCH   2   3
ENDBRANCH   1   2
BRANCH   1  23
ATOM     23  C   UNL A   1      31.659  28.872  26.085  1.00  0.00     0.275 C 
BRANCH  23  24
ATOM     24  O   UNL A   1      32.553  30.088  25.824  1.00  0.00    -0.458 OA
BRANCH  24  25
ATOM     25  C   UNL A   1      32.913  31.043  26.779  1.00  0.00     0.338 C 
ATOM     26  O   UNL A   1      32.162  31.922  27.171  1.00  0.00    -0.246 OA
BRANCH  25  27
ATOM     27  C   UNL A   1      34.370  30.871  27.345  1.00  0.00     0.060 A 
ATOM     28  C   UNL A   1      34.950  29.620  27.646  1.00  0.00     0.016 A 
ATOM     29  C   UNL A   1      35.161  31.958  27.721  1.00  0.00     0.016 A 
ATOM     30  C   UNL A   1      36.226  29.409  28.189  1.00  0.00     0.010 A 
ATOM     31  C   UNL A   1      36.449  31.767  28.320  1.00  0.00     0.010 A 
ATOM     32  C   UNL A   1      36.994  30.487  28.572  1.00  0.00    -0.014 A 
BRANCH  32  33
ATOM     33  C   UNL A   1      38.199  30.247  29.434  1.00  0.00     0.031 A 
ATOM     34  C   UNL A   1      39.291  29.357  28.896  1.00  0.00     0.074 A 
ATOM     35  C   UNL A   1      38.406  30.855  30.624  1.00  0.00     0.049 A 
ATOM     36  N   UNL A   1      40.312  28.819  29.510  1.00  0.00    -0.248 NA
ATOM     37  C   UNL A   1      39.215  29.035  27.462  1.00  0.00     0.031 C 
ATOM     38  C   UNL A   1      37.549  31.873  31.230  1.00  0.00     0.029 A 
ATOM     39  N   UNL A   1      39.406  30.670  31.559  1.00  0.00    -0.354 N 
ATOM     40  C   UNL A   1      40.941  28.015  28.565  1.00  0.00     0.074 A 
ATOM     41  C   UNL A   1      40.203  28.164  27.329  1.00  0.00     0.031 C 
ATOM     42  C   UNL A   1      38.023  32.178  32.453  1.00  0.00     0.029 A 
ATOM     43  C   UNL A   1      39.178  31.332  32.747  1.00  0.00     0.049 A 
ATOM     44  H   UNL A   1      40.205  30.118  31.394  1.00  0.00     0.167 HD
ATOM     45  C   UNL A   1      42.024  27.215  28.713  1.00  0.00     0.034 A 
ATOM     46  C   UNL A   1      39.779  31.222  33.953  1.00  0.00     0.034 A 
ATOM     47  C   UNL A   1      42.787  27.101  29.927  1.00  0.00     0.049 A 
ATOM     48  C   UNL A   1      40.927  30.257  34.130  1.00  0.00     0.074 A 
ATOM     49  C   UNL A   1      43.905  26.323  30.168  1.00  0.00     0.029 A 
ATOM     50  N   UNL A   1      42.508  27.776  31.104  1.00  0.00    -0.354 N 
ATOM     51  N   UNL A   1      41.506  29.489  33.239  1.00  0.00    -0.248 NA
ATOM     52  C   UNL A   1      41.515  30.153  35.476  1.00  0.00     0.031 C 
ATOM     53  C   UNL A   1      44.270  26.487  31.508  1.00  0.00     0.029 A 
ATOM     54  C   UNL A   1      43.419  27.417  32.082  1.00  0.00     0.049 A 
ATOM     55  H   UNL A   1      41.771  28.417  31.227  1.00  0.00     0.167 HD
ATOM     56  C   UNL A   1      42.546  28.845  33.904  1.00  0.00     0.074 A 
ATOM     57  C   UNL A   1      42.530  29.323  35.269  1.00  0.00     0.031 C 
ATOM     58  C   UNL A   1      43.429  27.932  33.428  1.00  0.00     0.034 A 
BRANCH  45  59
ATOM     59  C   UNL A   1      42.420  26.355  27.539  1.00  0.00     0.023 A 
ATOM     60  C   UNL A   1      43.220  26.876  26.502  1.00  0.00     0.012 A 
ATOM     61  C   UNL A   1      42.013  25.006  27.486  1.00  0.00     0.148 A 
ATOM     62  C   UNL A   1      43.568  26.081  25.410  1.00  0.00     0.002 A 
ATOM     63  C   UNL A   1      42.410  24.206  26.423  1.00  0.00     0.091 A 
ATOM     64  F   UNL A   1      41.237  24.534  28.473  1.00  0.00    -0.205 F 
ATOM     65  C   UNL A   1      43.172  24.746  25.375  1.00  0.00     0.022 A 
BRANCH  63  66
ATOM     66  S   UNL A   1      42.022  22.455  26.331  1.00  0.00     0.127 S 
ATOM     67  O   UNL A   1      42.667  21.946  27.541  1.00  0.00    -0.237 OA
ATOM     68  O   UNL A   1      40.560  22.465  26.378  1.00  0.00    -0.237 OA
ATOM     69  O   UNL A   1      42.589  21.980  25.078  1.00  0.00    -0.744 OA
ENDBRANCH  63  66
ENDBRANCH  45  59
BRANCH  46  70
ATOM     70  C   UNL A   1      39.283  32.014  35.123  1.00  0.00     0.023 A 
ATOM     71  C   UNL A   1      38.286  31.478  35.962  1.00  0.00     0.012 A 
ATOM     72  C   UNL A   1      39.782  33.305  35.394  1.00  0.00     0.148 A 
ATOM     73  C   UNL A   1      37.777  32.222  37.029  1.00  0.00     0.002 A 
ATOM     74  C   UNL A   1      39.314  34.014  36.493  1.00  0.00     0.091 A 
ATOM     75  F   UNL A   1      40.710  33.812  34.570  1.00  0.00    -0.205 F 
ATOM     76  C   UNL A   1      38.297  33.484  37.302  1.00  0.00     0.022 A 
BRANCH  74  77
ATOM     77  S   UNL A   1      40.012  35.592  36.994  1.00  0.00     0.127 S 
ATOM     78  O   UNL A   1      39.651  36.452  35.870  1.00  0.00    -0.237 OA
ATOM     79  O   UNL A   1      39.283  35.859  38.234  1.00  0.00    -0.237 OA
ATOM     80  O   UNL A   1      41.439  35.358  37.172  1.00  0.00    -0.744 OA
ENDBRANCH  74  77
ENDBRANCH  46  70
BRANCH  58  81
ATOM     81  C   UNL A   1      44.504  27.429  34.361  1.00  0.00     0.023 A 
ATOM     82  C   UNL A   1      44.307  26.252  35.110  1.00  0.00     0.012 A 
ATOM     83  C   UNL A   1      45.746  28.093  34.435  1.00  0.00     0.148 A 
ATOM     84  C   UNL A   1      45.313  25.766  35.946  1.00  0.00     0.002 A 
ATOM     85  C   UNL A   1      46.763  27.572  35.227  1.00  0.00     0.091 A 
ATOM     86  F   UNL A   1      45.912  29.219  33.727  1.00  0.00    -0.205 F 
ATOM     87  C   UNL A   1      46.544  26.418  35.995  1.00  0.00     0.022 A 
BRANCH  85  88
ATOM     88  S   UNL A   1      48.411  28.286  35.276  1.00  0.00     0.127 S 
ATOM     89  O   UNL A   1      48.809  28.212  33.870  1.00  0.00    -0.237 OA
ATOM     90  O   UNL A   1      48.146  29.639  35.764  1.00  0.00    -0.237 OA
ATOM     91  O   UNL A   1      49.187  27.453  36.184  1.00  0.00    -0.744 OA
ENDBRANCH  85  88
ENDBRANCH  58  81
ENDBRANCH  32  33
ENDBRANCH  25  27
ENDBRANCH  24  25
ENDBRANCH  23  24
ENDBRANCH   1  23
TORSDOF 18
ENDMDL
