MODEL 1
REMARK VINA RESULT:     -11.3      0.000      0.000
REMARK SMILES CC(C)C[C@H](Nc1ncnc2scc(-c3ccccc3)c12)C(=O)OCCOC(=O)c1ccc(-c2c3nc(c(-c4cccc(S(=O)(=O)[O-])c4F)c4ccc([nH]4)c(-c4cccc(S(=O)(=O)[O-])c4F)c4nc(c(-c5cccc(S(=O)(=O)[O-])c5F)c5ccc2[nH]5)C=C4)C=C3)cc1
REMARK SMILES IDX 25 1 24 2 22 3 23 4 5 5 4 6 2 7 1 8 3 9 6 10 7 12 8 13 21 14
REMARK SMILES IDX 9 15 11 16 14 17 10 18 12 19 13 20 15 21 16 22 20 23 17 24
REMARK SMILES IDX 19 25 18 26 26 27 27 28 28 29 29 30 30 31 31 32 92 33 32 34
REMARK SMILES IDX 91 35 33 36 34 37 35 38 85 39 36 40 90 41 84 42 86 43 37 44
REMARK SMILES IDX 89 45 83 46 82 47 38 49 70 50 50 51 69 52 51 53 54 54 68 55
REMARK SMILES IDX 87 56 52 57 53 58 67 60 88 61 55 62 39 63 40 64 48 65 41 66
REMARK SMILES IDX 43 67 49 68 42 69 44 70 45 71 46 72 47 73 71 74 72 75 80 76
REMARK SMILES IDX 73 77 75 78 81 79 74 80 76 81 77 82 78 83 79 84 56 85 57 86
REMARK SMILES IDX 65 87 58 88 60 89 66 90 59 91 61 92 62 93 63 94 64 95
REMARK H PARENT 6 11 86 48 54 59
REMARK Flexibility Score: inf
ROOT
ATOM      1  C   UNL A   1      36.015  23.042  26.000  1.00  0.00     0.274 C 
ENDROOT
BRANCH   1   2
ATOM      2  O   UNL A   1      35.984  24.053  24.979  1.00  0.00    -0.461 OA
BRANCH   2   3
ATOM      3  C   UNL A   1      35.459  23.662  23.780  1.00  0.00     0.328 C 
ATOM      4  O   UNL A   1      36.125  23.486  22.763  1.00  0.00    -0.250 OA
BRANCH   3   5
ATOM      5  C   UNL A   1      33.927  23.518  23.813  1.00  0.00     0.191 C 
BRANCH   5   6
ATOM      6  C   UNL A   1      33.599  22.048  23.489  1.00  0.00     0.040 C 
BRANCH   6   7
ATOM      7  C   UNL A   1      32.101  21.695  23.346  1.00  0.00    -0.015 C 
ATOM      8  C   UNL A   1      31.212  22.945  23.267  1.00  0.00     0.007 C 
ATOM      9  C   UNL A   1      31.886  20.871  22.074  1.00  0.00     0.007 C 
ENDBRANCH   6   7
ENDBRANCH   5   6
BRANCH   5  10
ATOM     10  N   UNL A   1      33.274  24.563  23.005  1.00  0.00    -0.356 N 
ATOM     11  H   UNL A   1      32.630  24.247  22.331  1.00  0.00     0.163 HD
BRANCH  10  12
ATOM     12  C   UNL A   1      33.455  25.921  23.080  1.00  0.00     0.139 A 
ATOM     13  N   UNL A   1      33.846  26.593  21.975  1.00  0.00    -0.219 NA
ATOM     14  C   UNL A   1      33.318  26.659  24.286  1.00  0.00     0.062 A 
ATOM     15  C   UNL A   1      34.170  27.888  22.055  1.00  0.00     0.225 A 
ATOM     16  C   UNL A   1      33.749  27.982  24.227  1.00  0.00     0.129 A 
ATOM     17  C   UNL A   1      32.806  26.375  25.615  1.00  0.00     0.006 A 
ATOM     18  N   UNL A   1      34.187  28.646  23.146  1.00  0.00    -0.225 NA
ATOM     19  S   UNL A   1      33.711  28.779  25.732  1.00  0.00    -0.123 S 
ATOM     20  C   UNL A   1      33.011  27.428  26.490  1.00  0.00     0.076 A 
BRANCH  17  21
ATOM     21  C   UNL A   1      32.068  25.217  26.100  1.00  0.00    -0.017 A 
ATOM     22  C   UNL A   1      32.775  24.130  26.640  1.00  0.00     0.009 A 
ATOM     23  C   UNL A   1      30.678  25.148  25.993  1.00  0.00     0.009 A 
ATOM     24  C   UNL A   1      32.098  22.996  27.088  1.00  0.00     0.001 A 
ATOM     25  C   UNL A   1      30.007  24.006  26.434  1.00  0.00     0.001 A 
ATOM     26  C   UNL A   1      30.711  22.938  26.990  1.00  0.00     0.000 A 
ENDBRANCH  17  21
ENDBRANCH  10  12
ENDBRANCH   5  10
ENDBRANCH   3   5
ENDBRANCH   2   3
ENDBRANCH   1   2
BRANCH   1  27
ATOM     27  C   UNL A   1      36.834  21.808  25.610  1.00  0.00     0.275 C 
BRANCH  27  28
ATOM     28  O   UNL A   1      38.174  22.112  25.206  1.00  0.00    -0.458 OA
BRANCH  28  29
ATOM     29  C   UNL A   1      39.144  21.729  26.065  1.00  0.00     0.338 C 
ATOM     30  O   UNL A   1      39.562  20.600  26.275  1.00  0.00    -0.246 OA
BRANCH  29  31
ATOM     31  C   UNL A   1      39.747  22.923  26.648  1.00  0.00     0.060 A 
ATOM     32  C   UNL A   1      40.641  22.775  27.712  1.00  0.00     0.016 A 
ATOM     33  C   UNL A   1      39.415  24.178  26.146  1.00  0.00     0.016 A 
ATOM     34  C   UNL A   1      41.243  23.892  28.268  1.00  0.00     0.010 A 
ATOM     35  C   UNL A   1      40.027  25.297  26.695  1.00  0.00     0.010 A 
ATOM     36  C   UNL A   1      40.950  25.153  27.746  1.00  0.00    -0.014 A 
BRANCH  36  37
ATOM     37  C   UNL A   1      41.638  26.345  28.263  1.00  0.00     0.031 A 
ATOM     38  C   UNL A   1      40.851  27.388  28.983  1.00  0.00     0.074 A 
ATOM     39  C   UNL A   1      42.941  26.505  27.972  1.00  0.00     0.049 A 
ATOM     40  N   UNL A   1      41.212  28.589  29.337  1.00  0.00    -0.248 NA
ATOM     41  C   UNL A   1      39.463  27.042  29.330  1.00  0.00     0.031 C 
ATOM     42  C   UNL A   1      43.768  25.529  27.257  1.00  0.00     0.029 A 
ATOM     43  N   UNL A   1      43.780  27.566  28.186  1.00  0.00    -0.354 N 
ATOM     44  C   UNL A   1      40.082  29.167  29.898  1.00  0.00     0.074 A 
ATOM     45  C   UNL A   1      39.026  28.181  29.846  1.00  0.00     0.031 C 
ATOM     46  C   UNL A   1      44.982  26.057  27.045  1.00  0.00     0.029 A 
ATOM     47  C   UNL A   1      44.999  27.420  27.566  1.00  0.00     0.049 A 
ATOM     48  H   UNL A   1      43.535  28.351  28.727  1.00  0.00     0.167 HD
ATOM     49  C   UNL A   1      39.951  30.414  30.405  1.00  0.00     0.034 A 
ATOM     50  C   UNL A   1      45.994  28.309  27.393  1.00  0.00     0.034 A 
ATOM     51  C   UNL A   1      41.031  31.362  30.457  1.00  0.00     0.049 A 
ATOM     52  C   UNL A   1      45.831  29.680  27.984  1.00  0.00     0.074 A 
ATOM     53  C   UNL A   1      41.043  32.626  31.013  1.00  0.00     0.029 A 
ATOM     54  N   UNL A   1      42.293  31.147  29.917  1.00  0.00    -0.354 N 
ATOM     55  N   UNL A   1      44.800  30.180  28.623  1.00  0.00    -0.248 NA
ATOM     56  C   UNL A   1      46.968  30.599  27.859  1.00  0.00     0.031 C 
ATOM     57  C   UNL A   1      42.304  33.187  30.786  1.00  0.00     0.029 A 
ATOM     58  C   UNL A   1      43.088  32.260  30.113  1.00  0.00     0.049 A 
ATOM     59  H   UNL A   1      42.579  30.322  29.461  1.00  0.00     0.167 HD
ATOM     60  C   UNL A   1      45.172  31.461  29.005  1.00  0.00     0.074 A 
ATOM     61  C   UNL A   1      46.531  31.654  28.535  1.00  0.00     0.031 C 
ATOM     62  C   UNL A   1      44.456  32.399  29.674  1.00  0.00     0.034 A 
BRANCH  49  63
ATOM     63  C   UNL A   1      38.602  30.809  30.941  1.00  0.00     0.023 A 
ATOM     64  C   UNL A   1      38.271  30.532  32.283  1.00  0.00     0.012 A 
ATOM     65  C   UNL A   1      37.667  31.471  30.122  1.00  0.00     0.148 A 
ATOM     66  C   UNL A   1      37.017  30.873  32.790  1.00  0.00     0.002 A 
ATOM     67  C   UNL A   1      36.436  31.845  30.645  1.00  0.00     0.091 A 
ATOM     68  F   UNL A   1      37.987  31.697  28.840  1.00  0.00    -0.205 F 
ATOM     69  C   UNL A   1      36.104  31.537  31.975  1.00  0.00     0.022 A 
BRANCH  67  70
ATOM     70  S   UNL A   1      35.224  32.764  29.691  1.00  0.00     0.127 S 
ATOM     71  O   UNL A   1      34.062  32.733  30.578  1.00  0.00    -0.237 OA
ATOM     72  O   UNL A   1      35.858  34.076  29.564  1.00  0.00    -0.237 OA
ATOM     73  O   UNL A   1      35.076  32.042  28.435  1.00  0.00    -0.744 OA
ENDBRANCH  67  70
ENDBRANCH  49  63
BRANCH  50  74
ATOM     74  C   UNL A   1      47.217  27.899  26.650  1.00  0.00     0.023 A 
ATOM     75  C   UNL A   1      48.276  27.287  27.346  1.00  0.00     0.012 A 
ATOM     76  C   UNL A   1      47.296  28.028  25.248  1.00  0.00     0.148 A 
ATOM     77  C   UNL A   1      49.398  26.821  26.660  1.00  0.00     0.002 A 
ATOM     78  C   UNL A   1      48.393  27.514  24.566  1.00  0.00     0.091 A 
ATOM     79  F   UNL A   1      46.280  28.622  24.607  1.00  0.00    -0.205 F 
ATOM     80  C   UNL A   1      49.452  26.922  25.272  1.00  0.00     0.022 A 
BRANCH  78  81
ATOM     81  S   UNL A   1      48.482  27.474  22.771  1.00  0.00     0.127 S 
ATOM     82  O   UNL A   1      49.760  28.136  22.521  1.00  0.00    -0.237 OA
ATOM     83  O   UNL A   1      48.471  26.036  22.500  1.00  0.00    -0.237 OA
ATOM     84  O   UNL A   1      47.300  28.182  22.301  1.00  0.00    -0.744 OA
ENDBRANCH  78  81
ENDBRANCH  50  74
BRANCH  62  85
ATOM     85  C   UNL A   1      45.133  33.708  29.970  1.00  0.00     0.023 A 
ATOM     86  C   UNL A   1      45.929  33.837  31.124  1.00  0.00     0.012 A 
ATOM     87  C   UNL A   1      45.065  34.768  29.046  1.00  0.00     0.148 A 
ATOM     88  C   UNL A   1      46.637  35.013  31.362  1.00  0.00     0.002 A 
ATOM     89  C   UNL A   1      45.813  35.918  29.265  1.00  0.00     0.091 A 
ATOM     90  F   UNL A   1      44.285  34.626  27.965  1.00  0.00    -0.205 F 
ATOM     91  C   UNL A   1      46.591  36.046  30.427  1.00  0.00     0.022 A 
BRANCH  89  92
ATOM     92  S   UNL A   1      45.895  37.254  28.069  1.00  0.00     0.127 S 
ATOM     93  O   UNL A   1      46.657  38.264  28.803  1.00  0.00    -0.237 OA
ATOM     94  O   UNL A   1      46.616  36.632  26.959  1.00  0.00    -0.237 OA
ATOM     95  O   UNL A   1      44.515  37.613  27.769  1.00  0.00    -0.744 OA
ENDBRANCH  89  92
ENDBRANCH  62  85
ENDBRANCH  36  37
ENDBRANCH  29  31
ENDBRANCH  28  29
ENDBRANCH  27  28
ENDBRANCH   1  27
TORSDOF 19
ENDMDL
MODEL 2
REMARK VINA RESULT:     -11.2      1.972      2.862
REMARK SMILES CC(C)C[C@H](Nc1ncnc2scc(-c3ccccc3)c12)C(=O)OCCOC(=O)c1ccc(-c2c3nc(c(-c4cccc(S(=O)(=O)[O-])c4F)c4ccc([nH]4)c(-c4cccc(S(=O)(=O)[O-])c4F)c4nc(c(-c5cccc(S(=O)(=O)[O-])c5F)c5ccc2[nH]5)C=C4)C=C3)cc1
REMARK SMILES IDX 25 1 24 2 22 3 23 4 5 5 4 6 2 7 1 8 3 9 6 10 7 12 8 13 21 14
REMARK SMILES IDX 9 15 11 16 14 17 10 18 12 19 13 20 15 21 16 22 20 23 17 24
REMARK SMILES IDX 19 25 18 26 26 27 27 28 28 29 29 30 30 31 31 32 92 33 32 34
REMARK SMILES IDX 91 35 33 36 34 37 35 38 85 39 36 40 90 41 84 42 86 43 37 44
REMARK SMILES IDX 89 45 83 46 82 47 38 49 70 50 50 51 69 52 51 53 54 54 68 55
REMARK SMILES IDX 87 56 52 57 53 58 67 60 88 61 55 62 39 63 40 64 48 65 41 66
REMARK SMILES IDX 43 67 49 68 42 69 44 70 45 71 46 72 47 73 71 74 72 75 80 76
REMARK SMILES IDX 73 77 75 78 81 79 74 80 76 81 77 82 78 83 79 84 56 85 57 86
REMARK SMILES IDX 65 87 58 88 60 89 66 90 59 91 61 92 62 93 63 94 64 95
REMARK H PARENT 6 11 86 48 54 59
REMARK Flexibility Score: inf
ROOT
ATOM      1  C   UNL A   1      34.972  22.234  26.925  1.00  0.00     0.274 C 
ENDROOT
BRANCH   1   2
ATOM      2  O   UNL A   1      34.519  23.525  26.486  1.00  0.00    -0.461 OA
BRANCH   2   3
ATOM      3  C   UNL A   1      33.164  23.700  26.472  1.00  0.00     0.328 C 
ATOM      4  O   UNL A   1      32.392  23.144  27.247  1.00  0.00    -0.250 OA
BRANCH   3   5
ATOM      5  C   UNL A   1      32.690  24.627  25.338  1.00  0.00     0.191 C 
BRANCH   5   6
ATOM      6  C   UNL A   1      33.948  25.122  24.598  1.00  0.00     0.040 C 
BRANCH   6   7
ATOM      7  C   UNL A   1      34.062  24.736  23.106  1.00  0.00    -0.015 C 
ATOM      8  C   UNL A   1      34.350  23.239  22.911  1.00  0.00     0.007 C 
ATOM      9  C   UNL A   1      32.752  25.070  22.386  1.00  0.00     0.007 C 
ENDBRANCH   6   7
ENDBRANCH   5   6
BRANCH   5  10
ATOM     10  N   UNL A   1      31.743  25.639  25.835  1.00  0.00    -0.356 N 
ATOM     11  H   UNL A   1      31.865  25.923  26.770  1.00  0.00     0.163 HD
BRANCH  10  12
ATOM     12  C   UNL A   1      30.712  26.235  25.153  1.00  0.00     0.139 A 
ATOM     13  N   UNL A   1      29.611  25.509  24.861  1.00  0.00    -0.219 NA
ATOM     14  C   UNL A   1      30.767  27.570  24.670  1.00  0.00     0.062 A 
ATOM     15  C   UNL A   1      28.659  26.018  24.073  1.00  0.00     0.225 A 
ATOM     16  C   UNL A   1      29.732  27.938  23.815  1.00  0.00     0.129 A 
ATOM     17  C   UNL A   1      31.660  28.700  24.864  1.00  0.00     0.006 A 
ATOM     18  N   UNL A   1      28.659  27.206  23.478  1.00  0.00    -0.225 NA
ATOM     19  S   UNL A   1      29.923  29.490  23.141  1.00  0.00    -0.123 S 
ATOM     20  C   UNL A   1      31.330  29.771  24.053  1.00  0.00     0.076 A 
BRANCH  17  21
ATOM     21  C   UNL A   1      32.751  28.871  25.813  1.00  0.00    -0.017 A 
ATOM     22  C   UNL A   1      34.062  28.569  25.413  1.00  0.00     0.009 A 
ATOM     23  C   UNL A   1      32.510  29.282  27.125  1.00  0.00     0.009 A 
ATOM     24  C   UNL A   1      35.124  28.697  26.308  1.00  0.00     0.001 A 
ATOM     25  C   UNL A   1      33.576  29.400  28.020  1.00  0.00     0.001 A 
ATOM     26  C   UNL A   1      34.880  29.120  27.611  1.00  0.00     0.000 A 
ENDBRANCH  17  21
ENDBRANCH  10  12
ENDBRANCH   5  10
ENDBRANCH   3   5
ENDBRANCH   2   3
ENDBRANCH   1   2
BRANCH   1  27
ATOM     27  C   UNL A   1      35.702  21.443  25.837  1.00  0.00     0.275 C 
BRANCH  27  28
ATOM     28  O   UNL A   1      36.827  22.132  25.281  1.00  0.00    -0.458 OA
BRANCH  28  29
ATOM     29  C   UNL A   1      38.039  21.693  25.684  1.00  0.00     0.338 C 
ATOM     30  O   UNL A   1      38.540  20.593  25.505  1.00  0.00    -0.246 OA
BRANCH  29  31
ATOM     31  C   UNL A   1      38.761  22.808  26.287  1.00  0.00     0.060 A 
ATOM     32  C   UNL A   1      39.882  22.537  27.077  1.00  0.00     0.016 A 
ATOM     33  C   UNL A   1      38.319  24.111  26.073  1.00  0.00     0.016 A 
ATOM     34  C   UNL A   1      40.597  23.580  27.641  1.00  0.00     0.010 A 
ATOM     35  C   UNL A   1      39.043  25.158  26.629  1.00  0.00     0.010 A 
ATOM     36  C   UNL A   1      40.188  24.894  27.401  1.00  0.00    -0.014 A 
BRANCH  36  37
ATOM     37  C   UNL A   1      40.978  26.020  27.919  1.00  0.00     0.031 A 
ATOM     38  C   UNL A   1      40.288  27.121  28.652  1.00  0.00     0.074 A 
ATOM     39  C   UNL A   1      42.288  26.072  27.619  1.00  0.00     0.049 A 
ATOM     40  N   UNL A   1      40.751  28.285  29.010  1.00  0.00    -0.248 NA
ATOM     41  C   UNL A   1      38.877  26.890  29.008  1.00  0.00     0.031 C 
ATOM     42  C   UNL A   1      43.024  25.035  26.891  1.00  0.00     0.029 A 
ATOM     43  N   UNL A   1      43.214  27.057  27.831  1.00  0.00    -0.354 N 
ATOM     44  C   UNL A   1      39.678  28.952  29.583  1.00  0.00     0.074 A 
ATOM     45  C   UNL A   1      38.542  28.059  29.535  1.00  0.00     0.031 C 
ATOM     46  C   UNL A   1      44.277  25.461  26.671  1.00  0.00     0.029 A 
ATOM     47  C   UNL A   1      44.412  26.813  27.200  1.00  0.00     0.049 A 
ATOM     48  H   UNL A   1      43.041  27.857  28.379  1.00  0.00     0.167 HD
ATOM     49  C   UNL A   1      39.656  30.203  30.100  1.00  0.00     0.034 A 
ATOM     50  C   UNL A   1      45.476  27.617  27.024  1.00  0.00     0.034 A 
ATOM     51  C   UNL A   1      40.813  31.056  30.148  1.00  0.00     0.049 A 
ATOM     52  C   UNL A   1      45.434  28.992  27.624  1.00  0.00     0.074 A 
ATOM     53  C   UNL A   1      40.935  32.311  30.710  1.00  0.00     0.029 A 
ATOM     54  N   UNL A   1      42.048  30.739  29.596  1.00  0.00    -0.354 N 
ATOM     55  N   UNL A   1      44.454  29.574  28.275  1.00  0.00    -0.248 NA
ATOM     56  C   UNL A   1      46.644  29.814  27.496  1.00  0.00     0.031 C 
ATOM     57  C   UNL A   1      42.237  32.765  30.477  1.00  0.00     0.029 A 
ATOM     58  C   UNL A   1      42.935  31.780  29.791  1.00  0.00     0.049 A 
ATOM     59  H   UNL A   1      42.259  29.896  29.133  1.00  0.00     0.167 HD
ATOM     60  C   UNL A   1      44.936  30.817  28.662  1.00  0.00     0.074 A 
ATOM     61  C   UNL A   1      46.302  30.898  28.181  1.00  0.00     0.031 C 
ATOM     62  C   UNL A   1      44.306  31.807  29.341  1.00  0.00     0.034 A 
BRANCH  49  63
ATOM     63  C   UNL A   1      38.350  30.706  30.649  1.00  0.00     0.023 A 
ATOM     64  C   UNL A   1      37.941  30.331  31.945  1.00  0.00     0.012 A 
ATOM     65  C   UNL A   1      37.532  31.566  29.890  1.00  0.00     0.148 A 
ATOM     66  C   UNL A   1      36.723  30.772  32.462  1.00  0.00     0.002 A 
ATOM     67  C   UNL A   1      36.340  32.035  30.427  1.00  0.00     0.091 A 
ATOM     68  F   UNL A   1      37.921  31.886  28.647  1.00  0.00    -0.205 F 
ATOM     69  C   UNL A   1      35.928  31.630  31.708  1.00  0.00     0.022 A 
BRANCH  67  70
ATOM     70  S   UNL A   1      35.285  33.198  29.556  1.00  0.00     0.127 S 
ATOM     71  O   UNL A   1      34.877  32.414  28.392  1.00  0.00    -0.237 OA
ATOM     72  O   UNL A   1      34.219  33.440  30.530  1.00  0.00    -0.237 OA
ATOM     73  O   UNL A   1      36.118  34.357  29.274  1.00  0.00    -0.744 OA
ENDBRANCH  67  70
ENDBRANCH  49  63
BRANCH  50  74
ATOM     74  C   UNL A   1      46.655  27.111  26.268  1.00  0.00     0.023 A 
ATOM     75  C   UNL A   1      46.740  27.342  24.883  1.00  0.00     0.012 A 
ATOM     76  C   UNL A   1      47.731  26.486  26.930  1.00  0.00     0.148 A 
ATOM     77  C   UNL A   1      47.871  26.949  24.167  1.00  0.00     0.002 A 
ATOM     78  C   UNL A   1      48.877  26.145  26.220  1.00  0.00     0.091 A 
ATOM     79  F   UNL A   1      47.626  26.267  28.248  1.00  0.00    -0.205 F 
ATOM     80  C   UNL A   1      48.943  26.363  24.836  1.00  0.00     0.022 A 
BRANCH  78  81
ATOM     81  S   UNL A   1      50.358  25.515  27.021  1.00  0.00     0.127 S 
ATOM     82  O   UNL A   1      51.272  25.375  25.892  1.00  0.00    -0.237 OA
ATOM     83  O   UNL A   1      50.685  26.601  27.947  1.00  0.00    -0.237 OA
ATOM     84  O   UNL A   1      49.959  24.274  27.671  1.00  0.00    -0.744 OA
ENDBRANCH  78  81
ENDBRANCH  50  74
BRANCH  62  85
ATOM     85  C   UNL A   1      45.093  33.052  29.639  1.00  0.00     0.023 A 
ATOM     86  C   UNL A   1      45.879  33.119  30.806  1.00  0.00     0.012 A 
ATOM     87  C   UNL A   1      45.136  34.106  28.707  1.00  0.00     0.148 A 
ATOM     88  C   UNL A   1      46.686  34.229  31.047  1.00  0.00     0.002 A 
ATOM     89  C   UNL A   1      45.980  35.186  28.931  1.00  0.00     0.091 A 
ATOM     90  F   UNL A   1      44.364  34.025  27.614  1.00  0.00    -0.205 F 
ATOM     91  C   UNL A   1      46.748  35.254  30.104  1.00  0.00     0.022 A 
BRANCH  89  92
ATOM     92  S   UNL A   1      46.201  36.499  27.727  1.00  0.00     0.127 S 
ATOM     93  O   UNL A   1      46.862  35.791  26.631  1.00  0.00    -0.237 OA
ATOM     94  O   UNL A   1      44.822  36.901  27.450  1.00  0.00    -0.237 OA
ATOM     95  O   UNL A   1      47.008  37.519  28.384  1.00  0.00    -0.744 OA
ENDBRANCH  89  92
ENDBRANCH  62  85
ENDBRANCH  36  37
ENDBRANCH  29  31
ENDBRANCH  28  29
ENDBRANCH  27  28
ENDBRANCH   1  27
TORSDOF 19
ENDMDL
MODEL 3
REMARK VINA RESULT:     -11.2      5.100      9.615
REMARK SMILES CC(C)C[C@H](Nc1ncnc2scc(-c3ccccc3)c12)C(=O)OCCOC(=O)c1ccc(-c2c3nc(c(-c4cccc(S(=O)(=O)[O-])c4F)c4ccc([nH]4)c(-c4cccc(S(=O)(=O)[O-])c4F)c4nc(c(-c5cccc(S(=O)(=O)[O-])c5F)c5ccc2[nH]5)C=C4)C=C3)cc1
REMARK SMILES IDX 25 1 24 2 22 3 23 4 5 5 4 6 2 7 1 8 3 9 6 10 7 12 8 13 21 14
REMARK SMILES IDX 9 15 11 16 14 17 10 18 12 19 13 20 15 21 16 22 20 23 17 24
REMARK SMILES IDX 19 25 18 26 26 27 27 28 28 29 29 30 30 31 31 32 92 33 32 34
REMARK SMILES IDX 91 35 33 36 34 37 35 38 85 39 36 40 90 41 84 42 86 43 37 44
REMARK SMILES IDX 89 45 83 46 82 47 38 49 70 50 50 51 69 52 51 53 54 54 68 55
REMARK SMILES IDX 87 56 52 57 53 58 67 60 88 61 55 62 39 63 40 64 48 65 41 66
REMARK SMILES IDX 43 67 49 68 42 69 44 70 45 71 46 72 47 73 71 74 72 75 80 76
REMARK SMILES IDX 73 77 75 78 81 79 74 80 76 81 77 82 78 83 79 84 56 85 57 86
REMARK SMILES IDX 65 87 58 88 60 89 66 90 59 91 61 92 62 93 63 94 64 95
REMARK H PARENT 6 11 86 48 54 59
REMARK Flexibility Score: inf
ROOT
ATOM      1  C   UNL A   1      31.549  29.189  24.869  1.00  0.00     0.274 C 
ENDROOT
BRANCH   1   2
ATOM      2  O   UNL A   1      32.769  28.433  24.793  1.00  0.00    -0.461 OA
BRANCH   2   3
ATOM      3  C   UNL A   1      32.835  27.339  25.610  1.00  0.00     0.328 C 
ATOM      4  O   UNL A   1      32.158  27.198  26.624  1.00  0.00    -0.250 OA
BRANCH   3   5
ATOM      5  C   UNL A   1      33.894  26.317  25.160  1.00  0.00     0.191 C 
BRANCH   5   6
ATOM      6  C   UNL A   1      33.797  26.205  23.626  1.00  0.00     0.040 C 
BRANCH   6   7
ATOM      7  C   UNL A   1      32.549  25.485  23.068  1.00  0.00    -0.015 C 
ATOM      8  C   UNL A   1      31.681  26.409  22.200  1.00  0.00     0.007 C 
ATOM      9  C   UNL A   1      32.982  24.291  22.214  1.00  0.00     0.007 C 
ENDBRANCH   6   7
ENDBRANCH   5   6
BRANCH   5  10
ATOM     10  N   UNL A   1      33.808  25.076  25.947  1.00  0.00    -0.356 N 
ATOM     11  H   UNL A   1      33.233  25.110  26.745  1.00  0.00     0.163 HD
BRANCH  10  12
ATOM     12  C   UNL A   1      34.431  23.878  25.701  1.00  0.00     0.139 A 
ATOM     13  N   UNL A   1      35.780  23.818  25.742  1.00  0.00    -0.219 NA
ATOM     14  C   UNL A   1      33.731  22.698  25.334  1.00  0.00     0.062 A 
ATOM     15  C   UNL A   1      36.416  22.704  25.364  1.00  0.00     0.225 A 
ATOM     16  C   UNL A   1      34.528  21.638  24.910  1.00  0.00     0.129 A 
ATOM     17  C   UNL A   1      32.335  22.295  25.303  1.00  0.00     0.006 A 
ATOM     18  N   UNL A   1      35.869  21.586  24.899  1.00  0.00    -0.225 NA
ATOM     19  S   UNL A   1      33.641  20.303  24.335  1.00  0.00    -0.123 S 
ATOM     20  C   UNL A   1      32.164  21.044  24.738  1.00  0.00     0.076 A 
BRANCH  17  21
ATOM     21  C   UNL A   1      31.160  22.969  25.840  1.00  0.00    -0.017 A 
ATOM     22  C   UNL A   1      30.816  24.240  25.351  1.00  0.00     0.009 A 
ATOM     23  C   UNL A   1      30.401  22.397  26.862  1.00  0.00     0.009 A 
ATOM     24  C   UNL A   1      29.713  24.921  25.865  1.00  0.00     0.001 A 
ATOM     25  C   UNL A   1      29.304  23.088  27.378  1.00  0.00     0.001 A 
ATOM     26  C   UNL A   1      28.952  24.340  26.874  1.00  0.00     0.000 A 
ENDBRANCH  17  21
ENDBRANCH  10  12
ENDBRANCH   5  10
ENDBRANCH   3   5
ENDBRANCH   2   3
ENDBRANCH   1   2
BRANCH   1  27
ATOM     27  C   UNL A   1      31.662  30.441  25.743  1.00  0.00     0.275 C 
BRANCH  27  28
ATOM     28  O   UNL A   1      32.665  30.343  26.761  1.00  0.00    -0.458 OA
BRANCH  28  29
ATOM     29  C   UNL A   1      33.223  31.512  27.145  1.00  0.00     0.338 C 
ATOM     30  O   UNL A   1      32.727  32.629  27.117  1.00  0.00    -0.246 OA
BRANCH  29  31
ATOM     31  C   UNL A   1      34.522  31.233  27.748  1.00  0.00     0.060 A 
ATOM     32  C   UNL A   1      35.414  32.290  27.947  1.00  0.00     0.016 A 
ATOM     33  C   UNL A   1      34.850  29.927  28.102  1.00  0.00     0.016 A 
ATOM     34  C   UNL A   1      36.644  32.053  28.538  1.00  0.00     0.010 A 
ATOM     35  C   UNL A   1      36.079  29.690  28.705  1.00  0.00     0.010 A 
ATOM     36  C   UNL A   1      36.969  30.754  28.935  1.00  0.00    -0.014 A 
BRANCH  36  37
ATOM     37  C   UNL A   1      38.233  30.491  29.639  1.00  0.00     0.031 A 
ATOM     38  C   UNL A   1      39.211  29.531  29.050  1.00  0.00     0.074 A 
ATOM     39  C   UNL A   1      38.415  31.046  30.851  1.00  0.00     0.049 A 
ATOM     40  N   UNL A   1      40.275  29.008  29.592  1.00  0.00    -0.248 NA
ATOM     41  C   UNL A   1      38.942  29.080  27.674  1.00  0.00     0.031 C 
ATOM     42  C   UNL A   1      37.489  31.982  31.493  1.00  0.00     0.029 A 
ATOM     43  N   UNL A   1      39.402  30.857  31.780  1.00  0.00    -0.354 N 
ATOM     44  C   UNL A   1      40.775  28.123  28.648  1.00  0.00     0.074 A 
ATOM     45  C   UNL A   1      39.904  28.187  27.496  1.00  0.00     0.031 C 
ATOM     46  C   UNL A   1      37.925  32.247  32.733  1.00  0.00     0.029 A 
ATOM     47  C   UNL A   1      39.130  31.463  32.983  1.00  0.00     0.049 A 
ATOM     48  H   UNL A   1      40.222  30.341  31.604  1.00  0.00     0.167 HD
ATOM     49  C   UNL A   1      41.867  27.329  28.749  1.00  0.00     0.034 A 
ATOM     50  C   UNL A   1      39.756  31.352  34.170  1.00  0.00     0.034 A 
ATOM     51  C   UNL A   1      42.721  27.308  29.905  1.00  0.00     0.049 A 
ATOM     52  C   UNL A   1      40.976  30.481  34.249  1.00  0.00     0.074 A 
ATOM     53  C   UNL A   1      43.893  26.604  30.097  1.00  0.00     0.029 A 
ATOM     54  N   UNL A   1      42.481  28.018  31.075  1.00  0.00    -0.354 N 
ATOM     55  N   UNL A   1      41.516  29.738  33.312  1.00  0.00    -0.248 NA
ATOM     56  C   UNL A   1      41.691  30.450  35.530  1.00  0.00     0.031 C 
ATOM     57  C   UNL A   1      44.350  26.869  31.393  1.00  0.00     0.029 A 
ATOM     58  C   UNL A   1      43.475  27.759  31.999  1.00  0.00     0.049 A 
ATOM     59  H   UNL A   1      41.714  28.618  31.223  1.00  0.00     0.167 HD
ATOM     60  C   UNL A   1      42.652  29.174  33.877  1.00  0.00     0.074 A 
ATOM     61  C   UNL A   1      42.727  29.674  35.237  1.00  0.00     0.031 C 
ATOM     62  C   UNL A   1      43.545  28.314  33.329  1.00  0.00     0.034 A 
BRANCH  49  63
ATOM     63  C   UNL A   1      42.188  26.436  27.582  1.00  0.00     0.023 A 
ATOM     64  C   UNL A   1      42.928  26.941  26.494  1.00  0.00     0.012 A 
ATOM     65  C   UNL A   1      41.773  25.091  27.569  1.00  0.00     0.148 A 
ATOM     66  C   UNL A   1      43.217  26.133  25.394  1.00  0.00     0.002 A 
ATOM     67  C   UNL A   1      42.100  24.279  26.490  1.00  0.00     0.091 A 
ATOM     68  F   UNL A   1      41.042  24.636  28.597  1.00  0.00    -0.205 F 
ATOM     69  C   UNL A   1      42.812  24.801  25.397  1.00  0.00     0.022 A 
BRANCH  67  70
ATOM     70  S   UNL A   1      41.680  22.534  26.436  1.00  0.00     0.127 S 
ATOM     71  O   UNL A   1      42.365  22.101  25.219  1.00  0.00    -0.237 OA
ATOM     72  O   UNL A   1      42.271  22.034  27.678  1.00  0.00    -0.237 OA
ATOM     73  O   UNL A   1      40.226  22.476  26.394  1.00  0.00    -0.744 OA
ENDBRANCH  67  70
ENDBRANCH  49  63
BRANCH  50  74
ATOM     74  C   UNL A   1      39.235  32.107  35.342  1.00  0.00     0.023 A 
ATOM     75  C   UNL A   1      38.355  31.472  36.238  1.00  0.00     0.012 A 
ATOM     76  C   UNL A   1      39.680  33.414  35.623  1.00  0.00     0.148 A 
ATOM     77  C   UNL A   1      37.917  32.130  37.387  1.00  0.00     0.002 A 
ATOM     78  C   UNL A   1      39.281  34.045  36.797  1.00  0.00     0.091 A 
ATOM     79  F   UNL A   1      40.512  34.003  34.753  1.00  0.00    -0.205 F 
ATOM     80  C   UNL A   1      38.389  33.409  37.673  1.00  0.00     0.022 A 
BRANCH  78  81
ATOM     81  S   UNL A   1      39.948  35.632  37.315  1.00  0.00     0.127 S 
ATOM     82  O   UNL A   1      39.229  35.864  38.564  1.00  0.00    -0.237 OA
ATOM     83  O   UNL A   1      41.370  35.325  37.472  1.00  0.00    -0.237 OA
ATOM     84  O   UNL A   1      39.650  36.558  36.232  1.00  0.00    -0.744 OA
ENDBRANCH  78  81
ENDBRANCH  50  74
BRANCH  62  85
ATOM     85  C   UNL A   1      44.703  27.880  34.184  1.00  0.00     0.023 A 
ATOM     86  C   UNL A   1      45.887  28.643  34.194  1.00  0.00     0.012 A 
ATOM     87  C   UNL A   1      44.572  26.782  35.054  1.00  0.00     0.148 A 
ATOM     88  C   UNL A   1      46.933  28.306  35.052  1.00  0.00     0.002 A 
ATOM     89  C   UNL A   1      45.599  26.482  35.940  1.00  0.00     0.091 A 
ATOM     90  F   UNL A   1      43.442  26.062  35.011  1.00  0.00    -0.205 F 
ATOM     91  C   UNL A   1      46.783  27.237  35.934  1.00  0.00     0.022 A 
BRANCH  89  92
ATOM     92  S   UNL A   1      45.454  25.191  37.179  1.00  0.00     0.127 S 
ATOM     93  O   UNL A   1      46.735  25.302  37.875  1.00  0.00    -0.237 OA
ATOM     94  O   UNL A   1      44.296  25.635  37.955  1.00  0.00    -0.237 OA
ATOM     95  O   UNL A   1      45.250  23.949  36.446  1.00  0.00    -0.744 OA
ENDBRANCH  89  92
ENDBRANCH  62  85
ENDBRANCH  36  37
ENDBRANCH  29  31
ENDBRANCH  28  29
ENDBRANCH  27  28
ENDBRANCH   1  27
TORSDOF 19
ENDMDL
