MODEL 1
REMARK VINA RESULT:     -10.5      0.000      0.000
REMARK SMILES C[C@H]1C[C@](C(=O)OCCOC(=O)c2ccc(-c3c4nc(c(-c5cccc(S(=O)(=O)[O-])c5F)c5ccc([nH]5)c(-c5cccc(S(=O)(=O)[O-])c5F)c5nc(c(-c6cccc(S(=O)(=O)[O-])c6F)c6ccc3[nH]6)C=C5)C=C4)cc2)(N(C=O)C2CC2)CS1
REMARK SMILES IDX 9 1 8 2 7 3 5 4 6 5 4 6 1 7 2 8 3 9 83 10 82 11 76 12 77 13
REMARK SMILES IDX 78 14 79 15 80 16 81 17 10 18 11 19 12 20 13 21 14 22 75 23
REMARK SMILES IDX 15 24 74 25 16 26 17 27 18 28 68 29 19 30 73 31 67 32 69 33
REMARK SMILES IDX 20 34 72 35 66 36 65 37 21 39 53 40 33 41 52 42 34 43 37 44
REMARK SMILES IDX 51 45 70 46 35 47 36 48 50 50 71 51 38 52 22 53 23 54 31 55
REMARK SMILES IDX 24 56 26 57 32 58 25 59 27 60 28 61 29 62 30 63 54 64 55 65
REMARK SMILES IDX 63 66 56 67 58 68 64 69 57 70 59 71 60 72 61 73 62 74 39 75
REMARK SMILES IDX 40 76 48 77 41 78 43 79 49 80 42 81 44 82 45 83 46 84 47 85
REMARK H PARENT 69 38 37 49
REMARK Flexibility Score: inf
ROOT
ATOM      1  C   UNL A   1      35.976  21.246  24.646  1.00  0.00     0.275 C 
ENDROOT
BRANCH   1   2
ATOM      2  C   UNL A   1      34.672  22.041  24.678  1.00  0.00     0.274 C 
BRANCH   2   3
ATOM      3  O   UNL A   1      34.954  23.456  24.598  1.00  0.00    -0.460 OA
BRANCH   3   4
ATOM      4  C   UNL A   1      34.162  24.182  23.754  1.00  0.00     0.333 C 
ATOM      5  O   UNL A   1      34.175  24.073  22.533  1.00  0.00    -0.249 OA
BRANCH   4   6
ATOM      6  C   UNL A   1      33.325  25.252  24.510  1.00  0.00     0.150 C 
ATOM      7  C   UNL A   1      34.274  28.715  23.635  1.00  0.00     0.019 C 
ATOM      8  C   UNL A   1      33.188  27.805  24.208  1.00  0.00     0.046 C 
ATOM      9  C   UNL A   1      33.156  26.435  23.512  1.00  0.00     0.055 C 
ATOM     10  S   UNL A   1      33.503  27.479  25.958  1.00  0.00    -0.156 SA
ATOM     11  C   UNL A   1      34.167  25.826  25.668  1.00  0.00     0.110 C 
BRANCH   6  12
ATOM     12  N   UNL A   1      32.134  24.513  25.034  1.00  0.00    -0.325 N 
BRANCH  12  13
ATOM     13  C   UNL A   1      32.210  23.963  26.331  1.00  0.00     0.341 C 
ATOM     14  O   UNL A   1      31.461  24.220  27.268  1.00  0.00    -0.279 OA
ENDBRANCH  12  13
BRANCH  12  15
ATOM     15  C   UNL A   1      30.804  24.520  24.458  1.00  0.00     0.086 C 
ATOM     16  C   UNL A   1      30.242  25.071  23.188  1.00  0.00     0.027 C 
ATOM     17  C   UNL A   1      30.501  23.599  23.303  1.00  0.00     0.027 C 
ENDBRANCH  12  15
ENDBRANCH   6  12
ENDBRANCH   4   6
ENDBRANCH   3   4
ENDBRANCH   2   3
ENDBRANCH   1   2
BRANCH   1  18
ATOM     18  O   UNL A   1      36.713  21.530  25.845  1.00  0.00    -0.458 OA
BRANCH  18  19
ATOM     19  C   UNL A   1      38.046  21.291  25.800  1.00  0.00     0.338 C 
ATOM     20  O   UNL A   1      38.589  20.301  25.342  1.00  0.00    -0.246 OA
BRANCH  19  21
ATOM     21  C   UNL A   1      38.775  22.456  26.357  1.00  0.00     0.060 A 
ATOM     22  C   UNL A   1      38.285  23.751  26.180  1.00  0.00     0.016 A 
ATOM     23  C   UNL A   1      39.999  22.270  26.996  1.00  0.00     0.016 A 
ATOM     24  C   UNL A   1      39.044  24.857  26.559  1.00  0.00     0.010 A 
ATOM     25  C   UNL A   1      40.712  23.380  27.471  1.00  0.00     0.010 A 
ATOM     26  C   UNL A   1      40.262  24.690  27.232  1.00  0.00    -0.014 A 
BRANCH  26  27
ATOM     27  C   UNL A   1      41.064  25.872  27.669  1.00  0.00     0.031 A 
ATOM     28  C   UNL A   1      40.440  26.935  28.539  1.00  0.00     0.074 A 
ATOM     29  C   UNL A   1      42.346  26.020  27.273  1.00  0.00     0.049 A 
ATOM     30  N   UNL A   1      40.891  28.126  28.842  1.00  0.00    -0.248 NA
ATOM     31  C   UNL A   1      39.126  26.629  29.129  1.00  0.00     0.031 C 
ATOM     32  C   UNL A   1      43.092  25.077  26.438  1.00  0.00     0.029 A 
ATOM     33  N   UNL A   1      43.249  27.029  27.513  1.00  0.00    -0.354 N 
ATOM     34  C   UNL A   1      39.882  28.743  29.573  1.00  0.00     0.074 A 
ATOM     35  C   UNL A   1      38.801  27.786  29.688  1.00  0.00     0.031 C 
ATOM     36  C   UNL A   1      44.341  25.533  26.263  1.00  0.00     0.029 A 
ATOM     37  C   UNL A   1      44.464  26.841  26.896  1.00  0.00     0.049 A 
ATOM     38  H   UNL A   1      43.045  27.813  28.073  1.00  0.00     0.167 HD
ATOM     39  C   UNL A   1      39.859  29.987  30.106  1.00  0.00     0.034 A 
ATOM     40  C   UNL A   1      45.546  27.640  26.807  1.00  0.00     0.034 A 
ATOM     41  C   UNL A   1      40.970  30.901  30.086  1.00  0.00     0.049 A 
ATOM     42  C   UNL A   1      45.513  28.996  27.453  1.00  0.00     0.074 A 
ATOM     43  C   UNL A   1      41.053  32.166  30.643  1.00  0.00     0.029 A 
ATOM     44  N   UNL A   1      42.201  30.640  29.503  1.00  0.00    -0.354 N 
ATOM     45  N   UNL A   1      44.558  29.550  28.158  1.00  0.00    -0.248 NA
ATOM     46  C   UNL A   1      46.710  29.837  27.294  1.00  0.00     0.031 C 
ATOM     47  C   UNL A   1      42.338  32.667  30.402  1.00  0.00     0.029 A 
ATOM     48  C   UNL A   1      43.053  31.715  29.696  1.00  0.00     0.049 A 
ATOM     49  H   UNL A   1      42.434  29.813  29.024  1.00  0.00     0.167 HD
ATOM     50  C   UNL A   1      45.037  30.801  28.531  1.00  0.00     0.074 A 
ATOM     51  C   UNL A   1      46.385  30.906  28.008  1.00  0.00     0.031 C 
ATOM     52  C   UNL A   1      44.408  31.786  29.215  1.00  0.00     0.034 A 
BRANCH  39  53
ATOM     53  C   UNL A   1      38.597  30.432  30.796  1.00  0.00     0.023 A 
ATOM     54  C   UNL A   1      38.442  30.216  32.179  1.00  0.00     0.012 A 
ATOM     55  C   UNL A   1      37.595  31.125  30.087  1.00  0.00     0.148 A 
ATOM     56  C   UNL A   1      37.300  30.662  32.843  1.00  0.00     0.002 A 
ATOM     57  C   UNL A   1      36.476  31.599  30.762  1.00  0.00     0.091 A 
ATOM     58  F   UNL A   1      37.746  31.297  28.766  1.00  0.00    -0.205 F 
ATOM     59  C   UNL A   1      36.324  31.362  32.138  1.00  0.00     0.022 A 
BRANCH  57  60
ATOM     60  S   UNL A   1      35.205  32.575  29.949  1.00  0.00     0.127 S 
ATOM     61  O   UNL A   1      35.975  33.719  29.465  1.00  0.00    -0.237 OA
ATOM     62  O   UNL A   1      34.737  31.669  28.900  1.00  0.00    -0.237 OA
ATOM     63  O   UNL A   1      34.215  32.868  30.976  1.00  0.00    -0.744 OA
ENDBRANCH  57  60
ENDBRANCH  39  53
BRANCH  40  64
ATOM     64  C   UNL A   1      46.760  27.163  26.084  1.00  0.00     0.023 A 
ATOM     65  C   UNL A   1      46.899  27.443  24.712  1.00  0.00     0.012 A 
ATOM     66  C   UNL A   1      47.799  26.489  26.754  1.00  0.00     0.148 A 
ATOM     67  C   UNL A   1      48.046  27.051  24.019  1.00  0.00     0.002 A 
ATOM     68  C   UNL A   1      48.966  26.161  26.074  1.00  0.00     0.091 A 
ATOM     69  F   UNL A   1      47.637  26.198  28.053  1.00  0.00    -0.205 F 
ATOM     70  C   UNL A   1      49.086  26.427  24.703  1.00  0.00     0.022 A 
BRANCH  68  71
ATOM     71  S   UNL A   1      50.404  25.514  26.936  1.00  0.00     0.127 S 
ATOM     72  O   UNL A   1      51.362  25.357  25.846  1.00  0.00    -0.237 OA
ATOM     73  O   UNL A   1      50.713  26.588  27.880  1.00  0.00    -0.237 OA
ATOM     74  O   UNL A   1      49.941  24.286  27.570  1.00  0.00    -0.744 OA
ENDBRANCH  68  71
ENDBRANCH  40  64
BRANCH  52  75
ATOM     75  C   UNL A   1      45.167  33.064  29.443  1.00  0.00     0.023 A 
ATOM     76  C   UNL A   1      45.959  33.197  30.601  1.00  0.00     0.012 A 
ATOM     77  C   UNL A   1      45.148  34.104  28.494  1.00  0.00     0.148 A 
ATOM     78  C   UNL A   1      46.697  34.358  30.825  1.00  0.00     0.002 A 
ATOM     79  C   UNL A   1      45.916  35.244  28.707  1.00  0.00     0.091 A 
ATOM     80  F   UNL A   1      44.370  33.970  27.409  1.00  0.00    -0.205 F 
ATOM     81  C   UNL A   1      46.684  35.376  29.875  1.00  0.00     0.022 A 
BRANCH  79  82
ATOM     82  S   UNL A   1      46.010  36.564  27.492  1.00  0.00     0.127 S 
ATOM     83  O   UNL A   1      46.522  35.858  26.320  1.00  0.00    -0.237 OA
ATOM     84  O   UNL A   1      44.615  36.996  27.383  1.00  0.00    -0.237 OA
ATOM     85  O   UNL A   1      46.900  37.564  28.069  1.00  0.00    -0.744 OA
ENDBRANCH  79  82
ENDBRANCH  52  75
ENDBRANCH  26  27
ENDBRANCH  19  21
ENDBRANCH  18  19
ENDBRANCH   1  18
TORSDOF 17
ENDMDL
MODEL 2
REMARK VINA RESULT:     -10.5      1.727      2.299
REMARK SMILES C[C@H]1C[C@](C(=O)OCCOC(=O)c2ccc(-c3c4nc(c(-c5cccc(S(=O)(=O)[O-])c5F)c5ccc([nH]5)c(-c5cccc(S(=O)(=O)[O-])c5F)c5nc(c(-c6cccc(S(=O)(=O)[O-])c6F)c6ccc3[nH]6)C=C5)C=C4)cc2)(N(C=O)C2CC2)CS1
REMARK SMILES IDX 9 1 8 2 7 3 5 4 6 5 4 6 1 7 2 8 3 9 83 10 82 11 76 12 77 13
REMARK SMILES IDX 78 14 79 15 80 16 81 17 10 18 11 19 12 20 13 21 14 22 75 23
REMARK SMILES IDX 15 24 74 25 16 26 17 27 18 28 68 29 19 30 73 31 67 32 69 33
REMARK SMILES IDX 20 34 72 35 66 36 65 37 21 39 53 40 33 41 52 42 34 43 37 44
REMARK SMILES IDX 51 45 70 46 35 47 36 48 50 50 71 51 38 52 22 53 23 54 31 55
REMARK SMILES IDX 24 56 26 57 32 58 25 59 27 60 28 61 29 62 30 63 54 64 55 65
REMARK SMILES IDX 63 66 56 67 58 68 64 69 57 70 59 71 60 72 61 73 62 74 39 75
REMARK SMILES IDX 40 76 48 77 41 78 43 79 49 80 42 81 44 82 45 83 46 84 47 85
REMARK H PARENT 69 38 37 49
REMARK Flexibility Score: inf
ROOT
ATOM      1  C   UNL A   1      37.395  21.129  24.579  1.00  0.00     0.275 C 
ENDROOT
BRANCH   1   2
ATOM      2  C   UNL A   1      36.596  22.213  23.858  1.00  0.00     0.274 C 
BRANCH   2   3
ATOM      3  O   UNL A   1      35.376  22.489  24.580  1.00  0.00    -0.460 OA
BRANCH   3   4
ATOM      4  C   UNL A   1      34.328  22.958  23.838  1.00  0.00     0.333 C 
ATOM      5  O   UNL A   1      34.431  23.387  22.695  1.00  0.00    -0.249 OA
BRANCH   4   6
ATOM      6  C   UNL A   1      33.004  22.994  24.653  1.00  0.00     0.150 C 
ATOM      7  C   UNL A   1      30.562  25.433  23.332  1.00  0.00     0.019 C 
ATOM      8  C   UNL A   1      30.767  24.175  24.176  1.00  0.00     0.046 C 
ATOM      9  C   UNL A   1      31.880  23.278  23.613  1.00  0.00     0.055 C 
ATOM     10  S   UNL A   1      31.273  24.622  25.853  1.00  0.00    -0.156 SA
ATOM     11  C   UNL A   1      33.013  24.229  25.576  1.00  0.00     0.110 C 
BRANCH   6  12
ATOM     12  N   UNL A   1      33.007  21.731  25.454  1.00  0.00    -0.325 N 
BRANCH  12  13
ATOM     13  C   UNL A   1      33.209  21.827  26.847  1.00  0.00     0.341 C 
ATOM     14  O   UNL A   1      34.208  21.462  27.458  1.00  0.00    -0.279 OA
ENDBRANCH  12  13
BRANCH  12  15
ATOM     15  C   UNL A   1      32.562  20.429  24.998  1.00  0.00     0.086 C 
ATOM     16  C   UNL A   1      32.528  19.772  23.657  1.00  0.00     0.027 C 
ATOM     17  C   UNL A   1      33.592  19.387  24.640  1.00  0.00     0.027 C 
ENDBRANCH  12  15
ENDBRANCH   6  12
ENDBRANCH   4   6
ENDBRANCH   3   4
ENDBRANCH   2   3
ENDBRANCH   1   2
BRANCH   1  18
ATOM     18  O   UNL A   1      37.797  21.636  25.861  1.00  0.00    -0.458 OA
BRANCH  18  19
ATOM     19  C   UNL A   1      39.096  21.450  26.198  1.00  0.00     0.338 C 
ATOM     20  O   UNL A   1      39.742  20.426  26.055  1.00  0.00    -0.246 OA
BRANCH  19  21
ATOM     21  C   UNL A   1      39.652  22.714  26.738  1.00  0.00     0.060 A 
ATOM     22  C   UNL A   1      39.142  23.946  26.325  1.00  0.00     0.016 A 
ATOM     23  C   UNL A   1      40.743  22.681  27.604  1.00  0.00     0.016 A 
ATOM     24  C   UNL A   1      39.764  25.136  26.703  1.00  0.00     0.010 A 
ATOM     25  C   UNL A   1      41.301  23.881  28.067  1.00  0.00     0.010 A 
ATOM     26  C   UNL A   1      40.841  25.125  27.599  1.00  0.00    -0.014 A 
BRANCH  26  27
ATOM     27  C   UNL A   1      41.490  26.399  28.032  1.00  0.00     0.031 A 
ATOM     28  C   UNL A   1      40.698  27.439  28.784  1.00  0.00     0.074 A 
ATOM     29  C   UNL A   1      42.783  26.650  27.735  1.00  0.00     0.049 A 
ATOM     30  N   UNL A   1      41.010  28.681  29.055  1.00  0.00    -0.248 NA
ATOM     31  C   UNL A   1      39.371  27.037  29.281  1.00  0.00     0.031 C 
ATOM     32  C   UNL A   1      43.682  25.742  27.020  1.00  0.00     0.029 A 
ATOM     33  N   UNL A   1      43.566  27.751  27.990  1.00  0.00    -0.354 N 
ATOM     34  C   UNL A   1      39.889  29.233  29.664  1.00  0.00     0.074 A 
ATOM     35  C   UNL A   1      38.894  28.184  29.743  1.00  0.00     0.031 C 
ATOM     36  C   UNL A   1      44.895  26.307  26.923  1.00  0.00     0.029 A 
ATOM     37  C   UNL A   1      44.842  27.650  27.488  1.00  0.00     0.049 A 
ATOM     38  H   UNL A   1      43.242  28.539  28.486  1.00  0.00     0.167 HD
ATOM     39  C   UNL A   1      39.705  30.495  30.120  1.00  0.00     0.034 A 
ATOM     40  C   UNL A   1      45.850  28.544  27.443  1.00  0.00     0.034 A 
ATOM     41  C   UNL A   1      40.725  31.508  30.140  1.00  0.00     0.049 A 
ATOM     42  C   UNL A   1      45.637  29.921  28.004  1.00  0.00     0.074 A 
ATOM     43  C   UNL A   1      40.643  32.801  30.628  1.00  0.00     0.029 A 
ATOM     44  N   UNL A   1      42.021  31.339  29.677  1.00  0.00    -0.354 N 
ATOM     45  N   UNL A   1      44.577  30.416  28.596  1.00  0.00    -0.248 NA
ATOM     46  C   UNL A   1      46.761  30.865  27.897  1.00  0.00     0.031 C 
ATOM     47  C   UNL A   1      41.892  33.412  30.465  1.00  0.00     0.029 A 
ATOM     48  C   UNL A   1      42.751  32.499  29.877  1.00  0.00     0.049 A 
ATOM     49  H   UNL A   1      42.370  30.515  29.267  1.00  0.00     0.167 HD
ATOM     50  C   UNL A   1      44.905  31.723  28.934  1.00  0.00     0.074 A 
ATOM     51  C   UNL A   1      46.278  31.931  28.519  1.00  0.00     0.031 C 
ATOM     52  C   UNL A   1      44.130  32.676  29.506  1.00  0.00     0.034 A 
BRANCH  39  53
ATOM     53  C   UNL A   1      38.352  30.849  30.677  1.00  0.00     0.023 A 
ATOM     54  C   UNL A   1      38.058  30.579  32.027  1.00  0.00     0.012 A 
ATOM     55  C   UNL A   1      37.397  31.513  29.881  1.00  0.00     0.148 A 
ATOM     56  C   UNL A   1      36.826  30.942  32.572  1.00  0.00     0.002 A 
ATOM     57  C   UNL A   1      36.186  31.905  30.440  1.00  0.00     0.091 A 
ATOM     58  F   UNL A   1      37.683  31.738  28.590  1.00  0.00    -0.205 F 
ATOM     59  C   UNL A   1      35.897  31.614  31.782  1.00  0.00     0.022 A 
BRANCH  57  60
ATOM     60  S   UNL A   1      34.961  32.842  29.517  1.00  0.00     0.127 S 
ATOM     61  O   UNL A   1      34.031  33.234  30.574  1.00  0.00    -0.237 OA
ATOM     62  O   UNL A   1      35.755  33.940  28.966  1.00  0.00    -0.237 OA
ATOM     63  O   UNL A   1      34.431  31.923  28.518  1.00  0.00    -0.744 OA
ENDBRANCH  57  60
ENDBRANCH  39  53
BRANCH  40  64
ATOM     64  C   UNL A   1      47.161  28.151  26.851  1.00  0.00     0.023 A 
ATOM     65  C   UNL A   1      48.246  27.872  27.702  1.00  0.00     0.012 A 
ATOM     66  C   UNL A   1      47.323  27.995  25.460  1.00  0.00     0.148 A 
ATOM     67  C   UNL A   1      49.472  27.456  27.179  1.00  0.00     0.002 A 
ATOM     68  C   UNL A   1      48.525  27.516  24.951  1.00  0.00     0.091 A 
ATOM     69  F   UNL A   1      46.291  28.298  24.659  1.00  0.00    -0.205 F 
ATOM     70  C   UNL A   1      49.605  27.260  25.807  1.00  0.00     0.022 A 
BRANCH  68  71
ATOM     71  S   UNL A   1      48.703  27.082  23.217  1.00  0.00     0.127 S 
ATOM     72  O   UNL A   1      50.152  27.108  23.046  1.00  0.00    -0.237 OA
ATOM     73  O   UNL A   1      48.099  25.751  23.164  1.00  0.00    -0.237 OA
ATOM     74  O   UNL A   1      47.950  28.101  22.494  1.00  0.00    -0.744 OA
ENDBRANCH  68  71
ENDBRANCH  40  64
BRANCH  52  75
ATOM     75  C   UNL A   1      44.747  34.031  29.722  1.00  0.00     0.023 A 
ATOM     76  C   UNL A   1      45.430  34.292  30.926  1.00  0.00     0.012 A 
ATOM     77  C   UNL A   1      44.704  35.021  28.722  1.00  0.00     0.148 A 
ATOM     78  C   UNL A   1      46.037  35.528  31.143  1.00  0.00     0.002 A 
ATOM     79  C   UNL A   1      45.343  36.238  28.931  1.00  0.00     0.091 A 
ATOM     80  F   UNL A   1      44.028  34.763  27.592  1.00  0.00    -0.205 F 
ATOM     81  C   UNL A   1      46.002  36.496  30.143  1.00  0.00     0.022 A 
BRANCH  79  82
ATOM     82  S   UNL A   1      45.407  37.506  27.659  1.00  0.00     0.127 S 
ATOM     83  O   UNL A   1      43.995  37.849  27.506  1.00  0.00    -0.237 OA
ATOM     84  O   UNL A   1      46.222  38.546  28.288  1.00  0.00    -0.237 OA
ATOM     85  O   UNL A   1      46.034  36.872  26.507  1.00  0.00    -0.744 OA
ENDBRANCH  79  82
ENDBRANCH  52  75
ENDBRANCH  26  27
ENDBRANCH  19  21
ENDBRANCH  18  19
ENDBRANCH   1  18
TORSDOF 17
ENDMDL
MODEL 3
REMARK VINA RESULT:     -10.2      4.952      9.901
REMARK SMILES C[C@H]1C[C@](C(=O)OCCOC(=O)c2ccc(-c3c4nc(c(-c5cccc(S(=O)(=O)[O-])c5F)c5ccc([nH]5)c(-c5cccc(S(=O)(=O)[O-])c5F)c5nc(c(-c6cccc(S(=O)(=O)[O-])c6F)c6ccc3[nH]6)C=C5)C=C4)cc2)(N(C=O)C2CC2)CS1
REMARK SMILES IDX 9 1 8 2 7 3 5 4 6 5 4 6 1 7 2 8 3 9 83 10 82 11 76 12 77 13
REMARK SMILES IDX 78 14 79 15 80 16 81 17 10 18 11 19 12 20 13 21 14 22 75 23
REMARK SMILES IDX 15 24 74 25 16 26 17 27 18 28 68 29 19 30 73 31 67 32 69 33
REMARK SMILES IDX 20 34 72 35 66 36 65 37 21 39 53 40 33 41 52 42 34 43 37 44
REMARK SMILES IDX 51 45 70 46 35 47 36 48 50 50 71 51 38 52 22 53 23 54 31 55
REMARK SMILES IDX 24 56 26 57 32 58 25 59 27 60 28 61 29 62 30 63 54 64 55 65
REMARK SMILES IDX 63 66 56 67 58 68 64 69 57 70 59 71 60 72 61 73 62 74 39 75
REMARK SMILES IDX 40 76 48 77 41 78 43 79 49 80 42 81 44 82 45 83 46 84 47 85
REMARK H PARENT 69 38 37 49
REMARK Flexibility Score: inf
ROOT
ATOM      1  C   UNL A   1      31.293  30.589  25.358  1.00  0.00     0.275 C 
ENDROOT
BRANCH   1   2
ATOM      2  C   UNL A   1      30.986  29.285  24.624  1.00  0.00     0.274 C 
BRANCH   2   3
ATOM      3  O   UNL A   1      31.586  28.173  25.324  1.00  0.00    -0.460 OA
BRANCH   3   4
ATOM      4  C   UNL A   1      31.339  26.931  24.809  1.00  0.00     0.333 C 
ATOM      5  O   UNL A   1      30.217  26.461  24.655  1.00  0.00    -0.249 OA
BRANCH   4   6
ATOM      6  C   UNL A   1      32.647  26.133  24.549  1.00  0.00     0.150 C 
ATOM      7  C   UNL A   1      32.794  22.949  26.420  1.00  0.00     0.019 C 
ATOM      8  C   UNL A   1      33.323  23.743  25.226  1.00  0.00     0.046 C 
ATOM      9  C   UNL A   1      32.238  24.631  24.597  1.00  0.00     0.055 C 
ATOM     10  S   UNL A   1      34.649  24.854  25.751  1.00  0.00    -0.156 SA
ATOM     11  C   UNL A   1      33.601  26.323  25.746  1.00  0.00     0.110 C 
BRANCH   6  12
ATOM     12  N   UNL A   1      33.227  26.732  23.307  1.00  0.00    -0.325 N 
BRANCH  12  13
ATOM     13  C   UNL A   1      34.024  27.889  23.435  1.00  0.00     0.341 C 
ATOM     14  O   UNL A   1      33.829  28.965  22.880  1.00  0.00    -0.279 OA
ENDBRANCH  12  13
BRANCH  12  15
ATOM     15  C   UNL A   1      33.278  26.106  22.000  1.00  0.00     0.086 C 
ATOM     16  C   UNL A   1      32.869  24.761  21.494  1.00  0.00     0.027 C 
ATOM     17  C   UNL A   1      32.002  25.950  21.212  1.00  0.00     0.027 C 
ENDBRANCH  12  15
ENDBRANCH   6  12
ENDBRANCH   4   6
ENDBRANCH   3   4
ENDBRANCH   2   3
ENDBRANCH   1   2
BRANCH   1  18
ATOM     18  O   UNL A   1      32.511  30.419  26.101  1.00  0.00    -0.458 OA
BRANCH  18  19
ATOM     19  C   UNL A   1      32.877  31.453  26.896  1.00  0.00     0.338 C 
ATOM     20  O   UNL A   1      32.232  32.465  27.111  1.00  0.00    -0.246 OA
BRANCH  19  21
ATOM     21  C   UNL A   1      34.186  31.153  27.523  1.00  0.00     0.060 A 
ATOM     22  C   UNL A   1      34.547  29.838  27.819  1.00  0.00     0.016 A 
ATOM     23  C   UNL A   1      35.035  32.195  27.893  1.00  0.00     0.016 A 
ATOM     24  C   UNL A   1      35.701  29.564  28.552  1.00  0.00     0.010 A 
ATOM     25  C   UNL A   1      36.247  31.909  28.537  1.00  0.00     0.010 A 
ATOM     26  C   UNL A   1      36.583  30.594  28.905  1.00  0.00    -0.014 A 
BRANCH  26  27
ATOM     27  C   UNL A   1      37.837  30.302  29.662  1.00  0.00     0.031 A 
ATOM     28  C   UNL A   1      38.907  29.429  29.055  1.00  0.00     0.074 A 
ATOM     29  C   UNL A   1      38.021  30.791  30.907  1.00  0.00     0.049 A 
ATOM     30  N   UNL A   1      39.954  28.887  29.623  1.00  0.00    -0.248 NA
ATOM     31  C   UNL A   1      38.772  29.105  27.625  1.00  0.00     0.031 C 
ATOM     32  C   UNL A   1      37.084  31.654  31.628  1.00  0.00     0.029 A 
ATOM     33  N   UNL A   1      39.058  30.623  31.794  1.00  0.00    -0.354 N 
ATOM     34  C   UNL A   1      40.545  28.086  28.652  1.00  0.00     0.074 A 
ATOM     35  C   UNL A   1      39.752  28.229  27.449  1.00  0.00     0.031 C 
ATOM     36  C   UNL A   1      37.600  31.964  32.826  1.00  0.00     0.029 A 
ATOM     37  C   UNL A   1      38.862  31.255  33.000  1.00  0.00     0.049 A 
ATOM     38  H   UNL A   1      39.865  30.098  31.586  1.00  0.00     0.167 HD
ATOM     39  C   UNL A   1      41.649  27.308  28.749  1.00  0.00     0.034 A 
ATOM     40  C   UNL A   1      39.586  31.239  34.137  1.00  0.00     0.034 A 
ATOM     41  C   UNL A   1      42.500  27.246  29.908  1.00  0.00     0.049 A 
ATOM     42  C   UNL A   1      40.836  30.409  34.201  1.00  0.00     0.074 A 
ATOM     43  C   UNL A   1      43.667  26.521  30.080  1.00  0.00     0.029 A 
ATOM     44  N   UNL A   1      42.293  27.953  31.083  1.00  0.00    -0.354 N 
ATOM     45  N   UNL A   1      41.389  29.678  33.264  1.00  0.00    -0.248 NA
ATOM     46  C   UNL A   1      41.567  30.404  35.478  1.00  0.00     0.031 C 
ATOM     47  C   UNL A   1      44.170  26.795  31.357  1.00  0.00     0.029 A 
ATOM     48  C   UNL A   1      43.316  27.691  31.979  1.00  0.00     0.049 A 
ATOM     49  H   UNL A   1      41.532  28.553  31.253  1.00  0.00     0.167 HD
ATOM     50  C   UNL A   1      42.532  29.130  33.835  1.00  0.00     0.074 A 
ATOM     51  C   UNL A   1      42.614  29.646  35.186  1.00  0.00     0.031 C 
ATOM     52  C   UNL A   1      43.414  28.251  33.301  1.00  0.00     0.034 A 
BRANCH  39  53
ATOM     53  C   UNL A   1      42.032  26.480  27.552  1.00  0.00     0.023 A 
ATOM     54  C   UNL A   1      42.741  27.072  26.489  1.00  0.00     0.012 A 
ATOM     55  C   UNL A   1      41.750  25.099  27.512  1.00  0.00     0.148 A 
ATOM     56  C   UNL A   1      43.142  26.309  25.393  1.00  0.00     0.002 A 
ATOM     57  C   UNL A   1      42.186  24.338  26.434  1.00  0.00     0.091 A 
ATOM     58  F   UNL A   1      41.050  24.558  28.520  1.00  0.00    -0.205 F 
ATOM     59  C   UNL A   1      42.876  24.942  25.371  1.00  0.00     0.022 A 
BRANCH  57  60
ATOM     60  S   UNL A   1      41.952  22.558  26.358  1.00  0.00     0.127 S 
ATOM     61  O   UNL A   1      40.495  22.453  26.310  1.00  0.00    -0.237 OA
ATOM     62  O   UNL A   1      42.629  22.205  25.109  1.00  0.00    -0.237 OA
ATOM     63  O   UNL A   1      42.585  22.025  27.556  1.00  0.00    -0.744 OA
ENDBRANCH  57  60
ENDBRANCH  39  53
BRANCH  40  64
ATOM     64  C   UNL A   1      39.144  32.054  35.305  1.00  0.00     0.023 A 
ATOM     65  C   UNL A   1      38.290  31.478  36.264  1.00  0.00     0.012 A 
ATOM     66  C   UNL A   1      39.610  33.368  35.504  1.00  0.00     0.148 A 
ATOM     67  C   UNL A   1      37.898  32.200  37.393  1.00  0.00     0.002 A 
ATOM     68  C   UNL A   1      39.270  34.057  36.663  1.00  0.00     0.091 A 
ATOM     69  F   UNL A   1      40.396  33.916  34.566  1.00  0.00    -0.205 F 
ATOM     70  C   UNL A   1      38.402  33.481  37.601  1.00  0.00     0.022 A 
BRANCH  68  71
ATOM     71  S   UNL A   1      40.022  35.637  37.069  1.00  0.00     0.127 S 
ATOM     72  O   UNL A   1      39.653  36.452  35.916  1.00  0.00    -0.237 OA
ATOM     73  O   UNL A   1      39.346  35.994  38.318  1.00  0.00    -0.237 OA
ATOM     74  O   UNL A   1      41.442  35.350  37.228  1.00  0.00    -0.744 OA
ENDBRANCH  68  71
ENDBRANCH  40  64
BRANCH  52  75
ATOM     75  C   UNL A   1      44.550  27.794  34.175  1.00  0.00     0.023 A 
ATOM     76  C   UNL A   1      45.731  28.560  34.225  1.00  0.00     0.012 A 
ATOM     77  C   UNL A   1      44.432  26.650  34.987  1.00  0.00     0.148 A 
ATOM     78  C   UNL A   1      46.790  28.178  35.047  1.00  0.00     0.002 A 
ATOM     79  C   UNL A   1      45.478  26.295  35.832  1.00  0.00     0.091 A 
ATOM     80  F   UNL A   1      43.310  25.919  34.908  1.00  0.00    -0.205 F 
ATOM     81  C   UNL A   1      46.660  27.053  35.858  1.00  0.00     0.022 A 
BRANCH  79  82
ATOM     82  S   UNL A   1      45.354  24.904  36.961  1.00  0.00     0.127 S 
ATOM     83  O   UNL A   1      44.175  25.259  37.747  1.00  0.00    -0.237 OA
ATOM     84  O   UNL A   1      45.163  23.772  36.052  1.00  0.00    -0.237 OA
ATOM     85  O   UNL A   1      46.617  24.877  37.689  1.00  0.00    -0.744 OA
ENDBRANCH  79  82
ENDBRANCH  52  75
ENDBRANCH  26  27
ENDBRANCH  19  21
ENDBRANCH  18  19
ENDBRANCH   1  18
TORSDOF 17
ENDMDL
