MODEL 1
REMARK VINA RESULT:     -11.0      0.000      0.000
REMARK SMILES CC[C@@H](COC)NC(=O)NC[C@@H]1CC[C@H](C(=O)OCCOC(=O)c2ccc(-c3c4nc(c(-c5cccc(S(=O)(=O)[O-])c5F)c5ccc([nH]5)c(-c5cccc(S(=O)(=O)[O-])c5F)c5nc(c(-c6cccc(S(=O)(=O)[O-])c6F)c6ccc3[nH]6)C=C5)C=C4)cc2)O1
REMARK SMILES IDX 19 1 18 2 16 3 17 4 15 5 12 6 13 7 87 8 14 9 11 10 10 11
REMARK SMILES IDX 7 12 8 13 9 15 3 17 2 18 1 19 4 20 5 21 6 22 20 23 21 24
REMARK SMILES IDX 22 25 23 26 24 27 25 28 86 29 26 30 85 31 27 32 28 33 29 34
REMARK SMILES IDX 79 35 30 36 84 37 78 38 80 39 31 40 83 41 77 42 76 43 32 45
REMARK SMILES IDX 64 46 44 47 63 48 45 49 48 50 62 51 81 52 46 53 47 54 61 56
REMARK SMILES IDX 82 57 49 58 33 59 34 60 42 61 35 62 37 63 43 64 36 65 38 66
REMARK SMILES IDX 39 67 40 68 41 69 65 70 66 71 74 72 67 73 69 74 75 75 68 76
REMARK SMILES IDX 70 77 71 78 72 79 73 80 50 81 51 82 59 83 52 84 54 85 60 86
REMARK SMILES IDX 53 87 55 88 56 89 57 90 58 91
REMARK H PARENT 7 14 10 16 80 44 48 55
REMARK Flexibility Score: inf
ROOT
ATOM      1  C   UNL A   1      35.577  20.478  25.000  1.00  0.00     0.274 C 
ENDROOT
BRANCH   1   2
ATOM      2  O   UNL A   1      35.225  21.830  24.632  1.00  0.00    -0.460 OA
BRANCH   2   3
ATOM      3  C   UNL A   1      33.906  22.096  24.428  1.00  0.00     0.335 C 
ATOM      4  O   UNL A   1      33.258  21.659  23.482  1.00  0.00    -0.249 OA
BRANCH   3   5
ATOM      5  C   UNL A   1      33.306  23.048  25.473  1.00  0.00     0.228 C 
ATOM      6  C   UNL A   1      31.832  24.840  25.185  1.00  0.00     0.138 C 
ATOM      7  C   UNL A   1      33.240  25.374  25.001  1.00  0.00     0.037 C 
ATOM      8  O   UNL A   1      31.963  23.410  25.092  1.00  0.00    -0.361 OA
ATOM      9  C   UNL A   1      34.051  24.347  25.755  1.00  0.00     0.047 C 
BRANCH   6  10
ATOM     10  C   UNL A   1      30.745  25.365  24.228  1.00  0.00     0.149 C 
BRANCH  10  11
ATOM     11  N   UNL A   1      31.103  25.363  22.818  1.00  0.00    -0.336 N 
ATOM     12  N   UNL A   1      31.557  27.596  22.198  1.00  0.00    -0.333 N 
ATOM     13  C   UNL A   1      31.513  26.287  21.945  1.00  0.00     0.315 C 
ATOM     14  H   UNL A   1      32.030  28.103  21.499  1.00  0.00     0.165 HD
ATOM     15  O   UNL A   1      31.871  25.894  20.831  1.00  0.00    -0.249 OA
ATOM     16  H   UNL A   1      31.026  24.470  22.413  1.00  0.00     0.165 HD
BRANCH  12  17
ATOM     17  C   UNL A   1      31.060  28.448  23.277  1.00  0.00     0.109 C 
BRANCH  17  18
ATOM     18  C   UNL A   1      32.230  28.918  24.146  1.00  0.00     0.024 C 
ATOM     19  C   UNL A   1      31.780  29.570  25.446  1.00  0.00     0.006 C 
ENDBRANCH  17  18
BRANCH  17  20
ATOM     20  C   UNL A   1      30.228  29.592  22.671  1.00  0.00     0.184 C 
BRANCH  20  21
ATOM     21  O   UNL A   1      29.170  29.139  21.822  1.00  0.00    -0.383 OA
ATOM     22  C   UNL A   1      28.232  30.159  21.497  1.00  0.00     0.194 C 
ENDBRANCH  20  21
ENDBRANCH  17  20
ENDBRANCH  12  17
ENDBRANCH  10  11
ENDBRANCH   6  10
ENDBRANCH   3   5
ENDBRANCH   2   3
ENDBRANCH   1   2
BRANCH   1  23
ATOM     23  C   UNL A   1      37.090  20.274  24.953  1.00  0.00     0.275 C 
BRANCH  23  24
ATOM     24  O   UNL A   1      37.767  21.396  25.533  1.00  0.00    -0.458 OA
BRANCH  24  25
ATOM     25  C   UNL A   1      38.990  21.119  26.033  1.00  0.00     0.338 C 
ATOM     26  O   UNL A   1      39.619  20.073  25.926  1.00  0.00    -0.246 OA
BRANCH  25  27
ATOM     27  C   UNL A   1      39.563  22.335  26.609  1.00  0.00     0.060 A 
ATOM     28  C   UNL A   1      39.094  23.565  26.135  1.00  0.00     0.016 A 
ATOM     29  C   UNL A   1      40.589  22.268  27.551  1.00  0.00     0.016 A 
ATOM     30  C   UNL A   1      39.673  24.744  26.583  1.00  0.00     0.010 A 
ATOM     31  C   UNL A   1      41.174  23.451  27.995  1.00  0.00     0.010 A 
ATOM     32  C   UNL A   1      40.736  24.688  27.493  1.00  0.00    -0.014 A 
BRANCH  32  33
ATOM     33  C   UNL A   1      41.469  25.920  27.841  1.00  0.00     0.031 A 
ATOM     34  C   UNL A   1      40.753  26.993  28.608  1.00  0.00     0.074 A 
ATOM     35  C   UNL A   1      42.743  26.076  27.442  1.00  0.00     0.049 A 
ATOM     36  N   UNL A   1      41.154  28.196  28.912  1.00  0.00    -0.248 NA
ATOM     37  C   UNL A   1      39.398  26.668  29.088  1.00  0.00     0.031 C 
ATOM     38  C   UNL A   1      43.521  25.082  26.702  1.00  0.00     0.029 A 
ATOM     39  N   UNL A   1      43.593  27.140  27.577  1.00  0.00    -0.354 N 
ATOM     40  C   UNL A   1      40.088  28.792  29.575  1.00  0.00     0.074 A 
ATOM     41  C   UNL A   1      39.023  27.816  29.635  1.00  0.00     0.031 C 
ATOM     42  C   UNL A   1      44.729  25.597  26.419  1.00  0.00     0.029 A 
ATOM     43  C   UNL A   1      44.792  26.966  26.927  1.00  0.00     0.049 A 
ATOM     44  H   UNL A   1      43.369  27.951  28.089  1.00  0.00     0.167 HD
ATOM     45  C   UNL A   1      40.013  30.039  30.093  1.00  0.00     0.034 A 
ATOM     46  C   UNL A   1      45.808  27.828  26.739  1.00  0.00     0.034 A 
ATOM     47  C   UNL A   1      41.097  30.981  30.057  1.00  0.00     0.049 A 
ATOM     48  C   UNL A   1      45.702  29.206  27.337  1.00  0.00     0.074 A 
ATOM     49  C   UNL A   1      41.148  32.257  30.587  1.00  0.00     0.029 A 
ATOM     50  N   UNL A   1      42.325  30.744  29.456  1.00  0.00    -0.354 N 
ATOM     51  N   UNL A   1      44.724  29.726  28.040  1.00  0.00    -0.248 NA
ATOM     52  C   UNL A   1      46.846  30.106  27.140  1.00  0.00     0.031 C 
ATOM     53  C   UNL A   1      42.407  32.796  30.297  1.00  0.00     0.029 A 
ATOM     54  C   UNL A   1      43.143  31.850  29.601  1.00  0.00     0.049 A 
ATOM     55  H   UNL A   1      42.577  29.912  28.996  1.00  0.00     0.167 HD
ATOM     56  C   UNL A   1      45.145  31.002  28.394  1.00  0.00     0.074 A 
ATOM     57  C   UNL A   1      46.477  31.166  27.846  1.00  0.00     0.031 C 
ATOM     58  C   UNL A   1      44.487  31.959  29.093  1.00  0.00     0.034 A 
BRANCH  45  59
ATOM     59  C   UNL A   1      38.728  30.443  30.763  1.00  0.00     0.023 A 
ATOM     60  C   UNL A   1      38.545  30.180  32.135  1.00  0.00     0.012 A 
ATOM     61  C   UNL A   1      37.723  31.127  30.050  1.00  0.00     0.148 A 
ATOM     62  C   UNL A   1      37.373  30.568  32.783  1.00  0.00     0.002 A 
ATOM     63  C   UNL A   1      36.574  31.545  30.711  1.00  0.00     0.091 A 
ATOM     64  F   UNL A   1      37.905  31.344  28.740  1.00  0.00    -0.205 F 
ATOM     65  C   UNL A   1      36.393  31.258  32.074  1.00  0.00     0.022 A 
BRANCH  63  66
ATOM     66  S   UNL A   1      35.282  32.495  29.901  1.00  0.00     0.127 S 
ATOM     67  O   UNL A   1      34.799  31.545  28.901  1.00  0.00    -0.237 OA
ATOM     68  O   UNL A   1      34.352  32.749  31.002  1.00  0.00    -0.237 OA
ATOM     69  O   UNL A   1      35.933  33.685  29.371  1.00  0.00    -0.744 OA
ENDBRANCH  63  66
ENDBRANCH  45  59
BRANCH  46  70
ATOM     70  C   UNL A   1      47.020  27.398  25.988  1.00  0.00     0.023 A 
ATOM     71  C   UNL A   1      47.983  26.593  26.628  1.00  0.00     0.012 A 
ATOM     72  C   UNL A   1      47.206  27.742  24.634  1.00  0.00     0.148 A 
ATOM     73  C   UNL A   1      49.118  26.160  25.942  1.00  0.00     0.002 A 
ATOM     74  C   UNL A   1      48.312  27.261  23.941  1.00  0.00     0.091 A 
ATOM     75  F   UNL A   1      46.291  28.526  24.045  1.00  0.00    -0.205 F 
ATOM     76  C   UNL A   1      49.277  26.482  24.597  1.00  0.00     0.022 A 
BRANCH  74  77
ATOM     77  S   UNL A   1      48.514  27.520  22.175  1.00  0.00     0.127 S 
ATOM     78  O   UNL A   1      47.276  28.215  21.830  1.00  0.00    -0.237 OA
ATOM     79  O   UNL A   1      49.720  28.347  22.119  1.00  0.00    -0.237 OA
ATOM     80  O   UNL A   1      48.680  26.189  21.607  1.00  0.00    -0.744 OA
ENDBRANCH  74  77
ENDBRANCH  46  70
BRANCH  58  81
ATOM     81  C   UNL A   1      45.206  33.258  29.333  1.00  0.00     0.023 A 
ATOM     82  C   UNL A   1      45.988  33.415  30.495  1.00  0.00     0.012 A 
ATOM     83  C   UNL A   1      45.175  34.285  28.372  1.00  0.00     0.148 A 
ATOM     84  C   UNL A   1      46.709  34.588  30.706  1.00  0.00     0.002 A 
ATOM     85  C   UNL A   1      45.932  35.433  28.569  1.00  0.00     0.091 A 
ATOM     86  F   UNL A   1      44.408  34.122  27.284  1.00  0.00    -0.205 F 
ATOM     87  C   UNL A   1      46.692  35.591  29.739  1.00  0.00     0.022 A 
BRANCH  85  88
ATOM     88  S   UNL A   1      46.039  36.730  27.330  1.00  0.00     0.127 S 
ATOM     89  O   UNL A   1      46.509  35.989  26.162  1.00  0.00    -0.237 OA
ATOM     90  O   UNL A   1      44.652  37.193  27.241  1.00  0.00    -0.237 OA
ATOM     91  O   UNL A   1      46.967  37.717  27.867  1.00  0.00    -0.744 OA
ENDBRANCH  85  88
ENDBRANCH  58  81
ENDBRANCH  32  33
ENDBRANCH  25  27
ENDBRANCH  24  25
ENDBRANCH  23  24
ENDBRANCH   1  23
TORSDOF 20
ENDMDL
MODEL 2
REMARK VINA RESULT:     -10.7      5.231     10.276
REMARK SMILES CC[C@@H](COC)NC(=O)NC[C@@H]1CC[C@H](C(=O)OCCOC(=O)c2ccc(-c3c4nc(c(-c5cccc(S(=O)(=O)[O-])c5F)c5ccc([nH]5)c(-c5cccc(S(=O)(=O)[O-])c5F)c5nc(c(-c6cccc(S(=O)(=O)[O-])c6F)c6ccc3[nH]6)C=C5)C=C4)cc2)O1
REMARK SMILES IDX 19 1 18 2 16 3 17 4 15 5 12 6 13 7 87 8 14 9 11 10 10 11
REMARK SMILES IDX 7 12 8 13 9 15 3 17 2 18 1 19 4 20 5 21 6 22 20 23 21 24
REMARK SMILES IDX 22 25 23 26 24 27 25 28 86 29 26 30 85 31 27 32 28 33 29 34
REMARK SMILES IDX 79 35 30 36 84 37 78 38 80 39 31 40 83 41 77 42 76 43 32 45
REMARK SMILES IDX 64 46 44 47 63 48 45 49 48 50 62 51 81 52 46 53 47 54 61 56
REMARK SMILES IDX 82 57 49 58 33 59 34 60 42 61 35 62 37 63 43 64 36 65 38 66
REMARK SMILES IDX 39 67 40 68 41 69 65 70 66 71 74 72 67 73 69 74 75 75 68 76
REMARK SMILES IDX 70 77 71 78 72 79 73 80 50 81 51 82 59 83 52 84 54 85 60 86
REMARK SMILES IDX 53 87 55 88 56 89 57 90 58 91
REMARK H PARENT 7 14 10 16 80 44 48 55
REMARK Flexibility Score: inf
ROOT
ATOM      1  C   UNL A   1      31.799  28.599  26.652  1.00  0.00     0.274 C 
ENDROOT
BRANCH   1   2
ATOM      2  O   UNL A   1      31.184  28.069  25.457  1.00  0.00    -0.460 OA
BRANCH   2   3
ATOM      3  C   UNL A   1      30.734  26.786  25.505  1.00  0.00     0.335 C 
ATOM      4  O   UNL A   1      30.671  26.120  26.534  1.00  0.00    -0.249 OA
BRANCH   3   5
ATOM      5  C   UNL A   1      30.359  26.218  24.128  1.00  0.00     0.228 C 
ATOM      6  C   UNL A   1      31.662  25.012  22.606  1.00  0.00     0.138 C 
ATOM      7  C   UNL A   1      31.877  26.488  22.324  1.00  0.00     0.037 C 
ATOM      8  O   UNL A   1      31.049  24.971  23.908  1.00  0.00    -0.361 OA
ATOM      9  C   UNL A   1      30.623  27.091  22.908  1.00  0.00     0.047 C 
BRANCH   6  10
ATOM     10  C   UNL A   1      32.895  24.091  22.540  1.00  0.00     0.149 C 
BRANCH  10  11
ATOM     11  N   UNL A   1      32.625  22.676  22.744  1.00  0.00    -0.336 N 
ATOM     12  N   UNL A   1      33.582  22.063  24.815  1.00  0.00    -0.333 N 
ATOM     13  C   UNL A   1      32.851  21.802  23.730  1.00  0.00     0.315 C 
ATOM     14  H   UNL A   1      33.508  21.360  25.501  1.00  0.00     0.165 HD
ATOM     15  O   UNL A   1      32.346  20.682  23.619  1.00  0.00    -0.249 OA
ATOM     16  H   UNL A   1      32.168  22.266  21.975  1.00  0.00     0.165 HD
BRANCH  12  17
ATOM     17  C   UNL A   1      34.468  23.154  25.215  1.00  0.00     0.109 C 
BRANCH  17  18
ATOM     18  C   UNL A   1      33.662  24.239  25.935  1.00  0.00     0.024 C 
ATOM     19  C   UNL A   1      34.152  25.646  25.625  1.00  0.00     0.006 C 
ENDBRANCH  17  18
BRANCH  17  20
ATOM     20  C   UNL A   1      35.630  22.579  26.045  1.00  0.00     0.184 C 
BRANCH  20  21
ATOM     21  O   UNL A   1      36.200  21.395  25.482  1.00  0.00    -0.383 OA
ATOM     22  C   UNL A   1      37.252  21.658  24.561  1.00  0.00     0.194 C 
ENDBRANCH  20  21
ENDBRANCH  17  20
ENDBRANCH  12  17
ENDBRANCH  10  11
ENDBRANCH   6  10
ENDBRANCH   3   5
ENDBRANCH   2   3
ENDBRANCH   1   2
BRANCH   1  23
ATOM     23  C   UNL A   1      31.862  30.124  26.606  1.00  0.00     0.275 C 
BRANCH  23  24
ATOM     24  O   UNL A   1      33.208  30.565  26.388  1.00  0.00    -0.458 OA
BRANCH  24  25
ATOM     25  C   UNL A   1      33.624  31.537  27.227  1.00  0.00     0.338 C 
ATOM     26  O   UNL A   1      32.978  32.491  27.643  1.00  0.00    -0.246 OA
BRANCH  25  27
ATOM     27  C   UNL A   1      34.958  31.205  27.727  1.00  0.00     0.060 A 
ATOM     28  C   UNL A   1      35.220  29.869  28.048  1.00  0.00     0.016 A 
ATOM     29  C   UNL A   1      35.914  32.198  27.938  1.00  0.00     0.016 A 
ATOM     30  C   UNL A   1      36.439  29.519  28.613  1.00  0.00     0.010 A 
ATOM     31  C   UNL A   1      37.133  31.849  28.511  1.00  0.00     0.010 A 
ATOM     32  C   UNL A   1      37.387  30.515  28.874  1.00  0.00    -0.014 A 
BRANCH  32  33
ATOM     33  C   UNL A   1      38.610  30.183  29.630  1.00  0.00     0.031 A 
ATOM     34  C   UNL A   1      39.567  29.183  29.050  1.00  0.00     0.074 A 
ATOM     35  C   UNL A   1      38.830  30.749  30.829  1.00  0.00     0.049 A 
ATOM     36  N   UNL A   1      40.630  28.651  29.587  1.00  0.00    -0.248 NA
ATOM     37  C   UNL A   1      39.281  28.712  27.683  1.00  0.00     0.031 C 
ATOM     38  C   UNL A   1      37.960  31.738  31.465  1.00  0.00     0.029 A 
ATOM     39  N   UNL A   1      39.836  30.549  31.736  1.00  0.00    -0.354 N 
ATOM     40  C   UNL A   1      41.114  27.747  28.648  1.00  0.00     0.074 A 
ATOM     41  C   UNL A   1      40.232  27.807  27.504  1.00  0.00     0.031 C 
ATOM     42  C   UNL A   1      38.455  32.037  32.678  1.00  0.00     0.029 A 
ATOM     43  C   UNL A   1      39.652  31.234  32.913  1.00  0.00     0.049 A 
ATOM     44  H   UNL A   1      40.615  29.971  31.562  1.00  0.00     0.167 HD
ATOM     45  C   UNL A   1      42.203  26.949  28.736  1.00  0.00     0.034 A 
ATOM     46  C   UNL A   1      40.357  31.190  34.059  1.00  0.00     0.034 A 
ATOM     47  C   UNL A   1      43.089  26.934  29.867  1.00  0.00     0.049 A 
ATOM     48  C   UNL A   1      41.570  30.301  34.124  1.00  0.00     0.074 A 
ATOM     49  C   UNL A   1      44.244  26.197  30.047  1.00  0.00     0.029 A 
ATOM     50  N   UNL A   1      42.914  27.697  31.013  1.00  0.00    -0.354 N 
ATOM     51  N   UNL A   1      42.069  29.519  33.196  1.00  0.00    -0.248 NA
ATOM     52  C   UNL A   1      42.332  30.306  35.380  1.00  0.00     0.031 C 
ATOM     53  C   UNL A   1      44.765  26.508  31.308  1.00  0.00     0.029 A 
ATOM     54  C   UNL A   1      43.941  27.450  31.905  1.00  0.00     0.049 A 
ATOM     55  H   UNL A   1      42.170  28.322  31.167  1.00  0.00     0.167 HD
ATOM     56  C   UNL A   1      43.218  28.962  33.743  1.00  0.00     0.074 A 
ATOM     57  C   UNL A   1      43.353  29.514  35.077  1.00  0.00     0.031 C 
ATOM     58  C   UNL A   1      44.077  28.061  33.203  1.00  0.00     0.034 A 
BRANCH  45  59
ATOM     59  C   UNL A   1      42.507  26.050  27.569  1.00  0.00     0.023 A 
ATOM     60  C   UNL A   1      43.281  26.537  26.498  1.00  0.00     0.012 A 
ATOM     61  C   UNL A   1      42.071  24.709  27.555  1.00  0.00     0.148 A 
ATOM     62  C   UNL A   1      43.596  25.713  25.417  1.00  0.00     0.002 A 
ATOM     63  C   UNL A   1      42.422  23.884  26.493  1.00  0.00     0.091 A 
ATOM     64  F   UNL A   1      41.314  24.273  28.571  1.00  0.00    -0.205 F 
ATOM     65  C   UNL A   1      43.176  24.387  25.420  1.00  0.00     0.022 A 
BRANCH  63  66
ATOM     66  S   UNL A   1      41.983  22.143  26.434  1.00  0.00     0.127 S 
ATOM     67  O   UNL A   1      40.530  22.209  26.288  1.00  0.00    -0.237 OA
ATOM     68  O   UNL A   1      42.696  21.686  25.240  1.00  0.00    -0.237 OA
ATOM     69  O   UNL A   1      42.461  21.566  27.682  1.00  0.00    -0.744 OA
ENDBRANCH  63  66
ENDBRANCH  45  59
BRANCH  46  70
ATOM     70  C   UNL A   1      39.953  32.039  35.214  1.00  0.00     0.023 A 
ATOM     71  C   UNL A   1      40.395  33.374  35.280  1.00  0.00     0.012 A 
ATOM     72  C   UNL A   1      39.101  31.549  36.224  1.00  0.00     0.148 A 
ATOM     73  C   UNL A   1      40.016  34.198  36.341  1.00  0.00     0.002 A 
ATOM     74  C   UNL A   1      38.683  32.390  37.249  1.00  0.00     0.091 A 
ATOM     75  F   UNL A   1      38.706  30.268  36.158  1.00  0.00    -0.205 F 
ATOM     76  C   UNL A   1      39.151  33.711  37.317  1.00  0.00     0.022 A 
BRANCH  74  77
ATOM     77  S   UNL A   1      37.464  31.877  38.464  1.00  0.00     0.127 S 
ATOM     78  O   UNL A   1      38.189  32.071  39.717  1.00  0.00    -0.237 OA
ATOM     79  O   UNL A   1      36.375  32.827  38.231  1.00  0.00    -0.237 OA
ATOM     80  O   UNL A   1      37.134  30.500  38.122  1.00  0.00    -0.744 OA
ENDBRANCH  74  77
ENDBRANCH  46  70
BRANCH  58  81
ATOM     81  C   UNL A   1      45.254  27.641  34.039  1.00  0.00     0.023 A 
ATOM     82  C   UNL A   1      46.455  28.374  33.967  1.00  0.00     0.012 A 
ATOM     83  C   UNL A   1      45.143  26.576  34.953  1.00  0.00     0.148 A 
ATOM     84  C   UNL A   1      47.537  28.036  34.777  1.00  0.00     0.002 A 
ATOM     85  C   UNL A   1      46.211  26.274  35.788  1.00  0.00     0.091 A 
ATOM     86  F   UNL A   1      43.997  25.880  34.989  1.00  0.00    -0.205 F 
ATOM     87  C   UNL A   1      47.411  26.996  35.695  1.00  0.00     0.022 A 
BRANCH  85  88
ATOM     88  S   UNL A   1      46.098  25.011  37.062  1.00  0.00     0.127 S 
ATOM     89  O   UNL A   1      45.772  23.824  36.276  1.00  0.00    -0.237 OA
ATOM     90  O   UNL A   1      47.448  25.017  37.628  1.00  0.00    -0.237 OA
ATOM     91  O   UNL A   1      45.061  25.464  37.979  1.00  0.00    -0.744 OA
ENDBRANCH  85  88
ENDBRANCH  58  81
ENDBRANCH  32  33
ENDBRANCH  25  27
ENDBRANCH  24  25
ENDBRANCH  23  24
ENDBRANCH   1  23
TORSDOF 20
ENDMDL
MODEL 3
REMARK VINA RESULT:     -10.7      1.348      7.794
REMARK SMILES CC[C@@H](COC)NC(=O)NC[C@@H]1CC[C@H](C(=O)OCCOC(=O)c2ccc(-c3c4nc(c(-c5cccc(S(=O)(=O)[O-])c5F)c5ccc([nH]5)c(-c5cccc(S(=O)(=O)[O-])c5F)c5nc(c(-c6cccc(S(=O)(=O)[O-])c6F)c6ccc3[nH]6)C=C5)C=C4)cc2)O1
REMARK SMILES IDX 19 1 18 2 16 3 17 4 15 5 12 6 13 7 87 8 14 9 11 10 10 11
REMARK SMILES IDX 7 12 8 13 9 15 3 17 2 18 1 19 4 20 5 21 6 22 20 23 21 24
REMARK SMILES IDX 22 25 23 26 24 27 25 28 86 29 26 30 85 31 27 32 28 33 29 34
REMARK SMILES IDX 79 35 30 36 84 37 78 38 80 39 31 40 83 41 77 42 76 43 32 45
REMARK SMILES IDX 64 46 44 47 63 48 45 49 48 50 62 51 81 52 46 53 47 54 61 56
REMARK SMILES IDX 82 57 49 58 33 59 34 60 42 61 35 62 37 63 43 64 36 65 38 66
REMARK SMILES IDX 39 67 40 68 41 69 65 70 66 71 74 72 67 73 69 74 75 75 68 76
REMARK SMILES IDX 70 77 71 78 72 79 73 80 50 81 51 82 59 83 52 84 54 85 60 86
REMARK SMILES IDX 53 87 55 88 56 89 57 90 58 91
REMARK H PARENT 7 14 10 16 80 44 48 55
REMARK Flexibility Score: inf
ROOT
ATOM      1  C   UNL A   1      37.966  19.925  24.869  1.00  0.00     0.274 C 
ENDROOT
BRANCH   1   2
ATOM      2  O   UNL A   1      37.346  21.064  25.506  1.00  0.00    -0.460 OA
BRANCH   2   3
ATOM      3  C   UNL A   1      36.201  21.543  24.949  1.00  0.00     0.335 C 
ATOM      4  O   UNL A   1      36.168  22.209  23.918  1.00  0.00    -0.249 OA
BRANCH   3   5
ATOM      5  C   UNL A   1      34.942  21.218  25.765  1.00  0.00     0.228 C 
ATOM      6  C   UNL A   1      32.759  22.020  25.522  1.00  0.00     0.138 C 
ATOM      7  C   UNL A   1      33.506  22.993  26.414  1.00  0.00     0.037 C 
ATOM      8  O   UNL A   1      33.785  21.222  24.903  1.00  0.00    -0.361 OA
ATOM      9  C   UNL A   1      34.615  22.119  26.949  1.00  0.00     0.047 C 
BRANCH   6  10
ATOM     10  C   UNL A   1      31.803  22.613  24.470  1.00  0.00     0.149 C 
BRANCH  10  11
ATOM     11  N   UNL A   1      32.378  22.812  23.148  1.00  0.00    -0.336 N 
ATOM     12  N   UNL A   1      33.150  25.041  23.038  1.00  0.00    -0.333 N 
ATOM     13  C   UNL A   1      33.014  23.814  22.534  1.00  0.00     0.315 C 
ATOM     14  H   UNL A   1      33.777  25.598  22.522  1.00  0.00     0.165 HD
ATOM     15  O   UNL A   1      33.502  23.579  21.425  1.00  0.00    -0.249 OA
ATOM     16  H   UNL A   1      32.275  22.022  22.571  1.00  0.00     0.165 HD
BRANCH  12  17
ATOM     17  C   UNL A   1      32.578  25.749  24.183  1.00  0.00     0.109 C 
BRANCH  17  18
ATOM     18  C   UNL A   1      33.700  26.362  25.026  1.00  0.00     0.024 C 
ATOM     19  C   UNL A   1      33.811  27.871  24.860  1.00  0.00     0.006 C 
ENDBRANCH  17  18
BRANCH  17  20
ATOM     20  C   UNL A   1      31.542  26.767  23.678  1.00  0.00     0.184 C 
BRANCH  20  21
ATOM     21  O   UNL A   1      30.343  26.795  24.456  1.00  0.00    -0.383 OA
ATOM     22  C   UNL A   1      30.296  25.783  25.456  1.00  0.00     0.194 C 
ENDBRANCH  20  21
ENDBRANCH  17  20
ENDBRANCH  12  17
ENDBRANCH  10  11
ENDBRANCH   6  10
ENDBRANCH   3   5
ENDBRANCH   2   3
ENDBRANCH   1   2
BRANCH   1  23
ATOM     23  C   UNL A   1      39.098  19.366  25.727  1.00  0.00     0.275 C 
BRANCH  23  24
ATOM     24  O   UNL A   1      40.231  20.244  25.699  1.00  0.00    -0.458 OA
BRANCH  24  25
ATOM     25  C   UNL A   1      40.899  20.337  26.869  1.00  0.00     0.338 C 
ATOM     26  O   UNL A   1      41.417  19.428  27.505  1.00  0.00    -0.246 OA
BRANCH  25  27
ATOM     27  C   UNL A   1      41.071  21.748  27.215  1.00  0.00     0.060 A 
ATOM     28  C   UNL A   1      40.587  22.704  26.316  1.00  0.00     0.016 A 
ATOM     29  C   UNL A   1      41.753  22.125  28.372  1.00  0.00     0.016 A 
ATOM     30  C   UNL A   1      40.810  24.053  26.555  1.00  0.00     0.010 A 
ATOM     31  C   UNL A   1      41.983  23.477  28.608  1.00  0.00     0.010 A 
ATOM     32  C   UNL A   1      41.535  24.441  27.687  1.00  0.00    -0.014 A 
BRANCH  32  33
ATOM     33  C   UNL A   1      41.926  25.854  27.860  1.00  0.00     0.031 A 
ATOM     34  C   UNL A   1      43.299  26.280  27.431  1.00  0.00     0.074 A 
ATOM     35  C   UNL A   1      41.068  26.721  28.423  1.00  0.00     0.049 A 
ATOM     36  N   UNL A   1      43.897  27.427  27.599  1.00  0.00    -0.248 NA
ATOM     37  C   UNL A   1      44.112  25.273  26.725  1.00  0.00     0.031 C 
ATOM     38  C   UNL A   1      39.709  26.398  28.860  1.00  0.00     0.029 A 
ATOM     39  N   UNL A   1      41.224  28.041  28.750  1.00  0.00    -0.354 N 
ATOM     40  C   UNL A   1      45.171  27.269  27.066  1.00  0.00     0.074 A 
ATOM     41  C   UNL A   1      45.260  25.916  26.564  1.00  0.00     0.031 C 
ATOM     42  C   UNL A   1      39.165  27.486  29.430  1.00  0.00     0.029 A 
ATOM     43  C   UNL A   1      40.149  28.565  29.427  1.00  0.00     0.049 A 
ATOM     44  H   UNL A   1      42.027  28.564  28.523  1.00  0.00     0.167 HD
ATOM     45  C   UNL A   1      46.171  28.178  26.999  1.00  0.00     0.034 A 
ATOM     46  C   UNL A   1      39.994  29.772  30.005  1.00  0.00     0.034 A 
ATOM     47  C   UNL A   1      46.049  29.530  27.469  1.00  0.00     0.049 A 
ATOM     48  C   UNL A   1      41.119  30.767  29.904  1.00  0.00     0.074 A 
ATOM     49  C   UNL A   1      46.981  30.549  27.413  1.00  0.00     0.029 A 
ATOM     50  N   UNL A   1      44.918  30.050  28.082  1.00  0.00    -0.354 N 
ATOM     51  N   UNL A   1      42.286  30.635  29.318  1.00  0.00    -0.248 NA
ATOM     52  C   UNL A   1      40.899  32.084  30.517  1.00  0.00     0.031 C 
ATOM     53  C   UNL A   1      46.416  31.686  28.003  1.00  0.00     0.029 A 
ATOM     54  C   UNL A   1      45.127  31.377  28.411  1.00  0.00     0.049 A 
ATOM     55  H   UNL A   1      44.090  29.549  28.257  1.00  0.00     0.167 HD
ATOM     56  C   UNL A   1      42.927  31.859  29.466  1.00  0.00     0.074 A 
ATOM     57  C   UNL A   1      42.009  32.726  30.178  1.00  0.00     0.031 C 
ATOM     58  C   UNL A   1      44.169  32.230  29.068  1.00  0.00     0.034 A 
BRANCH  45  59
ATOM     59  C   UNL A   1      47.468  27.747  26.372  1.00  0.00     0.023 A 
ATOM     60  C   UNL A   1      48.505  27.251  27.187  1.00  0.00     0.012 A 
ATOM     61  C   UNL A   1      47.644  27.783  24.974  1.00  0.00     0.148 A 
ATOM     62  C   UNL A   1      49.707  26.822  26.624  1.00  0.00     0.002 A 
ATOM     63  C   UNL A   1      48.830  27.318  24.418  1.00  0.00     0.091 A 
ATOM     64  F   UNL A   1      46.656  28.282  24.219  1.00  0.00    -0.205 F 
ATOM     65  C   UNL A   1      49.866  26.847  25.242  1.00  0.00     0.022 A 
BRANCH  63  66
ATOM     66  S   UNL A   1      49.106  27.248  22.644  1.00  0.00     0.127 S 
ATOM     67  O   UNL A   1      50.563  27.150  22.575  1.00  0.00    -0.237 OA
ATOM     68  O   UNL A   1      48.394  26.026  22.270  1.00  0.00    -0.237 OA
ATOM     69  O   UNL A   1      48.535  28.472  22.101  1.00  0.00    -0.744 OA
ENDBRANCH  63  66
ENDBRANCH  45  59
BRANCH  46  70
ATOM     70  C   UNL A   1      38.716  30.109  30.692  1.00  0.00     0.023 A 
ATOM     71  C   UNL A   1      38.525  29.717  32.031  1.00  0.00     0.012 A 
ATOM     72  C   UNL A   1      37.708  30.852  30.045  1.00  0.00     0.148 A 
ATOM     73  C   UNL A   1      37.346  30.036  32.705  1.00  0.00     0.002 A 
ATOM     74  C   UNL A   1      36.559  31.214  30.739  1.00  0.00     0.091 A 
ATOM     75  F   UNL A   1      37.896  31.199  28.763  1.00  0.00    -0.205 F 
ATOM     76  C   UNL A   1      36.369  30.795  32.065  1.00  0.00     0.022 A 
BRANCH  74  77
ATOM     77  S   UNL A   1      35.321  32.304  30.027  1.00  0.00     0.127 S 
ATOM     78  O   UNL A   1      34.397  32.478  31.145  1.00  0.00    -0.237 OA
ATOM     79  O   UNL A   1      36.110  33.490  29.690  1.00  0.00    -0.237 OA
ATOM     80  O   UNL A   1      34.799  31.590  28.870  1.00  0.00    -0.744 OA
ENDBRANCH  74  77
ENDBRANCH  46  70
BRANCH  58  81
ATOM     81  C   UNL A   1      44.597  33.641  29.362  1.00  0.00     0.023 A 
ATOM     82  C   UNL A   1      45.177  33.946  30.610  1.00  0.00     0.012 A 
ATOM     83  C   UNL A   1      44.503  34.641  28.377  1.00  0.00     0.148 A 
ATOM     84  C   UNL A   1      45.634  35.234  30.879  1.00  0.00     0.002 A 
ATOM     85  C   UNL A   1      45.001  35.912  28.637  1.00  0.00     0.091 A 
ATOM     86  F   UNL A   1      43.928  34.334  27.204  1.00  0.00    -0.205 F 
ATOM     87  C   UNL A   1      45.558  36.212  29.891  1.00  0.00     0.022 A 
BRANCH  85  88
ATOM     88  S   UNL A   1      45.026  37.202  27.387  1.00  0.00     0.127 S 
ATOM     89  O   UNL A   1      43.615  37.289  27.021  1.00  0.00    -0.237 OA
ATOM     90  O   UNL A   1      45.536  38.352  28.135  1.00  0.00    -0.237 OA
ATOM     91  O   UNL A   1      45.920  36.722  26.341  1.00  0.00    -0.744 OA
ENDBRANCH  85  88
ENDBRANCH  58  81
ENDBRANCH  32  33
ENDBRANCH  25  27
ENDBRANCH  24  25
ENDBRANCH  23  24
ENDBRANCH   1  23
TORSDOF 20
ENDMDL
