MODEL 1
REMARK VINA RESULT:     -13.9      0.000      0.000
REMARK SMILES COc1ccc2[nH]cc([C@H](C(=O)OCCOC(=O)c3ccc(-c4c5nc(c(-c6cccc(S(=O)(=O)[O-])c6F)c6ccc([nH]6)c(-c6cccc(S(=O)(=O)[O-])c6F)c6nc(c(-c7cccc(S(=O)(=O)[O-])c7F)c7ccc4[nH]7)C=C6)C=C5)cc3)[NH+]3CC[NH+](Cc4cccc5ccccc45)CC3)c2c1
REMARK SMILES IDX 14 1 13 2 11 3 12 4 10 5 9 6 3 7 4 8 100 9 5 10 99 11 6 12
REMARK SMILES IDX 7 13 8 14 2 16 1 17 82 18 83 19 98 20 84 22 97 23 85 24
REMARK SMILES IDX 86 26 87 27 88 28 96 29 89 30 91 31 95 32 90 33 92 34 94 35
REMARK SMILES IDX 93 36 15 37 16 38 17 39 18 40 19 41 20 42 81 43 21 44 80 45
REMARK SMILES IDX 22 46 23 47 24 48 74 49 25 50 79 51 73 52 75 53 26 54 78 55
REMARK SMILES IDX 72 56 71 57 27 59 59 60 39 61 58 62 40 63 43 64 57 65 76 66
REMARK SMILES IDX 41 67 42 68 56 70 77 71 44 72 28 73 29 74 37 75 30 76 32 77
REMARK SMILES IDX 38 78 31 79 33 80 34 81 35 82 36 83 60 84 61 85 69 86 62 87
REMARK SMILES IDX 64 88 70 89 63 90 65 91 66 92 67 93 68 94 45 95 46 96 54 97
REMARK SMILES IDX 47 98 49 99 55 100 48 101 50 102 51 103 52 104 53 105
REMARK H PARENT 7 15 82 21 85 25 75 58 43 69
REMARK Flexibility Score: inf
ROOT
ATOM      1  C   UNL A   1      33.043  29.684  26.061  1.00  0.00     0.274 C 
ENDROOT
BRANCH   1   2
ATOM      2  O   UNL A   1      33.627  29.524  24.747  1.00  0.00    -0.457 OA
BRANCH   2   3
ATOM      3  C   UNL A   1      32.852  28.764  23.925  1.00  0.00     0.370 C 
ATOM      4  O   UNL A   1      32.948  28.907  22.711  1.00  0.00    -0.245 OA
BRANCH   3   5
ATOM      5  C   UNL A   1      31.920  27.748  24.674  1.00  0.00     0.328 C 
BRANCH   5   6
ATOM      6  C   UNL A   1      30.427  27.872  24.162  1.00  0.00     0.046 A 
ATOM      7  C   UNL A   1      28.879  31.083  22.482  1.00  0.00     0.119 A 
ATOM      8  C   UNL A   1      27.716  30.463  22.056  1.00  0.00     0.048 A 
ATOM      9  C   UNL A   1      29.854  30.341  23.171  1.00  0.00     0.057 A 
ATOM     10  C   UNL A   1      27.463  29.131  22.380  1.00  0.00     0.030 A 
ATOM     11  C   UNL A   1      29.654  28.967  23.524  1.00  0.00     0.013 A 
ATOM     12  C   UNL A   1      28.426  28.423  23.120  1.00  0.00     0.046 A 
ATOM     13  N   UNL A   1      28.398  27.117  23.536  1.00  0.00    -0.361 N 
ATOM     14  C   UNL A   1      29.564  26.782  24.162  1.00  0.00     0.094 A 
ATOM     15  H   UNL A   1      27.640  26.504  23.403  1.00  0.00     0.166 HD
BRANCH   7  16
ATOM     16  O   UNL A   1      29.007  32.392  22.100  1.00  0.00    -0.497 OA
ATOM     17  C   UNL A   1      28.981  33.371  23.134  1.00  0.00     0.278 C 
ENDBRANCH   7  16
ENDBRANCH   5   6
BRANCH   5  18
ATOM     18  N   UNL A   1      32.260  26.255  24.546  1.00  0.00    -0.310 N 
ATOM     19  C   UNL A   1      31.735  25.552  26.170  1.00  0.00     0.325 C 
ATOM     20  C   UNL A   1      31.813  25.279  22.952  1.00  0.00     0.325 C 
ATOM     21  H   UNL A   1      33.257  26.141  24.365  1.00  0.00     0.349 HD
ATOM     22  C   UNL A   1      30.917  23.772  26.285  1.00  0.00     0.324 C 
ATOM     23  C   UNL A   1      30.666  23.581  23.316  1.00  0.00     0.324 C 
ATOM     24  N   UNL A   1      31.352  22.606  24.911  1.00  0.00    -0.322 N 
ATOM     25  H   UNL A   1      30.957  21.680  25.078  1.00  0.00     0.348 HD
BRANCH  24  26
ATOM     26  C   UNL A   1      33.418  22.207  24.680  1.00  0.00     0.300 C 
BRANCH  26  27
ATOM     27  C   UNL A   1      34.425  20.824  24.839  1.00  0.00     0.014 A 
ATOM     28  C   UNL A   1      35.833  21.013  24.972  1.00  0.00     0.010 A 
ATOM     29  C   UNL A   1      33.980  19.539  24.401  1.00  0.00    -0.010 A 
ATOM     30  C   UNL A   1      36.724  19.958  25.002  1.00  0.00     0.001 A 
ATOM     31  C   UNL A   1      34.892  18.458  24.494  1.00  0.00    -0.018 A 
ATOM     32  C   UNL A   1      32.744  19.258  23.760  1.00  0.00     0.009 A 
ATOM     33  C   UNL A   1      36.237  18.676  24.830  1.00  0.00     0.009 A 
ATOM     34  C   UNL A   1      34.485  17.161  24.155  1.00  0.00     0.009 A 
ATOM     35  C   UNL A   1      32.366  17.973  23.381  1.00  0.00     0.001 A 
ATOM     36  C   UNL A   1      33.224  16.917  23.618  1.00  0.00     0.001 A 
ENDBRANCH  26  27
ENDBRANCH  24  26
ENDBRANCH   5  18
ENDBRANCH   3   5
ENDBRANCH   2   3
ENDBRANCH   1   2
BRANCH   1  37
ATOM     37  C   UNL A   1      33.931  30.508  27.031  1.00  0.00     0.275 C 
BRANCH  37  38
ATOM     38  O   UNL A   1      33.231  31.614  27.715  1.00  0.00    -0.458 OA
BRANCH  38  39
ATOM     39  C   UNL A   1      34.048  32.453  28.554  1.00  0.00     0.338 C 
ATOM     40  O   UNL A   1      33.802  33.573  27.999  1.00  0.00    -0.246 OA
BRANCH  39  41
ATOM     41  C   UNL A   1      35.396  32.161  30.146  1.00  0.00     0.060 A 
ATOM     42  C   UNL A   1      35.852  30.416  30.368  1.00  0.00     0.016 A 
ATOM     43  C   UNL A   1      36.933  33.324  29.961  1.00  0.00     0.016 A 
ATOM     44  C   UNL A   1      37.357  29.799  29.664  1.00  0.00     0.010 A 
ATOM     45  C   UNL A   1      38.420  32.640  29.147  1.00  0.00     0.010 A 
ATOM     46  C   UNL A   1      38.663  30.869  29.120  1.00  0.00    -0.014 A 
BRANCH  46  47
ATOM     47  C   UNL A   1      40.101  30.260  29.622  1.00  0.00     0.031 A 
ATOM     48  C   UNL A   1      40.658  30.477  31.057  1.00  0.00     0.074 A 
ATOM     49  C   UNL A   1      40.741  29.276  28.919  1.00  0.00     0.049 A 
ATOM     50  N   UNL A   1      41.703  29.914  31.645  1.00  0.00    -0.248 NA
ATOM     51  C   UNL A   1      39.999  31.428  31.954  1.00  0.00     0.031 C 
ATOM     52  C   UNL A   1      40.416  28.849  27.561  1.00  0.00     0.029 A 
ATOM     53  N   UNL A   1      41.735  28.364  29.284  1.00  0.00    -0.354 N 
ATOM     54  C   UNL A   1      41.840  30.518  32.901  1.00  0.00     0.074 A 
ATOM     55  C   UNL A   1      40.765  31.453  33.025  1.00  0.00     0.031 C 
ATOM     56  C   UNL A   1      40.998  27.668  27.298  1.00  0.00     0.029 A 
ATOM     57  C   UNL A   1      41.905  27.315  28.388  1.00  0.00     0.049 A 
ATOM     58  H   UNL A   1      42.268  28.457  30.105  1.00  0.00     0.167 HD
ATOM     59  C   UNL A   1      42.747  30.353  33.896  1.00  0.00     0.034 A 
ATOM     60  C   UNL A   1      42.698  26.209  28.400  1.00  0.00     0.034 A 
ATOM     61  C   UNL A   1      43.814  29.402  33.884  1.00  0.00     0.049 A 
ATOM     62  C   UNL A   1      43.706  26.022  29.509  1.00  0.00     0.074 A 
ATOM     63  C   UNL A   1      44.846  29.252  34.793  1.00  0.00     0.029 A 
ATOM     64  N   UNL A   1      43.972  28.423  32.924  1.00  0.00    -0.354 N 
ATOM     65  N   UNL A   1      43.823  26.676  30.637  1.00  0.00    -0.248 NA
ATOM     66  C   UNL A   1      44.728  24.973  29.322  1.00  0.00     0.031 C 
ATOM     67  C   UNL A   1      45.647  28.190  34.367  1.00  0.00     0.029 A 
ATOM     68  C   UNL A   1      45.096  27.671  33.207  1.00  0.00     0.049 A 
ATOM     69  H   UNL A   1      43.375  28.282  32.154  1.00  0.00     0.167 HD
ATOM     70  C   UNL A   1      44.950  26.155  31.267  1.00  0.00     0.074 A 
ATOM     71  C   UNL A   1      45.440  25.076  30.439  1.00  0.00     0.031 C 
ATOM     72  C   UNL A   1      45.559  26.577  32.401  1.00  0.00     0.034 A 
BRANCH  59  73
ATOM     73  C   UNL A   1      42.652  31.289  35.080  1.00  0.00     0.023 A 
ATOM     74  C   UNL A   1      41.925  30.922  36.232  1.00  0.00     0.012 A 
ATOM     75  C   UNL A   1      43.277  32.552  35.031  1.00  0.00     0.148 A 
ATOM     76  C   UNL A   1      41.793  31.814  37.299  1.00  0.00     0.002 A 
ATOM     77  C   UNL A   1      43.167  33.421  36.109  1.00  0.00     0.091 A 
ATOM     78  F   UNL A   1      43.943  32.889  33.918  1.00  0.00    -0.205 F 
ATOM     79  C   UNL A   1      42.417  33.059  37.240  1.00  0.00     0.022 A 
BRANCH  77  80
ATOM     80  S   UNL A   1      43.966  35.029  36.141  1.00  0.00     0.127 S 
ATOM     81  O   UNL A   1      45.378  34.656  36.200  1.00  0.00    -0.237 OA
ATOM     82  O   UNL A   1      43.542  35.610  34.867  1.00  0.00    -0.237 OA
ATOM     83  O   UNL A   1      43.452  35.711  37.321  1.00  0.00    -0.744 OA
ENDBRANCH  77  80
ENDBRANCH  59  73
BRANCH  60  84
ATOM     84  C   UNL A   1      42.607  25.173  27.307  1.00  0.00     0.023 A 
ATOM     85  C   UNL A   1      43.501  25.205  26.213  1.00  0.00     0.012 A 
ATOM     86  C   UNL A   1      41.661  24.133  27.351  1.00  0.00     0.148 A 
ATOM     87  C   UNL A   1      43.465  24.219  25.217  1.00  0.00     0.002 A 
ATOM     88  C   UNL A   1      41.701  23.098  26.419  1.00  0.00     0.091 A 
ATOM     89  F   UNL A   1      40.734  24.148  28.320  1.00  0.00    -0.205 F 
ATOM     90  C   UNL A   1      42.587  23.146  25.337  1.00  0.00     0.022 A 
BRANCH  88  91
ATOM     91  S   UNL A   1      40.760  21.593  26.704  1.00  0.00     0.127 S 
ATOM     92  O   UNL A   1      41.564  20.591  26.013  1.00  0.00    -0.237 OA
ATOM     93  O   UNL A   1      40.762  21.485  28.164  1.00  0.00    -0.237 OA
ATOM     94  O   UNL A   1      39.448  21.881  26.137  1.00  0.00    -0.744 OA
ENDBRANCH  88  91
ENDBRANCH  60  84
BRANCH  72  95
ATOM     95  C   UNL A   1      46.849  25.924  32.807  1.00  0.00     0.023 A 
ATOM     96  C   UNL A   1      48.063  26.478  32.353  1.00  0.00     0.012 A 
ATOM     97  C   UNL A   1      46.871  24.862  33.729  1.00  0.00     0.148 A 
ATOM     98  C   UNL A   1      49.282  25.972  32.802  1.00  0.00     0.002 A 
ATOM     99  C   UNL A   1      48.089  24.388  34.201  1.00  0.00     0.091 A 
ATOM    100  F   UNL A   1      45.703  24.344  34.136  1.00  0.00    -0.205 F 
ATOM    101  C   UNL A   1      49.295  24.938  33.734  1.00  0.00     0.022 A 
BRANCH  99 102
ATOM    102  S   UNL A   1      48.195  23.121  35.469  1.00  0.00     0.127 S 
ATOM    103  O   UNL A   1      47.625  21.964  34.783  1.00  0.00    -0.237 OA
ATOM    104  O   UNL A   1      49.635  23.038  35.712  1.00  0.00    -0.237 OA
ATOM    105  O   UNL A   1      47.423  23.626  36.598  1.00  0.00    -0.744 OA
ENDBRANCH  99 102
ENDBRANCH  72  95
ENDBRANCH  46  47
ENDBRANCH  39  41
ENDBRANCH  38  39
ENDBRANCH  37  38
ENDBRANCH   1  37
TORSDOF 19
ENDMDL
MODEL 2
REMARK VINA RESULT:     -13.8      1.116      7.153
REMARK SMILES COc1ccc2[nH]cc([C@H](C(=O)OCCOC(=O)c3ccc(-c4c5nc(c(-c6cccc(S(=O)(=O)[O-])c6F)c6ccc([nH]6)c(-c6cccc(S(=O)(=O)[O-])c6F)c6nc(c(-c7cccc(S(=O)(=O)[O-])c7F)c7ccc4[nH]7)C=C6)C=C5)cc3)[NH+]3CC[NH+](Cc4cccc5ccccc45)CC3)c2c1
REMARK SMILES IDX 14 1 13 2 11 3 12 4 10 5 9 6 3 7 4 8 100 9 5 10 99 11 6 12
REMARK SMILES IDX 7 13 8 14 2 16 1 17 82 18 83 19 98 20 84 22 97 23 85 24
REMARK SMILES IDX 86 26 87 27 88 28 96 29 89 30 91 31 95 32 90 33 92 34 94 35
REMARK SMILES IDX 93 36 15 37 16 38 17 39 18 40 19 41 20 42 81 43 21 44 80 45
REMARK SMILES IDX 22 46 23 47 24 48 74 49 25 50 79 51 73 52 75 53 26 54 78 55
REMARK SMILES IDX 72 56 71 57 27 59 59 60 39 61 58 62 40 63 43 64 57 65 76 66
REMARK SMILES IDX 41 67 42 68 56 70 77 71 44 72 28 73 29 74 37 75 30 76 32 77
REMARK SMILES IDX 38 78 31 79 33 80 34 81 35 82 36 83 60 84 61 85 69 86 62 87
REMARK SMILES IDX 64 88 70 89 63 90 65 91 66 92 67 93 68 94 45 95 46 96 54 97
REMARK SMILES IDX 47 98 49 99 55 100 48 101 50 102 51 103 52 104 53 105
REMARK H PARENT 7 15 82 21 85 25 75 58 43 69
REMARK Flexibility Score: inf
ROOT
ATOM      1  C   UNL A   1      32.887  29.854  26.675  1.00  0.00     0.274 C 
ENDROOT
BRANCH   1   2
ATOM      2  O   UNL A   1      32.678  30.147  25.274  1.00  0.00    -0.457 OA
BRANCH   2   3
ATOM      3  C   UNL A   1      32.615  29.021  24.512  1.00  0.00     0.370 C 
ATOM      4  O   UNL A   1      33.320  28.934  23.512  1.00  0.00    -0.245 OA
BRANCH   3   5
ATOM      5  C   UNL A   1      31.626  27.931  25.052  1.00  0.00     0.328 C 
BRANCH   5   6
ATOM      6  C   UNL A   1      30.227  28.026  24.316  1.00  0.00     0.046 A 
ATOM      7  C   UNL A   1      28.857  31.234  22.484  1.00  0.00     0.119 A 
ATOM      8  C   UNL A   1      27.795  30.593  21.869  1.00  0.00     0.048 A 
ATOM      9  C   UNL A   1      29.736  30.503  23.301  1.00  0.00     0.057 A 
ATOM     10  C   UNL A   1      27.538  29.247  22.120  1.00  0.00     0.030 A 
ATOM     11  C   UNL A   1      29.528  29.115  23.589  1.00  0.00     0.013 A 
ATOM     12  C   UNL A   1      28.396  28.547  22.986  1.00  0.00     0.046 A 
ATOM     13  N   UNL A   1      28.346  27.231  23.365  1.00  0.00    -0.361 N 
ATOM     14  C   UNL A   1      29.410  26.912  24.157  1.00  0.00     0.094 A 
ATOM     15  H   UNL A   1      27.638  26.600  23.102  1.00  0.00     0.166 HD
BRANCH   7  16
ATOM     16  O   UNL A   1      29.001  32.556  22.156  1.00  0.00    -0.497 OA
ATOM     17  C   UNL A   1      29.285  33.459  23.221  1.00  0.00     0.278 C 
ENDBRANCH   7  16
ENDBRANCH   5   6
BRANCH   5  18
ATOM     18  N   UNL A   1      32.050  26.460  24.908  1.00  0.00    -0.310 N 
ATOM     19  C   UNL A   1      31.360  25.662  26.423  1.00  0.00     0.325 C 
ATOM     20  C   UNL A   1      31.853  25.542  23.232  1.00  0.00     0.325 C 
ATOM     21  H   UNL A   1      33.066  26.397  24.851  1.00  0.00     0.349 HD
ATOM     22  C   UNL A   1      30.621  23.845  26.360  1.00  0.00     0.324 C 
ATOM     23  C   UNL A   1      30.752  23.781  23.378  1.00  0.00     0.324 C 
ATOM     24  N   UNL A   1      31.280  22.763  25.006  1.00  0.00    -0.322 N 
ATOM     25  H   UNL A   1      30.911  21.814  25.084  1.00  0.00     0.348 HD
BRANCH  24  26
ATOM     26  C   UNL A   1      33.375  22.463  25.024  1.00  0.00     0.300 C 
BRANCH  26  27
ATOM     27  C   UNL A   1      34.418  21.098  25.036  1.00  0.00     0.014 A 
ATOM     28  C   UNL A   1      35.828  21.314  25.106  1.00  0.00     0.010 A 
ATOM     29  C   UNL A   1      33.978  19.834  24.538  1.00  0.00    -0.010 A 
ATOM     30  C   UNL A   1      36.741  20.281  25.019  1.00  0.00     0.001 A 
ATOM     31  C   UNL A   1      34.917  18.773  24.510  1.00  0.00    -0.018 A 
ATOM     32  C   UNL A   1      32.716  19.565  23.946  1.00  0.00     0.009 A 
ATOM     33  C   UNL A   1      36.273  19.002  24.788  1.00  0.00     0.009 A 
ATOM     34  C   UNL A   1      34.519  17.491  24.107  1.00  0.00     0.009 A 
ATOM     35  C   UNL A   1      32.345  18.299  23.502  1.00  0.00     0.001 A 
ATOM     36  C   UNL A   1      33.237  17.251  23.623  1.00  0.00     0.001 A 
ENDBRANCH  26  27
ENDBRANCH  24  26
ENDBRANCH   5  18
ENDBRANCH   3   5
ENDBRANCH   2   3
ENDBRANCH   1   2
BRANCH   1  37
ATOM     37  C   UNL A   1      33.960  30.757  27.339  1.00  0.00     0.275 C 
BRANCH  37  38
ATOM     38  O   UNL A   1      33.513  32.135  27.622  1.00  0.00    -0.458 OA
BRANCH  38  39
ATOM     39  C   UNL A   1      34.452  32.969  28.327  1.00  0.00     0.338 C 
ATOM     40  O   UNL A   1      34.393  33.997  27.577  1.00  0.00    -0.246 OA
BRANCH  39  41
ATOM     41  C   UNL A   1      35.730  32.754  29.987  1.00  0.00     0.060 A 
ATOM     42  C   UNL A   1      35.670  31.088  30.709  1.00  0.00     0.016 A 
ATOM     43  C   UNL A   1      37.528  33.319  29.543  1.00  0.00     0.016 A 
ATOM     44  C   UNL A   1      36.897  29.888  30.266  1.00  0.00     0.010 A 
ATOM     45  C   UNL A   1      38.714  32.033  29.012  1.00  0.00     0.010 A 
ATOM     46  C   UNL A   1      38.431  30.334  29.494  1.00  0.00    -0.014 A 
BRANCH  46  47
ATOM     47  C   UNL A   1      39.651  29.499  30.202  1.00  0.00     0.031 A 
ATOM     48  C   UNL A   1      40.483  28.417  29.455  1.00  0.00     0.074 A 
ATOM     49  C   UNL A   1      40.211  29.917  31.379  1.00  0.00     0.049 A 
ATOM     50  N   UNL A   1      41.588  27.796  29.840  1.00  0.00    -0.248 NA
ATOM     51  C   UNL A   1      40.052  27.957  28.135  1.00  0.00     0.031 C 
ATOM     52  C   UNL A   1      39.659  30.933  32.271  1.00  0.00     0.029 A 
ATOM     53  N   UNL A   1      41.436  29.628  31.985  1.00  0.00    -0.354 N 
ATOM     54  C   UNL A   1      41.886  26.846  28.855  1.00  0.00     0.074 A 
ATOM     55  C   UNL A   1      40.892  26.987  27.836  1.00  0.00     0.031 C 
ATOM     56  C   UNL A   1      40.596  31.337  33.144  1.00  0.00     0.029 A 
ATOM     57  C   UNL A   1      41.780  30.488  33.021  1.00  0.00     0.049 A 
ATOM     58  H   UNL A   1      42.007  28.878  31.702  1.00  0.00     0.167 HD
ATOM     59  C   UNL A   1      42.874  25.923  28.751  1.00  0.00     0.034 A 
ATOM     60  C   UNL A   1      42.885  30.594  33.807  1.00  0.00     0.034 A 
ATOM     61  C   UNL A   1      43.940  25.753  29.688  1.00  0.00     0.049 A 
ATOM     62  C   UNL A   1      43.987  29.567  33.690  1.00  0.00     0.074 A 
ATOM     63  C   UNL A   1      44.909  24.766  29.721  1.00  0.00     0.029 A 
ATOM     64  N   UNL A   1      44.190  26.605  30.744  1.00  0.00    -0.354 N 
ATOM     65  N   UNL A   1      44.168  28.652  32.772  1.00  0.00    -0.248 NA
ATOM     66  C   UNL A   1      45.014  29.556  34.751  1.00  0.00     0.031 C 
ATOM     67  C   UNL A   1      45.737  25.010  30.820  1.00  0.00     0.029 A 
ATOM     68  C   UNL A   1      45.291  26.161  31.450  1.00  0.00     0.049 A 
ATOM     69  H   UNL A   1      43.663  27.408  30.962  1.00  0.00     0.167 HD
ATOM     70  C   UNL A   1      45.292  27.931  33.167  1.00  0.00     0.074 A 
ATOM     71  C   UNL A   1      45.803  28.560  34.364  1.00  0.00     0.031 C 
ATOM     72  C   UNL A   1      45.816  26.809  32.618  1.00  0.00     0.034 A 
BRANCH  59  73
ATOM     73  C   UNL A   1      42.803  24.963  27.583  1.00  0.00     0.023 A 
ATOM     74  C   UNL A   1      43.564  25.192  26.418  1.00  0.00     0.012 A 
ATOM     75  C   UNL A   1      41.954  23.840  27.645  1.00  0.00     0.148 A 
ATOM     76  C   UNL A   1      43.451  24.334  25.321  1.00  0.00     0.002 A 
ATOM     77  C   UNL A   1      41.872  22.974  26.561  1.00  0.00     0.091 A 
ATOM     78  F   UNL A   1      41.223  23.656  28.753  1.00  0.00    -0.205 F 
ATOM     79  C   UNL A   1      42.611  23.224  25.394  1.00  0.00     0.022 A 
BRANCH  77  80
ATOM     80  S   UNL A   1      40.846  21.500  26.577  1.00  0.00     0.127 S 
ATOM     81  O   UNL A   1      41.632  20.586  25.749  1.00  0.00    -0.237 OA
ATOM     82  O   UNL A   1      40.815  21.160  27.999  1.00  0.00    -0.237 OA
ATOM     83  O   UNL A   1      39.561  21.898  26.019  1.00  0.00    -0.744 OA
ENDBRANCH  77  80
ENDBRANCH  59  73
BRANCH  60  84
ATOM     84  C   UNL A   1      43.021  31.706  34.817  1.00  0.00     0.023 A 
ATOM     85  C   UNL A   1      43.677  32.910  34.472  1.00  0.00     0.012 A 
ATOM     86  C   UNL A   1      42.479  31.600  36.111  1.00  0.00     0.148 A 
ATOM     87  C   UNL A   1      43.765  33.974  35.381  1.00  0.00     0.002 A 
ATOM     88  C   UNL A   1      42.474  32.698  36.969  1.00  0.00     0.091 A 
ATOM     89  F   UNL A   1      41.951  30.428  36.493  1.00  0.00    -0.205 F 
ATOM     90  C   UNL A   1      43.134  33.881  36.618  1.00  0.00     0.022 A 
BRANCH  88  91
ATOM     91  S   UNL A   1      41.451  32.680  38.447  1.00  0.00     0.127 S 
ATOM     92  O   UNL A   1      42.170  31.750  39.310  1.00  0.00    -0.237 OA
ATOM     93  O   UNL A   1      41.489  34.078  38.880  1.00  0.00    -0.237 OA
ATOM     94  O   UNL A   1      40.143  32.248  37.969  1.00  0.00    -0.744 OA
ENDBRANCH  88  91
ENDBRANCH  60  84
BRANCH  72  95
ATOM     95  C   UNL A   1      46.967  26.140  33.314  1.00  0.00     0.023 A 
ATOM     96  C   UNL A   1      48.277  26.577  33.036  1.00  0.00     0.012 A 
ATOM     97  C   UNL A   1      46.752  25.187  34.327  1.00  0.00     0.148 A 
ATOM     98  C   UNL A   1      49.360  26.064  33.747  1.00  0.00     0.002 A 
ATOM     99  C   UNL A   1      47.833  24.707  35.057  1.00  0.00     0.091 A 
ATOM    100  F   UNL A   1      45.498  24.776  34.564  1.00  0.00    -0.205 F 
ATOM    101  C   UNL A   1      49.138  25.140  34.765  1.00  0.00     0.022 A 
BRANCH  99 102
ATOM    102  S   UNL A   1      47.626  23.585  36.444  1.00  0.00     0.127 S 
ATOM    103  O   UNL A   1      47.189  22.361  35.774  1.00  0.00    -0.237 OA
ATOM    104  O   UNL A   1      48.976  23.525  37.004  1.00  0.00    -0.237 OA
ATOM    105  O   UNL A   1      46.640  24.210  37.316  1.00  0.00    -0.744 OA
ENDBRANCH  99 102
ENDBRANCH  72  95
ENDBRANCH  46  47
ENDBRANCH  39  41
ENDBRANCH  38  39
ENDBRANCH  37  38
ENDBRANCH   1  37
TORSDOF 19
ENDMDL
MODEL 3
REMARK VINA RESULT:     -13.3      2.144      7.287
REMARK SMILES COc1ccc2[nH]cc([C@H](C(=O)OCCOC(=O)c3ccc(-c4c5nc(c(-c6cccc(S(=O)(=O)[O-])c6F)c6ccc([nH]6)c(-c6cccc(S(=O)(=O)[O-])c6F)c6nc(c(-c7cccc(S(=O)(=O)[O-])c7F)c7ccc4[nH]7)C=C6)C=C5)cc3)[NH+]3CC[NH+](Cc4cccc5ccccc45)CC3)c2c1
REMARK SMILES IDX 14 1 13 2 11 3 12 4 10 5 9 6 3 7 4 8 100 9 5 10 99 11 6 12
REMARK SMILES IDX 7 13 8 14 2 16 1 17 82 18 83 19 98 20 84 22 97 23 85 24
REMARK SMILES IDX 86 26 87 27 88 28 96 29 89 30 91 31 95 32 90 33 92 34 94 35
REMARK SMILES IDX 93 36 15 37 16 38 17 39 18 40 19 41 20 42 81 43 21 44 80 45
REMARK SMILES IDX 22 46 23 47 24 48 74 49 25 50 79 51 73 52 75 53 26 54 78 55
REMARK SMILES IDX 72 56 71 57 27 59 59 60 39 61 58 62 40 63 43 64 57 65 76 66
REMARK SMILES IDX 41 67 42 68 56 70 77 71 44 72 28 73 29 74 37 75 30 76 32 77
REMARK SMILES IDX 38 78 31 79 33 80 34 81 35 82 36 83 60 84 61 85 69 86 62 87
REMARK SMILES IDX 64 88 70 89 63 90 65 91 66 92 67 93 68 94 45 95 46 96 54 97
REMARK SMILES IDX 47 98 49 99 55 100 48 101 50 102 51 103 52 104 53 105
REMARK H PARENT 7 15 82 21 85 25 75 58 43 69
REMARK Flexibility Score: inf
ROOT
ATOM      1  C   UNL A   1      33.210  29.295  26.383  1.00  0.00     0.274 C 
ENDROOT
BRANCH   1   2
ATOM      2  O   UNL A   1      33.172  29.464  24.947  1.00  0.00    -0.457 OA
BRANCH   2   3
ATOM      3  C   UNL A   1      33.166  28.275  24.284  1.00  0.00     0.370 C 
ATOM      4  O   UNL A   1      33.792  28.171  23.235  1.00  0.00    -0.245 OA
BRANCH   3   5
ATOM      5  C   UNL A   1      32.345  27.144  24.996  1.00  0.00     0.328 C 
BRANCH   5   6
ATOM      6  C   UNL A   1      30.823  27.194  24.558  1.00  0.00     0.046 A 
ATOM      7  C   UNL A   1      29.082  30.260  22.802  1.00  0.00     0.119 A 
ATOM      8  C   UNL A   1      27.920  29.582  22.470  1.00  0.00     0.048 A 
ATOM      9  C   UNL A   1      30.116  29.588  23.475  1.00  0.00     0.057 A 
ATOM     10  C   UNL A   1      27.731  28.262  22.874  1.00  0.00     0.030 A 
ATOM     11  C   UNL A   1      29.982  28.228  23.907  1.00  0.00     0.013 A 
ATOM     12  C   UNL A   1      28.755  27.625  23.598  1.00  0.00     0.046 A 
ATOM     13  N   UNL A   1      28.793  26.343  24.081  1.00  0.00    -0.361 N 
ATOM     14  C   UNL A   1      30.000  26.078  24.660  1.00  0.00     0.094 A 
ATOM     15  H   UNL A   1      28.051  25.700  24.020  1.00  0.00     0.166 HD
BRANCH   7  16
ATOM     16  O   UNL A   1      29.145  31.551  22.348  1.00  0.00    -0.497 OA
ATOM     17  C   UNL A   1      28.298  31.893  21.255  1.00  0.00     0.278 C 
ENDBRANCH   7  16
ENDBRANCH   5   6
BRANCH   5  18
ATOM     18  N   UNL A   1      32.782  25.692  24.747  1.00  0.00    -0.310 N 
ATOM     19  C   UNL A   1      32.345  24.833  26.321  1.00  0.00     0.325 C 
ATOM     20  C   UNL A   1      32.364  24.812  23.090  1.00  0.00     0.325 C 
ATOM     21  H   UNL A   1      33.780  25.662  24.538  1.00  0.00     0.349 HD
ATOM     22  C   UNL A   1      31.653  22.997  26.313  1.00  0.00     0.324 C 
ATOM     23  C   UNL A   1      31.344  23.015  23.343  1.00  0.00     0.324 C 
ATOM     24  N   UNL A   1      32.132  21.971  24.844  1.00  0.00    -0.322 N 
ATOM     25  H   UNL A   1      31.805  21.010  24.946  1.00  0.00     0.348 HD
BRANCH  24  26
ATOM     26  C   UNL A   1      34.214  21.736  24.544  1.00  0.00     0.300 C 
BRANCH  26  27
ATOM     27  C   UNL A   1      35.637  22.380  25.260  1.00  0.00     0.014 A 
ATOM     28  C   UNL A   1      35.773  23.798  25.358  1.00  0.00     0.010 A 
ATOM     29  C   UNL A   1      36.834  21.605  25.338  1.00  0.00    -0.010 A 
ATOM     30  C   UNL A   1      36.925  24.402  25.825  1.00  0.00     0.001 A 
ATOM     31  C   UNL A   1      37.989  22.228  25.873  1.00  0.00    -0.018 A 
ATOM     32  C   UNL A   1      37.017  20.298  24.813  1.00  0.00     0.009 A 
ATOM     33  C   UNL A   1      38.007  23.604  26.146  1.00  0.00     0.009 A 
ATOM     34  C   UNL A   1      39.169  21.492  26.048  1.00  0.00     0.009 A 
ATOM     35  C   UNL A   1      38.209  19.592  24.947  1.00  0.00     0.001 A 
ATOM     36  C   UNL A   1      39.274  20.178  25.605  1.00  0.00     0.001 A 
ENDBRANCH  26  27
ENDBRANCH  24  26
ENDBRANCH   5  18
ENDBRANCH   3   5
ENDBRANCH   2   3
ENDBRANCH   1   2
BRANCH   1  37
ATOM     37  C   UNL A   1      34.156  30.298  27.095  1.00  0.00     0.275 C 
BRANCH  37  38
ATOM     38  O   UNL A   1      33.483  31.491  27.647  1.00  0.00    -0.458 OA
BRANCH  38  39
ATOM     39  C   UNL A   1      34.340  32.459  28.282  1.00  0.00     0.338 C 
ATOM     40  O   UNL A   1      34.193  33.415  27.452  1.00  0.00    -0.246 OA
BRANCH  39  41
ATOM     41  C   UNL A   1      35.622  32.493  29.953  1.00  0.00     0.060 A 
ATOM     42  C   UNL A   1      35.606  30.932  30.882  1.00  0.00     0.016 A 
ATOM     43  C   UNL A   1      37.405  33.044  29.435  1.00  0.00     0.016 A 
ATOM     44  C   UNL A   1      36.866  29.718  30.592  1.00  0.00     0.010 A 
ATOM     45  C   UNL A   1      38.625  31.733  29.070  1.00  0.00     0.010 A 
ATOM     46  C   UNL A   1      38.388  30.103  29.765  1.00  0.00    -0.014 A 
BRANCH  46  47
ATOM     47  C   UNL A   1      39.630  29.399  30.571  1.00  0.00     0.031 A 
ATOM     48  C   UNL A   1      40.572  28.345  29.922  1.00  0.00     0.074 A 
ATOM     49  C   UNL A   1      40.101  29.917  31.747  1.00  0.00     0.049 A 
ATOM     50  N   UNL A   1      41.699  27.828  30.388  1.00  0.00    -0.248 NA
ATOM     51  C   UNL A   1      40.239  27.787  28.611  1.00  0.00     0.031 C 
ATOM     52  C   UNL A   1      39.435  30.933  32.557  1.00  0.00     0.029 A 
ATOM     53  N   UNL A   1      41.313  29.751  32.421  1.00  0.00    -0.354 N 
ATOM     54  C   UNL A   1      42.112  26.854  29.471  1.00  0.00     0.074 A 
ATOM     55  C   UNL A   1      41.160  26.869  28.402  1.00  0.00     0.031 C 
ATOM     56  C   UNL A   1      40.298  31.451  33.447  1.00  0.00     0.029 A 
ATOM     57  C   UNL A   1      41.544  30.687  33.423  1.00  0.00     0.049 A 
ATOM     58  H   UNL A   1      41.949  29.033  32.205  1.00  0.00     0.167 HD
ATOM     59  C   UNL A   1      43.167  26.003  29.461  1.00  0.00     0.034 A 
ATOM     60  C   UNL A   1      42.600  30.915  34.250  1.00  0.00     0.034 A 
ATOM     61  C   UNL A   1      44.197  25.961  30.451  1.00  0.00     0.049 A 
ATOM     62  C   UNL A   1      43.777  29.969  34.237  1.00  0.00     0.074 A 
ATOM     63  C   UNL A   1      45.232  25.053  30.581  1.00  0.00     0.029 A 
ATOM     64  N   UNL A   1      44.334  26.882  31.469  1.00  0.00    -0.354 N 
ATOM     65  N   UNL A   1      44.068  29.023  33.380  1.00  0.00    -0.248 NA
ATOM     66  C   UNL A   1      44.750  30.088  35.342  1.00  0.00     0.031 C 
ATOM     67  C   UNL A   1      45.987  25.413  31.701  1.00  0.00     0.029 A 
ATOM     68  C   UNL A   1      45.429  26.559  32.246  1.00  0.00     0.049 A 
ATOM     69  H   UNL A   1      43.741  27.654  31.620  1.00  0.00     0.167 HD
ATOM     70  C   UNL A   1      45.220  28.409  33.863  1.00  0.00     0.074 A 
ATOM     71  C   UNL A   1      45.627  29.135  35.045  1.00  0.00     0.031 C 
ATOM     72  C   UNL A   1      45.849  27.303  33.399  1.00  0.00     0.034 A 
BRANCH  59  73
ATOM     73  C   UNL A   1      43.223  24.982  28.345  1.00  0.00     0.023 A 
ATOM     74  C   UNL A   1      42.298  23.919  28.297  1.00  0.00     0.012 A 
ATOM     75  C   UNL A   1      44.220  25.077  27.353  1.00  0.00     0.148 A 
ATOM     76  C   UNL A   1      42.389  22.947  27.297  1.00  0.00     0.002 A 
ATOM     77  C   UNL A   1      44.285  24.124  26.345  1.00  0.00     0.091 A 
ATOM     78  F   UNL A   1      45.102  26.082  27.433  1.00  0.00    -0.205 F 
ATOM     79  C   UNL A   1      43.378  23.052  26.320  1.00  0.00     0.022 A 
BRANCH  77  80
ATOM     80  S   UNL A   1      45.498  24.195  25.022  1.00  0.00     0.127 S 
ATOM     81  O   UNL A   1      45.525  25.627  24.724  1.00  0.00    -0.237 OA
ATOM     82  O   UNL A   1      46.702  23.688  25.680  1.00  0.00    -0.237 OA
ATOM     83  O   UNL A   1      44.984  23.346  23.957  1.00  0.00    -0.744 OA
ENDBRANCH  77  80
ENDBRANCH  59  73
BRANCH  60  84
ATOM     84  C   UNL A   1      42.606  32.085  35.202  1.00  0.00     0.023 A 
ATOM     85  C   UNL A   1      43.036  33.359  34.768  1.00  0.00     0.012 A 
ATOM     86  C   UNL A   1      42.162  31.959  36.531  1.00  0.00     0.148 A 
ATOM     87  C   UNL A   1      42.998  34.468  35.625  1.00  0.00     0.002 A 
ATOM     88  C   UNL A   1      42.024  33.083  37.342  1.00  0.00     0.091 A 
ATOM     89  F   UNL A   1      41.855  30.738  36.993  1.00  0.00    -0.205 F 
ATOM     90  C   UNL A   1      42.460  34.338  36.902  1.00  0.00     0.022 A 
BRANCH  88  91
ATOM     91  S   UNL A   1      41.100  32.976  38.880  1.00  0.00     0.127 S 
ATOM     92  O   UNL A   1      41.208  34.334  39.401  1.00  0.00    -0.237 OA
ATOM     93  O   UNL A   1      39.762  32.595  38.425  1.00  0.00    -0.237 OA
ATOM     94  O   UNL A   1      41.784  31.932  39.634  1.00  0.00    -0.744 OA
ENDBRANCH  88  91
ENDBRANCH  60  84
BRANCH  72  95
ATOM     95  C   UNL A   1      47.011  26.758  34.181  1.00  0.00     0.023 A 
ATOM     96  C   UNL A   1      48.305  27.242  33.902  1.00  0.00     0.012 A 
ATOM     97  C   UNL A   1      46.814  25.883  35.264  1.00  0.00     0.148 A 
ATOM     98  C   UNL A   1      49.390  26.849  34.684  1.00  0.00     0.002 A 
ATOM     99  C   UNL A   1      47.894  25.525  36.062  1.00  0.00     0.091 A 
ATOM    100  F   UNL A   1      45.576  25.425  35.501  1.00  0.00    -0.205 F 
ATOM    101  C   UNL A   1      49.183  26.003  35.770  1.00  0.00     0.022 A 
BRANCH  99 102
ATOM    102  S   UNL A   1      47.702  24.512  37.533  1.00  0.00     0.127 S 
ATOM    103  O   UNL A   1      47.022  23.335  36.997  1.00  0.00    -0.237 OA
ATOM    104  O   UNL A   1      49.089  24.283  37.941  1.00  0.00    -0.237 OA
ATOM    105  O   UNL A   1      46.925  25.316  38.468  1.00  0.00    -0.744 OA
ENDBRANCH  99 102
ENDBRANCH  72  95
ENDBRANCH  46  47
ENDBRANCH  39  41
ENDBRANCH  38  39
ENDBRANCH  37  38
ENDBRANCH   1  37
TORSDOF 19
ENDMDL
