MODEL 1
REMARK VINA RESULT:     -10.6      0.000      0.000
REMARK SMILES CCC[NH2+][C@@H]1COC[C@@H]1C(=O)N[C@@](C)(CC)C(=O)OCCOC(=O)c1ccc(-c2c3nc(c(-c4cccc(S(=O)(=O)[O-])c4F)c4ccc([nH]4)c(-c4cccc(S(=O)(=O)[O-])c4F)c4nc(c(-c5cccc(S(=O)(=O)[O-])c5F)c5ccc2[nH]5)C=C4)C=C3)cc1
REMARK SMILES IDX 20 1 19 2 17 3 18 4 13 5 14 6 12 7 10 8 11 9 9 11 5 12 6 13
REMARK SMILES IDX 7 14 8 15 4 16 3 19 2 20 1 21 15 22 16 23 21 24 22 25 23 26
REMARK SMILES IDX 24 27 25 28 26 29 87 30 27 31 86 32 28 33 29 34 30 35 80 36
REMARK SMILES IDX 31 37 85 38 79 39 81 40 32 41 84 42 78 43 77 44 33 46 65 47
REMARK SMILES IDX 45 48 64 49 46 50 49 51 63 52 82 53 47 54 48 55 62 57 83 58
REMARK SMILES IDX 50 59 34 60 35 61 43 62 36 63 38 64 44 65 37 66 39 67 40 68
REMARK SMILES IDX 41 69 42 70 66 71 67 72 75 73 68 74 70 75 76 76 69 77 71 78
REMARK SMILES IDX 72 79 73 80 74 81 51 82 52 83 60 84 53 85 55 86 61 87 54 88
REMARK SMILES IDX 56 89 57 90 58 91 59 92
REMARK H PARENT 12 10 4 17 4 18 81 45 49 56
REMARK Flexibility Score: inf
ROOT
ATOM      1  C   UNL A   1      31.193  29.313  24.734  1.00  0.00     0.274 C 
ENDROOT
BRANCH   1   2
ATOM      2  O   UNL A   1      31.319  27.921  25.044  1.00  0.00    -0.460 OA
BRANCH   2   3
ATOM      3  C   UNL A   1      30.874  27.074  24.079  1.00  0.00     0.331 C 
ATOM      4  O   UNL A   1      29.904  27.309  23.370  1.00  0.00    -0.249 OA
BRANCH   3   5
ATOM      5  C   UNL A   1      31.853  25.893  23.874  1.00  0.00     0.135 C 
ATOM      6  C   UNL A   1      33.297  26.427  23.896  1.00  0.00     0.047 C 
BRANCH   5   7
ATOM      7  N   UNL A   1      31.727  24.878  24.963  1.00  0.00    -0.340 N 
ATOM      8  C   UNL A   1      32.085  23.563  25.099  1.00  0.00     0.232 C 
ATOM      9  O   UNL A   1      31.242  22.877  25.689  1.00  0.00    -0.274 OA
ATOM     10  H   UNL A   1      31.286  25.236  25.767  1.00  0.00     0.164 HD
BRANCH   8  11
ATOM     11  C   UNL A   1      33.400  22.941  24.598  1.00  0.00     0.164 C 
ATOM     12  C   UNL A   1      33.563  21.434  24.853  1.00  0.00     0.223 C 
ATOM     13  C   UNL A   1      34.093  21.390  26.283  1.00  0.00     0.225 C 
ATOM     14  O   UNL A   1      34.995  22.498  26.376  1.00  0.00    -0.374 OA
ATOM     15  C   UNL A   1      34.612  23.444  25.367  1.00  0.00     0.180 C 
BRANCH  12  16
ATOM     16  N   UNL A   1      32.412  20.570  24.647  1.00  0.00    -0.341 N 
ATOM     17  H   UNL A   1      31.614  20.967  25.142  1.00  0.00     0.346 HD
ATOM     18  H   UNL A   1      32.243  20.515  23.643  1.00  0.00     0.346 HD
BRANCH  16  19
ATOM     19  C   UNL A   1      32.634  19.217  25.131  1.00  0.00     0.260 C 
BRANCH  19  20
ATOM     20  C   UNL A   1      33.600  18.468  24.216  1.00  0.00     0.058 C 
ATOM     21  C   UNL A   1      32.897  17.660  23.133  1.00  0.00     0.010 C 
ENDBRANCH  19  20
ENDBRANCH  16  19
ENDBRANCH  12  16
ENDBRANCH   8  11
ENDBRANCH   5   7
BRANCH   5  22
ATOM     22  C   UNL A   1      31.659  25.273  22.426  1.00  0.00     0.037 C 
ATOM     23  C   UNL A   1      32.691  25.589  21.354  1.00  0.00     0.007 C 
ENDBRANCH   5  22
ENDBRANCH   3   5
ENDBRANCH   2   3
ENDBRANCH   1   2
BRANCH   1  24
ATOM     24  C   UNL A   1      31.485  30.085  26.026  1.00  0.00     0.275 C 
BRANCH  24  25
ATOM     25  O   UNL A   1      32.852  30.556  26.015  1.00  0.00    -0.458 OA
BRANCH  25  26
ATOM     26  C   UNL A   1      33.170  31.423  27.008  1.00  0.00     0.338 C 
ATOM     27  O   UNL A   1      32.585  32.468  27.249  1.00  0.00    -0.246 OA
BRANCH  26  28
ATOM     28  C   UNL A   1      34.451  31.021  27.645  1.00  0.00     0.060 A 
ATOM     29  C   UNL A   1      34.781  29.688  27.909  1.00  0.00     0.016 A 
ATOM     30  C   UNL A   1      35.351  32.027  27.998  1.00  0.00     0.016 A 
ATOM     31  C   UNL A   1      36.007  29.355  28.505  1.00  0.00     0.010 A 
ATOM     32  C   UNL A   1      36.575  31.700  28.597  1.00  0.00     0.010 A 
ATOM     33  C   UNL A   1      36.907  30.361  28.871  1.00  0.00    -0.014 A 
BRANCH  33  34
ATOM     34  C   UNL A   1      38.061  30.053  29.762  1.00  0.00     0.031 A 
ATOM     35  C   UNL A   1      39.088  29.082  29.245  1.00  0.00     0.074 A 
ATOM     36  C   UNL A   1      38.214  30.590  30.988  1.00  0.00     0.049 A 
ATOM     37  N   UNL A   1      40.167  28.626  29.823  1.00  0.00    -0.248 NA
ATOM     38  C   UNL A   1      38.869  28.567  27.882  1.00  0.00     0.031 C 
ATOM     39  C   UNL A   1      37.334  31.579  31.599  1.00  0.00     0.029 A 
ATOM     40  N   UNL A   1      39.167  30.360  31.954  1.00  0.00    -0.354 N 
ATOM     41  C   UNL A   1      40.749  27.767  28.901  1.00  0.00     0.074 A 
ATOM     42  C   UNL A   1      39.891  27.741  27.737  1.00  0.00     0.031 C 
ATOM     43  C   UNL A   1      37.751  31.836  32.853  1.00  0.00     0.029 A 
ATOM     44  C   UNL A   1      38.940  31.037  33.133  1.00  0.00     0.049 A 
ATOM     45  H   UNL A   1      39.940  29.765  31.816  1.00  0.00     0.167 HD
ATOM     46  C   UNL A   1      41.910  27.079  28.992  1.00  0.00     0.034 A 
ATOM     47  C   UNL A   1      39.621  31.018  34.298  1.00  0.00     0.034 A 
ATOM     48  C   UNL A   1      42.768  27.092  30.141  1.00  0.00     0.049 A 
ATOM     49  C   UNL A   1      40.881  30.188  34.398  1.00  0.00     0.074 A 
ATOM     50  C   UNL A   1      43.955  26.411  30.337  1.00  0.00     0.029 A 
ATOM     51  N   UNL A   1      42.525  27.822  31.294  1.00  0.00    -0.354 N 
ATOM     52  N   UNL A   1      41.477  29.472  33.475  1.00  0.00    -0.248 NA
ATOM     53  C   UNL A   1      41.589  30.205  35.688  1.00  0.00     0.031 C 
ATOM     54  C   UNL A   1      44.428  26.724  31.615  1.00  0.00     0.029 A 
ATOM     55  C   UNL A   1      43.542  27.611  32.207  1.00  0.00     0.049 A 
ATOM     56  H   UNL A   1      41.744  28.403  31.440  1.00  0.00     0.167 HD
ATOM     57  C   UNL A   1      42.653  29.005  34.053  1.00  0.00     0.074 A 
ATOM     58  C   UNL A   1      42.691  29.523  35.404  1.00  0.00     0.031 C 
ATOM     59  C   UNL A   1      43.611  28.209  33.515  1.00  0.00     0.034 A 
BRANCH  46  60
ATOM     60  C   UNL A   1      42.312  26.283  27.785  1.00  0.00     0.023 A 
ATOM     61  C   UNL A   1      43.003  26.928  26.738  1.00  0.00     0.012 A 
ATOM     62  C   UNL A   1      41.977  24.923  27.662  1.00  0.00     0.148 A 
ATOM     63  C   UNL A   1      43.316  26.242  25.567  1.00  0.00     0.002 A 
ATOM     64  C   UNL A   1      42.323  24.236  26.506  1.00  0.00     0.091 A 
ATOM     65  F   UNL A   1      41.295  24.339  28.659  1.00  0.00    -0.205 F 
ATOM     66  C   UNL A   1      42.980  24.896  25.453  1.00  0.00     0.022 A 
BRANCH  64  67
ATOM     67  S   UNL A   1      41.973  22.489  26.278  1.00  0.00     0.127 S 
ATOM     68  O   UNL A   1      42.645  22.217  25.008  1.00  0.00    -0.237 OA
ATOM     69  O   UNL A   1      42.618  21.892  27.448  1.00  0.00    -0.237 OA
ATOM     70  O   UNL A   1      40.522  22.370  26.259  1.00  0.00    -0.744 OA
ENDBRANCH  64  67
ENDBRANCH  46  60
BRANCH  47  71
ATOM     71  C   UNL A   1      39.196  31.865  35.453  1.00  0.00     0.023 A 
ATOM     72  C   UNL A   1      39.645  33.200  35.521  1.00  0.00     0.012 A 
ATOM     73  C   UNL A   1      38.408  31.355  36.503  1.00  0.00     0.148 A 
ATOM     74  C   UNL A   1      39.357  33.997  36.629  1.00  0.00     0.002 A 
ATOM     75  C   UNL A   1      38.090  32.168  37.588  1.00  0.00     0.091 A 
ATOM     76  F   UNL A   1      38.008  30.078  36.435  1.00  0.00    -0.205 F 
ATOM     77  C   UNL A   1      38.577  33.483  37.660  1.00  0.00     0.022 A 
BRANCH  75  78
ATOM     78  S   UNL A   1      37.033  31.621  38.935  1.00  0.00     0.127 S 
ATOM     79  O   UNL A   1      35.910  32.550  38.831  1.00  0.00    -0.237 OA
ATOM     80  O   UNL A   1      36.728  30.244  38.545  1.00  0.00    -0.237 OA
ATOM     81  O   UNL A   1      37.841  31.739  40.142  1.00  0.00    -0.744 OA
ENDBRANCH  75  78
ENDBRANCH  47  71
BRANCH  59  82
ATOM     82  C   UNL A   1      44.822  27.888  34.352  1.00  0.00     0.023 A 
ATOM     83  C   UNL A   1      45.918  28.772  34.366  1.00  0.00     0.012 A 
ATOM     84  C   UNL A   1      44.822  26.771  35.209  1.00  0.00     0.148 A 
ATOM     85  C   UNL A   1      47.004  28.539  35.209  1.00  0.00     0.002 A 
ATOM     86  C   UNL A   1      45.887  26.569  36.081  1.00  0.00     0.091 A 
ATOM     87  F   UNL A   1      43.780  25.927  35.164  1.00  0.00    -0.205 F 
ATOM     88  C   UNL A   1      46.982  27.449  36.076  1.00  0.00     0.022 A 
BRANCH  86  89
ATOM     89  S   UNL A   1      45.887  25.252  37.303  1.00  0.00     0.127 S 
ATOM     90  O   UNL A   1      44.665  25.538  38.051  1.00  0.00    -0.237 OA
ATOM     91  O   UNL A   1      45.824  24.050  36.469  1.00  0.00    -0.237 OA
ATOM     92  O   UNL A   1      47.131  25.400  38.046  1.00  0.00    -0.744 OA
ENDBRANCH  86  89
ENDBRANCH  59  82
ENDBRANCH  33  34
ENDBRANCH  26  28
ENDBRANCH  25  26
ENDBRANCH  24  25
ENDBRANCH   1  24
TORSDOF 20
ENDMDL
MODEL 2
REMARK VINA RESULT:     -10.5      1.698      2.159
REMARK SMILES CCC[NH2+][C@@H]1COC[C@@H]1C(=O)N[C@@](C)(CC)C(=O)OCCOC(=O)c1ccc(-c2c3nc(c(-c4cccc(S(=O)(=O)[O-])c4F)c4ccc([nH]4)c(-c4cccc(S(=O)(=O)[O-])c4F)c4nc(c(-c5cccc(S(=O)(=O)[O-])c5F)c5ccc2[nH]5)C=C4)C=C3)cc1
REMARK SMILES IDX 20 1 19 2 17 3 18 4 13 5 14 6 12 7 10 8 11 9 9 11 5 12 6 13
REMARK SMILES IDX 7 14 8 15 4 16 3 19 2 20 1 21 15 22 16 23 21 24 22 25 23 26
REMARK SMILES IDX 24 27 25 28 26 29 87 30 27 31 86 32 28 33 29 34 30 35 80 36
REMARK SMILES IDX 31 37 85 38 79 39 81 40 32 41 84 42 78 43 77 44 33 46 65 47
REMARK SMILES IDX 45 48 64 49 46 50 49 51 63 52 82 53 47 54 48 55 62 57 83 58
REMARK SMILES IDX 50 59 34 60 35 61 43 62 36 63 38 64 44 65 37 66 39 67 40 68
REMARK SMILES IDX 41 69 42 70 66 71 67 72 75 73 68 74 70 75 76 76 69 77 71 78
REMARK SMILES IDX 72 79 73 80 74 81 51 82 52 83 60 84 53 85 55 86 61 87 54 88
REMARK SMILES IDX 56 89 57 90 58 91 59 92
REMARK H PARENT 12 10 4 17 4 18 81 45 49 56
REMARK Flexibility Score: inf
ROOT
ATOM      1  C   UNL A   1      31.567  28.284  27.251  1.00  0.00     0.274 C 
ENDROOT
BRANCH   1   2
ATOM      2  O   UNL A   1      32.368  27.520  26.344  1.00  0.00    -0.460 OA
BRANCH   2   3
ATOM      3  C   UNL A   1      31.672  26.738  25.477  1.00  0.00     0.331 C 
ATOM      4  O   UNL A   1      30.532  26.346  25.691  1.00  0.00    -0.249 OA
BRANCH   3   5
ATOM      5  C   UNL A   1      32.425  26.578  24.135  1.00  0.00     0.135 C 
ATOM      6  C   UNL A   1      33.935  26.754  24.382  1.00  0.00     0.047 C 
BRANCH   5   7
ATOM      7  N   UNL A   1      32.215  25.223  23.544  1.00  0.00    -0.340 N 
ATOM      8  C   UNL A   1      32.571  23.950  23.906  1.00  0.00     0.232 C 
ATOM      9  O   UNL A   1      32.924  23.243  22.954  1.00  0.00    -0.274 OA
ATOM     10  H   UNL A   1      31.705  25.249  22.703  1.00  0.00     0.164 HD
BRANCH   8  11
ATOM     11  C   UNL A   1      32.541  23.389  25.338  1.00  0.00     0.164 C 
ATOM     12  C   UNL A   1      33.356  22.107  25.569  1.00  0.00     0.223 C 
ATOM     13  C   UNL A   1      32.392  21.010  25.126  1.00  0.00     0.225 C 
ATOM     14  O   UNL A   1      31.106  21.444  25.583  1.00  0.00    -0.374 OA
ATOM     15  C   UNL A   1      31.167  22.871  25.733  1.00  0.00     0.180 C 
BRANCH  12  16
ATOM     16  N   UNL A   1      34.665  21.998  24.944  1.00  0.00    -0.341 N 
ATOM     17  H   UNL A   1      34.963  21.023  24.980  1.00  0.00     0.346 HD
ATOM     18  H   UNL A   1      34.576  22.330  23.984  1.00  0.00     0.346 HD
BRANCH  16  19
ATOM     19  C   UNL A   1      35.670  22.817  25.602  1.00  0.00     0.260 C 
BRANCH  19  20
ATOM     20  C   UNL A   1      36.619  23.434  24.577  1.00  0.00     0.058 C 
ATOM     21  C   UNL A   1      36.438  22.870  23.175  1.00  0.00     0.010 C 
ENDBRANCH  19  20
ENDBRANCH  16  19
ENDBRANCH  12  16
ENDBRANCH   8  11
ENDBRANCH   5   7
BRANCH   5  22
ATOM     22  C   UNL A   1      32.024  27.752  23.145  1.00  0.00     0.037 C 
ATOM     23  C   UNL A   1      32.919  28.980  23.072  1.00  0.00     0.007 C 
ENDBRANCH   5  22
ENDBRANCH   3   5
ENDBRANCH   2   3
ENDBRANCH   1   2
BRANCH   1  24
ATOM     24  C   UNL A   1      31.504  29.711  26.698  1.00  0.00     0.275 C 
BRANCH  24  25
ATOM     25  O   UNL A   1      32.834  30.162  26.355  1.00  0.00    -0.458 OA
BRANCH  25  26
ATOM     26  C   UNL A   1      33.299  31.200  27.093  1.00  0.00     0.338 C 
ATOM     27  O   UNL A   1      32.802  32.315  27.136  1.00  0.00    -0.246 OA
BRANCH  26  28
ATOM     28  C   UNL A   1      34.612  30.850  27.694  1.00  0.00     0.060 A 
ATOM     29  C   UNL A   1      35.025  29.529  27.897  1.00  0.00     0.016 A 
ATOM     30  C   UNL A   1      35.455  31.893  28.079  1.00  0.00     0.016 A 
ATOM     31  C   UNL A   1      36.278  29.247  28.462  1.00  0.00     0.010 A 
ATOM     32  C   UNL A   1      36.706  31.616  28.646  1.00  0.00     0.010 A 
ATOM     33  C   UNL A   1      37.122  30.290  28.859  1.00  0.00    -0.014 A 
BRANCH  33  34
ATOM     34  C   UNL A   1      38.306  30.015  29.721  1.00  0.00     0.031 A 
ATOM     35  C   UNL A   1      39.334  29.053  29.189  1.00  0.00     0.074 A 
ATOM     36  C   UNL A   1      38.486  30.575  30.933  1.00  0.00     0.049 A 
ATOM     37  N   UNL A   1      40.437  28.624  29.743  1.00  0.00    -0.248 NA
ATOM     38  C   UNL A   1      39.084  28.511  27.841  1.00  0.00     0.031 C 
ATOM     39  C   UNL A   1      37.607  31.559  31.554  1.00  0.00     0.029 A 
ATOM     40  N   UNL A   1      39.470  30.376  31.874  1.00  0.00    -0.354 N 
ATOM     41  C   UNL A   1      41.006  27.759  28.818  1.00  0.00     0.074 A 
ATOM     42  C   UNL A   1      40.115  27.700  27.681  1.00  0.00     0.031 C 
ATOM     43  C   UNL A   1      38.056  31.843  32.791  1.00  0.00     0.029 A 
ATOM     44  C   UNL A   1      39.266  31.069  33.048  1.00  0.00     0.049 A 
ATOM     45  H   UNL A   1      40.248  29.792  31.723  1.00  0.00     0.167 HD
ATOM     46  C   UNL A   1      42.180  27.092  28.886  1.00  0.00     0.034 A 
ATOM     47  C   UNL A   1      39.981  31.080  34.193  1.00  0.00     0.034 A 
ATOM     48  C   UNL A   1      43.072  27.138  30.009  1.00  0.00     0.049 A 
ATOM     49  C   UNL A   1      41.257  30.273  34.269  1.00  0.00     0.074 A 
ATOM     50  C   UNL A   1      44.274  26.479  30.181  1.00  0.00     0.029 A 
ATOM     51  N   UNL A   1      42.850  27.882  31.157  1.00  0.00    -0.354 N 
ATOM     52  N   UNL A   1      41.838  29.551  33.341  1.00  0.00    -0.248 NA
ATOM     53  C   UNL A   1      42.002  30.322  35.538  1.00  0.00     0.031 C 
ATOM     54  C   UNL A   1      44.780  26.821  31.440  1.00  0.00     0.029 A 
ATOM     55  C   UNL A   1      43.896  27.704  32.043  1.00  0.00     0.049 A 
ATOM     56  H   UNL A   1      42.064  28.453  31.317  1.00  0.00     0.167 HD
ATOM     57  C   UNL A   1      43.038  29.113  33.891  1.00  0.00     0.074 A 
ATOM     58  C   UNL A   1      43.106  29.654  35.232  1.00  0.00     0.031 C 
ATOM     59  C   UNL A   1      43.992  28.324  33.339  1.00  0.00     0.034 A 
BRANCH  46  60
ATOM     60  C   UNL A   1      42.561  26.283  27.680  1.00  0.00     0.023 A 
ATOM     61  C   UNL A   1      43.226  26.918  26.611  1.00  0.00     0.012 A 
ATOM     62  C   UNL A   1      42.230  24.919  27.583  1.00  0.00     0.148 A 
ATOM     63  C   UNL A   1      43.517  26.218  25.442  1.00  0.00     0.002 A 
ATOM     64  C   UNL A   1      42.555  24.220  26.427  1.00  0.00     0.091 A 
ATOM     65  F   UNL A   1      41.572  24.345  28.600  1.00  0.00    -0.205 F 
ATOM     66  C   UNL A   1      43.185  24.870  25.353  1.00  0.00     0.022 A 
BRANCH  64  67
ATOM     67  S   UNL A   1      42.209  22.469  26.229  1.00  0.00     0.127 S 
ATOM     68  O   UNL A   1      42.939  22.161  25.000  1.00  0.00    -0.237 OA
ATOM     69  O   UNL A   1      42.795  21.900  27.443  1.00  0.00    -0.237 OA
ATOM     70  O   UNL A   1      40.760  22.352  26.144  1.00  0.00    -0.744 OA
ENDBRANCH  64  67
ENDBRANCH  46  60
BRANCH  47  71
ATOM     71  C   UNL A   1      39.575  31.939  35.346  1.00  0.00     0.023 A 
ATOM     72  C   UNL A   1      38.647  31.434  36.279  1.00  0.00     0.012 A 
ATOM     73  C   UNL A   1      40.048  33.257  35.497  1.00  0.00     0.148 A 
ATOM     74  C   UNL A   1      38.163  32.236  37.313  1.00  0.00     0.002 A 
ATOM     75  C   UNL A   1      39.591  34.040  36.556  1.00  0.00     0.091 A 
ATOM     76  F   UNL A   1      40.912  33.732  34.590  1.00  0.00    -0.205 F 
ATOM     77  C   UNL A   1      38.637  33.536  37.454  1.00  0.00     0.022 A 
BRANCH  75  78
ATOM     78  S   UNL A   1      40.193  35.705  36.863  1.00  0.00     0.127 S 
ATOM     79  O   UNL A   1      39.631  36.440  35.733  1.00  0.00    -0.237 OA
ATOM     80  O   UNL A   1      39.587  36.015  38.159  1.00  0.00    -0.237 OA
ATOM     81  O   UNL A   1      41.646  35.599  36.889  1.00  0.00    -0.744 OA
ENDBRANCH  75  78
ENDBRANCH  47  71
BRANCH  59  82
ATOM     82  C   UNL A   1      45.233  28.036  34.145  1.00  0.00     0.023 A 
ATOM     83  C   UNL A   1      46.330  28.916  34.079  1.00  0.00     0.012 A 
ATOM     84  C   UNL A   1      45.262  26.959  35.052  1.00  0.00     0.148 A 
ATOM     85  C   UNL A   1      47.446  28.717  34.892  1.00  0.00     0.002 A 
ATOM     86  C   UNL A   1      46.357  26.793  35.892  1.00  0.00     0.091 A 
ATOM     87  F   UNL A   1      44.217  26.119  35.082  1.00  0.00    -0.205 F 
ATOM     88  C   UNL A   1      47.453  27.667  35.807  1.00  0.00     0.022 A 
BRANCH  86  89
ATOM     89  S   UNL A   1      46.398  25.532  37.172  1.00  0.00     0.127 S 
ATOM     90  O   UNL A   1      45.211  25.863  37.956  1.00  0.00    -0.237 OA
ATOM     91  O   UNL A   1      46.293  24.295  36.397  1.00  0.00    -0.237 OA
ATOM     92  O   UNL A   1      47.674  25.704  37.856  1.00  0.00    -0.744 OA
ENDBRANCH  86  89
ENDBRANCH  59  82
ENDBRANCH  33  34
ENDBRANCH  26  28
ENDBRANCH  25  26
ENDBRANCH  24  25
ENDBRANCH   1  24
TORSDOF 20
ENDMDL
MODEL 3
REMARK VINA RESULT:     -10.4      1.276      7.767
REMARK SMILES CCC[NH2+][C@@H]1COC[C@@H]1C(=O)N[C@@](C)(CC)C(=O)OCCOC(=O)c1ccc(-c2c3nc(c(-c4cccc(S(=O)(=O)[O-])c4F)c4ccc([nH]4)c(-c4cccc(S(=O)(=O)[O-])c4F)c4nc(c(-c5cccc(S(=O)(=O)[O-])c5F)c5ccc2[nH]5)C=C4)C=C3)cc1
REMARK SMILES IDX 20 1 19 2 17 3 18 4 13 5 14 6 12 7 10 8 11 9 9 11 5 12 6 13
REMARK SMILES IDX 7 14 8 15 4 16 3 19 2 20 1 21 15 22 16 23 21 24 22 25 23 26
REMARK SMILES IDX 24 27 25 28 26 29 87 30 27 31 86 32 28 33 29 34 30 35 80 36
REMARK SMILES IDX 31 37 85 38 79 39 81 40 32 41 84 42 78 43 77 44 33 46 65 47
REMARK SMILES IDX 45 48 64 49 46 50 49 51 63 52 82 53 47 54 48 55 62 57 83 58
REMARK SMILES IDX 50 59 34 60 35 61 43 62 36 63 38 64 44 65 37 66 39 67 40 68
REMARK SMILES IDX 41 69 42 70 66 71 67 72 75 73 68 74 70 75 76 76 69 77 71 78
REMARK SMILES IDX 72 79 73 80 74 81 51 82 52 83 60 84 53 85 55 86 61 87 54 88
REMARK SMILES IDX 56 89 57 90 58 91 59 92
REMARK H PARENT 12 10 4 17 4 18 81 45 49 56
REMARK Flexibility Score: inf
ROOT
ATOM      1  C   UNL A   1      31.287  30.592  25.461  1.00  0.00     0.274 C 
ENDROOT
BRANCH   1   2
ATOM      2  O   UNL A   1      31.197  29.206  25.807  1.00  0.00    -0.460 OA
BRANCH   2   3
ATOM      3  C   UNL A   1      31.211  28.347  24.754  1.00  0.00     0.331 C 
ATOM      4  O   UNL A   1      30.870  28.663  23.622  1.00  0.00    -0.249 OA
BRANCH   3   5
ATOM      5  C   UNL A   1      31.884  27.006  25.133  1.00  0.00     0.135 C 
ATOM      6  C   UNL A   1      31.824  26.827  26.661  1.00  0.00     0.047 C 
BRANCH   5   7
ATOM      7  N   UNL A   1      31.183  25.843  24.510  1.00  0.00    -0.340 N 
ATOM      8  C   UNL A   1      31.417  24.494  24.457  1.00  0.00     0.232 C 
ATOM      9  O   UNL A   1      31.169  23.990  23.355  1.00  0.00    -0.274 OA
ATOM     10  H   UNL A   1      30.365  26.105  24.029  1.00  0.00     0.164 HD
BRANCH   8  11
ATOM     11  C   UNL A   1      31.925  23.631  25.625  1.00  0.00     0.164 C 
ATOM     12  C   UNL A   1      33.243  22.880  25.374  1.00  0.00     0.223 C 
ATOM     13  C   UNL A   1      32.779  21.619  24.651  1.00  0.00     0.225 C 
ATOM     14  O   UNL A   1      31.555  21.252  25.299  1.00  0.00    -0.374 OA
ATOM     15  C   UNL A   1      31.023  22.440  25.905  1.00  0.00     0.180 C 
BRANCH  12  16
ATOM     16  N   UNL A   1      34.311  23.575  24.673  1.00  0.00    -0.341 N 
ATOM     17  H   UNL A   1      34.000  24.522  24.461  1.00  0.00     0.346 HD
ATOM     18  H   UNL A   1      35.129  23.574  25.281  1.00  0.00     0.346 HD
BRANCH  16  19
ATOM     19  C   UNL A   1      34.685  22.918  23.431  1.00  0.00     0.260 C 
BRANCH  19  20
ATOM     20  C   UNL A   1      36.203  22.912  23.259  1.00  0.00     0.058 C 
ATOM     21  C   UNL A   1      36.946  22.438  24.501  1.00  0.00     0.010 C 
ENDBRANCH  19  20
ENDBRANCH  16  19
ENDBRANCH  12  16
ENDBRANCH   8  11
ENDBRANCH   5   7
BRANCH   5  22
ATOM     22  C   UNL A   1      33.430  27.056  24.779  1.00  0.00     0.037 C 
ATOM     23  C   UNL A   1      33.844  26.996  23.316  1.00  0.00     0.007 C 
ENDBRANCH   5  22
ENDBRANCH   3   5
ENDBRANCH   2   3
ENDBRANCH   1   2
BRANCH   1  24
ATOM     24  C   UNL A   1      31.818  31.327  26.697  1.00  0.00     0.275 C 
BRANCH  24  25
ATOM     25  O   UNL A   1      33.233  31.581  26.544  1.00  0.00    -0.458 OA
BRANCH  25  26
ATOM     26  C   UNL A   1      33.803  32.291  27.549  1.00  0.00     0.338 C 
ATOM     27  O   UNL A   1      33.436  33.389  27.935  1.00  0.00    -0.246 OA
BRANCH  26  28
ATOM     28  C   UNL A   1      35.059  31.630  27.991  1.00  0.00     0.060 A 
ATOM     29  C   UNL A   1      35.198  30.241  28.069  1.00  0.00     0.016 A 
ATOM     30  C   UNL A   1      36.135  32.443  28.349  1.00  0.00     0.016 A 
ATOM     31  C   UNL A   1      36.406  29.662  28.485  1.00  0.00     0.010 A 
ATOM     32  C   UNL A   1      37.343  31.869  28.767  1.00  0.00     0.010 A 
ATOM     33  C   UNL A   1      37.485  30.473  28.855  1.00  0.00    -0.014 A 
BRANCH  33  34
ATOM     34  C   UNL A   1      38.654  29.891  29.573  1.00  0.00     0.031 A 
ATOM     35  C   UNL A   1      38.960  30.437  30.942  1.00  0.00     0.074 A 
ATOM     36  C   UNL A   1      39.434  28.924  29.055  1.00  0.00     0.049 A 
ATOM     37  N   UNL A   1      39.926  30.127  31.764  1.00  0.00    -0.248 NA
ATOM     38  C   UNL A   1      38.038  31.468  31.453  1.00  0.00     0.031 C 
ATOM     39  C   UNL A   1      39.232  28.264  27.771  1.00  0.00     0.029 A 
ATOM     40  N   UNL A   1      40.578  28.337  29.547  1.00  0.00    -0.354 N 
ATOM     41  C   UNL A   1      39.735  30.926  32.883  1.00  0.00     0.074 A 
ATOM     42  C   UNL A   1      38.580  31.757  32.624  1.00  0.00     0.031 C 
ATOM     43  C   UNL A   1      40.241  27.401  27.546  1.00  0.00     0.029 A 
ATOM     44  C   UNL A   1      41.160  27.436  28.680  1.00  0.00     0.049 A 
ATOM     45  H   UNL A   1      40.948  28.542  30.436  1.00  0.00     0.167 HD
ATOM     46  C   UNL A   1      40.434  30.954  34.040  1.00  0.00     0.034 A 
ATOM     47  C   UNL A   1      42.297  26.719  28.796  1.00  0.00     0.034 A 
ATOM     48  C   UNL A   1      41.584  30.140  34.309  1.00  0.00     0.049 A 
ATOM     49  C   UNL A   1      43.098  26.817  30.074  1.00  0.00     0.074 A 
ATOM     50  C   UNL A   1      42.373  30.111  35.443  1.00  0.00     0.029 A 
ATOM     51  N   UNL A   1      42.113  29.213  33.424  1.00  0.00    -0.354 N 
ATOM     52  N   UNL A   1      42.838  27.493  31.167  1.00  0.00    -0.248 NA
ATOM     53  C   UNL A   1      44.328  26.011  30.152  1.00  0.00     0.031 C 
ATOM     54  C   UNL A   1      43.387  29.169  35.242  1.00  0.00     0.029 A 
ATOM     55  C   UNL A   1      43.218  28.602  33.988  1.00  0.00     0.049 A 
ATOM     56  H   UNL A   1      41.755  29.019  32.528  1.00  0.00     0.167 HD
ATOM     57  C   UNL A   1      43.832  27.150  32.077  1.00  0.00     0.074 A 
ATOM     58  C   UNL A   1      44.699  26.201  31.412  1.00  0.00     0.031 C 
ATOM     59  C   UNL A   1      44.017  27.591  33.346  1.00  0.00     0.034 A 
BRANCH  46  60
ATOM     60  C   UNL A   1      39.931  31.886  35.104  1.00  0.00     0.023 A 
ATOM     61  C   UNL A   1      40.411  33.212  35.136  1.00  0.00     0.012 A 
ATOM     62  C   UNL A   1      39.026  31.450  36.088  1.00  0.00     0.148 A 
ATOM     63  C   UNL A   1      40.031  34.078  36.159  1.00  0.00     0.002 A 
ATOM     64  C   UNL A   1      38.626  32.330  37.085  1.00  0.00     0.091 A 
ATOM     65  F   UNL A   1      38.607  30.176  36.053  1.00  0.00    -0.205 F 
ATOM     66  C   UNL A   1      39.137  33.638  37.130  1.00  0.00     0.022 A 
BRANCH  64  67
ATOM     67  S   UNL A   1      37.444  31.874  38.358  1.00  0.00     0.127 S 
ATOM     68  O   UNL A   1      38.234  32.062  39.574  1.00  0.00    -0.237 OA
ATOM     69  O   UNL A   1      36.384  32.863  38.162  1.00  0.00    -0.237 OA
ATOM     70  O   UNL A   1      37.053  30.501  38.070  1.00  0.00    -0.744 OA
ENDBRANCH  64  67
ENDBRANCH  46  60
BRANCH  47  71
ATOM     71  C   UNL A   1      42.724  25.774  27.721  1.00  0.00     0.023 A 
ATOM     72  C   UNL A   1      43.656  26.214  26.757  1.00  0.00     0.012 A 
ATOM     73  C   UNL A   1      42.184  24.479  27.607  1.00  0.00     0.148 A 
ATOM     74  C   UNL A   1      44.007  25.402  25.679  1.00  0.00     0.002 A 
ATOM     75  C   UNL A   1      42.569  23.658  26.549  1.00  0.00     0.091 A 
ATOM     76  F   UNL A   1      41.283  24.083  28.516  1.00  0.00    -0.205 F 
ATOM     77  C   UNL A   1      43.467  24.123  25.577  1.00  0.00     0.022 A 
BRANCH  75  78
ATOM     78  S   UNL A   1      41.983  21.968  26.367  1.00  0.00     0.127 S 
ATOM     79  O   UNL A   1      42.760  21.505  25.220  1.00  0.00    -0.237 OA
ATOM     80  O   UNL A   1      42.366  21.372  27.649  1.00  0.00    -0.237 OA
ATOM     81  O   UNL A   1      40.545  22.071  26.158  1.00  0.00    -0.744 OA
ENDBRANCH  75  78
ENDBRANCH  47  71
BRANCH  59  82
ATOM     82  C   UNL A   1      45.160  27.015  34.140  1.00  0.00     0.023 A 
ATOM     83  C   UNL A   1      46.418  27.648  34.116  1.00  0.00     0.012 A 
ATOM     84  C   UNL A   1      44.953  25.917  34.998  1.00  0.00     0.148 A 
ATOM     85  C   UNL A   1      47.458  27.184  34.921  1.00  0.00     0.002 A 
ATOM     86  C   UNL A   1      45.979  25.490  35.833  1.00  0.00     0.091 A 
ATOM     87  F   UNL A   1      43.755  25.314  34.989  1.00  0.00    -0.205 F 
ATOM     88  C   UNL A   1      47.235  26.118  35.789  1.00  0.00     0.022 A 
BRANCH  86  89
ATOM     89  S   UNL A   1      45.742  24.194  37.055  1.00  0.00     0.127 S 
ATOM     90  O   UNL A   1      44.656  24.742  37.865  1.00  0.00    -0.237 OA
ATOM     91  O   UNL A   1      45.366  23.047  36.227  1.00  0.00    -0.237 OA
ATOM     92  O   UNL A   1      47.023  24.049  37.733  1.00  0.00    -0.744 OA
ENDBRANCH  86  89
ENDBRANCH  59  82
ENDBRANCH  33  34
ENDBRANCH  26  28
ENDBRANCH  25  26
ENDBRANCH  24  25
ENDBRANCH   1  24
TORSDOF 20
ENDMDL
