MODEL 1
REMARK VINA RESULT:     -11.1      0.000      0.000
REMARK SMILES Cn1cc(/C=C/C(=O)N(CC(=O)OCCOC(=O)c2ccc(-c3c4nc(c(-c5cccc(S(=O)(=O)[O-])c5F)c5ccc([nH]5)c(-c5cccc(S(=O)(=O)[O-])c5F)c5nc(c(-c6cccc(S(=O)(=O)[O-])c6F)c6ccc3[nH]6)C=C5)C=C4)cc2)C(C)(C)C)cn1
REMARK SMILES IDX 14 1 13 2 11 3 12 4 10 5 9 6 7 7 8 8 6 9 5 10 4 11 1 12 2 13
REMARK SMILES IDX 3 14 87 15 86 16 82 17 83 18 84 19 85 20 15 21 16 22 17 23
REMARK SMILES IDX 18 24 19 25 20 26 81 27 21 28 80 29 22 30 23 31 24 32 74 33
REMARK SMILES IDX 25 34 79 35 73 36 75 37 26 38 78 39 72 40 71 41 27 43 59 44
REMARK SMILES IDX 39 45 58 46 40 47 43 48 57 49 76 50 41 51 42 52 56 54 77 55
REMARK SMILES IDX 44 56 28 57 29 58 37 59 30 60 32 61 38 62 31 63 33 64 34 65
REMARK SMILES IDX 35 66 36 67 60 68 61 69 69 70 62 71 64 72 70 73 63 74 65 75
REMARK SMILES IDX 66 76 67 77 68 78 45 79 46 80 54 81 47 82 49 83 55 84 48 85
REMARK SMILES IDX 50 86 51 87 52 88 53 89
REMARK H PARENT 75 42 43 53
REMARK Flexibility Score: inf
ROOT
ATOM      1  C   UNL A   1      31.423  29.627  25.727  1.00  0.00     0.274 C 
ENDROOT
BRANCH   1   2
ATOM      2  O   UNL A   1      31.634  28.422  26.492  1.00  0.00    -0.461 OA
BRANCH   2   3
ATOM      3  C   UNL A   1      32.570  27.569  25.991  1.00  0.00     0.325 C 
ATOM      4  O   UNL A   1      33.783  27.738  26.085  1.00  0.00    -0.250 OA
BRANCH   3   5
ATOM      5  C   UNL A   1      31.977  26.325  25.322  1.00  0.00     0.243 C 
BRANCH   5   6
ATOM      6  N   UNL A   1      31.542  26.488  23.924  1.00  0.00    -0.323 N 
BRANCH   6   7
ATOM      7  C   UNL A   1      30.203  26.754  23.618  1.00  0.00     0.247 C 
ATOM      8  O   UNL A   1      29.326  25.894  23.539  1.00  0.00    -0.270 OA
BRANCH   7   9
ATOM      9  C   UNL A   1      29.801  28.120  23.178  1.00  0.00     0.072 C 
ATOM     10  C   UNL A   1      28.557  28.620  23.119  1.00  0.00     0.017 C 
BRANCH  10  11
ATOM     11  C   UNL A   1      28.239  29.936  22.679  1.00  0.00     0.013 A 
ATOM     12  C   UNL A   1      27.828  32.592  20.285  1.00  0.00     0.173 C 
ATOM     13  N   UNL A   1      27.915  31.687  21.406  1.00  0.00    -0.275 N 
ATOM     14  C   UNL A   1      28.266  30.366  21.373  1.00  0.00     0.116 A 
ATOM     15  N   UNL A   1      27.665  32.144  22.649  1.00  0.00    -0.181 NA
ATOM     16  C   UNL A   1      27.852  31.070  23.421  1.00  0.00     0.143 A 
ENDBRANCH  10  11
ENDBRANCH   7   9
ENDBRANCH   6   7
BRANCH   6  17
ATOM     17  C   UNL A   1      32.555  26.414  22.801  1.00  0.00     0.035 C 
ATOM     18  C   UNL A   1      31.914  25.907  21.492  1.00  0.00     0.034 C 
ATOM     19  C   UNL A   1      33.175  27.814  22.576  1.00  0.00     0.034 C 
ATOM     20  C   UNL A   1      33.753  25.471  23.080  1.00  0.00     0.034 C 
ENDBRANCH   6  17
ENDBRANCH   5   6
ENDBRANCH   3   5
ENDBRANCH   2   3
ENDBRANCH   1   2
BRANCH   1  21
ATOM     21  C   UNL A   1      31.818  30.867  26.530  1.00  0.00     0.275 C 
BRANCH  21  22
ATOM     22  O   UNL A   1      33.248  31.008  26.530  1.00  0.00    -0.458 OA
BRANCH  22  23
ATOM     23  C   UNL A   1      33.752  31.912  27.398  1.00  0.00     0.338 C 
ATOM     24  O   UNL A   1      33.228  32.966  27.740  1.00  0.00    -0.246 OA
BRANCH  23  25
ATOM     25  C   UNL A   1      35.040  31.443  27.953  1.00  0.00     0.060 A 
ATOM     26  C   UNL A   1      35.205  30.127  28.393  1.00  0.00     0.016 A 
ATOM     27  C   UNL A   1      36.074  32.362  28.134  1.00  0.00     0.016 A 
ATOM     28  C   UNL A   1      36.357  29.751  29.081  1.00  0.00     0.010 A 
ATOM     29  C   UNL A   1      37.273  31.955  28.727  1.00  0.00     0.010 A 
ATOM     30  C   UNL A   1      37.421  30.651  29.230  1.00  0.00    -0.014 A 
BRANCH  30  31
ATOM     31  C   UNL A   1      38.698  30.229  29.872  1.00  0.00     0.031 A 
ATOM     32  C   UNL A   1      39.603  29.228  29.202  1.00  0.00     0.074 A 
ATOM     33  C   UNL A   1      39.020  30.703  31.094  1.00  0.00     0.049 A 
ATOM     34  N   UNL A   1      40.650  28.612  29.686  1.00  0.00    -0.248 NA
ATOM     35  C   UNL A   1      39.280  28.858  27.814  1.00  0.00     0.031 C 
ATOM     36  C   UNL A   1      38.228  31.664  31.865  1.00  0.00     0.029 A 
ATOM     37  N   UNL A   1      40.088  30.426  31.911  1.00  0.00    -0.354 N 
ATOM     38  C   UNL A   1      41.065  27.729  28.697  1.00  0.00     0.074 A 
ATOM     39  C   UNL A   1      40.165  27.899  27.576  1.00  0.00     0.031 C 
ATOM     40  C   UNL A   1      38.841  31.909  33.031  1.00  0.00     0.029 A 
ATOM     41  C   UNL A   1      40.028  31.068  33.127  1.00  0.00     0.049 A 
ATOM     42  H   UNL A   1      40.824  29.826  31.653  1.00  0.00     0.167 HD
ATOM     43  C   UNL A   1      42.107  26.863  28.714  1.00  0.00     0.034 A 
ATOM     44  C   UNL A   1      40.813  30.967  34.218  1.00  0.00     0.034 A 
ATOM     45  C   UNL A   1      43.050  26.749  29.796  1.00  0.00     0.049 A 
ATOM     46  C   UNL A   1      41.980  30.024  34.197  1.00  0.00     0.074 A 
ATOM     47  C   UNL A   1      44.175  25.947  29.874  1.00  0.00     0.029 A 
ATOM     48  N   UNL A   1      42.988  27.464  30.982  1.00  0.00    -0.354 N 
ATOM     49  N   UNL A   1      42.396  29.252  33.224  1.00  0.00    -0.248 NA
ATOM     50  C   UNL A   1      42.790  29.945  35.420  1.00  0.00     0.031 C 
ATOM     51  C   UNL A   1      44.793  26.176  31.108  1.00  0.00     0.029 A 
ATOM     52  C   UNL A   1      44.053  27.123  31.798  1.00  0.00     0.049 A 
ATOM     53  H   UNL A   1      42.289  28.118  31.210  1.00  0.00     0.167 HD
ATOM     54  C   UNL A   1      43.523  28.602  33.712  1.00  0.00     0.074 A 
ATOM     55  C   UNL A   1      43.745  29.099  35.055  1.00  0.00     0.031 C 
ATOM     56  C   UNL A   1      44.289  27.658  33.113  1.00  0.00     0.034 A 
BRANCH  43  57
ATOM     57  C   UNL A   1      42.320  25.992  27.505  1.00  0.00     0.023 A 
ATOM     58  C   UNL A   1      42.996  26.514  26.384  1.00  0.00     0.012 A 
ATOM     59  C   UNL A   1      41.923  24.641  27.506  1.00  0.00     0.148 A 
ATOM     60  C   UNL A   1      43.257  25.709  25.276  1.00  0.00     0.002 A 
ATOM     61  C   UNL A   1      42.218  23.835  26.412  1.00  0.00     0.091 A 
ATOM     62  F   UNL A   1      41.255  24.170  28.570  1.00  0.00    -0.205 F 
ATOM     63  C   UNL A   1      42.879  24.369  25.294  1.00  0.00     0.022 A 
BRANCH  61  64
ATOM     64  S   UNL A   1      41.832  22.081  26.382  1.00  0.00     0.127 S 
ATOM     65  O   UNL A   1      42.729  21.598  25.332  1.00  0.00    -0.237 OA
ATOM     66  O   UNL A   1      42.194  21.656  27.734  1.00  0.00    -0.237 OA
ATOM     67  O   UNL A   1      40.408  21.995  26.086  1.00  0.00    -0.744 OA
ENDBRANCH  61  64
ENDBRANCH  43  57
BRANCH  44  68
ATOM     68  C   UNL A   1      40.524  31.815  35.408  1.00  0.00     0.023 A 
ATOM     69  C   UNL A   1      41.331  32.938  35.665  1.00  0.00     0.012 A 
ATOM     70  C   UNL A   1      39.417  31.560  36.242  1.00  0.00     0.148 A 
ATOM     71  C   UNL A   1      41.048  33.788  36.734  1.00  0.00     0.002 A 
ATOM     72  C   UNL A   1      39.103  32.446  37.267  1.00  0.00     0.091 A 
ATOM     73  F   UNL A   1      38.675  30.470  36.002  1.00  0.00    -0.205 F 
ATOM     74  C   UNL A   1      39.926  33.553  37.523  1.00  0.00     0.022 A 
BRANCH  72  75
ATOM     75  S   UNL A   1      37.581  32.293  38.210  1.00  0.00     0.127 S 
ATOM     76  O   UNL A   1      36.647  33.072  37.403  1.00  0.00    -0.237 OA
ATOM     77  O   UNL A   1      37.352  30.847  38.196  1.00  0.00    -0.237 OA
ATOM     78  O   UNL A   1      37.897  32.829  39.528  1.00  0.00    -0.744 OA
ENDBRANCH  72  75
ENDBRANCH  44  68
BRANCH  56  79
ATOM     79  C   UNL A   1      45.440  27.101  33.905  1.00  0.00     0.023 A 
ATOM     80  C   UNL A   1      46.698  27.728  33.824  1.00  0.00     0.012 A 
ATOM     81  C   UNL A   1      45.269  25.997  34.760  1.00  0.00     0.148 A 
ATOM     82  C   UNL A   1      47.778  27.247  34.563  1.00  0.00     0.002 A 
ATOM     83  C   UNL A   1      46.340  25.546  35.523  1.00  0.00     0.091 A 
ATOM     84  F   UNL A   1      44.070  25.397  34.804  1.00  0.00    -0.205 F 
ATOM     85  C   UNL A   1      47.597  26.164  35.420  1.00  0.00     0.022 A 
BRANCH  83  86
ATOM     86  S   UNL A   1      46.164  24.204  36.705  1.00  0.00     0.127 S 
ATOM     87  O   UNL A   1      47.550  23.975  37.108  1.00  0.00    -0.237 OA
ATOM     88  O   UNL A   1      45.319  24.801  37.741  1.00  0.00    -0.237 OA
ATOM     89  O   UNL A   1      45.530  23.117  35.970  1.00  0.00    -0.744 OA
ENDBRANCH  83  86
ENDBRANCH  56  79
ENDBRANCH  30  31
ENDBRANCH  23  25
ENDBRANCH  22  23
ENDBRANCH  21  22
ENDBRANCH   1  21
TORSDOF 19
ENDMDL
MODEL 2
REMARK VINA RESULT:     -10.8      2.675      4.471
REMARK SMILES Cn1cc(/C=C/C(=O)N(CC(=O)OCCOC(=O)c2ccc(-c3c4nc(c(-c5cccc(S(=O)(=O)[O-])c5F)c5ccc([nH]5)c(-c5cccc(S(=O)(=O)[O-])c5F)c5nc(c(-c6cccc(S(=O)(=O)[O-])c6F)c6ccc3[nH]6)C=C5)C=C4)cc2)C(C)(C)C)cn1
REMARK SMILES IDX 14 1 13 2 11 3 12 4 10 5 9 6 7 7 8 8 6 9 5 10 4 11 1 12 2 13
REMARK SMILES IDX 3 14 87 15 86 16 82 17 83 18 84 19 85 20 15 21 16 22 17 23
REMARK SMILES IDX 18 24 19 25 20 26 81 27 21 28 80 29 22 30 23 31 24 32 74 33
REMARK SMILES IDX 25 34 79 35 73 36 75 37 26 38 78 39 72 40 71 41 27 43 59 44
REMARK SMILES IDX 39 45 58 46 40 47 43 48 57 49 76 50 41 51 42 52 56 54 77 55
REMARK SMILES IDX 44 56 28 57 29 58 37 59 30 60 32 61 38 62 31 63 33 64 34 65
REMARK SMILES IDX 35 66 36 67 60 68 61 69 69 70 62 71 64 72 70 73 63 74 65 75
REMARK SMILES IDX 66 76 67 77 68 78 45 79 46 80 54 81 47 82 49 83 55 84 48 85
REMARK SMILES IDX 50 86 51 87 52 88 53 89
REMARK H PARENT 75 42 43 53
REMARK Flexibility Score: inf
ROOT
ATOM      1  C   UNL A   1      31.975  27.899  26.247  1.00  0.00     0.274 C 
ENDROOT
BRANCH   1   2
ATOM      2  O   UNL A   1      30.760  27.145  26.445  1.00  0.00    -0.461 OA
BRANCH   2   3
ATOM      3  C   UNL A   1      30.593  26.079  25.615  1.00  0.00     0.325 C 
ATOM      4  O   UNL A   1      29.769  26.029  24.706  1.00  0.00    -0.250 OA
BRANCH   3   5
ATOM      5  C   UNL A   1      31.572  24.931  25.880  1.00  0.00     0.243 C 
BRANCH   5   6
ATOM      6  N   UNL A   1      32.202  24.330  24.691  1.00  0.00    -0.323 N 
BRANCH   6   7
ATOM      7  C   UNL A   1      31.604  23.250  24.032  1.00  0.00     0.247 C 
ATOM      8  O   UNL A   1      30.748  23.362  23.155  1.00  0.00    -0.270 OA
BRANCH   7   9
ATOM      9  C   UNL A   1      31.855  21.861  24.509  1.00  0.00     0.072 C 
ATOM     10  C   UNL A   1      32.454  20.867  23.835  1.00  0.00     0.017 C 
BRANCH  10  11
ATOM     11  C   UNL A   1      32.655  19.555  24.348  1.00  0.00     0.013 A 
ATOM     12  C   UNL A   1      33.290  16.017  24.166  1.00  0.00     0.173 C 
ATOM     13  N   UNL A   1      33.034  17.402  24.476  1.00  0.00    -0.275 N 
ATOM     14  C   UNL A   1      32.941  18.441  23.592  1.00  0.00     0.116 A 
ATOM     15  N   UNL A   1      32.823  17.768  25.757  1.00  0.00    -0.181 NA
ATOM     16  C   UNL A   1      32.605  19.083  25.675  1.00  0.00     0.143 A 
ENDBRANCH  10  11
ENDBRANCH   7   9
ENDBRANCH   6   7
BRANCH   6  17
ATOM     17  C   UNL A   1      33.488  24.910  24.140  1.00  0.00     0.035 C 
ATOM     18  C   UNL A   1      33.214  26.094  23.190  1.00  0.00     0.034 C 
ATOM     19  C   UNL A   1      34.385  25.374  25.313  1.00  0.00     0.034 C 
ATOM     20  C   UNL A   1      34.349  23.907  23.331  1.00  0.00     0.034 C 
ENDBRANCH   6  17
ENDBRANCH   5   6
ENDBRANCH   3   5
ENDBRANCH   2   3
ENDBRANCH   1   2
BRANCH   1  21
ATOM     21  C   UNL A   1      31.682  29.393  26.109  1.00  0.00     0.275 C 
BRANCH  21  22
ATOM     22  O   UNL A   1      32.913  30.113  25.936  1.00  0.00    -0.458 OA
BRANCH  22  23
ATOM     23  C   UNL A   1      33.118  31.144  26.784  1.00  0.00     0.338 C 
ATOM     24  O   UNL A   1      32.394  32.121  26.934  1.00  0.00    -0.246 OA
BRANCH  23  25
ATOM     25  C   UNL A   1      34.343  30.926  27.585  1.00  0.00     0.060 A 
ATOM     26  C   UNL A   1      35.201  31.983  27.903  1.00  0.00     0.016 A 
ATOM     27  C   UNL A   1      34.698  29.624  27.938  1.00  0.00     0.016 A 
ATOM     28  C   UNL A   1      36.438  31.735  28.493  1.00  0.00     0.010 A 
ATOM     29  C   UNL A   1      35.890  29.389  28.629  1.00  0.00     0.010 A 
ATOM     30  C   UNL A   1      36.787  30.438  28.894  1.00  0.00    -0.014 A 
BRANCH  30  31
ATOM     31  C   UNL A   1      38.062  30.177  29.620  1.00  0.00     0.031 A 
ATOM     32  C   UNL A   1      39.129  29.303  29.015  1.00  0.00     0.074 A 
ATOM     33  C   UNL A   1      38.239  30.681  30.860  1.00  0.00     0.049 A 
ATOM     34  N   UNL A   1      40.211  28.822  29.568  1.00  0.00    -0.248 NA
ATOM     35  C   UNL A   1      38.948  28.903  27.608  1.00  0.00     0.031 C 
ATOM     36  C   UNL A   1      37.282  31.528  31.574  1.00  0.00     0.029 A 
ATOM     37  N   UNL A   1      39.277  30.536  31.747  1.00  0.00    -0.354 N 
ATOM     38  C   UNL A   1      40.799  28.005  28.611  1.00  0.00     0.074 A 
ATOM     39  C   UNL A   1      39.962  28.066  27.432  1.00  0.00     0.031 C 
ATOM     40  C   UNL A   1      37.781  31.842  32.778  1.00  0.00     0.029 A 
ATOM     41  C   UNL A   1      39.056  31.158  32.954  1.00  0.00     0.049 A 
ATOM     42  H   UNL A   1      40.099  30.036  31.539  1.00  0.00     0.167 HD
ATOM     43  C   UNL A   1      41.940  27.278  28.699  1.00  0.00     0.034 A 
ATOM     44  C   UNL A   1      39.774  31.151  34.095  1.00  0.00     0.034 A 
ATOM     45  C   UNL A   1      42.816  27.278  29.841  1.00  0.00     0.049 A 
ATOM     46  C   UNL A   1      41.050  30.364  34.154  1.00  0.00     0.074 A 
ATOM     47  C   UNL A   1      44.027  26.625  29.996  1.00  0.00     0.029 A 
ATOM     48  N   UNL A   1      42.586  27.972  31.019  1.00  0.00    -0.354 N 
ATOM     49  N   UNL A   1      41.624  29.657  33.212  1.00  0.00    -0.248 NA
ATOM     50  C   UNL A   1      41.781  30.381  35.428  1.00  0.00     0.031 C 
ATOM     51  C   UNL A   1      44.528  26.923  31.268  1.00  0.00     0.029 A 
ATOM     52  C   UNL A   1      43.629  27.764  31.904  1.00  0.00     0.049 A 
ATOM     53  H   UNL A   1      41.795  28.531  31.199  1.00  0.00     0.167 HD
ATOM     54  C   UNL A   1      42.790  29.153  33.776  1.00  0.00     0.074 A 
ATOM     55  C   UNL A   1      42.857  29.665  35.130  1.00  0.00     0.031 C 
ATOM     56  C   UNL A   1      43.707  28.317  33.231  1.00  0.00     0.034 A 
BRANCH  43  57
ATOM     57  C   UNL A   1      42.341  26.449  27.509  1.00  0.00     0.023 A 
ATOM     58  C   UNL A   1      43.158  27.017  26.511  1.00  0.00     0.012 A 
ATOM     59  C   UNL A   1      41.977  25.092  27.415  1.00  0.00     0.148 A 
ATOM     60  C   UNL A   1      43.591  26.251  25.430  1.00  0.00     0.002 A 
ATOM     61  C   UNL A   1      42.442  24.325  26.352  1.00  0.00     0.091 A 
ATOM     62  F   UNL A   1      41.175  24.576  28.360  1.00  0.00    -0.205 F 
ATOM     63  C   UNL A   1      43.244  24.904  25.356  1.00  0.00     0.022 A 
BRANCH  61  64
ATOM     64  S   UNL A   1      42.102  22.566  26.218  1.00  0.00     0.127 S 
ATOM     65  O   UNL A   1      42.717  22.051  27.441  1.00  0.00    -0.237 OA
ATOM     66  O   UNL A   1      40.639  22.528  26.210  1.00  0.00    -0.237 OA
ATOM     67  O   UNL A   1      42.721  22.138  24.971  1.00  0.00    -0.744 OA
ENDBRANCH  61  64
ENDBRANCH  43  57
BRANCH  44  68
ATOM     68  C   UNL A   1      39.301  31.948  35.262  1.00  0.00     0.023 A 
ATOM     69  C   UNL A   1      38.504  31.327  36.241  1.00  0.00     0.012 A 
ATOM     70  C   UNL A   1      39.694  33.289  35.445  1.00  0.00     0.148 A 
ATOM     71  C   UNL A   1      38.098  32.029  37.376  1.00  0.00     0.002 A 
ATOM     72  C   UNL A   1      39.339  33.961  36.609  1.00  0.00     0.091 A 
ATOM     73  F   UNL A   1      40.429  33.875  34.490  1.00  0.00    -0.205 F 
ATOM     74  C   UNL A   1      38.530  33.338  37.569  1.00  0.00     0.022 A 
BRANCH  72  75
ATOM     75  S   UNL A   1      40.001  35.587  36.995  1.00  0.00     0.127 S 
ATOM     76  O   UNL A   1      39.353  35.882  38.269  1.00  0.00    -0.237 OA
ATOM     77  O   UNL A   1      41.439  35.325  37.080  1.00  0.00    -0.237 OA
ATOM     78  O   UNL A   1      39.620  36.429  35.867  1.00  0.00    -0.744 OA
ENDBRANCH  72  75
ENDBRANCH  44  68
BRANCH  56  79
ATOM     79  C   UNL A   1      44.865  27.905  34.099  1.00  0.00     0.023 A 
ATOM     80  C   UNL A   1      46.037  28.686  34.098  1.00  0.00     0.012 A 
ATOM     81  C   UNL A   1      44.779  26.785  34.946  1.00  0.00     0.148 A 
ATOM     82  C   UNL A   1      47.118  28.342  34.908  1.00  0.00     0.002 A 
ATOM     83  C   UNL A   1      45.846  26.469  35.779  1.00  0.00     0.091 A 
ATOM     84  F   UNL A   1      43.664  26.039  34.914  1.00  0.00    -0.205 F 
ATOM     85  C   UNL A   1      47.019  27.241  35.756  1.00  0.00     0.022 A 
BRANCH  83  86
ATOM     86  S   UNL A   1      45.763  25.111  36.953  1.00  0.00     0.127 S 
ATOM     87  O   UNL A   1      44.611  25.490  37.768  1.00  0.00    -0.237 OA
ATOM     88  O   UNL A   1      45.541  23.953  36.085  1.00  0.00    -0.237 OA
ATOM     89  O   UNL A   1      47.050  25.107  37.636  1.00  0.00    -0.744 OA
ENDBRANCH  83  86
ENDBRANCH  56  79
ENDBRANCH  30  31
ENDBRANCH  23  25
ENDBRANCH  22  23
ENDBRANCH  21  22
ENDBRANCH   1  21
TORSDOF 19
ENDMDL
MODEL 3
REMARK VINA RESULT:     -10.7      2.123      4.227
REMARK SMILES Cn1cc(/C=C/C(=O)N(CC(=O)OCCOC(=O)c2ccc(-c3c4nc(c(-c5cccc(S(=O)(=O)[O-])c5F)c5ccc([nH]5)c(-c5cccc(S(=O)(=O)[O-])c5F)c5nc(c(-c6cccc(S(=O)(=O)[O-])c6F)c6ccc3[nH]6)C=C5)C=C4)cc2)C(C)(C)C)cn1
REMARK SMILES IDX 14 1 13 2 11 3 12 4 10 5 9 6 7 7 8 8 6 9 5 10 4 11 1 12 2 13
REMARK SMILES IDX 3 14 87 15 86 16 82 17 83 18 84 19 85 20 15 21 16 22 17 23
REMARK SMILES IDX 18 24 19 25 20 26 81 27 21 28 80 29 22 30 23 31 24 32 74 33
REMARK SMILES IDX 25 34 79 35 73 36 75 37 26 38 78 39 72 40 71 41 27 43 59 44
REMARK SMILES IDX 39 45 58 46 40 47 43 48 57 49 76 50 41 51 42 52 56 54 77 55
REMARK SMILES IDX 44 56 28 57 29 58 37 59 30 60 32 61 38 62 31 63 33 64 34 65
REMARK SMILES IDX 35 66 36 67 60 68 61 69 69 70 62 71 64 72 70 73 63 74 65 75
REMARK SMILES IDX 66 76 67 77 68 78 45 79 46 80 54 81 47 82 49 83 55 84 48 85
REMARK SMILES IDX 50 86 51 87 52 88 53 89
REMARK H PARENT 75 42 43 53
REMARK Flexibility Score: inf
ROOT
ATOM      1  C   UNL A   1      31.423  29.375  24.248  1.00  0.00     0.274 C 
ENDROOT
BRANCH   1   2
ATOM      2  O   UNL A   1      31.749  28.832  22.950  1.00  0.00    -0.461 OA
BRANCH   2   3
ATOM      3  C   UNL A   1      30.865  27.920  22.461  1.00  0.00     0.325 C 
ATOM      4  O   UNL A   1      29.762  28.201  22.001  1.00  0.00    -0.250 OA
BRANCH   3   5
ATOM      5  C   UNL A   1      31.386  26.479  22.487  1.00  0.00     0.243 C 
BRANCH   5   6
ATOM      6  N   UNL A   1      31.938  26.014  23.772  1.00  0.00    -0.323 N 
BRANCH   6   7
ATOM      7  C   UNL A   1      33.320  25.999  23.993  1.00  0.00     0.247 C 
ATOM      8  O   UNL A   1      34.078  26.924  23.702  1.00  0.00    -0.270 OA
BRANCH   7   9
ATOM      9  C   UNL A   1      33.984  24.742  24.440  1.00  0.00     0.072 C 
ATOM     10  C   UNL A   1      34.397  23.723  23.669  1.00  0.00     0.017 C 
BRANCH  10  11
ATOM     11  C   UNL A   1      35.020  22.543  24.162  1.00  0.00     0.013 A 
ATOM     12  C   UNL A   1      37.777  20.386  24.998  1.00  0.00     0.173 C 
ATOM     13  N   UNL A   1      36.534  21.076  24.753  1.00  0.00    -0.275 N 
ATOM     14  C   UNL A   1      36.378  22.336  24.246  1.00  0.00     0.116 A 
ATOM     15  N   UNL A   1      35.366  20.449  25.001  1.00  0.00    -0.181 NA
ATOM     16  C   UNL A   1      34.446  21.352  24.651  1.00  0.00     0.143 A 
ENDBRANCH  10  11
ENDBRANCH   7   9
ENDBRANCH   6   7
BRANCH   6  17
ATOM     17  C   UNL A   1      31.007  25.590  24.888  1.00  0.00     0.035 C 
ATOM     18  C   UNL A   1      31.008  24.058  25.074  1.00  0.00     0.034 C 
ATOM     19  C   UNL A   1      31.436  26.280  26.204  1.00  0.00     0.034 C 
ATOM     20  C   UNL A   1      29.526  25.990  24.674  1.00  0.00     0.034 C 
ENDBRANCH   6  17
ENDBRANCH   5   6
ENDBRANCH   3   5
ENDBRANCH   2   3
ENDBRANCH   1   2
BRANCH   1  21
ATOM     21  C   UNL A   1      32.687  29.704  25.043  1.00  0.00     0.275 C 
BRANCH  21  22
ATOM     22  O   UNL A   1      32.337  30.013  26.402  1.00  0.00    -0.458 OA
BRANCH  22  23
ATOM     23  C   UNL A   1      32.882  31.139  26.910  1.00  0.00     0.338 C 
ATOM     24  O   UNL A   1      32.377  32.256  26.916  1.00  0.00    -0.246 OA
BRANCH  23  25
ATOM     25  C   UNL A   1      34.193  30.851  27.533  1.00  0.00     0.060 A 
ATOM     26  C   UNL A   1      34.524  29.563  27.964  1.00  0.00     0.016 A 
ATOM     27  C   UNL A   1      35.068  31.907  27.787  1.00  0.00     0.016 A 
ATOM     28  C   UNL A   1      35.679  29.345  28.713  1.00  0.00     0.010 A 
ATOM     29  C   UNL A   1      36.279  31.666  28.443  1.00  0.00     0.010 A 
ATOM     30  C   UNL A   1      36.589  30.387  28.936  1.00  0.00    -0.014 A 
BRANCH  30  31
ATOM     31  C   UNL A   1      37.876  30.141  29.646  1.00  0.00     0.031 A 
ATOM     32  C   UNL A   1      38.938  29.266  29.034  1.00  0.00     0.074 A 
ATOM     33  C   UNL A   1      38.070  30.661  30.876  1.00  0.00     0.049 A 
ATOM     34  N   UNL A   1      40.031  28.796  29.577  1.00  0.00    -0.248 NA
ATOM     35  C   UNL A   1      38.737  28.848  27.636  1.00  0.00     0.031 C 
ATOM     36  C   UNL A   1      37.120  31.512  31.595  1.00  0.00     0.029 A 
ATOM     37  N   UNL A   1      39.122  30.532  31.749  1.00  0.00    -0.354 N 
ATOM     38  C   UNL A   1      40.609  27.970  28.620  1.00  0.00     0.074 A 
ATOM     39  C   UNL A   1      39.753  28.014  27.453  1.00  0.00     0.031 C 
ATOM     40  C   UNL A   1      37.635  31.842  32.787  1.00  0.00     0.029 A 
ATOM     41  C   UNL A   1      38.917  31.167  32.952  1.00  0.00     0.049 A 
ATOM     42  H   UNL A   1      39.944  30.034  31.534  1.00  0.00     0.167 HD
ATOM     43  C   UNL A   1      41.755  27.251  28.699  1.00  0.00     0.034 A 
ATOM     44  C   UNL A   1      39.652  31.178  34.082  1.00  0.00     0.034 A 
ATOM     45  C   UNL A   1      42.648  27.268  29.828  1.00  0.00     0.049 A 
ATOM     46  C   UNL A   1      40.932  30.397  34.130  1.00  0.00     0.074 A 
ATOM     47  C   UNL A   1      43.864  26.623  29.971  1.00  0.00     0.029 A 
ATOM     48  N   UNL A   1      42.432  27.976  31.000  1.00  0.00    -0.354 N 
ATOM     49  N   UNL A   1      41.496  29.682  33.188  1.00  0.00    -0.248 NA
ATOM     50  C   UNL A   1      41.683  30.433  35.393  1.00  0.00     0.031 C 
ATOM     51  C   UNL A   1      44.383  26.939  31.232  1.00  0.00     0.029 A 
ATOM     52  C   UNL A   1      43.490  27.783  31.872  1.00  0.00     0.049 A 
ATOM     53  H   UNL A   1      41.642  28.533  31.186  1.00  0.00     0.167 HD
ATOM     54  C   UNL A   1      42.673  29.190  33.739  1.00  0.00     0.074 A 
ATOM     55  C   UNL A   1      42.758  29.719  35.086  1.00  0.00     0.031 C 
ATOM     56  C   UNL A   1      43.586  28.353  33.191  1.00  0.00     0.034 A 
BRANCH  43  57
ATOM     57  C   UNL A   1      42.142  26.409  27.513  1.00  0.00     0.023 A 
ATOM     58  C   UNL A   1      42.896  26.984  26.471  1.00  0.00     0.012 A 
ATOM     59  C   UNL A   1      41.827  25.037  27.464  1.00  0.00     0.148 A 
ATOM     60  C   UNL A   1      43.317  26.209  25.391  1.00  0.00     0.002 A 
ATOM     61  C   UNL A   1      42.281  24.263  26.401  1.00  0.00     0.091 A 
ATOM     62  F   UNL A   1      41.084  24.514  28.451  1.00  0.00    -0.205 F 
ATOM     63  C   UNL A   1      43.020  24.849  25.361  1.00  0.00     0.022 A 
BRANCH  61  64
ATOM     64  S   UNL A   1      42.005  22.490  26.320  1.00  0.00     0.127 S 
ATOM     65  O   UNL A   1      42.622  22.037  27.566  1.00  0.00    -0.237 OA
ATOM     66  O   UNL A   1      40.545  22.399  26.296  1.00  0.00    -0.237 OA
ATOM     67  O   UNL A   1      42.656  22.045  25.095  1.00  0.00    -0.744 OA
ENDBRANCH  61  64
ENDBRANCH  43  57
BRANCH  44  68
ATOM     68  C   UNL A   1      39.193  31.986  35.246  1.00  0.00     0.023 A 
ATOM     69  C   UNL A   1      38.363  31.389  36.213  1.00  0.00     0.012 A 
ATOM     70  C   UNL A   1      39.629  33.312  35.438  1.00  0.00     0.148 A 
ATOM     71  C   UNL A   1      37.969  32.100  37.346  1.00  0.00     0.002 A 
ATOM     72  C   UNL A   1      39.284  33.992  36.601  1.00  0.00     0.091 A 
ATOM     73  F   UNL A   1      40.396  33.875  34.494  1.00  0.00    -0.205 F 
ATOM     74  C   UNL A   1      38.443  33.393  37.549  1.00  0.00     0.022 A 
BRANCH  72  75
ATOM     75  S   UNL A   1      39.997  35.593  37.001  1.00  0.00     0.127 S 
ATOM     76  O   UNL A   1      39.349  35.902  38.272  1.00  0.00    -0.237 OA
ATOM     77  O   UNL A   1      41.425  35.282  37.096  1.00  0.00    -0.237 OA
ATOM     78  O   UNL A   1      39.652  36.453  35.876  1.00  0.00    -0.744 OA
ENDBRANCH  72  75
ENDBRANCH  44  68
BRANCH  56  79
ATOM     79  C   UNL A   1      44.759  27.957  34.045  1.00  0.00     0.023 A 
ATOM     80  C   UNL A   1      45.933  28.734  34.005  1.00  0.00     0.012 A 
ATOM     81  C   UNL A   1      44.686  26.856  34.919  1.00  0.00     0.148 A 
ATOM     82  C   UNL A   1      47.028  28.405  34.802  1.00  0.00     0.002 A 
ATOM     83  C   UNL A   1      45.768  26.556  35.738  1.00  0.00     0.091 A 
ATOM     84  F   UNL A   1      43.569  26.113  34.925  1.00  0.00    -0.205 F 
ATOM     85  C   UNL A   1      46.943  27.323  35.676  1.00  0.00     0.022 A 
BRANCH  83  86
ATOM     86  S   UNL A   1      45.704  25.225  36.944  1.00  0.00     0.127 S 
ATOM     87  O   UNL A   1      44.467  25.530  37.661  1.00  0.00    -0.237 OA
ATOM     88  O   UNL A   1      45.641  24.032  36.099  1.00  0.00    -0.237 OA
ATOM     89  O   UNL A   1      46.931  25.343  37.721  1.00  0.00    -0.744 OA
ENDBRANCH  83  86
ENDBRANCH  56  79
ENDBRANCH  30  31
ENDBRANCH  23  25
ENDBRANCH  22  23
ENDBRANCH  21  22
ENDBRANCH   1  21
TORSDOF 19
ENDMDL
