MODEL 1
REMARK VINA RESULT:     -12.1      0.000      0.000
REMARK SMILES O=C(NC1(C(=O)OCCOC(=O)c2ccc(-c3c4nc(c(-c5cccc(S(=O)(=O)[O-])c5F)c5ccc([nH]5)c(-c5cccc(S(=O)(=O)[O-])c5F)c5nc(c(-c6cccc(S(=O)(=O)[O-])c6F)c6ccc3[nH]6)C=C5)C=C4)cc2)Cc2ccccc2C1)OCC1c2ccccc2-c2ccccc21
REMARK SMILES IDX 8 1 7 2 5 3 6 4 4 5 76 6 83 7 77 8 82 9 78 10 81 11 79 12
REMARK SMILES IDX 80 13 3 14 1 15 2 16 84 18 85 19 86 20 87 21 98 22 88 23
REMARK SMILES IDX 92 24 93 25 97 26 89 27 91 28 94 29 96 30 90 31 95 32 9 33
REMARK SMILES IDX 10 34 11 35 12 36 13 37 14 38 75 39 15 40 74 41 16 42 17 43
REMARK SMILES IDX 18 44 68 45 19 46 73 47 67 48 69 49 20 50 72 51 66 52 65 53
REMARK SMILES IDX 21 55 53 56 33 57 52 58 34 59 37 60 51 61 70 62 35 63 36 64
REMARK SMILES IDX 50 66 71 67 38 68 22 69 23 70 31 71 24 72 26 73 32 74 25 75
REMARK SMILES IDX 27 76 28 77 29 78 30 79 54 80 55 81 63 82 56 83 58 84 64 85
REMARK SMILES IDX 57 86 59 87 60 88 61 89 62 90 39 91 40 92 48 93 41 94 43 95
REMARK SMILES IDX 49 96 42 97 44 98 45 99 46 100 47 101
REMARK H PARENT 3 17 69 54 37 65
REMARK Flexibility Score: inf
ROOT
ATOM      1  C   UNL A   1      36.456  21.217  24.345  1.00  0.00     0.274 C 
ENDROOT
BRANCH   1   2
ATOM      2  O   UNL A   1      35.202  21.816  24.773  1.00  0.00    -0.460 OA
BRANCH   2   3
ATOM      3  C   UNL A   1      35.161  23.169  24.648  1.00  0.00     0.332 C 
ATOM      4  O   UNL A   1      36.139  23.787  24.227  1.00  0.00    -0.249 OA
BRANCH   3   5
ATOM      5  C   UNL A   1      33.798  23.888  25.001  1.00  0.00     0.149 C 
ATOM      6  C   UNL A   1      32.533  23.843  24.096  1.00  0.00     0.076 C 
ATOM      7  C   UNL A   1      34.112  25.413  25.068  1.00  0.00     0.076 C 
ATOM      8  C   UNL A   1      32.695  25.001  23.192  1.00  0.00    -0.042 A 
ATOM      9  C   UNL A   1      33.657  25.870  23.696  1.00  0.00    -0.042 A 
ATOM     10  C   UNL A   1      32.060  25.184  21.974  1.00  0.00     0.004 A 
ATOM     11  C   UNL A   1      34.069  26.932  22.917  1.00  0.00     0.004 A 
ATOM     12  C   UNL A   1      32.471  26.249  21.190  1.00  0.00     0.000 A 
ATOM     13  C   UNL A   1      33.482  27.107  21.652  1.00  0.00     0.000 A 
BRANCH   5  14
ATOM     14  N   UNL A   1      33.412  23.205  26.259  1.00  0.00    -0.305 N 
ATOM     15  O   UNL A   1      31.810  22.977  27.883  1.00  0.00    -0.225 OA
ATOM     16  C   UNL A   1      32.332  23.649  27.010  1.00  0.00     0.408 C 
ATOM     17  H   UNL A   1      33.930  22.425  26.566  1.00  0.00     0.168 HD
BRANCH  16  18
ATOM     18  O   UNL A   1      32.006  24.941  26.745  1.00  0.00    -0.449 OA
BRANCH  18  19
ATOM     19  C   UNL A   1      30.704  25.301  26.210  1.00  0.00     0.248 C 
BRANCH  19  20
ATOM     20  C   UNL A   1      30.615  26.847  26.201  1.00  0.00     0.088 C 
ATOM     21  C   UNL A   1      31.893  27.694  26.417  1.00  0.00    -0.029 A 
ATOM     22  C   UNL A   1      30.150  27.373  24.853  1.00  0.00    -0.029 A 
ATOM     23  C   UNL A   1      32.820  27.709  27.447  1.00  0.00     0.005 A 
ATOM     24  C   UNL A   1      31.997  28.672  25.410  1.00  0.00    -0.014 A 
ATOM     25  C   UNL A   1      30.987  28.417  24.411  1.00  0.00    -0.014 A 
ATOM     26  C   UNL A   1      29.082  26.929  24.091  1.00  0.00     0.005 A 
ATOM     27  C   UNL A   1      33.777  28.724  27.532  1.00  0.00     0.000 A 
ATOM     28  C   UNL A   1      32.942  29.694  25.485  1.00  0.00     0.009 A 
ATOM     29  C   UNL A   1      30.809  28.975  23.160  1.00  0.00     0.009 A 
ATOM     30  C   UNL A   1      28.903  27.491  22.831  1.00  0.00     0.000 A 
ATOM     31  C   UNL A   1      33.823  29.729  26.567  1.00  0.00     0.001 A 
ATOM     32  C   UNL A   1      29.769  28.494  22.363  1.00  0.00     0.001 A 
ENDBRANCH  19  20
ENDBRANCH  18  19
ENDBRANCH  16  18
ENDBRANCH   5  14
ENDBRANCH   3   5
ENDBRANCH   2   3
ENDBRANCH   1   2
BRANCH   1  33
ATOM     33  C   UNL A   1      37.463  20.892  25.467  1.00  0.00     0.275 C 
BRANCH  33  34
ATOM     34  O   UNL A   1      38.691  21.636  25.365  1.00  0.00    -0.458 OA
BRANCH  34  35
ATOM     35  C   UNL A   1      39.563  21.446  26.385  1.00  0.00     0.338 C 
ATOM     36  O   UNL A   1      40.079  20.384  26.700  1.00  0.00    -0.246 OA
BRANCH  35  37
ATOM     37  C   UNL A   1      40.022  22.746  26.922  1.00  0.00     0.060 A 
ATOM     38  C   UNL A   1      39.416  23.887  26.381  1.00  0.00     0.016 A 
ATOM     39  C   UNL A   1      40.983  22.876  27.927  1.00  0.00     0.016 A 
ATOM     40  C   UNL A   1      39.717  25.153  26.869  1.00  0.00     0.010 A 
ATOM     41  C   UNL A   1      41.337  24.157  28.373  1.00  0.00     0.010 A 
ATOM     42  C   UNL A   1      40.706  25.298  27.844  1.00  0.00    -0.014 A 
BRANCH  42  43
ATOM     43  C   UNL A   1      41.203  26.658  28.149  1.00  0.00     0.031 A 
ATOM     44  C   UNL A   1      42.629  26.982  27.804  1.00  0.00     0.074 A 
ATOM     45  C   UNL A   1      40.403  27.596  28.685  1.00  0.00     0.049 A 
ATOM     46  N   UNL A   1      43.293  28.094  27.974  1.00  0.00    -0.248 NA
ATOM     47  C   UNL A   1      43.409  25.906  27.167  1.00  0.00     0.031 C 
ATOM     48  C   UNL A   1      38.987  27.423  29.001  1.00  0.00     0.029 A 
ATOM     49  N   UNL A   1      40.682  28.882  29.078  1.00  0.00    -0.354 N 
ATOM     50  C   UNL A   1      44.568  27.851  27.480  1.00  0.00     0.074 A 
ATOM     51  C   UNL A   1      44.586  26.488  26.998  1.00  0.00     0.031 C 
ATOM     52  C   UNL A   1      38.532  28.546  29.586  1.00  0.00     0.029 A 
ATOM     53  C   UNL A   1      39.627  29.508  29.698  1.00  0.00     0.049 A 
ATOM     54  H   UNL A   1      41.554  29.315  28.928  1.00  0.00     0.167 HD
ATOM     55  C   UNL A   1      45.629  28.687  27.430  1.00  0.00     0.034 A 
ATOM     56  C   UNL A   1      39.567  30.709  30.307  1.00  0.00     0.034 A 
ATOM     57  C   UNL A   1      45.617  30.033  27.928  1.00  0.00     0.049 A 
ATOM     58  C   UNL A   1      40.790  31.594  30.308  1.00  0.00     0.074 A 
ATOM     59  C   UNL A   1      46.642  30.961  27.925  1.00  0.00     0.029 A 
ATOM     60  N   UNL A   1      44.531  30.635  28.545  1.00  0.00    -0.354 N 
ATOM     61  N   UNL A   1      41.959  31.393  29.747  1.00  0.00    -0.248 NA
ATOM     62  C   UNL A   1      40.677  32.886  31.000  1.00  0.00     0.031 C 
ATOM     63  C   UNL A   1      46.185  32.116  28.568  1.00  0.00     0.029 A 
ATOM     64  C   UNL A   1      44.865  31.918  28.943  1.00  0.00     0.049 A 
ATOM     65  H   UNL A   1      43.652  30.214  28.680  1.00  0.00     0.167 HD
ATOM     66  C   UNL A   1      42.703  32.544  29.983  1.00  0.00     0.074 A 
ATOM     67  C   UNL A   1      41.847  33.447  30.725  1.00  0.00     0.031 C 
ATOM     68  C   UNL A   1      43.982  32.826  29.629  1.00  0.00     0.034 A 
BRANCH  55  69
ATOM     69  C   UNL A   1      46.895  28.156  26.818  1.00  0.00     0.023 A 
ATOM     70  C   UNL A   1      47.929  27.683  27.653  1.00  0.00     0.012 A 
ATOM     71  C   UNL A   1      47.052  28.102  25.420  1.00  0.00     0.148 A 
ATOM     72  C   UNL A   1      49.112  27.192  27.105  1.00  0.00     0.002 A 
ATOM     73  C   UNL A   1      48.218  27.573  24.881  1.00  0.00     0.091 A 
ATOM     74  F   UNL A   1      46.069  28.585  24.648  1.00  0.00    -0.205 F 
ATOM     75  C   UNL A   1      49.253  27.129  25.721  1.00  0.00     0.022 A 
BRANCH  73  76
ATOM     76  S   UNL A   1      48.468  27.391  23.113  1.00  0.00     0.127 S 
ATOM     77  O   UNL A   1      49.837  27.880  22.956  1.00  0.00    -0.237 OA
ATOM     78  O   UNL A   1      48.311  25.948  22.928  1.00  0.00    -0.237 OA
ATOM     79  O   UNL A   1      47.439  28.200  22.475  1.00  0.00    -0.744 OA
ENDBRANCH  73  76
ENDBRANCH  55  69
BRANCH  56  80
ATOM     80  C   UNL A   1      38.303  31.164  30.957  1.00  0.00     0.023 A 
ATOM     81  C   UNL A   1      38.096  30.912  32.327  1.00  0.00     0.012 A 
ATOM     82  C   UNL A   1      37.301  31.829  30.222  1.00  0.00     0.148 A 
ATOM     83  C   UNL A   1      36.901  31.282  32.946  1.00  0.00     0.002 A 
ATOM     84  C   UNL A   1      36.134  32.241  30.857  1.00  0.00     0.091 A 
ATOM     85  F   UNL A   1      37.505  32.040  28.915  1.00  0.00    -0.205 F 
ATOM     86  C   UNL A   1      35.925  31.954  32.215  1.00  0.00     0.022 A 
BRANCH  84  87
ATOM     87  S   UNL A   1      34.866  33.201  30.022  1.00  0.00     0.127 S 
ATOM     88  O   UNL A   1      34.314  32.222  29.089  1.00  0.00    -0.237 OA
ATOM     89  O   UNL A   1      33.980  33.561  31.131  1.00  0.00    -0.237 OA
ATOM     90  O   UNL A   1      35.558  34.329  29.415  1.00  0.00    -0.744 OA
ENDBRANCH  84  87
ENDBRANCH  56  80
BRANCH  68  91
ATOM     91  C   UNL A   1      44.537  34.178  30.001  1.00  0.00     0.023 A 
ATOM     92  C   UNL A   1      45.269  34.332  31.194  1.00  0.00     0.012 A 
ATOM     93  C   UNL A   1      44.412  35.271  29.119  1.00  0.00     0.148 A 
ATOM     94  C   UNL A   1      45.845  35.562  31.517  1.00  0.00     0.002 A 
ATOM     95  C   UNL A   1      45.031  36.478  29.424  1.00  0.00     0.091 A 
ATOM     96  F   UNL A   1      43.698  35.109  27.996  1.00  0.00    -0.205 F 
ATOM     97  C   UNL A   1      45.737  36.628  30.628  1.00  0.00     0.022 A 
BRANCH  95  98
ATOM     98  S   UNL A   1      45.033  37.871  28.290  1.00  0.00     0.127 S 
ATOM     99  O   UNL A   1      43.602  38.109  28.108  1.00  0.00    -0.237 OA
ATOM    100  O   UNL A   1      45.728  38.901  29.064  1.00  0.00    -0.237 OA
ATOM    101  O   UNL A   1      45.749  37.424  27.105  1.00  0.00    -0.744 OA
ENDBRANCH  95  98
ENDBRANCH  68  91
ENDBRANCH  42  43
ENDBRANCH  35  37
ENDBRANCH  34  35
ENDBRANCH  33  34
ENDBRANCH   1  33
TORSDOF 18
ENDMDL
MODEL 2
REMARK VINA RESULT:     -12.0      4.742      9.912
REMARK SMILES O=C(NC1(C(=O)OCCOC(=O)c2ccc(-c3c4nc(c(-c5cccc(S(=O)(=O)[O-])c5F)c5ccc([nH]5)c(-c5cccc(S(=O)(=O)[O-])c5F)c5nc(c(-c6cccc(S(=O)(=O)[O-])c6F)c6ccc3[nH]6)C=C5)C=C4)cc2)Cc2ccccc2C1)OCC1c2ccccc2-c2ccccc21
REMARK SMILES IDX 8 1 7 2 5 3 6 4 4 5 76 6 83 7 77 8 82 9 78 10 81 11 79 12
REMARK SMILES IDX 80 13 3 14 1 15 2 16 84 18 85 19 86 20 87 21 98 22 88 23
REMARK SMILES IDX 92 24 93 25 97 26 89 27 91 28 94 29 96 30 90 31 95 32 9 33
REMARK SMILES IDX 10 34 11 35 12 36 13 37 14 38 75 39 15 40 74 41 16 42 17 43
REMARK SMILES IDX 18 44 68 45 19 46 73 47 67 48 69 49 20 50 72 51 66 52 65 53
REMARK SMILES IDX 21 55 53 56 33 57 52 58 34 59 37 60 51 61 70 62 35 63 36 64
REMARK SMILES IDX 50 66 71 67 38 68 22 69 23 70 31 71 24 72 26 73 32 74 25 75
REMARK SMILES IDX 27 76 28 77 29 78 30 79 54 80 55 81 63 82 56 83 58 84 64 85
REMARK SMILES IDX 57 86 59 87 60 88 61 89 62 90 39 91 40 92 48 93 41 94 43 95
REMARK SMILES IDX 49 96 42 97 44 98 45 99 46 100 47 101
REMARK H PARENT 3 17 69 54 37 65
REMARK Flexibility Score: inf
ROOT
ATOM      1  C   UNL A   1      31.468  29.413  24.996  1.00  0.00     0.274 C 
ENDROOT
BRANCH   1   2
ATOM      2  O   UNL A   1      31.470  27.960  25.065  1.00  0.00    -0.460 OA
BRANCH   2   3
ATOM      3  C   UNL A   1      30.965  27.350  23.960  1.00  0.00     0.332 C 
ATOM      4  O   UNL A   1      30.034  27.859  23.337  1.00  0.00    -0.249 OA
BRANCH   3   5
ATOM      5  C   UNL A   1      31.664  26.013  23.487  1.00  0.00     0.149 C 
ATOM      6  C   UNL A   1      30.957  24.627  23.457  1.00  0.00     0.076 C 
ATOM      7  C   UNL A   1      32.848  25.767  24.470  1.00  0.00     0.076 C 
ATOM      8  C   UNL A   1      31.209  24.064  24.801  1.00  0.00    -0.042 A 
ATOM      9  C   UNL A   1      32.237  24.761  25.426  1.00  0.00    -0.042 A 
ATOM     10  C   UNL A   1      30.490  23.049  25.410  1.00  0.00     0.004 A 
ATOM     11  C   UNL A   1      32.515  24.493  26.751  1.00  0.00     0.004 A 
ATOM     12  C   UNL A   1      30.767  22.776  26.740  1.00  0.00     0.000 A 
ATOM     13  C   UNL A   1      31.762  23.507  27.410  1.00  0.00     0.000 A 
BRANCH   5  14
ATOM     14  N   UNL A   1      31.989  26.325  22.075  1.00  0.00    -0.305 N 
ATOM     15  O   UNL A   1      33.026  25.606  20.161  1.00  0.00    -0.225 OA
ATOM     16  C   UNL A   1      32.924  25.573  21.375  1.00  0.00     0.408 C 
ATOM     17  H   UNL A   1      31.536  27.077  21.627  1.00  0.00     0.168 HD
BRANCH  16  18
ATOM     18  O   UNL A   1      33.773  24.899  22.194  1.00  0.00    -0.449 OA
BRANCH  18  19
ATOM     19  C   UNL A   1      34.017  23.477  22.030  1.00  0.00     0.248 C 
BRANCH  19  20
ATOM     20  C   UNL A   1      33.810  22.806  23.410  1.00  0.00     0.088 C 
ATOM     21  C   UNL A   1      33.394  21.317  23.490  1.00  0.00    -0.029 A 
ATOM     22  C   UNL A   1      35.096  22.786  24.221  1.00  0.00    -0.029 A 
ATOM     23  C   UNL A   1      32.316  20.636  22.948  1.00  0.00     0.005 A 
ATOM     24  C   UNL A   1      34.242  20.628  24.378  1.00  0.00    -0.014 A 
ATOM     25  C   UNL A   1      35.329  21.501  24.750  1.00  0.00    -0.014 A 
ATOM     26  C   UNL A   1      35.980  23.830  24.437  1.00  0.00     0.005 A 
ATOM     27  C   UNL A   1      32.026  19.327  23.344  1.00  0.00     0.000 A 
ATOM     28  C   UNL A   1      33.961  19.326  24.787  1.00  0.00     0.009 A 
ATOM     29  C   UNL A   1      36.496  21.228  25.437  1.00  0.00     0.009 A 
ATOM     30  C   UNL A   1      37.156  23.555  25.129  1.00  0.00     0.000 A 
ATOM     31  C   UNL A   1      32.831  18.681  24.280  1.00  0.00     0.001 A 
ATOM     32  C   UNL A   1      37.419  22.262  25.611  1.00  0.00     0.001 A 
ENDBRANCH  19  20
ENDBRANCH  18  19
ENDBRANCH  16  18
ENDBRANCH   5  14
ENDBRANCH   3   5
ENDBRANCH   2   3
ENDBRANCH   1   2
BRANCH   1  33
ATOM     33  C   UNL A   1      32.718  30.115  25.564  1.00  0.00     0.275 C 
BRANCH  33  34
ATOM     34  O   UNL A   1      32.573  30.511  26.940  1.00  0.00    -0.458 OA
BRANCH  34  35
ATOM     35  C   UNL A   1      33.284  31.607  27.299  1.00  0.00     0.338 C 
ATOM     36  O   UNL A   1      32.853  32.749  27.380  1.00  0.00    -0.246 OA
BRANCH  35  37
ATOM     37  C   UNL A   1      34.606  31.214  27.836  1.00  0.00     0.060 A 
ATOM     38  C   UNL A   1      34.763  29.861  28.159  1.00  0.00     0.016 A 
ATOM     39  C   UNL A   1      35.671  32.102  28.006  1.00  0.00     0.016 A 
ATOM     40  C   UNL A   1      35.988  29.371  28.598  1.00  0.00     0.010 A 
ATOM     41  C   UNL A   1      36.887  31.622  28.513  1.00  0.00     0.010 A 
ATOM     42  C   UNL A   1      37.047  30.256  28.811  1.00  0.00    -0.014 A 
BRANCH  42  43
ATOM     43  C   UNL A   1      38.243  29.765  29.533  1.00  0.00     0.031 A 
ATOM     44  C   UNL A   1      38.490  30.282  30.922  1.00  0.00     0.074 A 
ATOM     45  C   UNL A   1      39.071  28.858  28.987  1.00  0.00     0.049 A 
ATOM     46  N   UNL A   1      39.462  30.007  31.750  1.00  0.00    -0.248 NA
ATOM     47  C   UNL A   1      37.494  31.229  31.454  1.00  0.00     0.031 C 
ATOM     48  C   UNL A   1      38.900  28.234  27.677  1.00  0.00     0.029 A 
ATOM     49  N   UNL A   1      40.239  28.320  29.469  1.00  0.00    -0.354 N 
ATOM     50  C   UNL A   1      39.205  30.753  32.892  1.00  0.00     0.074 A 
ATOM     51  C   UNL A   1      37.984  31.491  32.656  1.00  0.00     0.031 C 
ATOM     52  C   UNL A   1      39.954  27.432  27.437  1.00  0.00     0.029 A 
ATOM     53  C   UNL A   1      40.878  27.501  28.568  1.00  0.00     0.049 A 
ATOM     54  H   UNL A   1      40.584  28.502  30.373  1.00  0.00     0.167 HD
ATOM     55  C   UNL A   1      39.921  30.819  34.037  1.00  0.00     0.034 A 
ATOM     56  C   UNL A   1      42.082  26.899  28.645  1.00  0.00     0.034 A 
ATOM     57  C   UNL A   1      41.145  30.104  34.263  1.00  0.00     0.049 A 
ATOM     58  C   UNL A   1      42.901  27.052  29.905  1.00  0.00     0.074 A 
ATOM     59  C   UNL A   1      41.946  30.105  35.390  1.00  0.00     0.029 A 
ATOM     60  N   UNL A   1      41.761  29.281  33.332  1.00  0.00    -0.354 N 
ATOM     61  N   UNL A   1      42.599  27.678  31.018  1.00  0.00    -0.248 NA
ATOM     62  C   UNL A   1      44.213  26.391  29.931  1.00  0.00     0.031 C 
ATOM     63  C   UNL A   1      43.064  29.305  35.129  1.00  0.00     0.029 A 
ATOM     64  C   UNL A   1      42.942  28.781  33.852  1.00  0.00     0.049 A 
ATOM     65  H   UNL A   1      41.409  29.081  32.435  1.00  0.00     0.167 HD
ATOM     66  C   UNL A   1      43.662  27.453  31.886  1.00  0.00     0.074 A 
ATOM     67  C   UNL A   1      44.610  26.619  31.176  1.00  0.00     0.031 C 
ATOM     68  C   UNL A   1      43.845  27.904  33.152  1.00  0.00     0.034 A 
BRANCH  55  69
ATOM     69  C   UNL A   1      39.393  31.707  35.129  1.00  0.00     0.023 A 
ATOM     70  C   UNL A   1      38.445  31.203  36.043  1.00  0.00     0.012 A 
ATOM     71  C   UNL A   1      39.851  33.032  35.264  1.00  0.00     0.148 A 
ATOM     72  C   UNL A   1      37.940  32.013  37.058  1.00  0.00     0.002 A 
ATOM     73  C   UNL A   1      39.373  33.820  36.303  1.00  0.00     0.091 A 
ATOM     74  F   UNL A   1      40.729  33.499  34.365  1.00  0.00    -0.205 F 
ATOM     75  C   UNL A   1      38.410  33.316  37.194  1.00  0.00     0.022 A 
BRANCH  73  76
ATOM     76  S   UNL A   1      39.963  35.489  36.599  1.00  0.00     0.127 S 
ATOM     77  O   UNL A   1      39.427  36.202  35.441  1.00  0.00    -0.237 OA
ATOM     78  O   UNL A   1      39.320  35.822  37.871  1.00  0.00    -0.237 OA
ATOM     79  O   UNL A   1      41.415  35.398  36.659  1.00  0.00    -0.744 OA
ENDBRANCH  73  76
ENDBRANCH  55  69
BRANCH  56  80
ATOM     80  C   UNL A   1      42.590  26.080  27.506  1.00  0.00     0.023 A 
ATOM     81  C   UNL A   1      43.446  26.667  26.554  1.00  0.00     0.012 A 
ATOM     82  C   UNL A   1      42.220  24.729  27.354  1.00  0.00     0.148 A 
ATOM     83  C   UNL A   1      43.894  25.937  25.453  1.00  0.00     0.002 A 
ATOM     84  C   UNL A   1      42.712  23.992  26.282  1.00  0.00     0.091 A 
ATOM     85  F   UNL A   1      41.387  24.192  28.256  1.00  0.00    -0.205 F 
ATOM     86  C   UNL A   1      43.535  24.598  25.321  1.00  0.00     0.022 A 
BRANCH  84  87
ATOM     87  S   UNL A   1      42.386  22.236  26.086  1.00  0.00     0.127 S 
ATOM     88  O   UNL A   1      43.160  21.919  24.888  1.00  0.00    -0.237 OA
ATOM     89  O   UNL A   1      42.928  21.686  27.330  1.00  0.00    -0.237 OA
ATOM     90  O   UNL A   1      40.941  22.113  25.953  1.00  0.00    -0.744 OA
ENDBRANCH  84  87
ENDBRANCH  56  80
BRANCH  68  91
ATOM     91  C   UNL A   1      45.097  27.481  33.879  1.00  0.00     0.023 A 
ATOM     92  C   UNL A   1      46.237  28.308  33.852  1.00  0.00     0.012 A 
ATOM     93  C   UNL A   1      45.108  26.312  34.667  1.00  0.00     0.148 A 
ATOM     94  C   UNL A   1      47.380  27.963  34.575  1.00  0.00     0.002 A 
ATOM     95  C   UNL A   1      46.232  26.001  35.424  1.00  0.00     0.091 A 
ATOM     96  F   UNL A   1      44.019  25.530  34.667  1.00  0.00    -0.205 F 
ATOM     97  C   UNL A   1      47.372  26.818  35.369  1.00  0.00     0.022 A 
BRANCH  95  98
ATOM     98  S   UNL A   1      46.274  24.605  36.554  1.00  0.00     0.127 S 
ATOM     99  O   UNL A   1      44.978  23.978  36.303  1.00  0.00    -0.237 OA
ATOM    100  O   UNL A   1      47.425  23.844  36.066  1.00  0.00    -0.237 OA
ATOM    101  O   UNL A   1      46.449  25.171  37.884  1.00  0.00    -0.744 OA
ENDBRANCH  95  98
ENDBRANCH  68  91
ENDBRANCH  42  43
ENDBRANCH  35  37
ENDBRANCH  34  35
ENDBRANCH  33  34
ENDBRANCH   1  33
TORSDOF 18
ENDMDL
MODEL 3
REMARK VINA RESULT:     -11.9      4.139      9.330
REMARK SMILES O=C(NC1(C(=O)OCCOC(=O)c2ccc(-c3c4nc(c(-c5cccc(S(=O)(=O)[O-])c5F)c5ccc([nH]5)c(-c5cccc(S(=O)(=O)[O-])c5F)c5nc(c(-c6cccc(S(=O)(=O)[O-])c6F)c6ccc3[nH]6)C=C5)C=C4)cc2)Cc2ccccc2C1)OCC1c2ccccc2-c2ccccc21
REMARK SMILES IDX 8 1 7 2 5 3 6 4 4 5 76 6 83 7 77 8 82 9 78 10 81 11 79 12
REMARK SMILES IDX 80 13 3 14 1 15 2 16 84 18 85 19 86 20 87 21 98 22 88 23
REMARK SMILES IDX 92 24 93 25 97 26 89 27 91 28 94 29 96 30 90 31 95 32 9 33
REMARK SMILES IDX 10 34 11 35 12 36 13 37 14 38 75 39 15 40 74 41 16 42 17 43
REMARK SMILES IDX 18 44 68 45 19 46 73 47 67 48 69 49 20 50 72 51 66 52 65 53
REMARK SMILES IDX 21 55 53 56 33 57 52 58 34 59 37 60 51 61 70 62 35 63 36 64
REMARK SMILES IDX 50 66 71 67 38 68 22 69 23 70 31 71 24 72 26 73 32 74 25 75
REMARK SMILES IDX 27 76 28 77 29 78 30 79 54 80 55 81 63 82 56 83 58 84 64 85
REMARK SMILES IDX 57 86 59 87 60 88 61 89 62 90 39 91 40 92 48 93 41 94 43 95
REMARK SMILES IDX 49 96 42 97 44 98 45 99 46 100 47 101
REMARK H PARENT 3 17 69 54 37 65
REMARK Flexibility Score: inf
ROOT
ATOM      1  C   UNL A   1      32.029  29.322  25.942  1.00  0.00     0.274 C 
ENDROOT
BRANCH   1   2
ATOM      2  O   UNL A   1      32.653  28.045  26.253  1.00  0.00    -0.460 OA
BRANCH   2   3
ATOM      3  C   UNL A   1      31.789  27.104  26.719  1.00  0.00     0.332 C 
ATOM      4  O   UNL A   1      30.977  27.383  27.600  1.00  0.00    -0.249 OA
BRANCH   3   5
ATOM      5  C   UNL A   1      31.835  25.679  26.037  1.00  0.00     0.149 C 
ATOM      6  C   UNL A   1      33.033  25.160  25.190  1.00  0.00     0.076 C 
ATOM      7  C   UNL A   1      30.659  25.644  25.015  1.00  0.00     0.076 C 
ATOM      8  C   UNL A   1      32.721  25.602  23.814  1.00  0.00    -0.042 A 
ATOM      9  C   UNL A   1      31.380  25.960  23.720  1.00  0.00    -0.042 A 
ATOM     10  C   UNL A   1      33.624  25.732  22.772  1.00  0.00     0.004 A 
ATOM     11  C   UNL A   1      30.929  26.553  22.558  1.00  0.00     0.004 A 
ATOM     12  C   UNL A   1      33.175  26.326  21.604  1.00  0.00     0.000 A 
ATOM     13  C   UNL A   1      31.839  26.750  21.506  1.00  0.00     0.000 A 
BRANCH   5  14
ATOM     14  N   UNL A   1      31.759  24.778  27.212  1.00  0.00    -0.305 N 
ATOM     15  O   UNL A   1      32.304  22.723  28.069  1.00  0.00    -0.225 OA
ATOM     16  C   UNL A   1      32.086  23.432  27.103  1.00  0.00     0.408 C 
ATOM     17  H   UNL A   1      31.471  25.139  28.082  1.00  0.00     0.168 HD
BRANCH  16  18
ATOM     18  O   UNL A   1      32.019  22.980  25.823  1.00  0.00    -0.449 OA
BRANCH  18  19
ATOM     19  C   UNL A   1      32.008  21.559  25.520  1.00  0.00     0.248 C 
BRANCH  19  20
ATOM     20  C   UNL A   1      33.227  21.267  24.611  1.00  0.00     0.088 C 
ATOM     21  C   UNL A   1      34.656  21.599  25.107  1.00  0.00    -0.029 A 
ATOM     22  C   UNL A   1      33.365  19.782  24.320  1.00  0.00    -0.029 A 
ATOM     23  C   UNL A   1      35.219  22.782  25.557  1.00  0.00     0.005 A 
ATOM     24  C   UNL A   1      35.497  20.484  24.930  1.00  0.00    -0.014 A 
ATOM     25  C   UNL A   1      34.690  19.354  24.536  1.00  0.00    -0.014 A 
ATOM     26  C   UNL A   1      32.376  18.900  23.919  1.00  0.00     0.005 A 
ATOM     27  C   UNL A   1      36.600  22.892  25.742  1.00  0.00     0.000 A 
ATOM     28  C   UNL A   1      36.877  20.580  25.104  1.00  0.00     0.009 A 
ATOM     29  C   UNL A   1      35.020  18.016  24.430  1.00  0.00     0.009 A 
ATOM     30  C   UNL A   1      32.708  17.553  23.812  1.00  0.00     0.000 A 
ATOM     31  C   UNL A   1      37.431  21.801  25.493  1.00  0.00     0.001 A 
ATOM     32  C   UNL A   1      34.015  17.113  24.081  1.00  0.00     0.001 A 
ENDBRANCH  19  20
ENDBRANCH  18  19
ENDBRANCH  16  18
ENDBRANCH   5  14
ENDBRANCH   3   5
ENDBRANCH   2   3
ENDBRANCH   1   2
BRANCH   1  33
ATOM     33  C   UNL A   1      32.574  30.542  26.713  1.00  0.00     0.275 C 
BRANCH  33  34
ATOM     34  O   UNL A   1      33.595  30.202  27.670  1.00  0.00    -0.458 OA
BRANCH  34  35
ATOM     35  C   UNL A   1      34.602  31.103  27.776  1.00  0.00     0.338 C 
ATOM     36  O   UNL A   1      34.478  32.319  27.817  1.00  0.00    -0.246 OA
BRANCH  35  37
ATOM     37  C   UNL A   1      35.874  30.420  28.102  1.00  0.00     0.060 A 
ATOM     38  C   UNL A   1      35.901  29.705  29.305  1.00  0.00     0.016 A 
ATOM     39  C   UNL A   1      37.000  30.441  27.275  1.00  0.00     0.016 A 
ATOM     40  C   UNL A   1      37.020  28.963  29.668  1.00  0.00     0.010 A 
ATOM     41  C   UNL A   1      38.153  29.749  27.673  1.00  0.00     0.010 A 
ATOM     42  C   UNL A   1      38.165  29.010  28.871  1.00  0.00    -0.014 A 
BRANCH  42  43
ATOM     43  C   UNL A   1      39.423  28.445  29.409  1.00  0.00     0.031 A 
ATOM     44  C   UNL A   1      40.032  29.102  30.615  1.00  0.00     0.074 A 
ATOM     45  C   UNL A   1      39.994  27.356  28.865  1.00  0.00     0.049 A 
ATOM     46  N   UNL A   1      41.123  28.796  31.266  1.00  0.00    -0.248 NA
ATOM     47  C   UNL A   1      39.300  30.253  31.173  1.00  0.00     0.031 C 
ATOM     48  C   UNL A   1      39.464  26.594  27.738  1.00  0.00     0.029 A 
ATOM     49  N   UNL A   1      41.167  26.716  29.185  1.00  0.00    -0.354 N 
ATOM     50  C   UNL A   1      41.218  29.721  32.297  1.00  0.00     0.074 A 
ATOM     51  C   UNL A   1      40.072  30.597  32.192  1.00  0.00     0.031 C 
ATOM     52  C   UNL A   1      40.335  25.616  27.427  1.00  0.00     0.029 A 
ATOM     53  C   UNL A   1      41.487  25.695  28.322  1.00  0.00     0.049 A 
ATOM     54  H   UNL A   1      41.723  26.964  29.959  1.00  0.00     0.167 HD
ATOM     55  C   UNL A   1      42.172  29.831  33.248  1.00  0.00     0.034 A 
ATOM     56  C   UNL A   1      42.597  24.933  28.255  1.00  0.00     0.034 A 
ATOM     57  C   UNL A   1      43.320  28.975  33.339  1.00  0.00     0.049 A 
ATOM     58  C   UNL A   1      43.687  25.128  29.281  1.00  0.00     0.074 A 
ATOM     59  C   UNL A   1      44.345  29.006  34.266  1.00  0.00     0.029 A 
ATOM     60  N   UNL A   1      43.611  27.949  32.452  1.00  0.00    -0.354 N 
ATOM     61  N   UNL A   1      43.717  25.938  30.314  1.00  0.00    -0.248 NA
ATOM     62  C   UNL A   1      44.883  24.284  29.153  1.00  0.00     0.031 C 
ATOM     63  C   UNL A   1      45.273  28.017  33.922  1.00  0.00     0.029 A 
ATOM     64  C   UNL A   1      44.809  27.350  32.800  1.00  0.00     0.049 A 
ATOM     65  H   UNL A   1      43.048  27.686  31.690  1.00  0.00     0.167 HD
ATOM     66  C   UNL A   1      44.911  25.673  30.976  1.00  0.00     0.074 A 
ATOM     67  C   UNL A   1      45.570  24.615  30.238  1.00  0.00     0.031 C 
ATOM     68  C   UNL A   1      45.422  26.258  32.088  1.00  0.00     0.034 A 
BRANCH  55  69
ATOM     69  C   UNL A   1      42.009  30.929  34.262  1.00  0.00     0.023 A 
ATOM     70  C   UNL A   1      41.366  30.660  35.487  1.00  0.00     0.012 A 
ATOM     71  C   UNL A   1      42.513  32.220  34.011  1.00  0.00     0.148 A 
ATOM     72  C   UNL A   1      41.201  31.666  36.437  1.00  0.00     0.002 A 
ATOM     73  C   UNL A   1      42.380  33.207  34.980  1.00  0.00     0.091 A 
ATOM     74  F   UNL A   1      43.093  32.461  32.827  1.00  0.00    -0.205 F 
ATOM     75  C   UNL A   1      41.715  32.936  36.187  1.00  0.00     0.022 A 
BRANCH  73  76
ATOM     76  S   UNL A   1      43.065  34.855  34.779  1.00  0.00     0.127 S 
ATOM     77  O   UNL A   1      42.261  35.377  33.675  1.00  0.00    -0.237 OA
ATOM     78  O   UNL A   1      42.785  35.465  36.079  1.00  0.00    -0.237 OA
ATOM     79  O   UNL A   1      44.480  34.670  34.487  1.00  0.00    -0.744 OA
ENDBRANCH  73  76
ENDBRANCH  55  69
BRANCH  56  80
ATOM     80  C   UNL A   1      42.738  23.899  27.188  1.00  0.00     0.023 A 
ATOM     81  C   UNL A   1      43.446  24.206  26.010  1.00  0.00     0.012 A 
ATOM     82  C   UNL A   1      42.163  22.620  27.328  1.00  0.00     0.148 A 
ATOM     83  C   UNL A   1      43.549  23.274  24.977  1.00  0.00     0.002 A 
ATOM     84  C   UNL A   1      42.314  21.677  26.317  1.00  0.00     0.091 A 
ATOM     85  F   UNL A   1      41.473  22.351  28.445  1.00  0.00    -0.205 F 
ATOM     86  C   UNL A   1      42.992  22.008  25.133  1.00  0.00     0.022 A 
BRANCH  84  87
ATOM     87  S   UNL A   1      41.718  19.990  26.471  1.00  0.00     0.127 S 
ATOM     88  O   UNL A   1      42.325  19.349  25.307  1.00  0.00    -0.237 OA
ATOM     89  O   UNL A   1      42.283  19.585  27.759  1.00  0.00    -0.237 OA
ATOM     90  O   UNL A   1      40.264  20.080  26.453  1.00  0.00    -0.744 OA
ENDBRANCH  84  87
ENDBRANCH  56  80
BRANCH  68  91
ATOM     91  C   UNL A   1      46.744  25.752  32.608  1.00  0.00     0.023 A 
ATOM     92  C   UNL A   1      46.773  24.830  33.672  1.00  0.00     0.012 A 
ATOM     93  C   UNL A   1      47.951  26.117  31.976  1.00  0.00     0.148 A 
ATOM     94  C   UNL A   1      47.985  24.302  34.119  1.00  0.00     0.002 A 
ATOM     95  C   UNL A   1      49.148  25.548  32.393  1.00  0.00     0.091 A 
ATOM     96  F   UNL A   1      47.904  27.008  30.974  1.00  0.00    -0.205 F 
ATOM     97  C   UNL A   1      49.168  24.650  33.472  1.00  0.00     0.022 A 
BRANCH  95  98
ATOM     98  S   UNL A   1      50.705  25.859  31.553  1.00  0.00     0.127 S 
ATOM     99  O   UNL A   1      51.651  25.135  32.400  1.00  0.00    -0.237 OA
ATOM    100  O   UNL A   1      50.476  25.255  30.240  1.00  0.00    -0.237 OA
ATOM    101  O   UNL A   1      50.867  27.306  31.529  1.00  0.00    -0.744 OA
ENDBRANCH  95  98
ENDBRANCH  68  91
ENDBRANCH  42  43
ENDBRANCH  35  37
ENDBRANCH  34  35
ENDBRANCH  33  34
ENDBRANCH   1  33
TORSDOF 18
ENDMDL
