MODEL 1
REMARK VINA RESULT:     -12.1      0.000      0.000
REMARK SMILES C[NH+]1CCC(NC(=O)N[C@H]2C=C[C@H](C(=O)OCCOC(=O)c3ccc(-c4c5nc(c(-c6cccc(S(=O)(=O)[O-])c6F)c6ccc([nH]6)c(-c6cccc(S(=O)(=O)[O-])c6F)c6nc(c(-c7cccc(S(=O)(=O)[O-])c7F)c7ccc4[nH]7)C=C6)C=C5)cc3)C2)CC1
REMARK SMILES IDX 18 1 17 2 16 3 14 4 15 5 13 6 10 7 11 8 85 9 12 10 9 11 6 12
REMARK SMILES IDX 7 13 8 15 5 17 1 18 2 19 3 20 87 21 4 23 86 24 19 25 20 26
REMARK SMILES IDX 21 27 22 28 23 29 84 30 24 31 83 32 25 33 26 34 27 35 77 36
REMARK SMILES IDX 28 37 82 38 76 39 78 40 29 41 81 42 75 43 74 44 30 46 62 47
REMARK SMILES IDX 42 48 61 49 43 50 46 51 60 52 79 53 44 54 45 55 59 57 80 58
REMARK SMILES IDX 47 59 31 60 32 61 40 62 33 63 35 64 41 65 34 66 36 67 37 68
REMARK SMILES IDX 38 69 39 70 63 71 64 72 72 73 65 74 67 75 73 76 66 77 68 78
REMARK SMILES IDX 69 79 70 80 71 81 48 82 49 83 57 84 50 85 52 86 58 87 51 88
REMARK SMILES IDX 53 89 54 90 55 91 56 92
REMARK H PARENT 6 14 9 16 2 22 78 45 46 56
REMARK Flexibility Score: inf
ROOT
ATOM      1  C   UNL A   1      31.669  29.747  25.219  1.00  0.00     0.275 C 
ENDROOT
BRANCH   1   2
ATOM      2  C   UNL A   1      32.397  29.197  23.997  1.00  0.00     0.274 C 
BRANCH   2   3
ATOM      3  O   UNL A   1      33.383  28.220  24.388  1.00  0.00    -0.462 OA
BRANCH   3   4
ATOM      4  C   UNL A   1      33.311  27.009  23.759  1.00  0.00     0.312 C 
ATOM      5  O   UNL A   1      33.576  26.812  22.584  1.00  0.00    -0.252 OA
BRANCH   4   6
ATOM      6  C   UNL A   1      32.728  25.971  24.708  1.00  0.00     0.124 C 
ATOM      7  C   UNL A   1      30.651  25.640  26.001  1.00  0.00     0.107 C 
ATOM      8  C   UNL A   1      31.786  26.056  26.870  1.00  0.00    -0.006 C 
ATOM      9  C   UNL A   1      31.225  25.634  24.573  1.00  0.00     0.048 C 
ATOM     10  C   UNL A   1      32.897  26.295  26.165  1.00  0.00    -0.014 C 
BRANCH   7  11
ATOM     11  N   UNL A   1      29.958  24.469  26.527  1.00  0.00    -0.332 N 
ATOM     12  N   UNL A   1      31.233  22.460  26.693  1.00  0.00    -0.335 N 
ATOM     13  C   UNL A   1      30.129  23.193  26.873  1.00  0.00     0.315 C 
ATOM     14  H   UNL A   1      31.192  21.567  27.104  1.00  0.00     0.165 HD
ATOM     15  O   UNL A   1      29.174  22.626  27.414  1.00  0.00    -0.249 OA
ATOM     16  H   UNL A   1      29.016  24.709  26.684  1.00  0.00     0.165 HD
BRANCH  12  17
ATOM     17  C   UNL A   1      32.468  22.734  26.011  1.00  0.00     0.095 C 
ATOM     18  C   UNL A   1      36.055  23.323  23.975  1.00  0.00     0.332 C 
ATOM     19  N   UNL A   1      35.071  22.540  24.736  1.00  0.00    -0.337 N 
ATOM     20  C   UNL A   1      33.834  22.418  23.947  1.00  0.00     0.264 C 
ATOM     21  C   UNL A   1      34.913  23.117  26.082  1.00  0.00     0.264 C 
ATOM     22  H   UNL A   1      35.388  21.584  24.895  1.00  0.00     0.347 HD
ATOM     23  C   UNL A   1      32.632  21.909  24.740  1.00  0.00     0.086 C 
ATOM     24  C   UNL A   1      33.713  22.575  26.866  1.00  0.00     0.086 C 
ENDBRANCH  12  17
ENDBRANCH   7  11
ENDBRANCH   4   6
ENDBRANCH   3   4
ENDBRANCH   2   3
ENDBRANCH   1   2
BRANCH   1  25
ATOM     25  O   UNL A   1      32.527  29.638  26.367  1.00  0.00    -0.458 OA
BRANCH  25  26
ATOM     26  C   UNL A   1      32.963  30.809  26.875  1.00  0.00     0.338 C 
ATOM     27  O   UNL A   1      32.296  31.815  27.099  1.00  0.00    -0.246 OA
BRANCH  26  28
ATOM     28  C   UNL A   1      34.369  30.694  27.278  1.00  0.00     0.060 A 
ATOM     29  C   UNL A   1      34.901  29.421  27.439  1.00  0.00     0.016 A 
ATOM     30  C   UNL A   1      35.084  31.805  27.712  1.00  0.00     0.016 A 
ATOM     31  C   UNL A   1      36.047  29.235  28.196  1.00  0.00     0.010 A 
ATOM     32  C   UNL A   1      36.335  31.619  28.315  1.00  0.00     0.010 A 
ATOM     33  C   UNL A   1      36.809  30.328  28.618  1.00  0.00    -0.014 A 
BRANCH  33  34
ATOM     34  C   UNL A   1      38.067  30.112  29.394  1.00  0.00     0.031 A 
ATOM     35  C   UNL A   1      39.180  29.278  28.811  1.00  0.00     0.074 A 
ATOM     36  C   UNL A   1      38.225  30.657  30.619  1.00  0.00     0.049 A 
ATOM     37  N   UNL A   1      40.207  28.740  29.414  1.00  0.00    -0.248 NA
ATOM     38  C   UNL A   1      39.120  28.988  27.367  1.00  0.00     0.031 C 
ATOM     39  C   UNL A   1      37.257  31.520  31.303  1.00  0.00     0.029 A 
ATOM     40  N   UNL A   1      39.262  30.562  31.519  1.00  0.00    -0.354 N 
ATOM     41  C   UNL A   1      40.837  27.949  28.461  1.00  0.00     0.074 A 
ATOM     42  C   UNL A   1      40.108  28.115  27.223  1.00  0.00     0.031 C 
ATOM     43  C   UNL A   1      37.760  31.914  32.478  1.00  0.00     0.029 A 
ATOM     44  C   UNL A   1      39.016  31.217  32.705  1.00  0.00     0.049 A 
ATOM     45  H   UNL A   1      40.096  30.075  31.333  1.00  0.00     0.167 HD
ATOM     46  C   UNL A   1      41.919  27.149  28.613  1.00  0.00     0.034 A 
ATOM     47  C   UNL A   1      39.672  31.198  33.882  1.00  0.00     0.034 A 
ATOM     48  C   UNL A   1      42.706  27.084  29.816  1.00  0.00     0.049 A 
ATOM     49  C   UNL A   1      40.890  30.333  34.013  1.00  0.00     0.074 A 
ATOM     50  C   UNL A   1      43.850  26.346  30.055  1.00  0.00     0.029 A 
ATOM     51  N   UNL A   1      42.442  27.802  30.972  1.00  0.00    -0.354 N 
ATOM     52  N   UNL A   1      41.467  29.582  33.107  1.00  0.00    -0.248 NA
ATOM     53  C   UNL A   1      41.544  30.304  35.328  1.00  0.00     0.031 C 
ATOM     54  C   UNL A   1      44.274  26.609  31.362  1.00  0.00     0.029 A 
ATOM     55  C   UNL A   1      43.402  27.525  31.929  1.00  0.00     0.049 A 
ATOM     56  H   UNL A   1      41.684  28.419  31.093  1.00  0.00     0.167 HD
ATOM     57  C   UNL A   1      42.554  28.995  33.739  1.00  0.00     0.074 A 
ATOM     58  C   UNL A   1      42.578  29.508  35.094  1.00  0.00     0.031 C 
ATOM     59  C   UNL A   1      43.436  28.087  33.253  1.00  0.00     0.034 A 
BRANCH  46  60
ATOM     60  C   UNL A   1      42.322  26.269  27.459  1.00  0.00     0.023 A 
ATOM     61  C   UNL A   1      43.194  26.751  26.464  1.00  0.00     0.012 A 
ATOM     62  C   UNL A   1      41.889  24.928  27.410  1.00  0.00     0.148 A 
ATOM     63  C   UNL A   1      43.612  25.917  25.426  1.00  0.00     0.002 A 
ATOM     64  C   UNL A   1      42.342  24.092  26.397  1.00  0.00     0.091 A 
ATOM     65  F   UNL A   1      41.041  24.496  28.355  1.00  0.00    -0.205 F 
ATOM     66  C   UNL A   1      43.196  24.587  25.399  1.00  0.00     0.022 A 
BRANCH  64  67
ATOM     67  S   UNL A   1      41.924  22.346  26.323  1.00  0.00     0.127 S 
ATOM     68  O   UNL A   1      42.633  21.924  25.115  1.00  0.00    -0.237 OA
ATOM     69  O   UNL A   1      42.493  21.839  27.571  1.00  0.00    -0.237 OA
ATOM     70  O   UNL A   1      40.471  22.283  26.249  1.00  0.00    -0.744 OA
ENDBRANCH  64  67
ENDBRANCH  46  60
BRANCH  47  71
ATOM     71  C   UNL A   1      39.151  31.990  35.035  1.00  0.00     0.023 A 
ATOM     72  C   UNL A   1      38.236  31.403  35.927  1.00  0.00     0.012 A 
ATOM     73  C   UNL A   1      39.605  33.301  35.285  1.00  0.00     0.148 A 
ATOM     74  C   UNL A   1      37.775  32.110  37.040  1.00  0.00     0.002 A 
ATOM     75  C   UNL A   1      39.203  33.969  36.434  1.00  0.00     0.091 A 
ATOM     76  F   UNL A   1      40.449  33.863  34.408  1.00  0.00    -0.205 F 
ATOM     77  C   UNL A   1      38.273  33.384  37.304  1.00  0.00     0.022 A 
BRANCH  75  78
ATOM     78  S   UNL A   1      39.949  35.529  36.924  1.00  0.00     0.127 S 
ATOM     79  O   UNL A   1      39.281  35.797  38.195  1.00  0.00    -0.237 OA
ATOM     80  O   UNL A   1      41.365  35.175  37.036  1.00  0.00    -0.237 OA
ATOM     81  O   UNL A   1      39.654  36.450  35.835  1.00  0.00    -0.744 OA
ENDBRANCH  75  78
ENDBRANCH  47  71
BRANCH  59  82
ATOM     82  C   UNL A   1      44.514  27.610  34.185  1.00  0.00     0.023 A 
ATOM     83  C   UNL A   1      45.728  28.319  34.264  1.00  0.00     0.012 A 
ATOM     84  C   UNL A   1      44.298  26.503  35.027  1.00  0.00     0.148 A 
ATOM     85  C   UNL A   1      46.724  27.915  35.151  1.00  0.00     0.002 A 
ATOM     86  C   UNL A   1      45.278  26.133  35.939  1.00  0.00     0.091 A 
ATOM     87  F   UNL A   1      43.143  25.830  34.916  1.00  0.00    -0.205 F 
ATOM     88  C   UNL A   1      46.496  26.831  35.995  1.00  0.00     0.022 A 
BRANCH  86  89
ATOM     89  S   UNL A   1      45.030  24.807  37.123  1.00  0.00     0.127 S 
ATOM     90  O   UNL A   1      44.791  23.664  36.245  1.00  0.00    -0.237 OA
ATOM     91  O   UNL A   1      46.311  24.775  37.830  1.00  0.00    -0.237 OA
ATOM     92  O   UNL A   1      43.900  25.213  37.946  1.00  0.00    -0.744 OA
ENDBRANCH  86  89
ENDBRANCH  59  82
ENDBRANCH  33  34
ENDBRANCH  26  28
ENDBRANCH  25  26
ENDBRANCH   1  25
TORSDOF 16
ENDMDL
MODEL 2
REMARK VINA RESULT:     -12.0      1.158      1.764
REMARK SMILES C[NH+]1CCC(NC(=O)N[C@H]2C=C[C@H](C(=O)OCCOC(=O)c3ccc(-c4c5nc(c(-c6cccc(S(=O)(=O)[O-])c6F)c6ccc([nH]6)c(-c6cccc(S(=O)(=O)[O-])c6F)c6nc(c(-c7cccc(S(=O)(=O)[O-])c7F)c7ccc4[nH]7)C=C6)C=C5)cc3)C2)CC1
REMARK SMILES IDX 18 1 17 2 16 3 14 4 15 5 13 6 10 7 11 8 85 9 12 10 9 11 6 12
REMARK SMILES IDX 7 13 8 15 5 17 1 18 2 19 3 20 87 21 4 23 86 24 19 25 20 26
REMARK SMILES IDX 21 27 22 28 23 29 84 30 24 31 83 32 25 33 26 34 27 35 77 36
REMARK SMILES IDX 28 37 82 38 76 39 78 40 29 41 81 42 75 43 74 44 30 46 62 47
REMARK SMILES IDX 42 48 61 49 43 50 46 51 60 52 79 53 44 54 45 55 59 57 80 58
REMARK SMILES IDX 47 59 31 60 32 61 40 62 33 63 35 64 41 65 34 66 36 67 37 68
REMARK SMILES IDX 38 69 39 70 63 71 64 72 72 73 65 74 67 75 73 76 66 77 68 78
REMARK SMILES IDX 69 79 70 80 71 81 48 82 49 83 57 84 50 85 52 86 58 87 51 88
REMARK SMILES IDX 53 89 54 90 55 91 56 92
REMARK H PARENT 6 14 9 16 2 22 78 45 46 56
REMARK Flexibility Score: inf
ROOT
ATOM      1  C   UNL A   1      31.824  30.024  25.426  1.00  0.00     0.275 C 
ENDROOT
BRANCH   1   2
ATOM      2  C   UNL A   1      31.717  28.574  24.967  1.00  0.00     0.274 C 
BRANCH   2   3
ATOM      3  O   UNL A   1      32.575  27.726  25.758  1.00  0.00    -0.462 OA
BRANCH   3   4
ATOM      4  C   UNL A   1      31.946  26.807  26.551  1.00  0.00     0.312 C 
ATOM      5  O   UNL A   1      31.361  27.063  27.591  1.00  0.00    -0.252 OA
BRANCH   4   6
ATOM      6  C   UNL A   1      32.194  25.406  26.011  1.00  0.00     0.124 C 
ATOM      7  C   UNL A   1      32.573  23.140  26.914  1.00  0.00     0.107 C 
ATOM      8  C   UNL A   1      33.830  23.751  26.402  1.00  0.00    -0.006 C 
ATOM      9  C   UNL A   1      31.498  24.224  26.724  1.00  0.00     0.048 C 
ATOM     10  C   UNL A   1      33.639  25.002  25.968  1.00  0.00    -0.014 C 
BRANCH   7  11
ATOM     11  N   UNL A   1      32.368  21.792  26.395  1.00  0.00    -0.332 N 
ATOM     12  N   UNL A   1      32.238  21.571  24.024  1.00  0.00    -0.335 N 
ATOM     13  C   UNL A   1      32.271  21.085  25.269  1.00  0.00     0.315 C 
ATOM     14  H   UNL A   1      32.260  20.880  23.324  1.00  0.00     0.165 HD
ATOM     15  O   UNL A   1      32.203  19.857  25.383  1.00  0.00    -0.249 OA
ATOM     16  H   UNL A   1      32.260  21.179  27.157  1.00  0.00     0.165 HD
BRANCH  12  17
ATOM     17  C   UNL A   1      32.176  22.914  23.518  1.00  0.00     0.095 C 
ATOM     18  C   UNL A   1      31.828  26.753  21.934  1.00  0.00     0.332 C 
ATOM     19  N   UNL A   1      31.686  25.289  21.918  1.00  0.00    -0.337 N 
ATOM     20  C   UNL A   1      30.743  24.881  22.971  1.00  0.00     0.264 C 
ATOM     21  C   UNL A   1      33.018  24.663  21.979  1.00  0.00     0.264 C 
ATOM     22  H   UNL A   1      31.279  24.957  21.044  1.00  0.00     0.347 HD
ATOM     23  C   UNL A   1      30.747  23.384  23.273  1.00  0.00     0.086 C 
ATOM     24  C   UNL A   1      32.996  23.156  22.262  1.00  0.00     0.086 C 
ENDBRANCH  12  17
ENDBRANCH   7  11
ENDBRANCH   4   6
ENDBRANCH   3   4
ENDBRANCH   2   3
ENDBRANCH   1   2
BRANCH   1  25
ATOM     25  O   UNL A   1      32.368  30.060  26.756  1.00  0.00    -0.458 OA
BRANCH  25  26
ATOM     26  C   UNL A   1      32.928  31.232  27.119  1.00  0.00     0.338 C 
ATOM     27  O   UNL A   1      32.364  32.313  27.257  1.00  0.00    -0.246 OA
BRANCH  26  28
ATOM     28  C   UNL A   1      34.335  31.029  27.483  1.00  0.00     0.060 A 
ATOM     29  C   UNL A   1      34.759  29.737  27.761  1.00  0.00     0.016 A 
ATOM     30  C   UNL A   1      35.164  32.108  27.770  1.00  0.00     0.016 A 
ATOM     31  C   UNL A   1      35.917  29.524  28.493  1.00  0.00     0.010 A 
ATOM     32  C   UNL A   1      36.419  31.871  28.346  1.00  0.00     0.010 A 
ATOM     33  C   UNL A   1      36.790  30.580  28.769  1.00  0.00    -0.014 A 
BRANCH  33  34
ATOM     34  C   UNL A   1      38.058  30.330  29.519  1.00  0.00     0.031 A 
ATOM     35  C   UNL A   1      39.145  29.485  28.905  1.00  0.00     0.074 A 
ATOM     36  C   UNL A   1      38.247  30.854  30.749  1.00  0.00     0.049 A 
ATOM     37  N   UNL A   1      40.172  28.919  29.482  1.00  0.00    -0.248 NA
ATOM     38  C   UNL A   1      39.054  29.217  27.458  1.00  0.00     0.031 C 
ATOM     39  C   UNL A   1      37.307  31.723  31.462  1.00  0.00     0.029 A 
ATOM     40  N   UNL A   1      39.297  30.727  31.629  1.00  0.00    -0.354 N 
ATOM     41  C   UNL A   1      40.771  28.131  28.506  1.00  0.00     0.074 A 
ATOM     42  C   UNL A   1      40.023  28.329  27.284  1.00  0.00     0.031 C 
ATOM     43  C   UNL A   1      37.837  32.091  32.634  1.00  0.00     0.029 A 
ATOM     44  C   UNL A   1      39.084  31.368  32.829  1.00  0.00     0.049 A 
ATOM     45  H   UNL A   1      40.119  30.227  31.422  1.00  0.00     0.167 HD
ATOM     46  C   UNL A   1      41.840  27.310  28.627  1.00  0.00     0.034 A 
ATOM     47  C   UNL A   1      39.760  31.320  33.993  1.00  0.00     0.034 A 
ATOM     48  C   UNL A   1      42.647  27.213  29.815  1.00  0.00     0.049 A 
ATOM     49  C   UNL A   1      40.964  30.431  34.091  1.00  0.00     0.074 A 
ATOM     50  C   UNL A   1      43.782  26.451  30.023  1.00  0.00     0.029 A 
ATOM     51  N   UNL A   1      42.416  27.919  30.986  1.00  0.00    -0.354 N 
ATOM     52  N   UNL A   1      41.511  29.684  33.163  1.00  0.00    -0.248 NA
ATOM     53  C   UNL A   1      41.640  30.371  35.393  1.00  0.00     0.031 C 
ATOM     54  C   UNL A   1      44.233  26.687  31.326  1.00  0.00     0.029 A 
ATOM     55  C   UNL A   1      43.388  27.610  31.922  1.00  0.00     0.049 A 
ATOM     56  H   UNL A   1      41.672  28.547  31.130  1.00  0.00     0.167 HD
ATOM     57  C   UNL A   1      42.598  29.068  33.768  1.00  0.00     0.074 A 
ATOM     58  C   UNL A   1      42.655  29.560  35.129  1.00  0.00     0.031 C 
ATOM     59  C   UNL A   1      43.454  28.152  33.253  1.00  0.00     0.034 A 
BRANCH  46  60
ATOM     60  C   UNL A   1      42.207  26.440  27.454  1.00  0.00     0.023 A 
ATOM     61  C   UNL A   1      43.012  26.945  26.415  1.00  0.00     0.012 A 
ATOM     62  C   UNL A   1      41.810  25.087  27.428  1.00  0.00     0.148 A 
ATOM     63  C   UNL A   1      43.399  26.122  25.356  1.00  0.00     0.002 A 
ATOM     64  C   UNL A   1      42.233  24.263  26.392  1.00  0.00     0.091 A 
ATOM     65  F   UNL A   1      41.025  24.633  28.415  1.00  0.00    -0.205 F 
ATOM     66  C   UNL A   1      43.020  24.781  25.351  1.00  0.00     0.022 A 
BRANCH  64  67
ATOM     67  S   UNL A   1      41.860  22.506  26.339  1.00  0.00     0.127 S 
ATOM     68  O   UNL A   1      42.561  22.093  25.123  1.00  0.00    -0.237 OA
ATOM     69  O   UNL A   1      42.463  22.025  27.582  1.00  0.00    -0.237 OA
ATOM     70  O   UNL A   1      40.409  22.404  26.289  1.00  0.00    -0.744 OA
ENDBRANCH  64  67
ENDBRANCH  46  60
BRANCH  47  71
ATOM     71  C   UNL A   1      39.273  32.103  35.167  1.00  0.00     0.023 A 
ATOM     72  C   UNL A   1      38.438  31.490  36.118  1.00  0.00     0.012 A 
ATOM     73  C   UNL A   1      39.684  33.436  35.376  1.00  0.00     0.148 A 
ATOM     74  C   UNL A   1      38.014  32.191  37.248  1.00  0.00     0.002 A 
ATOM     75  C   UNL A   1      39.321  34.102  36.540  1.00  0.00     0.091 A 
ATOM     76  F   UNL A   1      40.449  34.022  34.444  1.00  0.00    -0.205 F 
ATOM     77  C   UNL A   1      38.471  33.488  37.469  1.00  0.00     0.022 A 
BRANCH  75  78
ATOM     78  S   UNL A   1      40.026  35.698  36.968  1.00  0.00     0.127 S 
ATOM     79  O   UNL A   1      39.373  35.984  38.242  1.00  0.00    -0.237 OA
ATOM     80  O   UNL A   1      41.455  35.392  37.064  1.00  0.00    -0.237 OA
ATOM     81  O   UNL A   1      39.683  36.576  35.857  1.00  0.00    -0.744 OA
ENDBRANCH  75  78
ENDBRANCH  47  71
BRANCH  59  82
ATOM     82  C   UNL A   1      44.540  27.641  34.159  1.00  0.00     0.023 A 
ATOM     83  C   UNL A   1      45.771  28.322  34.220  1.00  0.00     0.012 A 
ATOM     84  C   UNL A   1      44.316  26.531  34.995  1.00  0.00     0.148 A 
ATOM     85  C   UNL A   1      46.775  27.887  35.083  1.00  0.00     0.002 A 
ATOM     86  C   UNL A   1      45.305  26.130  35.883  1.00  0.00     0.091 A 
ATOM     87  F   UNL A   1      43.144  25.886  34.901  1.00  0.00    -0.205 F 
ATOM     88  C   UNL A   1      46.539  26.800  35.922  1.00  0.00     0.022 A 
BRANCH  86  89
ATOM     89  S   UNL A   1      45.051  24.799  37.060  1.00  0.00     0.127 S 
ATOM     90  O   UNL A   1      44.989  23.633  36.182  1.00  0.00    -0.237 OA
ATOM     91  O   UNL A   1      46.256  24.878  37.886  1.00  0.00    -0.237 OA
ATOM     92  O   UNL A   1      43.817  25.120  37.765  1.00  0.00    -0.744 OA
ENDBRANCH  86  89
ENDBRANCH  59  82
ENDBRANCH  33  34
ENDBRANCH  26  28
ENDBRANCH  25  26
ENDBRANCH   1  25
TORSDOF 16
ENDMDL
MODEL 3
REMARK VINA RESULT:     -12.0      4.884      9.764
REMARK SMILES C[NH+]1CCC(NC(=O)N[C@H]2C=C[C@H](C(=O)OCCOC(=O)c3ccc(-c4c5nc(c(-c6cccc(S(=O)(=O)[O-])c6F)c6ccc([nH]6)c(-c6cccc(S(=O)(=O)[O-])c6F)c6nc(c(-c7cccc(S(=O)(=O)[O-])c7F)c7ccc4[nH]7)C=C6)C=C5)cc3)C2)CC1
REMARK SMILES IDX 18 1 17 2 16 3 14 4 15 5 13 6 10 7 11 8 85 9 12 10 9 11 6 12
REMARK SMILES IDX 7 13 8 15 5 17 1 18 2 19 3 20 87 21 4 23 86 24 19 25 20 26
REMARK SMILES IDX 21 27 22 28 23 29 84 30 24 31 83 32 25 33 26 34 27 35 77 36
REMARK SMILES IDX 28 37 82 38 76 39 78 40 29 41 81 42 75 43 74 44 30 46 62 47
REMARK SMILES IDX 42 48 61 49 43 50 46 51 60 52 79 53 44 54 45 55 59 57 80 58
REMARK SMILES IDX 47 59 31 60 32 61 40 62 33 63 35 64 41 65 34 66 36 67 37 68
REMARK SMILES IDX 38 69 39 70 63 71 64 72 72 73 65 74 67 75 73 76 66 77 68 78
REMARK SMILES IDX 69 79 70 80 71 81 48 82 49 83 57 84 50 85 52 86 58 87 51 88
REMARK SMILES IDX 53 89 54 90 55 91 56 92
REMARK H PARENT 6 14 9 16 2 22 78 45 46 56
REMARK Flexibility Score: inf
ROOT
ATOM      1  C   UNL A   1      35.992  21.051  25.386  1.00  0.00     0.275 C 
ENDROOT
BRANCH   1   2
ATOM      2  C   UNL A   1      34.823  21.662  24.619  1.00  0.00     0.274 C 
BRANCH   2   3
ATOM      3  O   UNL A   1      34.811  23.096  24.769  1.00  0.00    -0.462 OA
BRANCH   3   4
ATOM      4  C   UNL A   1      34.888  23.822  23.613  1.00  0.00     0.312 C 
ATOM      5  O   UNL A   1      35.766  23.709  22.772  1.00  0.00    -0.252 OA
BRANCH   4   6
ATOM      6  C   UNL A   1      33.792  24.877  23.595  1.00  0.00     0.124 C 
ATOM      7  C   UNL A   1      33.365  27.050  22.503  1.00  0.00     0.107 C 
ATOM      8  C   UNL A   1      33.742  27.212  23.934  1.00  0.00    -0.006 C 
ATOM      9  C   UNL A   1      33.447  25.536  22.240  1.00  0.00     0.048 C 
ATOM     10  C   UNL A   1      34.033  26.042  24.512  1.00  0.00    -0.014 C 
BRANCH   7  11
ATOM     11  N   UNL A   1      32.158  27.797  22.166  1.00  0.00    -0.332 N 
ATOM     12  N   UNL A   1      30.163  27.176  23.315  1.00  0.00    -0.335 N 
ATOM     13  C   UNL A   1      30.869  27.938  22.474  1.00  0.00     0.315 C 
ATOM     14  H   UNL A   1      29.250  27.502  23.480  1.00  0.00     0.165 HD
ATOM     15  O   UNL A   1      30.261  28.866  21.929  1.00  0.00    -0.249 OA
ATOM     16  H   UNL A   1      32.377  28.430  21.444  1.00  0.00     0.165 HD
BRANCH  12  17
ATOM     17  C   UNL A   1      30.490  25.969  24.022  1.00  0.00     0.095 C 
ATOM     18  C   UNL A   1      31.267  22.377  25.986  1.00  0.00     0.332 C 
ATOM     19  N   UNL A   1      30.406  23.391  25.358  1.00  0.00    -0.337 N 
ATOM     20  C   UNL A   1      30.736  23.488  23.927  1.00  0.00     0.264 C 
ATOM     21  C   UNL A   1      30.490  24.650  26.119  1.00  0.00     0.264 C 
ATOM     22  H   UNL A   1      29.421  23.127  25.394  1.00  0.00     0.347 HD
ATOM     23  C   UNL A   1      30.148  24.713  23.230  1.00  0.00     0.086 C 
ATOM     24  C   UNL A   1      29.875  25.860  25.407  1.00  0.00     0.086 C 
ENDBRANCH  12  17
ENDBRANCH   7  11
ENDBRANCH   4   6
ENDBRANCH   3   4
ENDBRANCH   2   3
ENDBRANCH   1   2
BRANCH   1  25
ATOM     25  O   UNL A   1      37.220  21.628  24.914  1.00  0.00    -0.458 OA
BRANCH  25  26
ATOM     26  C   UNL A   1      38.337  21.194  25.533  1.00  0.00     0.338 C 
ATOM     27  O   UNL A   1      38.891  20.108  25.391  1.00  0.00    -0.246 OA
BRANCH  26  28
ATOM     28  C   UNL A   1      38.924  22.275  26.333  1.00  0.00     0.060 A 
ATOM     29  C   UNL A   1      38.462  23.568  26.125  1.00  0.00     0.016 A 
ATOM     30  C   UNL A   1      40.062  22.061  27.103  1.00  0.00     0.016 A 
ATOM     31  C   UNL A   1      39.228  24.654  26.518  1.00  0.00     0.010 A 
ATOM     32  C   UNL A   1      40.732  23.162  27.653  1.00  0.00     0.010 A 
ATOM     33  C   UNL A   1      40.358  24.478  27.321  1.00  0.00    -0.014 A 
BRANCH  33  34
ATOM     34  C   UNL A   1      41.148  25.661  27.776  1.00  0.00     0.031 A 
ATOM     35  C   UNL A   1      40.504  26.713  28.643  1.00  0.00     0.074 A 
ATOM     36  C   UNL A   1      42.443  25.804  27.420  1.00  0.00     0.049 A 
ATOM     37  N   UNL A   1      40.910  27.927  28.902  1.00  0.00    -0.248 NA
ATOM     38  C   UNL A   1      39.222  26.365  29.283  1.00  0.00     0.031 C 
ATOM     39  C   UNL A   1      43.220  24.855  26.618  1.00  0.00     0.029 A 
ATOM     40  N   UNL A   1      43.341  26.813  27.682  1.00  0.00    -0.354 N 
ATOM     41  C   UNL A   1      39.882  28.528  29.620  1.00  0.00     0.074 A 
ATOM     42  C   UNL A   1      38.852  27.529  29.802  1.00  0.00     0.031 C 
ATOM     43  C   UNL A   1      44.478  25.294  26.498  1.00  0.00     0.029 A 
ATOM     44  C   UNL A   1      44.566  26.623  27.080  1.00  0.00     0.049 A 
ATOM     45  H   UNL A   1      43.131  27.593  28.244  1.00  0.00     0.167 HD
ATOM     46  C   UNL A   1      39.806  29.800  30.075  1.00  0.00     0.034 A 
ATOM     47  C   UNL A   1      45.618  27.451  26.928  1.00  0.00     0.034 A 
ATOM     48  C   UNL A   1      40.885  30.748  29.992  1.00  0.00     0.049 A 
ATOM     49  C   UNL A   1      45.522  28.844  27.474  1.00  0.00     0.074 A 
ATOM     50  C   UNL A   1      40.927  32.046  30.468  1.00  0.00     0.029 A 
ATOM     51  N   UNL A   1      42.119  30.492  29.415  1.00  0.00    -0.354 N 
ATOM     52  N   UNL A   1      44.541  29.401  28.141  1.00  0.00    -0.248 NA
ATOM     53  C   UNL A   1      46.673  29.728  27.242  1.00  0.00     0.031 C 
ATOM     54  C   UNL A   1      42.186  32.579  30.170  1.00  0.00     0.029 A 
ATOM     55  C   UNL A   1      42.932  31.607  29.523  1.00  0.00     0.049 A 
ATOM     56  H   UNL A   1      42.379  29.642  28.993  1.00  0.00     0.167 HD
ATOM     57  C   UNL A   1      44.955  30.697  28.412  1.00  0.00     0.074 A 
ATOM     58  C   UNL A   1      46.293  30.831  27.872  1.00  0.00     0.031 C 
ATOM     59  C   UNL A   1      44.278  31.699  29.025  1.00  0.00     0.034 A 
BRANCH  46  60
ATOM     60  C   UNL A   1      38.513  30.257  30.698  1.00  0.00     0.023 A 
ATOM     61  C   UNL A   1      38.275  30.061  32.072  1.00  0.00     0.012 A 
ATOM     62  C   UNL A   1      37.564  30.956  29.923  1.00  0.00     0.148 A 
ATOM     63  C   UNL A   1      37.101  30.536  32.661  1.00  0.00     0.002 A 
ATOM     64  C   UNL A   1      36.418  31.461  30.525  1.00  0.00     0.091 A 
ATOM     65  F   UNL A   1      37.800  31.111  28.613  1.00  0.00    -0.205 F 
ATOM     66  C   UNL A   1      36.181  31.244  31.891  1.00  0.00     0.022 A 
BRANCH  64  67
ATOM     67  S   UNL A   1      35.213  32.452  29.633  1.00  0.00     0.127 S 
ATOM     68  O   UNL A   1      36.059  33.500  29.061  1.00  0.00    -0.237 OA
ATOM     69  O   UNL A   1      34.686  31.496  28.660  1.00  0.00    -0.237 OA
ATOM     70  O   UNL A   1      34.248  32.902  30.626  1.00  0.00    -0.744 OA
ENDBRANCH  64  67
ENDBRANCH  46  60
BRANCH  47  71
ATOM     71  C   UNL A   1      46.825  26.987  26.184  1.00  0.00     0.023 A 
ATOM     72  C   UNL A   1      46.931  27.233  24.803  1.00  0.00     0.012 A 
ATOM     73  C   UNL A   1      47.897  26.357  26.850  1.00  0.00     0.148 A 
ATOM     74  C   UNL A   1      48.075  26.851  24.099  1.00  0.00     0.002 A 
ATOM     75  C   UNL A   1      49.062  26.051  26.160  1.00  0.00     0.091 A 
ATOM     76  F   UNL A   1      47.770  26.095  28.159  1.00  0.00    -0.205 F 
ATOM     77  C   UNL A   1      49.147  26.279  24.780  1.00  0.00     0.022 A 
BRANCH  75  78
ATOM     78  S   UNL A   1      50.540  25.487  27.013  1.00  0.00     0.127 S 
ATOM     79  O   UNL A   1      50.068  24.265  27.658  1.00  0.00    -0.237 OA
ATOM     80  O   UNL A   1      51.477  25.278  25.907  1.00  0.00    -0.237 OA
ATOM     81  O   UNL A   1      50.908  26.583  27.900  1.00  0.00    -0.744 OA
ENDBRANCH  75  78
ENDBRANCH  47  71
BRANCH  59  82
ATOM     82  C   UNL A   1      44.983  33.020  29.165  1.00  0.00     0.023 A 
ATOM     83  C   UNL A   1      45.782  33.264  30.299  1.00  0.00     0.012 A 
ATOM     84  C   UNL A   1      44.908  33.986  28.145  1.00  0.00     0.148 A 
ATOM     85  C   UNL A   1      46.474  34.466  30.428  1.00  0.00     0.002 A 
ATOM     86  C   UNL A   1      45.636  35.163  28.260  1.00  0.00     0.091 A 
ATOM     87  F   UNL A   1      44.123  33.739  27.086  1.00  0.00    -0.205 F 
ATOM     88  C   UNL A   1      46.411  35.410  29.405  1.00  0.00     0.022 A 
BRANCH  86  89
ATOM     89  S   UNL A   1      45.683  36.390  26.951  1.00  0.00     0.127 S 
ATOM     90  O   UNL A   1      44.288  36.820  26.896  1.00  0.00    -0.237 OA
ATOM     91  O   UNL A   1      46.608  37.388  27.490  1.00  0.00    -0.237 OA
ATOM     92  O   UNL A   1      46.172  35.694  25.769  1.00  0.00    -0.744 OA
ENDBRANCH  86  89
ENDBRANCH  59  82
ENDBRANCH  33  34
ENDBRANCH  26  28
ENDBRANCH  25  26
ENDBRANCH   1  25
TORSDOF 16
ENDMDL
