MODEL 1
REMARK VINA RESULT:      -9.4      0.000      0.000
REMARK SMILES COc1ccc([C@H]2CC(c3ccc(S(C)(=O)=O)cc3)=NN2c2ccc(C(=O)OCCOC(=O)c3ccc(-c4c5nc(c(-c6cccc(S(=O)(=O)[O-])c6F)c6ccc([nH]6)c(-c6cccc(S(=O)(=O)[O-])c6F)c6nc(c(-c7cccc(S(=O)(=O)[O-])c7F)c7ccc4[nH]7)C=C6)C=C5)cc3)cc2)cc1OC
REMARK SMILES IDX 29 1 28 2 26 3 27 4 25 5 22 6 23 7 98 8 24 9 97 10 21 11
REMARK SMILES IDX 7 12 8 13 9 14 20 15 6 16 3 17 4 18 100 19 5 20 99 21 2 22
REMARK SMILES IDX 1 23 101 24 102 25 10 26 11 27 19 28 12 29 18 30 13 31 14 32
REMARK SMILES IDX 15 33 16 34 17 35 30 36 31 37 32 38 33 39 34 40 35 41 96 42
REMARK SMILES IDX 36 43 95 44 37 45 38 46 39 47 89 48 40 49 94 50 88 51 90 52
REMARK SMILES IDX 41 53 93 54 87 55 86 56 42 58 74 59 54 60 73 61 55 62 58 63
REMARK SMILES IDX 72 64 91 65 56 66 57 67 71 69 92 70 59 71 43 72 44 73 52 74
REMARK SMILES IDX 45 75 47 76 53 77 46 78 48 79 49 80 50 81 51 82 75 83 76 84
REMARK SMILES IDX 84 85 77 86 79 87 85 88 78 89 80 90 81 91 82 92 83 93 60 94
REMARK SMILES IDX 61 95 69 96 62 97 64 98 70 99 63 100 65 101 66 102 67 103
REMARK SMILES IDX 68 104
REMARK H PARENT 90 57 58 68
REMARK Flexibility Score: inf
ROOT
ATOM      1  C   UNL A   1      34.527  33.091  30.164  1.00  0.00     0.275 C 
ENDROOT
BRANCH   1   2
ATOM      2  O   UNL A   1      35.300  34.230  30.602  1.00  0.00    -0.458 OA
BRANCH   2   3
ATOM      3  C   UNL A   1      36.596  33.970  30.900  1.00  0.00     0.338 C 
ATOM      4  O   UNL A   1      37.553  34.123  30.155  1.00  0.00    -0.246 OA
BRANCH   3   5
ATOM      5  C   UNL A   1      36.744  33.500  32.295  1.00  0.00     0.060 A 
ATOM      6  C   UNL A   1      37.303  32.802  34.962  1.00  0.00     0.060 A 
ATOM      7  C   UNL A   1      36.697  34.021  34.662  1.00  0.00     0.029 A 
ATOM      8  C   UNL A   1      37.562  31.906  33.914  1.00  0.00     0.029 A 
ATOM      9  C   UNL A   1      36.472  34.386  33.341  1.00  0.00     0.018 A 
ATOM     10  C   UNL A   1      37.260  32.237  32.586  1.00  0.00     0.018 A 
BRANCH   6  11
ATOM     11  N   UNL A   1      37.739  32.545  36.259  1.00  0.00    -0.257 N 
ATOM     12  C   UNL A   1      39.146  32.742  36.646  1.00  0.00     0.144 C 
ATOM     13  C   UNL A   1      39.060  32.854  38.175  1.00  0.00     0.091 C 
ATOM     14  C   UNL A   1      37.569  32.807  38.371  1.00  0.00     0.071 C 
ATOM     15  N   UNL A   1      36.864  32.659  37.295  1.00  0.00    -0.176 NA
BRANCH  12  16
ATOM     16  C   UNL A   1      39.823  33.932  35.971  1.00  0.00    -0.019 A 
ATOM     17  C   UNL A   1      41.225  36.102  34.813  1.00  0.00     0.160 A 
ATOM     18  C   UNL A   1      40.683  36.207  36.100  1.00  0.00     0.051 A 
ATOM     19  C   UNL A   1      41.083  34.911  34.094  1.00  0.00     0.161 A 
ATOM     20  C   UNL A   1      39.986  35.137  36.671  1.00  0.00     0.010 A 
ATOM     21  C   UNL A   1      40.380  33.845  34.683  1.00  0.00     0.056 A 
BRANCH  17  22
ATOM     22  O   UNL A   1      42.009  37.136  34.376  1.00  0.00    -0.493 OA
ATOM     23  C   UNL A   1      43.085  37.421  35.269  1.00  0.00     0.278 C 
ENDBRANCH  17  22
BRANCH  19  24
ATOM     24  O   UNL A   1      41.572  34.590  32.857  1.00  0.00    -0.493 OA
ATOM     25  C   UNL A   1      40.667  34.330  31.797  1.00  0.00     0.278 C 
ENDBRANCH  19  24
ENDBRANCH  12  16
BRANCH  14  26
ATOM     26  C   UNL A   1      36.967  32.826  39.718  1.00  0.00    -0.002 A 
ATOM     27  C   UNL A   1      37.544  33.665  40.682  1.00  0.00     0.011 A 
ATOM     28  C   UNL A   1      35.830  32.075  40.028  1.00  0.00     0.011 A 
ATOM     29  C   UNL A   1      36.962  33.787  41.944  1.00  0.00     0.021 A 
ATOM     30  C   UNL A   1      35.259  32.175  41.302  1.00  0.00     0.021 A 
ATOM     31  C   UNL A   1      35.823  33.039  42.249  1.00  0.00     0.067 A 
BRANCH  31  32
ATOM     32  S   UNL A   1      35.050  33.257  43.836  1.00  0.00     0.175 S 
ATOM     33  C   UNL A   1      36.397  33.528  44.958  1.00  0.00     0.163 C 
ATOM     34  O   UNL A   1      34.272  34.479  43.751  1.00  0.00    -0.224 OA
ATOM     35  O   UNL A   1      34.414  32.002  44.194  1.00  0.00    -0.224 OA
ENDBRANCH  31  32
ENDBRANCH  14  26
ENDBRANCH   6  11
ENDBRANCH   3   5
ENDBRANCH   2   3
ENDBRANCH   1   2
BRANCH   1  36
ATOM     36  C   UNL A   1      34.356  33.069  28.644  1.00  0.00     0.275 C 
BRANCH  36  37
ATOM     37  O   UNL A   1      35.369  32.262  28.018  1.00  0.00    -0.458 OA
BRANCH  37  38
ATOM     38  C   UNL A   1      35.338  30.953  28.355  1.00  0.00     0.338 C 
ATOM     39  O   UNL A   1      34.474  30.140  28.076  1.00  0.00    -0.246 OA
BRANCH  38  40
ATOM     40  C   UNL A   1      36.568  30.570  29.063  1.00  0.00     0.060 A 
ATOM     41  C   UNL A   1      37.745  31.208  28.701  1.00  0.00     0.016 A 
ATOM     42  C   UNL A   1      36.612  29.450  29.886  1.00  0.00     0.016 A 
ATOM     43  C   UNL A   1      38.974  30.631  28.992  1.00  0.00     0.010 A 
ATOM     44  C   UNL A   1      37.855  28.967  30.322  1.00  0.00     0.010 A 
ATOM     45  C   UNL A   1      39.056  29.514  29.833  1.00  0.00    -0.014 A 
BRANCH  45  46
ATOM     46  C   UNL A   1      40.390  28.940  30.191  1.00  0.00     0.031 A 
ATOM     47  C   UNL A   1      41.209  29.529  31.314  1.00  0.00     0.074 A 
ATOM     48  C   UNL A   1      40.881  27.890  29.495  1.00  0.00     0.049 A 
ATOM     49  N   UNL A   1      42.448  29.274  31.654  1.00  0.00    -0.248 NA
ATOM     50  C   UNL A   1      40.565  30.552  32.155  1.00  0.00     0.031 C 
ATOM     51  C   UNL A   1      40.202  27.213  28.386  1.00  0.00     0.029 A 
ATOM     52  N   UNL A   1      42.076  27.216  29.602  1.00  0.00    -0.354 N 
ATOM     53  C   UNL A   1      42.758  30.161  32.680  1.00  0.00     0.074 A 
ATOM     54  C   UNL A   1      41.571  30.952  32.923  1.00  0.00     0.031 C 
ATOM     55  C   UNL A   1      40.974  26.218  27.930  1.00  0.00     0.029 A 
ATOM     56  C   UNL A   1      42.246  26.250  28.636  1.00  0.00     0.049 A 
ATOM     57  H   UNL A   1      42.743  27.407  30.300  1.00  0.00     0.167 HD
ATOM     58  C   UNL A   1      43.922  30.303  33.357  1.00  0.00     0.034 A 
ATOM     59  C   UNL A   1      43.322  25.511  28.300  1.00  0.00     0.034 A 
ATOM     60  C   UNL A   1      45.077  29.464  33.164  1.00  0.00     0.049 A 
ATOM     61  C   UNL A   1      44.593  25.683  29.077  1.00  0.00     0.074 A 
ATOM     62  C   UNL A   1      46.276  29.482  33.857  1.00  0.00     0.029 A 
ATOM     63  N   UNL A   1      45.183  28.464  32.211  1.00  0.00    -0.354 N 
ATOM     64  N   UNL A   1      44.839  26.475  30.091  1.00  0.00    -0.248 NA
ATOM     65  C   UNL A   1      45.732  24.846  28.677  1.00  0.00     0.031 C 
ATOM     66  C   UNL A   1      47.122  28.522  33.293  1.00  0.00     0.029 A 
ATOM     67  C   UNL A   1      46.432  27.871  32.284  1.00  0.00     0.049 A 
ATOM     68  H   UNL A   1      44.474  28.212  31.576  1.00  0.00     0.167 HD
ATOM     69  C   UNL A   1      46.149  26.212  30.469  1.00  0.00     0.074 A 
ATOM     70  C   UNL A   1      46.634  25.166  29.594  1.00  0.00     0.031 C 
ATOM     71  C   UNL A   1      46.888  26.797  31.442  1.00  0.00     0.034 A 
BRANCH  58  72
ATOM     72  C   UNL A   1      44.029  31.407  34.380  1.00  0.00     0.023 A 
ATOM     73  C   UNL A   1      44.318  32.726  33.978  1.00  0.00     0.012 A 
ATOM     74  C   UNL A   1      43.741  31.145  35.737  1.00  0.00     0.148 A 
ATOM     75  C   UNL A   1      44.343  33.762  34.914  1.00  0.00     0.002 A 
ATOM     76  C   UNL A   1      43.720  32.190  36.653  1.00  0.00     0.091 A 
ATOM     77  F   UNL A   1      43.483  29.882  36.102  1.00  0.00    -0.205 F 
ATOM     78  C   UNL A   1      44.032  33.497  36.245  1.00  0.00     0.022 A 
BRANCH  76  79
ATOM     79  S   UNL A   1      43.245  31.967  38.371  1.00  0.00     0.127 S 
ATOM     80  O   UNL A   1      44.269  31.036  38.842  1.00  0.00    -0.237 OA
ATOM     81  O   UNL A   1      43.366  33.325  38.901  1.00  0.00    -0.237 OA
ATOM     82  O   UNL A   1      41.888  31.439  38.351  1.00  0.00    -0.744 OA
ENDBRANCH  76  79
ENDBRANCH  58  72
BRANCH  59  83
ATOM     83  C   UNL A   1      43.247  24.563  27.151  1.00  0.00     0.023 A 
ATOM     84  C   UNL A   1      43.839  24.904  25.920  1.00  0.00     0.012 A 
ATOM     85  C   UNL A   1      42.600  23.316  27.278  1.00  0.00     0.148 A 
ATOM     86  C   UNL A   1      43.756  24.038  24.828  1.00  0.00     0.002 A 
ATOM     87  C   UNL A   1      42.581  22.431  26.208  1.00  0.00     0.091 A 
ATOM     88  F   UNL A   1      42.027  23.014  28.453  1.00  0.00    -0.205 F 
ATOM     89  C   UNL A   1      43.139  22.799  24.975  1.00  0.00     0.022 A 
BRANCH  87  90
ATOM     90  S   UNL A   1      41.939  20.761  26.357  1.00  0.00     0.127 S 
ATOM     91  O   UNL A   1      42.683  20.061  25.313  1.00  0.00    -0.237 OA
ATOM     92  O   UNL A   1      42.321  20.411  27.726  1.00  0.00    -0.237 OA
ATOM     93  O   UNL A   1      40.502  20.872  26.147  1.00  0.00    -0.744 OA
ENDBRANCH  87  90
ENDBRANCH  59  83
BRANCH  71  94
ATOM     94  C   UNL A   1      48.286  26.281  31.655  1.00  0.00     0.023 A 
ATOM     95  C   UNL A   1      48.529  25.253  32.587  1.00  0.00     0.012 A 
ATOM     96  C   UNL A   1      49.354  26.786  30.887  1.00  0.00     0.148 A 
ATOM     97  C   UNL A   1      49.819  24.764  32.781  1.00  0.00     0.002 A 
ATOM     98  C   UNL A   1      50.627  26.255  31.046  1.00  0.00     0.091 A 
ATOM     99  F   UNL A   1      49.106  27.777  30.019  1.00  0.00    -0.205 F 
ATOM    100  C   UNL A   1      50.865  25.255  32.004  1.00  0.00     0.022 A 
BRANCH  98 101
ATOM    101  S   UNL A   1      52.013  26.755  30.018  1.00  0.00     0.127 S 
ATOM    102  O   UNL A   1      51.538  26.394  28.684  1.00  0.00    -0.237 OA
ATOM    103  O   UNL A   1      52.083  28.193  30.273  1.00  0.00    -0.237 OA
ATOM    104  O   UNL A   1      53.163  25.999  30.496  1.00  0.00    -0.744 OA
ENDBRANCH  98 101
ENDBRANCH  71  94
ENDBRANCH  45  46
ENDBRANCH  38  40
ENDBRANCH  37  38
ENDBRANCH  36  37
ENDBRANCH   1  36
TORSDOF 20
ENDMDL
MODEL 2
REMARK VINA RESULT:      -9.2      3.160      5.798
REMARK SMILES COc1ccc([C@H]2CC(c3ccc(S(C)(=O)=O)cc3)=NN2c2ccc(C(=O)OCCOC(=O)c3ccc(-c4c5nc(c(-c6cccc(S(=O)(=O)[O-])c6F)c6ccc([nH]6)c(-c6cccc(S(=O)(=O)[O-])c6F)c6nc(c(-c7cccc(S(=O)(=O)[O-])c7F)c7ccc4[nH]7)C=C6)C=C5)cc3)cc2)cc1OC
REMARK SMILES IDX 29 1 28 2 26 3 27 4 25 5 22 6 23 7 98 8 24 9 97 10 21 11
REMARK SMILES IDX 7 12 8 13 9 14 20 15 6 16 3 17 4 18 100 19 5 20 99 21 2 22
REMARK SMILES IDX 1 23 101 24 102 25 10 26 11 27 19 28 12 29 18 30 13 31 14 32
REMARK SMILES IDX 15 33 16 34 17 35 30 36 31 37 32 38 33 39 34 40 35 41 96 42
REMARK SMILES IDX 36 43 95 44 37 45 38 46 39 47 89 48 40 49 94 50 88 51 90 52
REMARK SMILES IDX 41 53 93 54 87 55 86 56 42 58 74 59 54 60 73 61 55 62 58 63
REMARK SMILES IDX 72 64 91 65 56 66 57 67 71 69 92 70 59 71 43 72 44 73 52 74
REMARK SMILES IDX 45 75 47 76 53 77 46 78 48 79 49 80 50 81 51 82 75 83 76 84
REMARK SMILES IDX 84 85 77 86 79 87 85 88 78 89 80 90 81 91 82 92 83 93 60 94
REMARK SMILES IDX 61 95 69 96 62 97 64 98 70 99 63 100 65 101 66 102 67 103
REMARK SMILES IDX 68 104
REMARK H PARENT 90 57 58 68
REMARK Flexibility Score: inf
ROOT
ATOM      1  C   UNL A   1      34.673  33.581  30.043  1.00  0.00     0.275 C 
ENDROOT
BRANCH   1   2
ATOM      2  O   UNL A   1      34.261  32.745  31.146  1.00  0.00    -0.458 OA
BRANCH   2   3
ATOM      3  C   UNL A   1      34.756  33.100  32.357  1.00  0.00     0.338 C 
ATOM      4  O   UNL A   1      34.156  33.710  33.231  1.00  0.00    -0.246 OA
BRANCH   3   5
ATOM      5  C   UNL A   1      36.143  32.617  32.535  1.00  0.00     0.060 A 
ATOM      6  C   UNL A   1      38.694  31.637  33.198  1.00  0.00     0.060 A 
ATOM      7  C   UNL A   1      37.640  30.757  32.954  1.00  0.00     0.029 A 
ATOM      8  C   UNL A   1      38.471  33.012  33.036  1.00  0.00     0.029 A 
ATOM      9  C   UNL A   1      36.369  31.246  32.680  1.00  0.00     0.018 A 
ATOM     10  C   UNL A   1      37.209  33.506  32.680  1.00  0.00     0.018 A 
BRANCH   6  11
ATOM     11  N   UNL A   1      39.899  31.152  33.699  1.00  0.00    -0.257 N 
ATOM     12  C   UNL A   1      40.445  31.637  34.977  1.00  0.00     0.144 C 
ATOM     13  C   UNL A   1      41.424  30.520  35.368  1.00  0.00     0.091 C 
ATOM     14  C   UNL A   1      41.167  29.530  34.265  1.00  0.00     0.071 C 
ATOM     15  N   UNL A   1      40.304  29.895  33.371  1.00  0.00    -0.176 NA
BRANCH  12  16
ATOM     16  C   UNL A   1      39.390  31.940  36.038  1.00  0.00    -0.019 A 
ATOM     17  C   UNL A   1      37.532  32.414  38.122  1.00  0.00     0.160 A 
ATOM     18  C   UNL A   1      37.577  31.174  37.473  1.00  0.00     0.051 A 
ATOM     19  C   UNL A   1      38.420  33.427  37.747  1.00  0.00     0.161 A 
ATOM     20  C   UNL A   1      38.491  30.940  36.440  1.00  0.00     0.010 A 
ATOM     21  C   UNL A   1      39.333  33.176  36.707  1.00  0.00     0.056 A 
BRANCH  17  22
ATOM     22  O   UNL A   1      36.710  32.523  39.211  1.00  0.00    -0.493 OA
ATOM     23  C   UNL A   1      36.894  31.459  40.143  1.00  0.00     0.278 C 
ENDBRANCH  17  22
BRANCH  19  24
ATOM     24  O   UNL A   1      38.572  34.678  38.279  1.00  0.00    -0.493 OA
ATOM     25  C   UNL A   1      39.873  35.150  38.589  1.00  0.00     0.278 C 
ENDBRANCH  19  24
ENDBRANCH  12  16
BRANCH  14  26
ATOM     26  C   UNL A   1      41.931  28.272  34.165  1.00  0.00    -0.002 A 
ATOM     27  C   UNL A   1      42.845  28.143  33.110  1.00  0.00     0.011 A 
ATOM     28  C   UNL A   1      41.797  27.251  35.109  1.00  0.00     0.011 A 
ATOM     29  C   UNL A   1      43.656  27.011  33.018  1.00  0.00     0.021 A 
ATOM     30  C   UNL A   1      42.590  26.102  35.006  1.00  0.00     0.021 A 
ATOM     31  C   UNL A   1      43.522  25.994  33.966  1.00  0.00     0.067 A 
BRANCH  31  32
ATOM     32  S   UNL A   1      44.610  24.589  33.881  1.00  0.00     0.175 S 
ATOM     33  C   UNL A   1      46.161  25.255  33.336  1.00  0.00     0.163 C 
ATOM     34  O   UNL A   1      44.771  24.109  35.241  1.00  0.00    -0.224 OA
ATOM     35  O   UNL A   1      44.112  23.707  32.843  1.00  0.00    -0.224 OA
ENDBRANCH  31  32
ENDBRANCH  14  26
ENDBRANCH   6  11
ENDBRANCH   3   5
ENDBRANCH   2   3
ENDBRANCH   1   2
BRANCH   1  36
ATOM     36  C   UNL A   1      34.633  32.828  28.711  1.00  0.00     0.275 C 
BRANCH  36  37
ATOM     37  O   UNL A   1      34.329  31.435  28.910  1.00  0.00    -0.458 OA
BRANCH  37  38
ATOM     38  C   UNL A   1      34.651  30.632  27.872  1.00  0.00     0.338 C 
ATOM     39  O   UNL A   1      34.013  30.460  26.847  1.00  0.00    -0.246 OA
BRANCH  38  40
ATOM     40  C   UNL A   1      35.968  30.015  28.081  1.00  0.00     0.060 A 
ATOM     41  C   UNL A   1      36.263  29.544  29.351  1.00  0.00     0.016 A 
ATOM     42  C   UNL A   1      36.976  30.115  27.128  1.00  0.00     0.016 A 
ATOM     43  C   UNL A   1      37.583  29.351  29.740  1.00  0.00     0.010 A 
ATOM     44  C   UNL A   1      38.286  29.753  27.474  1.00  0.00     0.010 A 
ATOM     45  C   UNL A   1      38.620  29.423  28.802  1.00  0.00    -0.014 A 
BRANCH  45  46
ATOM     46  C   UNL A   1      40.030  29.151  29.218  1.00  0.00     0.031 A 
ATOM     47  C   UNL A   1      40.879  30.238  29.833  1.00  0.00     0.074 A 
ATOM     48  C   UNL A   1      40.564  27.923  29.029  1.00  0.00     0.049 A 
ATOM     49  N   UNL A   1      42.161  30.234  30.098  1.00  0.00    -0.248 NA
ATOM     50  C   UNL A   1      40.208  31.503  30.180  1.00  0.00     0.031 C 
ATOM     51  C   UNL A   1      39.865  26.772  28.449  1.00  0.00     0.029 A 
ATOM     52  N   UNL A   1      41.826  27.439  29.287  1.00  0.00    -0.354 N 
ATOM     53  C   UNL A   1      42.466  31.513  30.553  1.00  0.00     0.074 A 
ATOM     54  C   UNL A   1      41.230  32.265  30.548  1.00  0.00     0.031 C 
ATOM     55  C   UNL A   1      40.692  25.719  28.412  1.00  0.00     0.029 A 
ATOM     56  C   UNL A   1      42.010  26.142  28.862  1.00  0.00     0.049 A 
ATOM     57  H   UNL A   1      42.527  27.967  29.731  1.00  0.00     0.167 HD
ATOM     58  C   UNL A   1      43.664  32.013  30.940  1.00  0.00     0.034 A 
ATOM     59  C   UNL A   1      43.122  25.386  28.775  1.00  0.00     0.034 A 
ATOM     60  C   UNL A   1      44.877  31.241  31.014  1.00  0.00     0.049 A 
ATOM     61  C   UNL A   1      44.431  25.966  29.223  1.00  0.00     0.074 A 
ATOM     62  C   UNL A   1      46.122  31.641  31.468  1.00  0.00     0.029 A 
ATOM     63  N   UNL A   1      45.002  29.917  30.624  1.00  0.00    -0.354 N 
ATOM     64  N   UNL A   1      44.681  27.152  29.719  1.00  0.00    -0.248 NA
ATOM     65  C   UNL A   1      45.610  25.096  29.117  1.00  0.00     0.031 C 
ATOM     66  C   UNL A   1      47.010  30.572  31.311  1.00  0.00     0.029 A 
ATOM     67  C   UNL A   1      46.306  29.491  30.808  1.00  0.00     0.049 A 
ATOM     68  H   UNL A   1      44.270  29.362  30.269  1.00  0.00     0.167 HD
ATOM     69  C   UNL A   1      46.038  27.162  30.012  1.00  0.00     0.074 A 
ATOM     70  C   UNL A   1      46.550  25.853  29.664  1.00  0.00     0.031 C 
ATOM     71  C   UNL A   1      46.795  28.170  30.506  1.00  0.00     0.034 A 
BRANCH  58  72
ATOM     72  C   UNL A   1      43.746  33.472  31.317  1.00  0.00     0.023 A 
ATOM     73  C   UNL A   1      43.683  33.863  32.669  1.00  0.00     0.012 A 
ATOM     74  C   UNL A   1      43.987  34.447  30.326  1.00  0.00     0.148 A 
ATOM     75  C   UNL A   1      43.833  35.205  33.026  1.00  0.00     0.002 A 
ATOM     76  C   UNL A   1      44.185  35.772  30.693  1.00  0.00     0.091 A 
ATOM     77  F   UNL A   1      44.030  34.056  29.044  1.00  0.00    -0.205 F 
ATOM     78  C   UNL A   1      44.096  36.155  32.042  1.00  0.00     0.022 A 
BRANCH  76  79
ATOM     79  S   UNL A   1      44.618  37.055  29.513  1.00  0.00     0.127 S 
ATOM     80  O   UNL A   1      43.363  37.218  28.781  1.00  0.00    -0.237 OA
ATOM     81  O   UNL A   1      44.962  38.175  30.389  1.00  0.00    -0.237 OA
ATOM     82  O   UNL A   1      45.728  36.528  28.732  1.00  0.00    -0.744 OA
ENDBRANCH  76  79
ENDBRANCH  58  72
BRANCH  59  83
ATOM     83  C   UNL A   1      43.045  24.008  28.211  1.00  0.00     0.023 A 
ATOM     84  C   UNL A   1      42.332  23.007  28.898  1.00  0.00     0.012 A 
ATOM     85  C   UNL A   1      43.667  23.687  26.987  1.00  0.00     0.148 A 
ATOM     86  C   UNL A   1      42.272  21.706  28.397  1.00  0.00     0.002 A 
ATOM     87  C   UNL A   1      43.545  22.408  26.460  1.00  0.00     0.091 A 
ATOM     88  F   UNL A   1      44.356  24.648  26.353  1.00  0.00    -0.205 F 
ATOM     89  C   UNL A   1      42.867  21.410  27.174  1.00  0.00     0.022 A 
BRANCH  87  90
ATOM     90  S   UNL A   1      44.155  21.983  24.825  1.00  0.00     0.127 S 
ATOM     91  O   UNL A   1      45.583  22.257  24.958  1.00  0.00    -0.237 OA
ATOM     92  O   UNL A   1      43.806  20.564  24.732  1.00  0.00    -0.237 OA
ATOM     93  O   UNL A   1      43.428  22.840  23.899  1.00  0.00    -0.744 OA
ENDBRANCH  87  90
ENDBRANCH  59  83
BRANCH  71  94
ATOM     94  C   UNL A   1      48.251  27.885  30.759  1.00  0.00     0.023 A 
ATOM     95  C   UNL A   1      48.682  27.473  32.036  1.00  0.00     0.012 A 
ATOM     96  C   UNL A   1      49.186  27.978  29.710  1.00  0.00     0.148 A 
ATOM     97  C   UNL A   1      50.027  27.196  32.274  1.00  0.00     0.002 A 
ATOM     98  C   UNL A   1      50.515  27.647  29.941  1.00  0.00     0.091 A 
ATOM     99  F   UNL A   1      48.760  28.391  28.508  1.00  0.00    -0.205 F 
ATOM    100  C   UNL A   1      50.941  27.272  31.225  1.00  0.00     0.022 A 
BRANCH  98 101
ATOM    101  S   UNL A   1      51.741  27.618  28.627  1.00  0.00     0.127 S 
ATOM    102  O   UNL A   1      52.939  27.195  29.349  1.00  0.00    -0.237 OA
ATOM    103  O   UNL A   1      51.191  26.616  27.715  1.00  0.00    -0.237 OA
ATOM    104  O   UNL A   1      51.784  28.970  28.087  1.00  0.00    -0.744 OA
ENDBRANCH  98 101
ENDBRANCH  71  94
ENDBRANCH  45  46
ENDBRANCH  38  40
ENDBRANCH  37  38
ENDBRANCH  36  37
ENDBRANCH   1  36
TORSDOF 20
ENDMDL
MODEL 3
REMARK VINA RESULT:      -9.2      6.490     13.979
REMARK SMILES COc1ccc([C@H]2CC(c3ccc(S(C)(=O)=O)cc3)=NN2c2ccc(C(=O)OCCOC(=O)c3ccc(-c4c5nc(c(-c6cccc(S(=O)(=O)[O-])c6F)c6ccc([nH]6)c(-c6cccc(S(=O)(=O)[O-])c6F)c6nc(c(-c7cccc(S(=O)(=O)[O-])c7F)c7ccc4[nH]7)C=C6)C=C5)cc3)cc2)cc1OC
REMARK SMILES IDX 29 1 28 2 26 3 27 4 25 5 22 6 23 7 98 8 24 9 97 10 21 11
REMARK SMILES IDX 7 12 8 13 9 14 20 15 6 16 3 17 4 18 100 19 5 20 99 21 2 22
REMARK SMILES IDX 1 23 101 24 102 25 10 26 11 27 19 28 12 29 18 30 13 31 14 32
REMARK SMILES IDX 15 33 16 34 17 35 30 36 31 37 32 38 33 39 34 40 35 41 96 42
REMARK SMILES IDX 36 43 95 44 37 45 38 46 39 47 89 48 40 49 94 50 88 51 90 52
REMARK SMILES IDX 41 53 93 54 87 55 86 56 42 58 74 59 54 60 73 61 55 62 58 63
REMARK SMILES IDX 72 64 91 65 56 66 57 67 71 69 92 70 59 71 43 72 44 73 52 74
REMARK SMILES IDX 45 75 47 76 53 77 46 78 48 79 49 80 50 81 51 82 75 83 76 84
REMARK SMILES IDX 84 85 77 86 79 87 85 88 78 89 80 90 81 91 82 92 83 93 60 94
REMARK SMILES IDX 61 95 69 96 62 97 64 98 70 99 63 100 65 101 66 102 67 103
REMARK SMILES IDX 68 104
REMARK H PARENT 90 57 58 68
REMARK Flexibility Score: inf
ROOT
ATOM      1  C   UNL A   1      40.190  22.369  27.012  1.00  0.00     0.275 C 
ENDROOT
BRANCH   1   2
ATOM      2  O   UNL A   1      38.932  22.857  26.499  1.00  0.00    -0.458 OA
BRANCH   2   3
ATOM      3  C   UNL A   1      38.229  21.972  25.752  1.00  0.00     0.338 C 
ATOM      4  O   UNL A   1      38.394  20.761  25.721  1.00  0.00    -0.246 OA
BRANCH   3   5
ATOM      5  C   UNL A   1      37.168  22.648  24.972  1.00  0.00     0.060 A 
ATOM      6  C   UNL A   1      34.939  23.696  23.615  1.00  0.00     0.060 A 
ATOM      7  C   UNL A   1      35.126  23.954  24.972  1.00  0.00     0.029 A 
ATOM      8  C   UNL A   1      35.921  22.965  22.930  1.00  0.00     0.029 A 
ATOM      9  C   UNL A   1      36.198  23.390  25.651  1.00  0.00     0.018 A 
ATOM     10  C   UNL A   1      37.048  22.463  23.595  1.00  0.00     0.018 A 
BRANCH   6  11
ATOM     11  N   UNL A   1      33.747  24.064  22.997  1.00  0.00    -0.257 N 
ATOM     12  C   UNL A   1      32.797  23.053  22.506  1.00  0.00     0.144 C 
ATOM     13  C   UNL A   1      31.486  23.847  22.405  1.00  0.00     0.091 C 
ATOM     14  C   UNL A   1      31.921  25.170  22.974  1.00  0.00     0.071 C 
ATOM     15  N   UNL A   1      33.168  25.253  23.314  1.00  0.00    -0.176 NA
BRANCH  12  16
ATOM     16  C   UNL A   1      32.702  21.803  23.377  1.00  0.00    -0.019 A 
ATOM     17  C   UNL A   1      32.352  19.498  24.984  1.00  0.00     0.160 A 
ATOM     18  C   UNL A   1      32.211  20.779  25.531  1.00  0.00     0.051 A 
ATOM     19  C   UNL A   1      32.659  19.352  23.627  1.00  0.00     0.161 A 
ATOM     20  C   UNL A   1      32.388  21.919  24.739  1.00  0.00     0.010 A 
ATOM     21  C   UNL A   1      32.834  20.508  22.845  1.00  0.00     0.056 A 
BRANCH  17  22
ATOM     22  O   UNL A   1      32.028  18.435  25.783  1.00  0.00    -0.493 OA
ATOM     23  C   UNL A   1      33.017  17.407  25.752  1.00  0.00     0.278 C 
ENDBRANCH  17  22
BRANCH  19  24
ATOM     24  O   UNL A   1      32.792  18.204  22.894  1.00  0.00    -0.493 OA
ATOM     25  C   UNL A   1      32.153  18.107  21.632  1.00  0.00     0.278 C 
ENDBRANCH  19  24
ENDBRANCH  12  16
BRANCH  14  26
ATOM     26  C   UNL A   1      31.000  26.320  23.040  1.00  0.00    -0.002 A 
ATOM     27  C   UNL A   1      31.394  27.512  22.417  1.00  0.00     0.011 A 
ATOM     28  C   UNL A   1      29.750  26.229  23.659  1.00  0.00     0.011 A 
ATOM     29  C   UNL A   1      30.525  28.603  22.374  1.00  0.00     0.021 A 
ATOM     30  C   UNL A   1      28.886  27.330  23.641  1.00  0.00     0.021 A 
ATOM     31  C   UNL A   1      29.275  28.507  22.989  1.00  0.00     0.067 A 
BRANCH  31  32
ATOM     32  S   UNL A   1      28.148  29.878  22.867  1.00  0.00     0.175 S 
ATOM     33  C   UNL A   1      28.886  31.154  23.853  1.00  0.00     0.163 C 
ATOM     34  O   UNL A   1      28.166  30.304  21.480  1.00  0.00    -0.224 OA
ATOM     35  O   UNL A   1      26.904  29.485  23.501  1.00  0.00    -0.224 OA
ENDBRANCH  31  32
ENDBRANCH  14  26
ENDBRANCH   6  11
ENDBRANCH   3   5
ENDBRANCH   2   3
ENDBRANCH   1   2
BRANCH   1  36
ATOM     36  C   UNL A   1      41.366  22.781  26.123  1.00  0.00     0.275 C 
BRANCH  36  37
ATOM     37  O   UNL A   1      41.975  23.996  26.597  1.00  0.00    -0.458 OA
BRANCH  37  38
ATOM     38  C   UNL A   1      42.807  24.594  25.715  1.00  0.00     0.338 C 
ATOM     39  O   UNL A   1      43.219  24.135  24.663  1.00  0.00    -0.246 OA
BRANCH  38  40
ATOM     40  C   UNL A   1      43.115  25.967  26.139  1.00  0.00     0.060 A 
ATOM     41  C   UNL A   1      43.863  26.130  27.296  1.00  0.00     0.016 A 
ATOM     42  C   UNL A   1      42.487  27.063  25.560  1.00  0.00     0.016 A 
ATOM     43  C   UNL A   1      43.835  27.335  27.986  1.00  0.00     0.010 A 
ATOM     44  C   UNL A   1      42.603  28.322  26.169  1.00  0.00     0.010 A 
ATOM     45  C   UNL A   1      43.228  28.464  27.423  1.00  0.00    -0.014 A 
BRANCH  45  46
ATOM     46  C   UNL A   1      43.259  29.773  28.146  1.00  0.00     0.031 A 
ATOM     47  C   UNL A   1      44.495  30.641  28.121  1.00  0.00     0.074 A 
ATOM     48  C   UNL A   1      42.177  30.183  28.846  1.00  0.00     0.049 A 
ATOM     49  N   UNL A   1      44.762  31.716  28.819  1.00  0.00    -0.248 NA
ATOM     50  C   UNL A   1      45.581  30.244  27.209  1.00  0.00     0.031 C 
ATOM     51  C   UNL A   1      40.912  29.452  28.960  1.00  0.00     0.029 A 
ATOM     52  N   UNL A   1      41.972  31.307  29.613  1.00  0.00    -0.354 N 
ATOM     53  C   UNL A   1      46.070  32.068  28.502  1.00  0.00     0.074 A 
ATOM     54  C   UNL A   1      46.539  31.103  27.531  1.00  0.00     0.031 C 
ATOM     55  C   UNL A   1      40.061  30.147  29.727  1.00  0.00     0.029 A 
ATOM     56  C   UNL A   1      40.751  31.317  30.250  1.00  0.00     0.049 A 
ATOM     57  H   UNL A   1      42.632  32.031  29.698  1.00  0.00     0.167 HD
ATOM     58  C   UNL A   1      46.811  33.100  28.973  1.00  0.00     0.034 A 
ATOM     59  C   UNL A   1      40.253  32.132  31.201  1.00  0.00     0.034 A 
ATOM     60  C   UNL A   1      46.316  34.101  29.882  1.00  0.00     0.049 A 
ATOM     61  C   UNL A   1      41.094  33.272  31.693  1.00  0.00     0.074 A 
ATOM     62  C   UNL A   1      46.968  35.227  30.356  1.00  0.00     0.029 A 
ATOM     63  N   UNL A   1      45.055  34.099  30.458  1.00  0.00    -0.354 N 
ATOM     64  N   UNL A   1      42.299  33.628  31.324  1.00  0.00    -0.248 NA
ATOM     65  C   UNL A   1      40.499  34.136  32.722  1.00  0.00     0.031 C 
ATOM     66  C   UNL A   1      46.117  35.881  31.252  1.00  0.00     0.029 A 
ATOM     67  C   UNL A   1      44.917  35.192  31.297  1.00  0.00     0.049 A 
ATOM     68  H   UNL A   1      44.361  33.420  30.294  1.00  0.00     0.167 HD
ATOM     69  C   UNL A   1      42.596  34.773  32.051  1.00  0.00     0.074 A 
ATOM     70  C   UNL A   1      41.433  35.067  32.861  1.00  0.00     0.031 C 
ATOM     71  C   UNL A   1      43.736  35.503  32.060  1.00  0.00     0.034 A 
BRANCH  58  72
ATOM     72  C   UNL A   1      48.247  33.216  28.527  1.00  0.00     0.023 A 
ATOM     73  C   UNL A   1      49.267  32.536  29.221  1.00  0.00     0.012 A 
ATOM     74  C   UNL A   1      48.567  33.927  27.351  1.00  0.00     0.148 A 
ATOM     75  C   UNL A   1      50.586  32.582  28.765  1.00  0.00     0.002 A 
ATOM     76  C   UNL A   1      49.874  33.927  26.877  1.00  0.00     0.091 A 
ATOM     77  F   UNL A   1      47.585  34.579  26.712  1.00  0.00    -0.205 F 
ATOM     78  C   UNL A   1      50.886  33.265  27.589  1.00  0.00     0.022 A 
BRANCH  76  79
ATOM     79  S   UNL A   1      50.345  34.700  25.326  1.00  0.00     0.127 S 
ATOM     80  O   UNL A   1      51.240  35.762  25.785  1.00  0.00    -0.237 OA
ATOM     81  O   UNL A   1      51.013  33.602  24.626  1.00  0.00    -0.237 OA
ATOM     82  O   UNL A   1      49.109  35.156  24.707  1.00  0.00    -0.744 OA
ENDBRANCH  76  79
ENDBRANCH  58  72
BRANCH  59  83
ATOM     83  C   UNL A   1      38.898  31.875  31.769  1.00  0.00     0.023 A 
ATOM     84  C   UNL A   1      38.755  31.031  32.887  1.00  0.00     0.012 A 
ATOM     85  C   UNL A   1      37.751  32.476  31.212  1.00  0.00     0.148 A 
ATOM     86  C   UNL A   1      37.491  30.761  33.416  1.00  0.00     0.002 A 
ATOM     87  C   UNL A   1      36.505  32.257  31.786  1.00  0.00     0.091 A 
ATOM     88  F   UNL A   1      37.903  33.263  30.137  1.00  0.00    -0.205 F 
ATOM     89  C   UNL A   1      36.370  31.383  32.874  1.00  0.00     0.022 A 
BRANCH  87  90
ATOM     90  S   UNL A   1      35.033  33.131  31.243  1.00  0.00     0.127 S 
ATOM     91  O   UNL A   1      34.839  32.585  29.902  1.00  0.00    -0.237 OA
ATOM     92  O   UNL A   1      34.044  32.701  32.232  1.00  0.00    -0.237 OA
ATOM     93  O   UNL A   1      35.369  34.547  31.308  1.00  0.00    -0.744 OA
ENDBRANCH  87  90
ENDBRANCH  59  83
BRANCH  71  94
ATOM     94  C   UNL A   1      43.767  36.730  32.932  1.00  0.00     0.023 A 
ATOM     95  C   UNL A   1      43.422  37.988  32.399  1.00  0.00     0.012 A 
ATOM     96  C   UNL A   1      44.091  36.623  34.299  1.00  0.00     0.148 A 
ATOM     97  C   UNL A   1      43.437  39.126  33.204  1.00  0.00     0.002 A 
ATOM     98  C   UNL A   1      44.050  37.752  35.107  1.00  0.00     0.091 A 
ATOM     99  F   UNL A   1      44.436  35.421  34.782  1.00  0.00    -0.205 F 
ATOM    100  C   UNL A   1      43.740  39.007  34.558  1.00  0.00     0.022 A 
BRANCH  98 101
ATOM    101  S   UNL A   1      44.326  37.675  36.880  1.00  0.00     0.127 S 
ATOM    102  O   UNL A   1      45.701  37.185  36.946  1.00  0.00    -0.237 OA
ATOM    103  O   UNL A   1      44.156  39.072  37.279  1.00  0.00    -0.237 OA
ATOM    104  O   UNL A   1      43.315  36.768  37.406  1.00  0.00    -0.744 OA
ENDBRANCH  98 101
ENDBRANCH  71  94
ENDBRANCH  45  46
ENDBRANCH  38  40
ENDBRANCH  37  38
ENDBRANCH  36  37
ENDBRANCH   1  36
TORSDOF 20
ENDMDL
