MODEL 1
REMARK VINA RESULT:     -12.5      0.000      0.000
REMARK SMILES CS(=O)(=O)c1ccc(/C=C(/C(=O)OCCOC(=O)c2ccc(-c3c4nc(c(-c5cccc(S(=O)(=O)[O-])c5F)c5ccc([nH]5)c(-c5cccc(S(=O)(=O)[O-])c5F)c5nc(c(-c6cccc(S(=O)(=O)[O-])c6F)c6ccc3[nH]6)C=C5)C=C4)cc2)c2ccc(F)cc2)cc1
REMARK SMILES IDX 15 1 14 2 13 3 11 4 12 5 10 6 9 7 8 8 5 9 6 10 90 11 7 12
REMARK SMILES IDX 89 13 2 14 1 15 3 16 4 17 82 18 83 19 88 20 84 21 87 22
REMARK SMILES IDX 85 23 86 24 16 25 17 26 18 27 19 28 20 29 81 30 21 31 80 32
REMARK SMILES IDX 22 33 23 34 24 35 74 36 25 37 79 38 73 39 75 40 26 41 78 42
REMARK SMILES IDX 72 43 71 44 27 46 59 47 39 48 58 49 40 50 43 51 57 52 76 53
REMARK SMILES IDX 41 54 42 55 56 57 77 58 44 59 28 60 29 61 37 62 30 63 32 64
REMARK SMILES IDX 38 65 31 66 33 67 34 68 35 69 36 70 60 71 61 72 69 73 62 74
REMARK SMILES IDX 64 75 70 76 63 77 65 78 66 79 67 80 68 81 45 82 46 83 54 84
REMARK SMILES IDX 47 85 49 86 55 87 48 88 50 89 51 90 52 91 53 92
REMARK H PARENT 75 45 43 56
REMARK Flexibility Score: inf
ROOT
ATOM      1  C   UNL A   1      35.673  21.572  25.184  1.00  0.00     0.275 C 
ENDROOT
BRANCH   1   2
ATOM      2  C   UNL A   1      34.639  22.502  24.552  1.00  0.00     0.275 C 
BRANCH   2   3
ATOM      3  O   UNL A   1      34.103  23.413  25.535  1.00  0.00    -0.458 OA
BRANCH   3   4
ATOM      4  C   UNL A   1      32.749  23.529  25.535  1.00  0.00     0.338 C 
ATOM      5  O   UNL A   1      31.963  22.684  25.936  1.00  0.00    -0.246 OA
BRANCH   4   6
ATOM      6  C   UNL A   1      32.302  24.851  25.004  1.00  0.00     0.067 C 
ATOM      7  C   UNL A   1      31.452  24.865  23.951  1.00  0.00     0.024 C 
BRANCH   7   8
ATOM      8  C   UNL A   1      30.639  26.000  23.446  1.00  0.00    -0.025 A 
ATOM      9  C   UNL A   1      29.099  28.281  22.865  1.00  0.00     0.067 A 
ATOM     10  C   UNL A   1      30.396  28.181  22.376  1.00  0.00     0.021 A 
ATOM     11  C   UNL A   1      28.533  27.228  23.582  1.00  0.00     0.021 A 
ATOM     12  C   UNL A   1      31.132  27.024  22.627  1.00  0.00     0.009 A 
ATOM     13  C   UNL A   1      29.305  26.097  23.875  1.00  0.00     0.009 A 
BRANCH   9  14
ATOM     14  S   UNL A   1      28.192  29.778  22.581  1.00  0.00     0.175 S 
ATOM     15  C   UNL A   1      29.106  31.019  23.458  1.00  0.00     0.163 C 
ATOM     16  O   UNL A   1      26.903  29.619  23.215  1.00  0.00    -0.224 OA
ATOM     17  O   UNL A   1      28.296  30.088  21.162  1.00  0.00    -0.224 OA
ENDBRANCH   9  14
ENDBRANCH   7   8
BRANCH   6  18
ATOM     18  C   UNL A   1      32.653  26.060  25.773  1.00  0.00    -0.011 A 
ATOM     19  C   UNL A   1      33.762  26.830  25.376  1.00  0.00     0.012 A 
ATOM     20  C   UNL A   1      31.847  26.506  26.829  1.00  0.00     0.012 A 
ATOM     21  C   UNL A   1      34.022  28.057  25.990  1.00  0.00     0.040 A 
ATOM     22  C   UNL A   1      32.120  27.727  27.449  1.00  0.00     0.040 A 
ATOM     23  C   UNL A   1      33.193  28.497  27.014  1.00  0.00     0.123 A 
ATOM     24  F   UNL A   1      33.428  29.683  27.586  1.00  0.00    -0.207 F 
ENDBRANCH   6  18
ENDBRANCH   4   6
ENDBRANCH   3   4
ENDBRANCH   2   3
ENDBRANCH   1   2
BRANCH   1  25
ATOM     25  O   UNL A   1      36.979  21.853  24.648  1.00  0.00    -0.458 OA
BRANCH  25  26
ATOM     26  C   UNL A   1      38.023  21.387  25.369  1.00  0.00     0.338 C 
ATOM     27  O   UNL A   1      38.467  20.248  25.374  1.00  0.00    -0.246 OA
BRANCH  26  28
ATOM     28  C   UNL A   1      38.631  22.476  26.154  1.00  0.00     0.060 A 
ATOM     29  C   UNL A   1      38.078  23.750  26.106  1.00  0.00     0.016 A 
ATOM     30  C   UNL A   1      39.856  22.275  26.793  1.00  0.00     0.016 A 
ATOM     31  C   UNL A   1      38.819  24.840  26.560  1.00  0.00     0.010 A 
ATOM     32  C   UNL A   1      40.533  23.364  27.361  1.00  0.00     0.010 A 
ATOM     33  C   UNL A   1      40.060  24.677  27.196  1.00  0.00    -0.014 A 
BRANCH  33  34
ATOM     34  C   UNL A   1      40.865  25.866  27.637  1.00  0.00     0.031 A 
ATOM     35  C   UNL A   1      40.271  26.912  28.559  1.00  0.00     0.074 A 
ATOM     36  C   UNL A   1      42.143  26.026  27.231  1.00  0.00     0.049 A 
ATOM     37  N   UNL A   1      40.728  28.102  28.864  1.00  0.00    -0.248 NA
ATOM     38  C   UNL A   1      38.987  26.593  29.205  1.00  0.00     0.031 C 
ATOM     39  C   UNL A   1      42.879  25.110  26.358  1.00  0.00     0.029 A 
ATOM     40  N   UNL A   1      43.057  27.021  27.498  1.00  0.00    -0.354 N 
ATOM     41  C   UNL A   1      39.746  28.708  29.642  1.00  0.00     0.074 A 
ATOM     42  C   UNL A   1      38.676  27.745  29.786  1.00  0.00     0.031 C 
ATOM     43  C   UNL A   1      44.137  25.544  26.214  1.00  0.00     0.029 A 
ATOM     44  C   UNL A   1      44.269  26.837  26.873  1.00  0.00     0.049 A 
ATOM     45  H   UNL A   1      42.861  27.790  28.080  1.00  0.00     0.167 HD
ATOM     46  C   UNL A   1      39.735  29.948  30.190  1.00  0.00     0.034 A 
ATOM     47  C   UNL A   1      45.353  27.632  26.776  1.00  0.00     0.034 A 
ATOM     48  C   UNL A   1      40.846  30.864  30.152  1.00  0.00     0.049 A 
ATOM     49  C   UNL A   1      45.332  28.986  27.421  1.00  0.00     0.074 A 
ATOM     50  C   UNL A   1      40.944  32.121  30.727  1.00  0.00     0.029 A 
ATOM     51  N   UNL A   1      42.061  30.616  29.532  1.00  0.00    -0.354 N 
ATOM     52  N   UNL A   1      44.391  29.540  28.145  1.00  0.00    -0.248 NA
ATOM     53  C   UNL A   1      46.522  29.830  27.231  1.00  0.00     0.031 C 
ATOM     54  C   UNL A   1      42.215  32.636  30.447  1.00  0.00     0.029 A 
ATOM     55  C   UNL A   1      42.913  31.695  29.711  1.00  0.00     0.049 A 
ATOM     56  H   UNL A   1      42.285  29.795  29.038  1.00  0.00     0.167 HD
ATOM     57  C   UNL A   1      44.873  30.794  28.498  1.00  0.00     0.074 A 
ATOM     58  C   UNL A   1      46.207  30.902  27.945  1.00  0.00     0.031 C 
ATOM     59  C   UNL A   1      44.254  31.778  29.194  1.00  0.00     0.034 A 
BRANCH  46  60
ATOM     60  C   UNL A   1      38.489  30.400  30.910  1.00  0.00     0.023 A 
ATOM     61  C   UNL A   1      38.336  30.143  32.287  1.00  0.00     0.012 A 
ATOM     62  C   UNL A   1      37.510  31.163  30.238  1.00  0.00     0.148 A 
ATOM     63  C   UNL A   1      37.219  30.615  32.977  1.00  0.00     0.002 A 
ATOM     64  C   UNL A   1      36.421  31.666  30.942  1.00  0.00     0.091 A 
ATOM     65  F   UNL A   1      37.661  31.380  28.923  1.00  0.00    -0.205 F 
ATOM     66  C   UNL A   1      36.269  31.386  32.309  1.00  0.00     0.022 A 
BRANCH  64  67
ATOM     67  S   UNL A   1      35.195  32.740  30.184  1.00  0.00     0.127 S 
ATOM     68  O   UNL A   1      34.313  33.024  31.314  1.00  0.00    -0.237 OA
ATOM     69  O   UNL A   1      36.006  33.876  29.743  1.00  0.00    -0.237 OA
ATOM     70  O   UNL A   1      34.602  31.966  29.102  1.00  0.00    -0.744 OA
ENDBRANCH  64  67
ENDBRANCH  46  60
BRANCH  47  71
ATOM     71  C   UNL A   1      46.545  27.158  26.014  1.00  0.00     0.023 A 
ATOM     72  C   UNL A   1      46.623  27.398  24.629  1.00  0.00     0.012 A 
ATOM     73  C   UNL A   1      47.630  26.539  26.665  1.00  0.00     0.148 A 
ATOM     74  C   UNL A   1      47.760  27.026  23.908  1.00  0.00     0.002 A 
ATOM     75  C   UNL A   1      48.787  26.242  25.956  1.00  0.00     0.091 A 
ATOM     76  F   UNL A   1      47.523  26.283  27.977  1.00  0.00    -0.205 F 
ATOM     77  C   UNL A   1      48.849  26.469  24.574  1.00  0.00     0.022 A 
BRANCH  75  78
ATOM     78  S   UNL A   1      50.287  25.702  26.784  1.00  0.00     0.127 S 
ATOM     79  O   UNL A   1      49.856  24.452  27.403  1.00  0.00    -0.237 OA
ATOM     80  O   UNL A   1      51.219  25.548  25.666  1.00  0.00    -0.237 OA
ATOM     81  O   UNL A   1      50.633  26.784  27.696  1.00  0.00    -0.744 OA
ENDBRANCH  75  78
ENDBRANCH  47  71
BRANCH  59  82
ATOM     82  C   UNL A   1      45.014  33.060  29.404  1.00  0.00     0.023 A 
ATOM     83  C   UNL A   1      45.875  33.180  30.513  1.00  0.00     0.012 A 
ATOM     84  C   UNL A   1      44.916  34.122  28.486  1.00  0.00     0.148 A 
ATOM     85  C   UNL A   1      46.602  34.350  30.723  1.00  0.00     0.002 A 
ATOM     86  C   UNL A   1      45.674  35.271  28.679  1.00  0.00     0.091 A 
ATOM     87  F   UNL A   1      44.075  33.996  27.449  1.00  0.00    -0.205 F 
ATOM     88  C   UNL A   1      46.511  35.391  29.801  1.00  0.00     0.022 A 
BRANCH  86  89
ATOM     89  S   UNL A   1      45.679  36.627  27.502  1.00  0.00     0.127 S 
ATOM     90  O   UNL A   1      46.123  35.960  26.278  1.00  0.00    -0.237 OA
ATOM     91  O   UNL A   1      44.274  37.041  27.494  1.00  0.00    -0.237 OA
ATOM     92  O   UNL A   1      46.596  37.622  28.043  1.00  0.00    -0.744 OA
ENDBRANCH  86  89
ENDBRANCH  59  82
ENDBRANCH  33  34
ENDBRANCH  26  28
ENDBRANCH  25  26
ENDBRANCH   1  25
TORSDOF 17
ENDMDL
MODEL 2
REMARK VINA RESULT:     -12.3      1.737      2.373
REMARK SMILES CS(=O)(=O)c1ccc(/C=C(/C(=O)OCCOC(=O)c2ccc(-c3c4nc(c(-c5cccc(S(=O)(=O)[O-])c5F)c5ccc([nH]5)c(-c5cccc(S(=O)(=O)[O-])c5F)c5nc(c(-c6cccc(S(=O)(=O)[O-])c6F)c6ccc3[nH]6)C=C5)C=C4)cc2)c2ccc(F)cc2)cc1
REMARK SMILES IDX 15 1 14 2 13 3 11 4 12 5 10 6 9 7 8 8 5 9 6 10 90 11 7 12
REMARK SMILES IDX 89 13 2 14 1 15 3 16 4 17 82 18 83 19 88 20 84 21 87 22
REMARK SMILES IDX 85 23 86 24 16 25 17 26 18 27 19 28 20 29 81 30 21 31 80 32
REMARK SMILES IDX 22 33 23 34 24 35 74 36 25 37 79 38 73 39 75 40 26 41 78 42
REMARK SMILES IDX 72 43 71 44 27 46 59 47 39 48 58 49 40 50 43 51 57 52 76 53
REMARK SMILES IDX 41 54 42 55 56 57 77 58 44 59 28 60 29 61 37 62 30 63 32 64
REMARK SMILES IDX 38 65 31 66 33 67 34 68 35 69 36 70 60 71 61 72 69 73 62 74
REMARK SMILES IDX 64 75 70 76 63 77 65 78 66 79 67 80 68 81 45 82 46 83 54 84
REMARK SMILES IDX 47 85 49 86 55 87 48 88 50 89 51 90 52 91 53 92
REMARK H PARENT 75 45 43 56
REMARK Flexibility Score: inf
ROOT
ATOM      1  C   UNL A   1      36.947  20.578  25.357  1.00  0.00     0.275 C 
ENDROOT
BRANCH   1   2
ATOM      2  C   UNL A   1      35.603  21.180  24.952  1.00  0.00     0.275 C 
BRANCH   2   3
ATOM      3  O   UNL A   1      35.653  22.621  25.000  1.00  0.00    -0.458 OA
BRANCH   3   4
ATOM      4  C   UNL A   1      35.358  23.247  23.831  1.00  0.00     0.338 C 
ATOM      5  O   UNL A   1      35.845  22.985  22.741  1.00  0.00    -0.246 OA
BRANCH   4   6
ATOM      6  C   UNL A   1      34.322  24.308  24.011  1.00  0.00     0.067 C 
ATOM      7  C   UNL A   1      34.405  25.422  23.246  1.00  0.00     0.024 C 
BRANCH   7   8
ATOM      8  C   UNL A   1      33.362  26.453  23.016  1.00  0.00    -0.025 A 
ATOM      9  C   UNL A   1      31.148  28.173  22.792  1.00  0.00     0.067 A 
ATOM     10  C   UNL A   1      32.250  28.561  23.542  1.00  0.00     0.021 A 
ATOM     11  C   UNL A   1      31.161  26.966  22.093  1.00  0.00     0.021 A 
ATOM     12  C   UNL A   1      33.363  27.724  23.604  1.00  0.00     0.009 A 
ATOM     13  C   UNL A   1      32.263  26.109  22.212  1.00  0.00     0.009 A 
BRANCH   9  14
ATOM     14  S   UNL A   1      29.720  29.223  22.761  1.00  0.00     0.175 S 
ATOM     15  C   UNL A   1      28.367  28.136  23.126  1.00  0.00     0.163 C 
ATOM     16  O   UNL A   1      29.574  29.703  21.406  1.00  0.00    -0.224 OA
ATOM     17  O   UNL A   1      29.839  30.152  23.877  1.00  0.00    -0.224 OA
ENDBRANCH   9  14
ENDBRANCH   7   8
BRANCH   6  18
ATOM     18  C   UNL A   1      33.160  24.002  24.867  1.00  0.00    -0.011 A 
ATOM     19  C   UNL A   1      32.989  24.708  26.072  1.00  0.00     0.012 A 
ATOM     20  C   UNL A   1      32.177  23.092  24.455  1.00  0.00     0.012 A 
ATOM     21  C   UNL A   1      31.821  24.549  26.820  1.00  0.00     0.040 A 
ATOM     22  C   UNL A   1      31.018  22.925  25.216  1.00  0.00     0.040 A 
ATOM     23  C   UNL A   1      30.844  23.664  26.380  1.00  0.00     0.123 A 
ATOM     24  F   UNL A   1      29.715  23.528  27.085  1.00  0.00    -0.207 F 
ENDBRANCH   6  18
ENDBRANCH   4   6
ENDBRANCH   3   4
ENDBRANCH   2   3
ENDBRANCH   1   2
BRANCH   1  25
ATOM     25  O   UNL A   1      37.971  21.587  25.309  1.00  0.00    -0.458 OA
BRANCH  25  26
ATOM     26  C   UNL A   1      39.074  21.342  26.052  1.00  0.00     0.338 C 
ATOM     27  O   UNL A   1      39.695  20.293  26.127  1.00  0.00    -0.246 OA
BRANCH  26  28
ATOM     28  C   UNL A   1      39.495  22.562  26.764  1.00  0.00     0.060 A 
ATOM     29  C   UNL A   1      38.907  23.780  26.447  1.00  0.00     0.016 A 
ATOM     30  C   UNL A   1      40.601  22.527  27.614  1.00  0.00     0.016 A 
ATOM     31  C   UNL A   1      39.515  24.967  26.857  1.00  0.00     0.010 A 
ATOM     32  C   UNL A   1      41.126  23.722  28.126  1.00  0.00     0.010 A 
ATOM     33  C   UNL A   1      40.635  24.969  27.702  1.00  0.00    -0.014 A 
BRANCH  33  34
ATOM     34  C   UNL A   1      41.304  26.254  28.096  1.00  0.00     0.031 A 
ATOM     35  C   UNL A   1      40.562  27.309  28.892  1.00  0.00     0.074 A 
ATOM     36  C   UNL A   1      42.590  26.498  27.758  1.00  0.00     0.049 A 
ATOM     37  N   UNL A   1      40.895  28.555  29.128  1.00  0.00    -0.248 NA
ATOM     38  C   UNL A   1      39.268  26.926  29.480  1.00  0.00     0.031 C 
ATOM     39  C   UNL A   1      43.458  25.589  27.010  1.00  0.00     0.029 A 
ATOM     40  N   UNL A   1      43.395  27.588  28.001  1.00  0.00    -0.354 N 
ATOM     41  C   UNL A   1      39.814  29.126  29.792  1.00  0.00     0.074 A 
ATOM     42  C   UNL A   1      38.821  28.085  29.946  1.00  0.00     0.031 C 
ATOM     43  C   UNL A   1      44.682  26.122  26.909  1.00  0.00     0.029 A 
ATOM     44  C   UNL A   1      44.659  27.467  27.470  1.00  0.00     0.049 A 
ATOM     45  H   UNL A   1      43.095  28.378  28.506  1.00  0.00     0.167 HD
ATOM     46  C   UNL A   1      39.660  30.398  30.237  1.00  0.00     0.034 A 
ATOM     47  C   UNL A   1      45.676  28.347  27.377  1.00  0.00     0.034 A 
ATOM     48  C   UNL A   1      40.690  31.405  30.195  1.00  0.00     0.049 A 
ATOM     49  C   UNL A   1      45.496  29.738  27.908  1.00  0.00     0.074 A 
ATOM     50  C   UNL A   1      40.641  32.705  30.672  1.00  0.00     0.029 A 
ATOM     51  N   UNL A   1      41.960  31.221  29.674  1.00  0.00    -0.354 N 
ATOM     52  N   UNL A   1      44.464  30.257  28.525  1.00  0.00    -0.248 NA
ATOM     53  C   UNL A   1      46.620  30.668  27.726  1.00  0.00     0.031 C 
ATOM     54  C   UNL A   1      41.880  33.309  30.432  1.00  0.00     0.029 A 
ATOM     55  C   UNL A   1      42.704  32.382  29.818  1.00  0.00     0.049 A 
ATOM     56  H   UNL A   1      42.287  30.388  29.262  1.00  0.00     0.167 HD
ATOM     57  C   UNL A   1      44.813  31.572  28.806  1.00  0.00     0.074 A 
ATOM     58  C   UNL A   1      46.168  31.759  28.330  1.00  0.00     0.031 C 
ATOM     59  C   UNL A   1      44.066  32.546  29.381  1.00  0.00     0.034 A 
BRANCH  46  60
ATOM     60  C   UNL A   1      38.333  30.789  30.839  1.00  0.00     0.023 A 
ATOM     61  C   UNL A   1      38.091  30.581  32.211  1.00  0.00     0.012 A 
ATOM     62  C   UNL A   1      37.359  31.449  30.060  1.00  0.00     0.148 A 
ATOM     63  C   UNL A   1      36.895  31.000  32.793  1.00  0.00     0.002 A 
ATOM     64  C   UNL A   1      36.187  31.902  30.655  1.00  0.00     0.091 A 
ATOM     65  F   UNL A   1      37.596  31.620  28.751  1.00  0.00    -0.205 F 
ATOM     66  C   UNL A   1      35.949  31.670  32.019  1.00  0.00     0.022 A 
BRANCH  64  67
ATOM     67  S   UNL A   1      34.951  32.849  29.757  1.00  0.00     0.127 S 
ATOM     68  O   UNL A   1      34.028  33.220  30.827  1.00  0.00    -0.237 OA
ATOM     69  O   UNL A   1      35.741  33.960  29.222  1.00  0.00    -0.237 OA
ATOM     70  O   UNL A   1      34.415  31.948  28.747  1.00  0.00    -0.744 OA
ENDBRANCH  64  67
ENDBRANCH  46  60
BRANCH  47  71
ATOM     71  C   UNL A   1      46.953  27.926  26.731  1.00  0.00     0.023 A 
ATOM     72  C   UNL A   1      47.960  27.325  27.510  1.00  0.00     0.012 A 
ATOM     73  C   UNL A   1      47.144  28.049  25.340  1.00  0.00     0.148 A 
ATOM     74  C   UNL A   1      49.134  26.860  26.914  1.00  0.00     0.002 A 
ATOM     75  C   UNL A   1      48.280  27.515  24.746  1.00  0.00     0.091 A 
ATOM     76  F   UNL A   1      46.192  28.658  24.618  1.00  0.00    -0.205 F 
ATOM     77  C   UNL A   1      49.284  26.934  25.532  1.00  0.00     0.022 A 
BRANCH  75  78
ATOM     78  S   UNL A   1      48.447  27.408  22.960  1.00  0.00     0.127 S 
ATOM     79  O   UNL A   1      49.790  27.941  22.750  1.00  0.00    -0.237 OA
ATOM     80  O   UNL A   1      48.309  25.970  22.721  1.00  0.00    -0.237 OA
ATOM     81  O   UNL A   1      47.350  28.202  22.423  1.00  0.00    -0.744 OA
ENDBRANCH  75  78
ENDBRANCH  47  71
BRANCH  59  82
ATOM     82  C   UNL A   1      44.699  33.903  29.534  1.00  0.00     0.023 A 
ATOM     83  C   UNL A   1      45.375  34.220  30.729  1.00  0.00     0.012 A 
ATOM     84  C   UNL A   1      44.666  34.843  28.487  1.00  0.00     0.148 A 
ATOM     85  C   UNL A   1      45.983  35.464  30.891  1.00  0.00     0.002 A 
ATOM     86  C   UNL A   1      45.309  36.066  28.639  1.00  0.00     0.091 A 
ATOM     87  F   UNL A   1      43.999  34.530  27.366  1.00  0.00    -0.205 F 
ATOM     88  C   UNL A   1      45.960  36.382  29.843  1.00  0.00     0.022 A 
BRANCH  86  89
ATOM     89  S   UNL A   1      45.397  37.276  27.315  1.00  0.00     0.127 S 
ATOM     90  O   UNL A   1      43.983  37.579  27.093  1.00  0.00    -0.237 OA
ATOM     91  O   UNL A   1      46.163  38.361  27.931  1.00  0.00    -0.237 OA
ATOM     92  O   UNL A   1      46.077  36.611  26.211  1.00  0.00    -0.744 OA
ENDBRANCH  86  89
ENDBRANCH  59  82
ENDBRANCH  33  34
ENDBRANCH  26  28
ENDBRANCH  25  26
ENDBRANCH   1  25
TORSDOF 17
ENDMDL
MODEL 3
REMARK VINA RESULT:     -12.2      4.977     10.047
REMARK SMILES CS(=O)(=O)c1ccc(/C=C(/C(=O)OCCOC(=O)c2ccc(-c3c4nc(c(-c5cccc(S(=O)(=O)[O-])c5F)c5ccc([nH]5)c(-c5cccc(S(=O)(=O)[O-])c5F)c5nc(c(-c6cccc(S(=O)(=O)[O-])c6F)c6ccc3[nH]6)C=C5)C=C4)cc2)c2ccc(F)cc2)cc1
REMARK SMILES IDX 15 1 14 2 13 3 11 4 12 5 10 6 9 7 8 8 5 9 6 10 90 11 7 12
REMARK SMILES IDX 89 13 2 14 1 15 3 16 4 17 82 18 83 19 88 20 84 21 87 22
REMARK SMILES IDX 85 23 86 24 16 25 17 26 18 27 19 28 20 29 81 30 21 31 80 32
REMARK SMILES IDX 22 33 23 34 24 35 74 36 25 37 79 38 73 39 75 40 26 41 78 42
REMARK SMILES IDX 72 43 71 44 27 46 59 47 39 48 58 49 40 50 43 51 57 52 76 53
REMARK SMILES IDX 41 54 42 55 56 57 77 58 44 59 28 60 29 61 37 62 30 63 32 64
REMARK SMILES IDX 38 65 31 66 33 67 34 68 35 69 36 70 60 71 61 72 69 73 62 74
REMARK SMILES IDX 64 75 70 76 63 77 65 78 66 79 67 80 68 81 45 82 46 83 54 84
REMARK SMILES IDX 47 85 49 86 55 87 48 88 50 89 51 90 52 91 53 92
REMARK H PARENT 75 45 43 56
REMARK Flexibility Score: inf
ROOT
ATOM      1  C   UNL A   1      31.489  30.503  25.675  1.00  0.00     0.275 C 
ENDROOT
BRANCH   1   2
ATOM      2  C   UNL A   1      31.512  29.091  25.093  1.00  0.00     0.275 C 
BRANCH   2   3
ATOM      3  O   UNL A   1      32.491  28.274  25.770  1.00  0.00    -0.458 OA
BRANCH   3   4
ATOM      4  C   UNL A   1      32.010  27.117  26.296  1.00  0.00     0.338 C 
ATOM      5  O   UNL A   1      31.299  27.027  27.286  1.00  0.00    -0.246 OA
BRANCH   4   6
ATOM      6  C   UNL A   1      32.430  25.926  25.500  1.00  0.00     0.067 C 
ATOM      7  C   UNL A   1      32.681  24.770  26.159  1.00  0.00     0.024 C 
BRANCH   7   8
ATOM      8  C   UNL A   1      32.808  23.404  25.593  1.00  0.00    -0.025 A 
ATOM      9  C   UNL A   1      33.209  20.715  24.869  1.00  0.00     0.067 A 
ATOM     10  C   UNL A   1      31.918  21.198  25.041  1.00  0.00     0.021 A 
ATOM     11  C   UNL A   1      34.303  21.572  24.985  1.00  0.00     0.021 A 
ATOM     12  C   UNL A   1      31.729  22.545  25.349  1.00  0.00     0.009 A 
ATOM     13  C   UNL A   1      34.100  22.908  25.352  1.00  0.00     0.009 A 
BRANCH   9  14
ATOM     14  S   UNL A   1      33.439  18.991  24.527  1.00  0.00     0.175 S 
ATOM     15  C   UNL A   1      32.698  18.166  25.911  1.00  0.00     0.163 C 
ATOM     16  O   UNL A   1      34.861  18.740  24.546  1.00  0.00    -0.224 OA
ATOM     17  O   UNL A   1      32.636  18.669  23.355  1.00  0.00    -0.224 OA
ENDBRANCH   9  14
ENDBRANCH   7   8
BRANCH   6  18
ATOM     18  C   UNL A   1      32.360  26.016  24.029  1.00  0.00    -0.011 A 
ATOM     19  C   UNL A   1      33.550  26.155  23.291  1.00  0.00     0.012 A 
ATOM     20  C   UNL A   1      31.142  25.870  23.352  1.00  0.00     0.012 A 
ATOM     21  C   UNL A   1      33.524  26.087  21.896  1.00  0.00     0.040 A 
ATOM     22  C   UNL A   1      31.120  25.818  21.957  1.00  0.00     0.040 A 
ATOM     23  C   UNL A   1      32.310  25.911  21.244  1.00  0.00     0.123 A 
ATOM     24  F   UNL A   1      32.288  25.824  19.909  1.00  0.00    -0.207 F 
ENDBRANCH   6  18
ENDBRANCH   4   6
ENDBRANCH   3   4
ENDBRANCH   2   3
ENDBRANCH   1   2
BRANCH   1  25
ATOM     25  O   UNL A   1      32.173  30.523  26.941  1.00  0.00    -0.458 OA
BRANCH  25  26
ATOM     26  C   UNL A   1      32.873  31.648  27.212  1.00  0.00     0.338 C 
ATOM     27  O   UNL A   1      32.458  32.797  27.200  1.00  0.00    -0.246 OA
BRANCH  26  28
ATOM     28  C   UNL A   1      34.256  31.311  27.594  1.00  0.00     0.060 A 
ATOM     29  C   UNL A   1      34.600  29.987  27.839  1.00  0.00     0.016 A 
ATOM     30  C   UNL A   1      35.166  32.328  27.887  1.00  0.00     0.016 A 
ATOM     31  C   UNL A   1      35.784  29.695  28.514  1.00  0.00     0.010 A 
ATOM     32  C   UNL A   1      36.411  32.010  28.448  1.00  0.00     0.010 A 
ATOM     33  C   UNL A   1      36.717  30.694  28.835  1.00  0.00    -0.014 A 
BRANCH  33  34
ATOM     34  C   UNL A   1      37.966  30.368  29.603  1.00  0.00     0.031 A 
ATOM     35  C   UNL A   1      39.051  29.501  28.996  1.00  0.00     0.074 A 
ATOM     36  C   UNL A   1      38.157  30.848  30.851  1.00  0.00     0.049 A 
ATOM     37  N   UNL A   1      40.081  28.936  29.577  1.00  0.00    -0.248 NA
ATOM     38  C   UNL A   1      38.957  29.210  27.556  1.00  0.00     0.031 C 
ATOM     39  C   UNL A   1      37.227  31.709  31.581  1.00  0.00     0.029 A 
ATOM     40  N   UNL A   1      39.202  30.680  31.732  1.00  0.00    -0.354 N 
ATOM     41  C   UNL A   1      40.689  28.145  28.607  1.00  0.00     0.074 A 
ATOM     42  C   UNL A   1      39.928  28.322  27.389  1.00  0.00     0.031 C 
ATOM     43  C   UNL A   1      37.762  32.046  32.762  1.00  0.00     0.029 A 
ATOM     44  C   UNL A   1      39.016  31.323  32.935  1.00  0.00     0.049 A 
ATOM     45  H   UNL A   1      40.004  30.151  31.521  1.00  0.00     0.167 HD
ATOM     46  C   UNL A   1      41.780  27.348  28.716  1.00  0.00     0.034 A 
ATOM     47  C   UNL A   1      39.727  31.297  34.079  1.00  0.00     0.034 A 
ATOM     48  C   UNL A   1      42.612  27.262  29.890  1.00  0.00     0.049 A 
ATOM     49  C   UNL A   1      40.952  30.437  34.165  1.00  0.00     0.074 A 
ATOM     50  C   UNL A   1      43.769  26.523  30.071  1.00  0.00     0.029 A 
ATOM     51  N   UNL A   1      42.396  27.957  31.069  1.00  0.00    -0.354 N 
ATOM     52  N   UNL A   1      41.503  29.693  33.238  1.00  0.00    -0.248 NA
ATOM     53  C   UNL A   1      41.652  30.406  35.458  1.00  0.00     0.031 C 
ATOM     54  C   UNL A   1      44.248  26.764  31.363  1.00  0.00     0.029 A 
ATOM     55  C   UNL A   1      43.398  27.665  31.981  1.00  0.00     0.049 A 
ATOM     56  H   UNL A   1      41.642  28.568  31.234  1.00  0.00     0.167 HD
ATOM     57  C   UNL A   1      42.614  29.107  33.833  1.00  0.00     0.074 A 
ATOM     58  C   UNL A   1      42.682  29.615  35.188  1.00  0.00     0.031 C 
ATOM     59  C   UNL A   1      43.482  28.207  33.313  1.00  0.00     0.034 A 
BRANCH  46  60
ATOM     60  C   UNL A   1      42.174  26.509  27.526  1.00  0.00     0.023 A 
ATOM     61  C   UNL A   1      42.974  27.060  26.505  1.00  0.00     0.012 A 
ATOM     62  C   UNL A   1      41.826  25.142  27.466  1.00  0.00     0.148 A 
ATOM     63  C   UNL A   1      43.400  26.274  25.434  1.00  0.00     0.002 A 
ATOM     64  C   UNL A   1      42.289  24.355  26.418  1.00  0.00     0.091 A 
ATOM     65  F   UNL A   1      41.047  24.639  28.435  1.00  0.00    -0.205 F 
ATOM     66  C   UNL A   1      43.069  24.921  25.397  1.00  0.00     0.022 A 
BRANCH  64  67
ATOM     67  S   UNL A   1      41.985  22.585  26.332  1.00  0.00     0.127 S 
ATOM     68  O   UNL A   1      40.526  22.539  26.277  1.00  0.00    -0.237 OA
ATOM     69  O   UNL A   1      42.654  22.215  25.084  1.00  0.00    -0.237 OA
ATOM     70  O   UNL A   1      42.588  22.019  27.531  1.00  0.00    -0.744 OA
ENDBRANCH  64  67
ENDBRANCH  46  60
BRANCH  47  71
ATOM     71  C   UNL A   1      39.271  32.110  35.244  1.00  0.00     0.023 A 
ATOM     72  C   UNL A   1      38.466  31.514  36.234  1.00  0.00     0.012 A 
ATOM     73  C   UNL A   1      39.691  33.444  35.413  1.00  0.00     0.148 A 
ATOM     74  C   UNL A   1      38.086  32.236  37.367  1.00  0.00     0.002 A 
ATOM     75  C   UNL A   1      39.373  34.129  36.579  1.00  0.00     0.091 A 
ATOM     76  F   UNL A   1      40.425  34.009  34.443  1.00  0.00    -0.205 F 
ATOM     77  C   UNL A   1      38.557  33.534  37.550  1.00  0.00     0.022 A 
BRANCH  75  78
ATOM     78  S   UNL A   1      40.101  35.727  36.962  1.00  0.00     0.127 S 
ATOM     79  O   UNL A   1      39.654  36.540  35.834  1.00  0.00    -0.237 OA
ATOM     80  O   UNL A   1      39.475  36.053  38.244  1.00  0.00    -0.237 OA
ATOM     81  O   UNL A   1      41.535  35.484  37.050  1.00  0.00    -0.744 OA
ENDBRANCH  75  78
ENDBRANCH  47  71
BRANCH  59  82
ATOM     82  C   UNL A   1      44.588  27.715  34.207  1.00  0.00     0.023 A 
ATOM     83  C   UNL A   1      45.780  28.459  34.307  1.00  0.00     0.012 A 
ATOM     84  C   UNL A   1      44.432  26.549  34.981  1.00  0.00     0.148 A 
ATOM     85  C   UNL A   1      46.814  28.034  35.140  1.00  0.00     0.002 A 
ATOM     86  C   UNL A   1      45.451  26.153  35.840  1.00  0.00     0.091 A 
ATOM     87  F   UNL A   1      43.299  25.844  34.856  1.00  0.00    -0.205 F 
ATOM     88  C   UNL A   1      46.645  26.888  35.914  1.00  0.00     0.022 A 
BRANCH  86  89
ATOM     89  S   UNL A   1      45.289  24.736  36.932  1.00  0.00     0.127 S 
ATOM     90  O   UNL A   1      45.130  23.640  35.976  1.00  0.00    -0.237 OA
ATOM     91  O   UNL A   1      46.567  24.741  37.645  1.00  0.00    -0.237 OA
ATOM     92  O   UNL A   1      44.130  25.009  37.772  1.00  0.00    -0.744 OA
ENDBRANCH  86  89
ENDBRANCH  59  82
ENDBRANCH  33  34
ENDBRANCH  26  28
ENDBRANCH  25  26
ENDBRANCH   1  25
TORSDOF 17
ENDMDL
