MODEL 1
REMARK VINA RESULT:     -11.7      0.000      0.000
REMARK SMILES CC(C)C[C@H](CNC(=O)NC[C@H]1CCC(=O)N1)C(=O)OCCOC(=O)c1ccc(-c2c3nc(c(-c4cccc(S(=O)(=O)[O-])c4F)c4ccc([nH]4)c(-c4cccc(S(=O)(=O)[O-])c4F)c4nc(c(-c5cccc(S(=O)(=O)[O-])c5F)c5ccc2[nH]5)C=C4)C=C3)cc1
REMARK SMILES IDX 21 1 20 2 18 3 19 4 5 5 4 6 2 7 1 8 3 9 6 10 7 11 8 12 9 14
REMARK SMILES IDX 10 15 11 17 12 18 13 19 17 20 14 21 15 22 16 24 22 25 23 26
REMARK SMILES IDX 24 27 25 28 26 29 27 30 88 31 28 32 87 33 29 34 30 35 31 36
REMARK SMILES IDX 81 37 32 38 86 39 80 40 82 41 33 42 85 43 79 44 78 45 34 47
REMARK SMILES IDX 66 48 46 49 65 50 47 51 50 52 64 53 83 54 48 55 49 56 63 58
REMARK SMILES IDX 84 59 51 60 35 61 36 62 44 63 37 64 39 65 45 66 38 67 40 68
REMARK SMILES IDX 41 69 42 70 43 71 67 72 68 73 76 74 69 75 71 76 77 77 70 78
REMARK SMILES IDX 72 79 73 80 74 81 75 82 52 83 53 84 61 85 54 86 56 87 62 88
REMARK SMILES IDX 55 89 57 90 58 91 59 92 60 93
REMARK H PARENT 7 13 10 16 17 23 82 46 50 57
REMARK Flexibility Score: inf
ROOT
ATOM      1  C   UNL A   1      36.192  20.754  24.788  1.00  0.00     0.274 C 
ENDROOT
BRANCH   1   2
ATOM      2  O   UNL A   1      36.190  22.195  24.782  1.00  0.00    -0.462 OA
BRANCH   2   3
ATOM      3  C   UNL A   1      35.954  22.791  23.591  1.00  0.00     0.310 C 
ATOM      4  O   UNL A   1      36.775  22.857  22.683  1.00  0.00    -0.252 OA
BRANCH   3   5
ATOM      5  C   UNL A   1      34.581  23.439  23.493  1.00  0.00     0.119 C 
BRANCH   5   6
ATOM      6  C   UNL A   1      34.467  24.661  24.417  1.00  0.00     0.020 C 
BRANCH   6   7
ATOM      7  C   UNL A   1      33.502  25.764  23.910  1.00  0.00    -0.017 C 
ATOM      8  C   UNL A   1      33.689  27.122  24.598  1.00  0.00     0.007 C 
ATOM      9  C   UNL A   1      33.666  25.949  22.400  1.00  0.00     0.007 C 
ENDBRANCH   6   7
ENDBRANCH   5   6
BRANCH   5  10
ATOM     10  C   UNL A   1      33.366  22.486  23.552  1.00  0.00     0.133 C 
BRANCH  10  11
ATOM     11  N   UNL A   1      32.515  22.561  24.720  1.00  0.00    -0.337 N 
ATOM     12  C   UNL A   1      31.773  21.701  25.418  1.00  0.00     0.314 C 
ATOM     13  H   UNL A   1      32.474  23.472  25.092  1.00  0.00     0.165 HD
ATOM     14  O   UNL A   1      30.874  22.137  26.140  1.00  0.00    -0.249 OA
ATOM     15  N   UNL A   1      31.955  20.379  25.401  1.00  0.00    -0.336 N 
ATOM     16  H   UNL A   1      31.180  19.879  25.746  1.00  0.00     0.165 HD
BRANCH  15  17
ATOM     17  C   UNL A   1      33.045  19.522  24.985  1.00  0.00     0.142 C 
BRANCH  17  18
ATOM     18  C   UNL A   1      32.621  18.065  24.704  1.00  0.00     0.101 C 
ATOM     19  C   UNL A   1      32.877  17.560  23.287  1.00  0.00     0.036 C 
ATOM     20  N   UNL A   1      33.329  17.113  25.522  1.00  0.00    -0.352 N 
ATOM     21  C   UNL A   1      34.180  16.768  23.367  1.00  0.00     0.102 C 
ATOM     22  C   UNL A   1      34.241  16.361  24.814  1.00  0.00     0.220 C 
ATOM     23  H   UNL A   1      33.176  17.009  26.489  1.00  0.00     0.163 HD
ATOM     24  O   UNL A   1      34.974  15.521  25.308  1.00  0.00    -0.275 OA
ENDBRANCH  17  18
ENDBRANCH  15  17
ENDBRANCH  10  11
ENDBRANCH   5  10
ENDBRANCH   3   5
ENDBRANCH   2   3
ENDBRANCH   1   2
BRANCH   1  25
ATOM     25  C   UNL A   1      37.567  20.163  25.134  1.00  0.00     0.275 C 
BRANCH  25  26
ATOM     26  O   UNL A   1      38.596  21.173  25.205  1.00  0.00    -0.458 OA
BRANCH  26  27
ATOM     27  C   UNL A   1      39.549  20.951  26.139  1.00  0.00     0.338 C 
ATOM     28  O   UNL A   1      40.170  19.913  26.319  1.00  0.00    -0.246 OA
BRANCH  27  29
ATOM     29  C   UNL A   1      39.924  22.189  26.841  1.00  0.00     0.060 A 
ATOM     30  C   UNL A   1      39.280  23.362  26.434  1.00  0.00     0.016 A 
ATOM     31  C   UNL A   1      40.980  22.249  27.747  1.00  0.00     0.016 A 
ATOM     32  C   UNL A   1      39.706  24.602  26.883  1.00  0.00     0.010 A 
ATOM     33  C   UNL A   1      41.413  23.502  28.205  1.00  0.00     0.010 A 
ATOM     34  C   UNL A   1      40.801  24.683  27.744  1.00  0.00    -0.014 A 
BRANCH  34  35
ATOM     35  C   UNL A   1      41.367  26.021  28.029  1.00  0.00     0.031 A 
ATOM     36  C   UNL A   1      42.740  26.359  27.518  1.00  0.00     0.074 A 
ATOM     37  C   UNL A   1      40.630  26.948  28.667  1.00  0.00     0.049 A 
ATOM     38  N   UNL A   1      43.429  27.460  27.663  1.00  0.00    -0.248 NA
ATOM     39  C   UNL A   1      43.429  25.317  26.735  1.00  0.00     0.031 C 
ATOM     40  C   UNL A   1      39.266  26.748  29.160  1.00  0.00     0.029 A 
ATOM     41  N   UNL A   1      40.925  28.242  29.011  1.00  0.00    -0.354 N 
ATOM     42  C   UNL A   1      44.650  27.228  27.042  1.00  0.00     0.074 A 
ATOM     43  C   UNL A   1      44.606  25.883  26.508  1.00  0.00     0.031 C 
ATOM     44  C   UNL A   1      38.847  27.879  29.753  1.00  0.00     0.029 A 
ATOM     45  C   UNL A   1      39.922  28.867  29.713  1.00  0.00     0.049 A 
ATOM     46  H   UNL A   1      41.775  28.682  28.778  1.00  0.00     0.167 HD
ATOM     47  C   UNL A   1      45.709  28.062  26.921  1.00  0.00     0.034 A 
ATOM     48  C   UNL A   1      39.885  30.091  30.274  1.00  0.00     0.034 A 
ATOM     49  C   UNL A   1      45.727  29.414  27.410  1.00  0.00     0.049 A 
ATOM     50  C   UNL A   1      41.077  30.999  30.120  1.00  0.00     0.074 A 
ATOM     51  C   UNL A   1      46.741  30.349  27.319  1.00  0.00     0.029 A 
ATOM     52  N   UNL A   1      44.678  30.024  28.081  1.00  0.00    -0.354 N 
ATOM     53  N   UNL A   1      42.196  30.788  29.471  1.00  0.00    -0.248 NA
ATOM     54  C   UNL A   1      40.986  32.324  30.749  1.00  0.00     0.031 C 
ATOM     55  C   UNL A   1      46.309  31.524  27.944  1.00  0.00     0.029 A 
ATOM     56  C   UNL A   1      45.018  31.325  28.408  1.00  0.00     0.049 A 
ATOM     57  H   UNL A   1      43.818  29.595  28.293  1.00  0.00     0.167 HD
ATOM     58  C   UNL A   1      42.928  31.966  29.579  1.00  0.00     0.074 A 
ATOM     59  C   UNL A   1      42.114  32.892  30.342  1.00  0.00     0.031 C 
ATOM     60  C   UNL A   1      44.166  32.252  29.107  1.00  0.00     0.034 A 
BRANCH  47  61
ATOM     61  C   UNL A   1      46.934  27.537  26.221  1.00  0.00     0.023 A 
ATOM     62  C   UNL A   1      47.122  27.792  24.849  1.00  0.00     0.012 A 
ATOM     63  C   UNL A   1      47.916  26.821  26.934  1.00  0.00     0.148 A 
ATOM     64  C   UNL A   1      48.256  27.318  24.189  1.00  0.00     0.002 A 
ATOM     65  C   UNL A   1      49.062  26.387  26.278  1.00  0.00     0.091 A 
ATOM     66  F   UNL A   1      47.704  26.562  28.232  1.00  0.00    -0.205 F 
ATOM     67  C   UNL A   1      49.229  26.626  24.905  1.00  0.00     0.022 A 
BRANCH  65  68
ATOM     68  S   UNL A   1      50.403  25.552  27.135  1.00  0.00     0.127 S 
ATOM     69  O   UNL A   1      51.394  25.414  26.069  1.00  0.00    -0.237 OA
ATOM     70  O   UNL A   1      50.756  26.519  28.175  1.00  0.00    -0.237 OA
ATOM     71  O   UNL A   1      49.840  24.305  27.635  1.00  0.00    -0.744 OA
ENDBRANCH  65  68
ENDBRANCH  47  61
BRANCH  48  72
ATOM     72  C   UNL A   1      38.661  30.544  30.994  1.00  0.00     0.023 A 
ATOM     73  C   UNL A   1      38.554  30.326  32.381  1.00  0.00     0.012 A 
ATOM     74  C   UNL A   1      37.618  31.209  30.322  1.00  0.00     0.148 A 
ATOM     75  C   UNL A   1      37.418  30.739  33.080  1.00  0.00     0.002 A 
ATOM     76  C   UNL A   1      36.515  31.666  31.033  1.00  0.00     0.091 A 
ATOM     77  F   UNL A   1      37.727  31.386  28.997  1.00  0.00    -0.205 F 
ATOM     78  C   UNL A   1      36.405  31.418  32.409  1.00  0.00     0.022 A 
BRANCH  76  79
ATOM     79  S   UNL A   1      35.230  32.663  30.271  1.00  0.00     0.127 S 
ATOM     80  O   UNL A   1      35.985  33.828  29.817  1.00  0.00    -0.237 OA
ATOM     81  O   UNL A   1      34.755  31.783  29.202  1.00  0.00    -0.237 OA
ATOM     82  O   UNL A   1      34.252  32.908  31.322  1.00  0.00    -0.744 OA
ENDBRANCH  76  79
ENDBRANCH  48  72
BRANCH  60  83
ATOM     83  C   UNL A   1      44.702  33.637  29.354  1.00  0.00     0.023 A 
ATOM     84  C   UNL A   1      45.378  33.922  30.557  1.00  0.00     0.012 A 
ATOM     85  C   UNL A   1      44.595  34.634  28.365  1.00  0.00     0.148 A 
ATOM     86  C   UNL A   1      45.909  35.192  30.784  1.00  0.00     0.002 A 
ATOM     87  C   UNL A   1      45.167  35.882  28.581  1.00  0.00     0.091 A 
ATOM     88  F   UNL A   1      43.928  34.351  27.236  1.00  0.00    -0.205 F 
ATOM     89  C   UNL A   1      45.816  36.167  29.794  1.00  0.00     0.022 A 
BRANCH  87  90
ATOM     90  S   UNL A   1      45.169  37.155  27.314  1.00  0.00     0.127 S 
ATOM     91  O   UNL A   1      43.756  37.212  26.944  1.00  0.00    -0.237 OA
ATOM     92  O   UNL A   1      45.656  38.328  28.041  1.00  0.00    -0.237 OA
ATOM     93  O   UNL A   1      46.075  36.676  26.278  1.00  0.00    -0.744 OA
ENDBRANCH  87  90
ENDBRANCH  60  83
ENDBRANCH  34  35
ENDBRANCH  27  29
ENDBRANCH  26  27
ENDBRANCH  25  26
ENDBRANCH   1  25
TORSDOF 20
ENDMDL
MODEL 2
REMARK VINA RESULT:     -11.6      2.153      8.431
REMARK SMILES CC(C)C[C@H](CNC(=O)NC[C@H]1CCC(=O)N1)C(=O)OCCOC(=O)c1ccc(-c2c3nc(c(-c4cccc(S(=O)(=O)[O-])c4F)c4ccc([nH]4)c(-c4cccc(S(=O)(=O)[O-])c4F)c4nc(c(-c5cccc(S(=O)(=O)[O-])c5F)c5ccc2[nH]5)C=C4)C=C3)cc1
REMARK SMILES IDX 21 1 20 2 18 3 19 4 5 5 4 6 2 7 1 8 3 9 6 10 7 11 8 12 9 14
REMARK SMILES IDX 10 15 11 17 12 18 13 19 17 20 14 21 15 22 16 24 22 25 23 26
REMARK SMILES IDX 24 27 25 28 26 29 27 30 88 31 28 32 87 33 29 34 30 35 31 36
REMARK SMILES IDX 81 37 32 38 86 39 80 40 82 41 33 42 85 43 79 44 78 45 34 47
REMARK SMILES IDX 66 48 46 49 65 50 47 51 50 52 64 53 83 54 48 55 49 56 63 58
REMARK SMILES IDX 84 59 51 60 35 61 36 62 44 63 37 64 39 65 45 66 38 67 40 68
REMARK SMILES IDX 41 69 42 70 43 71 67 72 68 73 76 74 69 75 71 76 77 77 70 78
REMARK SMILES IDX 72 79 73 80 74 81 75 82 52 83 53 84 61 85 54 86 56 87 62 88
REMARK SMILES IDX 55 89 57 90 58 91 59 92 60 93
REMARK H PARENT 7 13 10 16 17 23 82 46 50 57
REMARK Flexibility Score: inf
ROOT
ATOM      1  C   UNL A   1      35.379  20.756  25.020  1.00  0.00     0.274 C 
ENDROOT
BRANCH   1   2
ATOM      2  O   UNL A   1      34.380  19.751  24.763  1.00  0.00    -0.462 OA
BRANCH   2   3
ATOM      3  C   UNL A   1      33.091  20.138  24.887  1.00  0.00     0.310 C 
ATOM      4  O   UNL A   1      32.163  19.370  25.122  1.00  0.00    -0.252 OA
BRANCH   3   5
ATOM      5  C   UNL A   1      32.873  21.625  24.648  1.00  0.00     0.119 C 
BRANCH   5   6
ATOM      6  C   UNL A   1      31.832  22.204  25.619  1.00  0.00     0.020 C 
BRANCH   6   7
ATOM      7  C   UNL A   1      32.425  23.097  26.739  1.00  0.00    -0.017 C 
ATOM      8  C   UNL A   1      33.442  22.381  27.636  1.00  0.00     0.007 C 
ATOM      9  C   UNL A   1      33.090  24.332  26.127  1.00  0.00     0.007 C 
ENDBRANCH   6   7
ENDBRANCH   5   6
BRANCH   5  10
ATOM     10  C   UNL A   1      32.680  22.064  23.179  1.00  0.00     0.133 C 
BRANCH  10  11
ATOM     11  N   UNL A   1      33.260  23.328  22.778  1.00  0.00    -0.337 N 
ATOM     12  C   UNL A   1      32.796  24.481  22.295  1.00  0.00     0.314 C 
ATOM     13  H   UNL A   1      34.238  23.340  22.890  1.00  0.00     0.165 HD
ATOM     14  O   UNL A   1      33.572  25.236  21.707  1.00  0.00    -0.249 OA
ATOM     15  N   UNL A   1      31.532  24.885  22.425  1.00  0.00    -0.336 N 
ATOM     16  H   UNL A   1      31.292  25.608  21.800  1.00  0.00     0.165 HD
BRANCH  15  17
ATOM     17  C   UNL A   1      30.436  24.492  23.285  1.00  0.00     0.142 C 
BRANCH  17  18
ATOM     18  C   UNL A   1      30.010  25.580  24.292  1.00  0.00     0.101 C 
ATOM     19  C   UNL A   1      30.874  26.838  24.317  1.00  0.00     0.036 C 
ATOM     20  N   UNL A   1      28.691  26.097  24.026  1.00  0.00    -0.352 N 
ATOM     21  C   UNL A   1      30.126  27.862  23.467  1.00  0.00     0.102 C 
ATOM     22  C   UNL A   1      28.701  27.386  23.538  1.00  0.00     0.220 C 
ATOM     23  H   UNL A   1      27.866  25.582  24.179  1.00  0.00     0.163 HD
ATOM     24  O   UNL A   1      27.703  28.008  23.213  1.00  0.00    -0.275 OA
ENDBRANCH  17  18
ENDBRANCH  15  17
ENDBRANCH  10  11
ENDBRANCH   5  10
ENDBRANCH   3   5
ENDBRANCH   2   3
ENDBRANCH   1   2
BRANCH   1  25
ATOM     25  C   UNL A   1      36.808  20.192  25.002  1.00  0.00     0.275 C 
BRANCH  25  26
ATOM     26  O   UNL A   1      37.809  21.230  25.056  1.00  0.00    -0.458 OA
BRANCH  26  27
ATOM     27  C   UNL A   1      38.896  20.936  25.806  1.00  0.00     0.338 C 
ATOM     28  O   UNL A   1      39.504  19.876  25.829  1.00  0.00    -0.246 OA
BRANCH  27  29
ATOM     29  C   UNL A   1      39.423  22.126  26.494  1.00  0.00     0.060 A 
ATOM     30  C   UNL A   1      38.874  23.359  26.127  1.00  0.00     0.016 A 
ATOM     31  C   UNL A   1      40.523  22.076  27.347  1.00  0.00     0.016 A 
ATOM     32  C   UNL A   1      39.438  24.548  26.561  1.00  0.00     0.010 A 
ATOM     33  C   UNL A   1      41.096  23.277  27.789  1.00  0.00     0.010 A 
ATOM     34  C   UNL A   1      40.577  24.516  27.366  1.00  0.00    -0.014 A 
BRANCH  34  35
ATOM     35  C   UNL A   1      41.283  25.790  27.629  1.00  0.00     0.031 A 
ATOM     36  C   UNL A   1      40.598  26.851  28.446  1.00  0.00     0.074 A 
ATOM     37  C   UNL A   1      42.550  25.963  27.211  1.00  0.00     0.049 A 
ATOM     38  N   UNL A   1      41.026  28.039  28.784  1.00  0.00    -0.248 NA
ATOM     39  C   UNL A   1      39.253  26.529  28.954  1.00  0.00     0.031 C 
ATOM     40  C   UNL A   1      43.331  24.982  26.458  1.00  0.00     0.029 A 
ATOM     41  N   UNL A   1      43.402  27.028  27.360  1.00  0.00    -0.354 N 
ATOM     42  C   UNL A   1      39.986  28.628  29.493  1.00  0.00     0.074 A 
ATOM     43  C   UNL A   1      38.908  27.663  29.547  1.00  0.00     0.031 C 
ATOM     44  C   UNL A   1      44.546  25.495  26.201  1.00  0.00     0.029 A 
ATOM     45  C   UNL A   1      44.616  26.851  26.739  1.00  0.00     0.049 A 
ATOM     46  H   UNL A   1      43.166  27.841  27.862  1.00  0.00     0.167 HD
ATOM     47  C   UNL A   1      39.936  29.858  30.054  1.00  0.00     0.034 A 
ATOM     48  C   UNL A   1      45.656  27.696  26.607  1.00  0.00     0.034 A 
ATOM     49  C   UNL A   1      41.028  30.793  30.040  1.00  0.00     0.049 A 
ATOM     50  C   UNL A   1      45.574  29.057  27.246  1.00  0.00     0.074 A 
ATOM     51  C   UNL A   1      41.089  32.056  30.599  1.00  0.00     0.029 A 
ATOM     52  N   UNL A   1      42.255  30.563  29.436  1.00  0.00    -0.354 N 
ATOM     53  N   UNL A   1      44.610  29.572  27.971  1.00  0.00    -0.248 NA
ATOM     54  C   UNL A   1      46.735  29.941  27.074  1.00  0.00     0.031 C 
ATOM     55  C   UNL A   1      42.350  32.595  30.325  1.00  0.00     0.029 A 
ATOM     56  C   UNL A   1      43.082  31.659  29.610  1.00  0.00     0.049 A 
ATOM     57  H   UNL A   1      42.502  29.741  28.954  1.00  0.00     0.167 HD
ATOM     58  C   UNL A   1      45.064  30.824  28.375  1.00  0.00     0.074 A 
ATOM     59  C   UNL A   1      46.397  30.979  27.827  1.00  0.00     0.031 C 
ATOM     60  C   UNL A   1      44.430  31.766  29.116  1.00  0.00     0.034 A 
BRANCH  47  61
ATOM     61  C   UNL A   1      38.659  30.259  30.742  1.00  0.00     0.023 A 
ATOM     62  C   UNL A   1      38.453  29.921  32.094  1.00  0.00     0.012 A 
ATOM     63  C   UNL A   1      37.678  31.005  30.058  1.00  0.00     0.148 A 
ATOM     64  C   UNL A   1      37.277  30.292  32.747  1.00  0.00     0.002 A 
ATOM     65  C   UNL A   1      36.528  31.406  30.728  1.00  0.00     0.091 A 
ATOM     66  F   UNL A   1      37.880  31.292  28.765  1.00  0.00    -0.205 F 
ATOM     67  C   UNL A   1      36.321  31.043  32.067  1.00  0.00     0.022 A 
BRANCH  65  68
ATOM     68  S   UNL A   1      35.277  32.438  29.955  1.00  0.00     0.127 S 
ATOM     69  O   UNL A   1      34.346  32.654  31.062  1.00  0.00    -0.237 OA
ATOM     70  O   UNL A   1      36.046  33.620  29.566  1.00  0.00    -0.237 OA
ATOM     71  O   UNL A   1      34.755  31.663  28.837  1.00  0.00    -0.744 OA
ENDBRANCH  65  68
ENDBRANCH  47  61
BRANCH  48  72
ATOM     72  C   UNL A   1      46.881  27.262  25.877  1.00  0.00     0.023 A 
ATOM     73  C   UNL A   1      47.811  26.424  26.521  1.00  0.00     0.012 A 
ATOM     74  C   UNL A   1      47.116  27.651  24.544  1.00  0.00     0.148 A 
ATOM     75  C   UNL A   1      48.967  26.005  25.861  1.00  0.00     0.002 A 
ATOM     76  C   UNL A   1      48.241  27.185  23.874  1.00  0.00     0.091 A 
ATOM     77  F   UNL A   1      46.231  28.467  23.954  1.00  0.00    -0.205 F 
ATOM     78  C   UNL A   1      49.176  26.375  24.535  1.00  0.00     0.022 A 
BRANCH  76  79
ATOM     79  S   UNL A   1      48.518  27.505  22.128  1.00  0.00     0.127 S 
ATOM     80  O   UNL A   1      49.732  28.316  22.162  1.00  0.00    -0.237 OA
ATOM     81  O   UNL A   1      48.694  26.154  21.594  1.00  0.00    -0.237 OA
ATOM     82  O   UNL A   1      47.314  28.180  21.661  1.00  0.00    -0.744 OA
ENDBRANCH  76  79
ENDBRANCH  48  72
BRANCH  60  83
ATOM     83  C   UNL A   1      45.185  33.031  29.425  1.00  0.00     0.023 A 
ATOM     84  C   UNL A   1      45.993  33.101  30.577  1.00  0.00     0.012 A 
ATOM     85  C   UNL A   1      45.146  34.124  28.538  1.00  0.00     0.148 A 
ATOM     86  C   UNL A   1      46.725  34.255  30.858  1.00  0.00     0.002 A 
ATOM     87  C   UNL A   1      45.914  35.252  28.801  1.00  0.00     0.091 A 
ATOM     88  F   UNL A   1      44.354  34.048  27.458  1.00  0.00    -0.205 F 
ATOM     89  C   UNL A   1      46.696  35.324  29.966  1.00  0.00     0.022 A 
BRANCH  87  90
ATOM     90  S   UNL A   1      46.001  36.628  27.650  1.00  0.00     0.127 S 
ATOM     91  O   UNL A   1      46.901  37.545  28.345  1.00  0.00    -0.237 OA
ATOM     92  O   UNL A   1      46.569  36.007  26.453  1.00  0.00    -0.237 OA
ATOM     93  O   UNL A   1      44.628  37.091  27.488  1.00  0.00    -0.744 OA
ENDBRANCH  87  90
ENDBRANCH  60  83
ENDBRANCH  34  35
ENDBRANCH  27  29
ENDBRANCH  26  27
ENDBRANCH  25  26
ENDBRANCH   1  25
TORSDOF 20
ENDMDL
MODEL 3
REMARK VINA RESULT:     -11.5      1.786      3.997
REMARK SMILES CC(C)C[C@H](CNC(=O)NC[C@H]1CCC(=O)N1)C(=O)OCCOC(=O)c1ccc(-c2c3nc(c(-c4cccc(S(=O)(=O)[O-])c4F)c4ccc([nH]4)c(-c4cccc(S(=O)(=O)[O-])c4F)c4nc(c(-c5cccc(S(=O)(=O)[O-])c5F)c5ccc2[nH]5)C=C4)C=C3)cc1
REMARK SMILES IDX 21 1 20 2 18 3 19 4 5 5 4 6 2 7 1 8 3 9 6 10 7 11 8 12 9 14
REMARK SMILES IDX 10 15 11 17 12 18 13 19 17 20 14 21 15 22 16 24 22 25 23 26
REMARK SMILES IDX 24 27 25 28 26 29 27 30 88 31 28 32 87 33 29 34 30 35 31 36
REMARK SMILES IDX 81 37 32 38 86 39 80 40 82 41 33 42 85 43 79 44 78 45 34 47
REMARK SMILES IDX 66 48 46 49 65 50 47 51 50 52 64 53 83 54 48 55 49 56 63 58
REMARK SMILES IDX 84 59 51 60 35 61 36 62 44 63 37 64 39 65 45 66 38 67 40 68
REMARK SMILES IDX 41 69 42 70 43 71 67 72 68 73 76 74 69 75 71 76 77 77 70 78
REMARK SMILES IDX 72 79 73 80 74 81 75 82 52 83 53 84 61 85 54 86 56 87 62 88
REMARK SMILES IDX 55 89 57 90 58 91 59 92 60 93
REMARK H PARENT 7 13 10 16 17 23 82 46 50 57
REMARK Flexibility Score: inf
ROOT
ATOM      1  C   UNL A   1      35.949  21.828  25.726  1.00  0.00     0.274 C 
ENDROOT
BRANCH   1   2
ATOM      2  O   UNL A   1      35.815  23.072  25.012  1.00  0.00    -0.462 OA
BRANCH   2   3
ATOM      3  C   UNL A   1      35.179  23.017  23.820  1.00  0.00     0.310 C 
ATOM      4  O   UNL A   1      35.753  22.971  22.738  1.00  0.00    -0.252 OA
BRANCH   3   5
ATOM      5  C   UNL A   1      33.663  23.079  23.932  1.00  0.00     0.119 C 
BRANCH   5   6
ATOM      6  C   UNL A   1      33.009  21.773  23.456  1.00  0.00     0.020 C 
BRANCH   6   7
ATOM      7  C   UNL A   1      32.278  20.977  24.568  1.00  0.00    -0.017 C 
ATOM      8  C   UNL A   1      32.952  19.647  24.929  1.00  0.00     0.007 C 
ATOM      9  C   UNL A   1      32.162  21.830  25.832  1.00  0.00     0.007 C 
ENDBRANCH   6   7
ENDBRANCH   5   6
BRANCH   5  10
ATOM     10  C   UNL A   1      32.985  24.359  23.391  1.00  0.00     0.133 C 
BRANCH  10  11
ATOM     11  N   UNL A   1      33.237  24.717  22.012  1.00  0.00    -0.337 N 
ATOM     12  C   UNL A   1      32.842  25.688  21.189  1.00  0.00     0.314 C 
ATOM     13  H   UNL A   1      33.855  24.088  21.573  1.00  0.00     0.165 HD
ATOM     14  O   UNL A   1      32.938  25.516  19.973  1.00  0.00    -0.249 OA
ATOM     15  N   UNL A   1      32.359  26.861  21.604  1.00  0.00    -0.336 N 
ATOM     16  H   UNL A   1      31.874  27.349  20.899  1.00  0.00     0.165 HD
BRANCH  15  17
ATOM     17  C   UNL A   1      32.392  27.570  22.865  1.00  0.00     0.142 C 
BRANCH  17  18
ATOM     18  C   UNL A   1      31.005  27.755  23.515  1.00  0.00     0.101 C 
ATOM     19  C   UNL A   1      30.830  29.011  24.364  1.00  0.00     0.036 C 
ATOM     20  N   UNL A   1      29.947  27.869  22.543  1.00  0.00    -0.352 N 
ATOM     21  C   UNL A   1      30.123  30.018  23.460  1.00  0.00     0.102 C 
ATOM     22  C   UNL A   1      29.422  29.141  22.458  1.00  0.00     0.220 C 
ATOM     23  H   UNL A   1      29.630  27.115  21.995  1.00  0.00     0.163 HD
ATOM     24  O   UNL A   1      28.543  29.474  21.681  1.00  0.00    -0.275 OA
ENDBRANCH  17  18
ENDBRANCH  15  17
ENDBRANCH  10  11
ENDBRANCH   5  10
ENDBRANCH   3   5
ENDBRANCH   2   3
ENDBRANCH   1   2
BRANCH   1  25
ATOM     25  C   UNL A   1      37.000  20.897  25.104  1.00  0.00     0.275 C 
BRANCH  25  26
ATOM     26  O   UNL A   1      38.282  21.541  24.949  1.00  0.00    -0.458 OA
BRANCH  26  27
ATOM     27  C   UNL A   1      39.186  21.249  25.912  1.00  0.00     0.338 C 
ATOM     28  O   UNL A   1      39.742  20.175  26.093  1.00  0.00    -0.246 OA
BRANCH  27  29
ATOM     29  C   UNL A   1      39.605  22.452  26.650  1.00  0.00     0.060 A 
ATOM     30  C   UNL A   1      39.002  23.658  26.280  1.00  0.00     0.016 A 
ATOM     31  C   UNL A   1      40.663  22.447  27.557  1.00  0.00     0.016 A 
ATOM     32  C   UNL A   1      39.471  24.868  26.767  1.00  0.00     0.010 A 
ATOM     33  C   UNL A   1      41.139  23.669  28.052  1.00  0.00     0.010 A 
ATOM     34  C   UNL A   1      40.568  24.884  27.628  1.00  0.00    -0.014 A 
BRANCH  34  35
ATOM     35  C   UNL A   1      41.182  26.193  27.953  1.00  0.00     0.031 A 
ATOM     36  C   UNL A   1      42.559  26.503  27.438  1.00  0.00     0.074 A 
ATOM     37  C   UNL A   1      40.482  27.120  28.631  1.00  0.00     0.049 A 
ATOM     38  N   UNL A   1      43.285  27.576  27.614  1.00  0.00    -0.248 NA
ATOM     39  C   UNL A   1      43.206  25.468  26.612  1.00  0.00     0.031 C 
ATOM     40  C   UNL A   1      39.117  26.948  29.132  1.00  0.00     0.029 A 
ATOM     41  N   UNL A   1      40.823  28.391  29.017  1.00  0.00    -0.354 N 
ATOM     42  C   UNL A   1      44.492  27.326  26.971  1.00  0.00     0.074 A 
ATOM     43  C   UNL A   1      44.398  26.003  26.392  1.00  0.00     0.031 C 
ATOM     44  C   UNL A   1      38.742  28.069  29.769  1.00  0.00     0.029 A 
ATOM     45  C   UNL A   1      39.847  29.023  29.752  1.00  0.00     0.049 A 
ATOM     46  H   UNL A   1      41.684  28.811  28.789  1.00  0.00     0.167 HD
ATOM     47  C   UNL A   1      45.576  28.129  26.867  1.00  0.00     0.034 A 
ATOM     48  C   UNL A   1      39.856  30.227  30.355  1.00  0.00     0.034 A 
ATOM     49  C   UNL A   1      45.644  29.462  27.403  1.00  0.00     0.049 A 
ATOM     50  C   UNL A   1      41.076  31.100  30.219  1.00  0.00     0.074 A 
ATOM     51  C   UNL A   1      46.687  30.367  27.333  1.00  0.00     0.029 A 
ATOM     52  N   UNL A   1      44.622  30.082  28.106  1.00  0.00    -0.354 N 
ATOM     53  N   UNL A   1      42.181  30.877  29.550  1.00  0.00    -0.248 NA
ATOM     54  C   UNL A   1      41.036  32.405  30.895  1.00  0.00     0.031 C 
ATOM     55  C   UNL A   1      46.300  31.532  28.003  1.00  0.00     0.029 A 
ATOM     56  C   UNL A   1      45.008  31.359  28.474  1.00  0.00     0.049 A 
ATOM     57  H   UNL A   1      43.751  29.674  28.314  1.00  0.00     0.167 HD
ATOM     58  C   UNL A   1      42.952  32.026  29.691  1.00  0.00     0.074 A 
ATOM     59  C   UNL A   1      42.176  32.950  30.495  1.00  0.00     0.031 C 
ATOM     60  C   UNL A   1      44.194  32.288  29.215  1.00  0.00     0.034 A 
BRANCH  47  61
ATOM     61  C   UNL A   1      46.776  27.590  26.136  1.00  0.00     0.023 A 
ATOM     62  C   UNL A   1      46.920  27.825  24.754  1.00  0.00     0.012 A 
ATOM     63  C   UNL A   1      47.779  26.880  26.826  1.00  0.00     0.148 A 
ATOM     64  C   UNL A   1      48.030  27.337  24.065  1.00  0.00     0.002 A 
ATOM     65  C   UNL A   1      48.901  26.433  26.140  1.00  0.00     0.091 A 
ATOM     66  F   UNL A   1      47.608  26.642  28.134  1.00  0.00    -0.205 F 
ATOM     67  C   UNL A   1      49.024  26.651  24.759  1.00  0.00     0.022 A 
BRANCH  65  68
ATOM     68  S   UNL A   1      50.266  25.606  26.965  1.00  0.00     0.127 S 
ATOM     69  O   UNL A   1      51.222  25.449  25.869  1.00  0.00    -0.237 OA
ATOM     70  O   UNL A   1      50.657  26.586  27.978  1.00  0.00    -0.237 OA
ATOM     71  O   UNL A   1      49.717  24.369  27.502  1.00  0.00    -0.744 OA
ENDBRANCH  65  68
ENDBRANCH  47  61
BRANCH  48  72
ATOM     72  C   UNL A   1      38.656  30.694  31.105  1.00  0.00     0.023 A 
ATOM     73  C   UNL A   1      38.605  30.528  32.502  1.00  0.00     0.012 A 
ATOM     74  C   UNL A   1      37.579  31.321  30.448  1.00  0.00     0.148 A 
ATOM     75  C   UNL A   1      37.491  30.955  33.228  1.00  0.00     0.002 A 
ATOM     76  C   UNL A   1      36.499  31.793  31.183  1.00  0.00     0.091 A 
ATOM     77  F   UNL A   1      37.635  31.448  29.115  1.00  0.00    -0.205 F 
ATOM     78  C   UNL A   1      36.445  31.597  32.572  1.00  0.00     0.022 A 
BRANCH  76  79
ATOM     79  S   UNL A   1      35.173  32.746  30.435  1.00  0.00     0.127 S 
ATOM     80  O   UNL A   1      34.223  32.856  31.539  1.00  0.00    -0.237 OA
ATOM     81  O   UNL A   1      35.855  33.992  30.082  1.00  0.00    -0.237 OA
ATOM     82  O   UNL A   1      34.729  31.962  29.289  1.00  0.00    -0.744 OA
ENDBRANCH  76  79
ENDBRANCH  48  72
BRANCH  60  83
ATOM     83  C   UNL A   1      44.777  33.645  29.504  1.00  0.00     0.023 A 
ATOM     84  C   UNL A   1      45.517  33.853  30.684  1.00  0.00     0.012 A 
ATOM     85  C   UNL A   1      44.649  34.694  28.572  1.00  0.00     0.148 A 
ATOM     86  C   UNL A   1      46.093  35.096  30.949  1.00  0.00     0.002 A 
ATOM     87  C   UNL A   1      45.265  35.915  28.822  1.00  0.00     0.091 A 
ATOM     88  F   UNL A   1      43.922  34.485  27.465  1.00  0.00    -0.205 F 
ATOM     89  C   UNL A   1      45.977  36.122  30.014  1.00  0.00     0.022 A 
BRANCH  87  90
ATOM     90  S   UNL A   1      45.239  37.251  27.620  1.00  0.00     0.127 S 
ATOM     91  O   UNL A   1      46.011  36.678  26.519  1.00  0.00    -0.237 OA
ATOM     92  O   UNL A   1      43.810  37.405  27.347  1.00  0.00    -0.237 OA
ATOM     93  O   UNL A   1      45.846  38.394  28.291  1.00  0.00    -0.744 OA
ENDBRANCH  87  90
ENDBRANCH  60  83
ENDBRANCH  34  35
ENDBRANCH  27  29
ENDBRANCH  26  27
ENDBRANCH  25  26
ENDBRANCH   1  25
TORSDOF 20
ENDMDL
