MODEL 1
REMARK VINA RESULT:      -9.9      0.000      0.000
REMARK SMILES CC(=O)N(C)n1cnn(CC(=O)OCCOC(=O)c2ccc(-c3c4nc(c(-c5cccc(S(=O)(=O)[O-])c5F)c5ccc([nH]5)c(-c5cccc(S(=O)(=O)[O-])c5F)c5nc(c(-c6cccc(S(=O)(=O)[O-])c6F)c6ccc3[nH]6)C=C5)C=C4)cc2)c1=S
REMARK SMILES IDX 14 1 13 2 11 3 12 4 10 5 9 6 6 7 7 8 82 9 8 10 83 11 4 12
REMARK SMILES IDX 5 13 2 14 1 15 3 16 15 17 16 18 17 19 18 20 19 21 20 22
REMARK SMILES IDX 81 23 21 24 80 25 22 26 23 27 24 28 74 29 25 30 79 31 73 32
REMARK SMILES IDX 75 33 26 34 78 35 72 36 71 37 27 39 59 40 39 41 58 42 40 43
REMARK SMILES IDX 43 44 57 45 76 46 41 47 42 48 56 50 77 51 44 52 28 53 29 54
REMARK SMILES IDX 37 55 30 56 32 57 38 58 31 59 33 60 34 61 35 62 36 63 60 64
REMARK SMILES IDX 61 65 69 66 62 67 64 68 70 69 63 70 65 71 66 72 67 73 68 74
REMARK SMILES IDX 45 75 46 76 54 77 47 78 49 79 55 80 48 81 50 82 51 83 52 84
REMARK SMILES IDX 53 85
REMARK H PARENT 75 38 43 49
REMARK Flexibility Score: inf
ROOT
ATOM      1  C   UNL A   1      41.408  20.486  26.619  1.00  0.00     0.274 C 
ENDROOT
BRANCH   1   2
ATOM      2  O   UNL A   1      41.960  19.996  25.379  1.00  0.00    -0.461 OA
BRANCH   2   3
ATOM      3  C   UNL A   1      43.031  19.167  25.485  1.00  0.00     0.328 C 
ATOM      4  O   UNL A   1      42.949  17.946  25.604  1.00  0.00    -0.250 OA
BRANCH   3   5
ATOM      5  C   UNL A   1      44.379  19.876  25.498  1.00  0.00     0.270 C 
BRANCH   5   6
ATOM      6  N   UNL A   1      44.454  21.259  25.046  1.00  0.00    -0.226 N 
ATOM      7  N   UNL A   1      44.793  23.428  24.843  1.00  0.00    -0.211 N 
ATOM      8  C   UNL A   1      44.764  22.823  23.638  1.00  0.00     0.247 A 
ATOM      9  C   UNL A   1      44.581  22.445  25.794  1.00  0.00     0.217 A 
ATOM     10  N   UNL A   1      44.616  21.539  23.693  1.00  0.00    -0.158 NA
ATOM     11  S   UNL A   1      44.562  22.597  27.454  1.00  0.00    -0.037 S 
BRANCH   7  12
ATOM     12  N   UNL A   1      45.175  24.752  25.042  1.00  0.00    -0.250 N 
ATOM     13  C   UNL A   1      46.617  24.945  25.010  1.00  0.00     0.176 C 
BRANCH  12  14
ATOM     14  C   UNL A   1      44.185  25.711  25.134  1.00  0.00     0.238 C 
ATOM     15  C   UNL A   1      44.652  27.131  25.324  1.00  0.00     0.116 C 
ATOM     16  O   UNL A   1      42.984  25.458  25.058  1.00  0.00    -0.273 OA
ENDBRANCH  12  14
ENDBRANCH   7  12
ENDBRANCH   5   6
ENDBRANCH   3   5
ENDBRANCH   2   3
ENDBRANCH   1   2
BRANCH   1  17
ATOM     17  C   UNL A   1      40.350  21.560  26.376  1.00  0.00     0.275 C 
BRANCH  17  18
ATOM     18  O   UNL A   1      40.211  22.406  27.518  1.00  0.00    -0.458 OA
BRANCH  18  19
ATOM     19  C   UNL A   1      39.570  23.559  27.251  1.00  0.00     0.338 C 
ATOM     20  O   UNL A   1      38.403  23.676  26.864  1.00  0.00    -0.246 OA
BRANCH  19  21
ATOM     21  C   UNL A   1      40.471  24.700  27.348  1.00  0.00     0.060 A 
ATOM     22  C   UNL A   1      41.435  24.674  28.364  1.00  0.00     0.016 A 
ATOM     23  C   UNL A   1      40.115  25.881  26.689  1.00  0.00     0.016 A 
ATOM     24  C   UNL A   1      41.896  25.867  28.874  1.00  0.00     0.010 A 
ATOM     25  C   UNL A   1      40.560  27.072  27.211  1.00  0.00     0.010 A 
ATOM     26  C   UNL A   1      41.370  27.048  28.352  1.00  0.00    -0.014 A 
BRANCH  26  27
ATOM     27  C   UNL A   1      41.528  28.263  29.126  1.00  0.00     0.031 A 
ATOM     28  C   UNL A   1      42.537  29.231  28.648  1.00  0.00     0.074 A 
ATOM     29  C   UNL A   1      40.629  28.549  30.090  1.00  0.00     0.049 A 
ATOM     30  N   UNL A   1      43.499  29.773  29.321  1.00  0.00    -0.248 NA
ATOM     31  C   UNL A   1      42.512  29.593  27.224  1.00  0.00     0.031 C 
ATOM     32  C   UNL A   1      39.391  27.816  30.388  1.00  0.00     0.029 A 
ATOM     33  N   UNL A   1      40.523  29.671  30.854  1.00  0.00    -0.354 N 
ATOM     34  C   UNL A   1      44.095  30.679  28.448  1.00  0.00     0.074 A 
ATOM     35  C   UNL A   1      43.551  30.419  27.141  1.00  0.00     0.031 C 
ATOM     36  C   UNL A   1      38.541  28.647  31.027  1.00  0.00     0.029 A 
ATOM     37  C   UNL A   1      39.219  29.908  31.271  1.00  0.00     0.049 A 
ATOM     38  H   UNL A   1      41.285  30.249  31.087  1.00  0.00     0.167 HD
ATOM     39  C   UNL A   1      44.850  31.724  28.880  1.00  0.00     0.034 A 
ATOM     40  C   UNL A   1      38.702  31.102  31.643  1.00  0.00     0.034 A 
ATOM     41  C   UNL A   1      45.231  31.603  30.256  1.00  0.00     0.049 A 
ATOM     42  C   UNL A   1      39.830  32.005  31.974  1.00  0.00     0.074 A 
ATOM     43  C   UNL A   1      45.951  30.685  30.993  1.00  0.00     0.029 A 
ATOM     44  N   UNL A   1      44.561  32.380  31.171  1.00  0.00    -0.354 N 
ATOM     45  N   UNL A   1      40.631  31.831  32.990  1.00  0.00    -0.248 NA
ATOM     46  C   UNL A   1      40.329  32.890  30.933  1.00  0.00     0.031 C 
ATOM     47  C   UNL A   1      45.320  30.659  32.269  1.00  0.00     0.029 A 
ATOM     48  C   UNL A   1      44.263  31.571  32.236  1.00  0.00     0.049 A 
ATOM     49  H   UNL A   1      44.339  33.334  31.078  1.00  0.00     0.167 HD
ATOM     50  C   UNL A   1      41.882  32.221  32.524  1.00  0.00     0.074 A 
ATOM     51  C   UNL A   1      41.609  32.977  31.304  1.00  0.00     0.031 C 
ATOM     52  C   UNL A   1      43.032  31.648  32.995  1.00  0.00     0.034 A 
BRANCH  39  53
ATOM     53  C   UNL A   1      45.024  33.006  28.118  1.00  0.00     0.023 A 
ATOM     54  C   UNL A   1      46.285  33.275  27.549  1.00  0.00     0.012 A 
ATOM     55  C   UNL A   1      44.076  34.053  28.119  1.00  0.00     0.148 A 
ATOM     56  C   UNL A   1      46.589  34.529  27.011  1.00  0.00     0.002 A 
ATOM     57  C   UNL A   1      44.350  35.265  27.497  1.00  0.00     0.091 A 
ATOM     58  F   UNL A   1      42.949  33.935  28.833  1.00  0.00    -0.205 F 
ATOM     59  C   UNL A   1      45.614  35.519  26.965  1.00  0.00     0.022 A 
BRANCH  57  60
ATOM     60  S   UNL A   1      43.069  36.512  27.338  1.00  0.00     0.127 S 
ATOM     61  O   UNL A   1      42.639  36.678  28.721  1.00  0.00    -0.237 OA
ATOM     62  O   UNL A   1      43.805  37.647  26.777  1.00  0.00    -0.237 OA
ATOM     63  O   UNL A   1      42.102  35.924  26.417  1.00  0.00    -0.744 OA
ENDBRANCH  57  60
ENDBRANCH  39  53
BRANCH  40  64
ATOM     64  C   UNL A   1      37.310  31.575  31.450  1.00  0.00     0.023 A 
ATOM     65  C   UNL A   1      36.540  31.967  32.558  1.00  0.00     0.012 A 
ATOM     66  C   UNL A   1      36.793  31.831  30.157  1.00  0.00     0.148 A 
ATOM     67  C   UNL A   1      35.293  32.582  32.386  1.00  0.00     0.002 A 
ATOM     68  C   UNL A   1      35.538  32.409  29.990  1.00  0.00     0.091 A 
ATOM     69  F   UNL A   1      37.564  31.596  29.087  1.00  0.00    -0.205 F 
ATOM     70  C   UNL A   1      34.788  32.795  31.104  1.00  0.00     0.022 A 
BRANCH  68  71
ATOM     71  S   UNL A   1      34.833  32.666  28.356  1.00  0.00     0.127 S 
ATOM     72  O   UNL A   1      34.611  31.295  27.894  1.00  0.00    -0.237 OA
ATOM     73  O   UNL A   1      33.616  33.413  28.662  1.00  0.00    -0.237 OA
ATOM     74  O   UNL A   1      35.854  33.385  27.604  1.00  0.00    -0.744 OA
ENDBRANCH  68  71
ENDBRANCH  40  64
BRANCH  52  75
ATOM     75  C   UNL A   1      42.946  30.734  34.198  1.00  0.00     0.023 A 
ATOM     76  C   UNL A   1      42.975  31.250  35.511  1.00  0.00     0.012 A 
ATOM     77  C   UNL A   1      42.604  29.382  34.015  1.00  0.00     0.148 A 
ATOM     78  C   UNL A   1      42.696  30.440  36.613  1.00  0.00     0.002 A 
ATOM     79  C   UNL A   1      42.278  28.589  35.112  1.00  0.00     0.091 A 
ATOM     80  F   UNL A   1      42.565  28.897  32.763  1.00  0.00    -0.205 F 
ATOM     81  C   UNL A   1      42.333  29.113  36.413  1.00  0.00     0.022 A 
BRANCH  79  82
ATOM     82  S   UNL A   1      41.654  26.916  34.911  1.00  0.00     0.127 S 
ATOM     83  O   UNL A   1      41.250  26.573  36.272  1.00  0.00    -0.237 OA
ATOM     84  O   UNL A   1      40.545  27.098  33.972  1.00  0.00    -0.237 OA
ATOM     85  O   UNL A   1      42.766  26.145  34.368  1.00  0.00    -0.744 OA
ENDBRANCH  79  82
ENDBRANCH  52  75
ENDBRANCH  26  27
ENDBRANCH  19  21
ENDBRANCH  18  19
ENDBRANCH  17  18
ENDBRANCH   1  17
TORSDOF 17
ENDMDL
MODEL 2
REMARK VINA RESULT:      -9.6      4.688      9.195
REMARK SMILES CC(=O)N(C)n1cnn(CC(=O)OCCOC(=O)c2ccc(-c3c4nc(c(-c5cccc(S(=O)(=O)[O-])c5F)c5ccc([nH]5)c(-c5cccc(S(=O)(=O)[O-])c5F)c5nc(c(-c6cccc(S(=O)(=O)[O-])c6F)c6ccc3[nH]6)C=C5)C=C4)cc2)c1=S
REMARK SMILES IDX 14 1 13 2 11 3 12 4 10 5 9 6 6 7 7 8 82 9 8 10 83 11 4 12
REMARK SMILES IDX 5 13 2 14 1 15 3 16 15 17 16 18 17 19 18 20 19 21 20 22
REMARK SMILES IDX 81 23 21 24 80 25 22 26 23 27 24 28 74 29 25 30 79 31 73 32
REMARK SMILES IDX 75 33 26 34 78 35 72 36 71 37 27 39 59 40 39 41 58 42 40 43
REMARK SMILES IDX 43 44 57 45 76 46 41 47 42 48 56 50 77 51 44 52 28 53 29 54
REMARK SMILES IDX 37 55 30 56 32 57 38 58 31 59 33 60 34 61 35 62 36 63 60 64
REMARK SMILES IDX 61 65 69 66 62 67 64 68 70 69 63 70 65 71 66 72 67 73 68 74
REMARK SMILES IDX 45 75 46 76 54 77 47 78 49 79 55 80 48 81 50 82 51 83 52 84
REMARK SMILES IDX 53 85
REMARK H PARENT 75 38 43 49
REMARK Flexibility Score: inf
ROOT
ATOM      1  C   UNL A   1      32.018  29.741  25.632  1.00  0.00     0.274 C 
ENDROOT
BRANCH   1   2
ATOM      2  O   UNL A   1      31.125  29.645  24.503  1.00  0.00    -0.461 OA
BRANCH   2   3
ATOM      3  C   UNL A   1      31.518  28.822  23.495  1.00  0.00     0.328 C 
ATOM      4  O   UNL A   1      32.506  29.019  22.790  1.00  0.00    -0.250 OA
BRANCH   3   5
ATOM      5  C   UNL A   1      30.598  27.632  23.258  1.00  0.00     0.270 C 
BRANCH   5   6
ATOM      6  N   UNL A   1      31.086  26.291  23.552  1.00  0.00    -0.226 N 
ATOM      7  N   UNL A   1      32.204  24.392  23.639  1.00  0.00    -0.211 N 
ATOM      8  C   UNL A   1      31.543  24.624  24.791  1.00  0.00     0.247 A 
ATOM      9  C   UNL A   1      31.923  25.451  22.792  1.00  0.00     0.217 A 
ATOM     10  N   UNL A   1      30.905  25.750  24.820  1.00  0.00    -0.158 NA
ATOM     11  S   UNL A   1      32.502  25.728  21.254  1.00  0.00    -0.037 S 
BRANCH   7  12
ATOM     12  N   UNL A   1      33.138  23.375  23.467  1.00  0.00    -0.250 N 
ATOM     13  C   UNL A   1      32.546  22.115  23.047  1.00  0.00     0.176 C 
BRANCH  12  14
ATOM     14  C   UNL A   1      34.477  23.689  23.604  1.00  0.00     0.238 C 
ATOM     15  C   UNL A   1      34.922  24.112  24.981  1.00  0.00     0.116 C 
ATOM     16  O   UNL A   1      35.288  23.627  22.682  1.00  0.00    -0.273 OA
ENDBRANCH  12  14
ENDBRANCH   7  12
ENDBRANCH   5   6
ENDBRANCH   3   5
ENDBRANCH   2   3
ENDBRANCH   1   2
BRANCH   1  17
ATOM     17  C   UNL A   1      31.705  30.962  26.493  1.00  0.00     0.275 C 
BRANCH  17  18
ATOM     18  O   UNL A   1      32.867  31.400  27.198  1.00  0.00    -0.458 OA
BRANCH  18  19
ATOM     19  C   UNL A   1      32.803  32.690  27.581  1.00  0.00     0.338 C 
ATOM     20  O   UNL A   1      31.932  33.506  27.262  1.00  0.00    -0.246 OA
BRANCH  19  21
ATOM     21  C   UNL A   1      33.986  33.075  28.339  1.00  0.00     0.060 A 
ATOM     22  C   UNL A   1      35.054  33.634  27.625  1.00  0.00     0.016 A 
ATOM     23  C   UNL A   1      34.142  32.556  29.628  1.00  0.00     0.016 A 
ATOM     24  C   UNL A   1      36.332  33.484  28.115  1.00  0.00     0.010 A 
ATOM     25  C   UNL A   1      35.419  32.389  30.108  1.00  0.00     0.010 A 
ATOM     26  C   UNL A   1      36.497  32.772  29.302  1.00  0.00    -0.014 A 
BRANCH  26  27
ATOM     27  C   UNL A   1      37.819  32.265  29.613  1.00  0.00     0.031 A 
ATOM     28  C   UNL A   1      38.099  30.861  29.247  1.00  0.00     0.074 A 
ATOM     29  C   UNL A   1      38.776  33.129  30.011  1.00  0.00     0.049 A 
ATOM     30  N   UNL A   1      38.569  29.922  30.001  1.00  0.00    -0.248 NA
ATOM     31  C   UNL A   1      37.750  30.431  27.886  1.00  0.00     0.031 C 
ATOM     32  C   UNL A   1      38.679  34.594  30.056  1.00  0.00     0.029 A 
ATOM     33  N   UNL A   1      40.096  32.892  30.247  1.00  0.00    -0.354 N 
ATOM     34  C   UNL A   1      38.739  28.825  29.161  1.00  0.00     0.074 A 
ATOM     35  C   UNL A   1      38.084  29.144  27.919  1.00  0.00     0.031 C 
ATOM     36  C   UNL A   1      39.925  35.110  30.006  1.00  0.00     0.029 A 
ATOM     37  C   UNL A   1      40.883  34.019  30.038  1.00  0.00     0.049 A 
ATOM     38  H   UNL A   1      40.454  32.021  30.535  1.00  0.00     0.167 HD
ATOM     39  C   UNL A   1      39.579  27.799  29.458  1.00  0.00     0.034 A 
ATOM     40  C   UNL A   1      42.207  34.031  29.758  1.00  0.00     0.034 A 
ATOM     41  C   UNL A   1      39.999  27.802  30.828  1.00  0.00     0.049 A 
ATOM     42  C   UNL A   1      42.769  32.717  30.156  1.00  0.00     0.074 A 
ATOM     43  C   UNL A   1      39.356  27.723  32.047  1.00  0.00     0.029 A 
ATOM     44  N   UNL A   1      41.272  28.241  31.101  1.00  0.00    -0.354 N 
ATOM     45  N   UNL A   1      42.850  32.301  31.390  1.00  0.00    -0.248 NA
ATOM     46  C   UNL A   1      42.873  31.680  29.142  1.00  0.00     0.031 C 
ATOM     47  C   UNL A   1      40.115  28.552  32.920  1.00  0.00     0.029 A 
ATOM     48  C   UNL A   1      41.181  29.075  32.185  1.00  0.00     0.049 A 
ATOM     49  H   UNL A   1      42.092  28.002  30.612  1.00  0.00     0.167 HD
ATOM     50  C   UNL A   1      42.579  30.939  31.322  1.00  0.00     0.074 A 
ATOM     51  C   UNL A   1      42.729  30.597  29.910  1.00  0.00     0.031 C 
ATOM     52  C   UNL A   1      41.970  30.278  32.354  1.00  0.00     0.034 A 
BRANCH  39  53
ATOM     53  C   UNL A   1      40.243  26.932  28.427  1.00  0.00     0.023 A 
ATOM     54  C   UNL A   1      39.953  25.552  28.434  1.00  0.00     0.012 A 
ATOM     55  C   UNL A   1      41.298  27.369  27.597  1.00  0.00     0.148 A 
ATOM     56  C   UNL A   1      40.683  24.651  27.653  1.00  0.00     0.002 A 
ATOM     57  C   UNL A   1      41.955  26.483  26.751  1.00  0.00     0.091 A 
ATOM     58  F   UNL A   1      41.764  28.619  27.708  1.00  0.00    -0.205 F 
ATOM     59  C   UNL A   1      41.671  25.119  26.793  1.00  0.00     0.022 A 
BRANCH  57  60
ATOM     60  S   UNL A   1      43.157  27.088  25.563  1.00  0.00     0.127 S 
ATOM     61  O   UNL A   1      43.677  25.845  25.005  1.00  0.00    -0.237 OA
ATOM     62  O   UNL A   1      42.326  27.877  24.651  1.00  0.00    -0.237 OA
ATOM     63  O   UNL A   1      44.084  27.887  26.357  1.00  0.00    -0.744 OA
ENDBRANCH  57  60
ENDBRANCH  39  53
BRANCH  40  64
ATOM     64  C   UNL A   1      42.934  35.004  28.910  1.00  0.00     0.023 A 
ATOM     65  C   UNL A   1      42.992  34.819  27.517  1.00  0.00     0.012 A 
ATOM     66  C   UNL A   1      43.411  36.228  29.437  1.00  0.00     0.148 A 
ATOM     67  C   UNL A   1      43.517  35.813  26.681  1.00  0.00     0.002 A 
ATOM     68  C   UNL A   1      43.965  37.198  28.607  1.00  0.00     0.091 A 
ATOM     69  F   UNL A   1      43.241  36.488  30.741  1.00  0.00    -0.205 F 
ATOM     70  C   UNL A   1      44.011  36.997  27.225  1.00  0.00     0.022 A 
BRANCH  68  71
ATOM     71  S   UNL A   1      44.649  38.722  29.271  1.00  0.00     0.127 S 
ATOM     72  O   UNL A   1      45.674  38.229  30.192  1.00  0.00    -0.237 OA
ATOM     73  O   UNL A   1      45.167  39.374  28.071  1.00  0.00    -0.237 OA
ATOM     74  O   UNL A   1      43.534  39.390  29.932  1.00  0.00    -0.744 OA
ENDBRANCH  68  71
ENDBRANCH  40  64
BRANCH  52  75
ATOM     75  C   UNL A   1      41.790  30.999  33.671  1.00  0.00     0.023 A 
ATOM     76  C   UNL A   1      42.817  31.021  34.638  1.00  0.00     0.012 A 
ATOM     77  C   UNL A   1      40.683  31.850  33.848  1.00  0.00     0.148 A 
ATOM     78  C   UNL A   1      42.736  31.846  35.762  1.00  0.00     0.002 A 
ATOM     79  C   UNL A   1      40.629  32.707  34.943  1.00  0.00     0.091 A 
ATOM     80  F   UNL A   1      39.713  31.836  32.919  1.00  0.00    -0.205 F 
ATOM     81  C   UNL A   1      41.649  32.700  35.907  1.00  0.00     0.022 A 
BRANCH  79  82
ATOM     82  S   UNL A   1      39.333  33.940  35.109  1.00  0.00     0.127 S 
ATOM     83  O   UNL A   1      39.823  34.756  36.217  1.00  0.00    -0.237 OA
ATOM     84  O   UNL A   1      39.354  34.605  33.805  1.00  0.00    -0.237 OA
ATOM     85  O   UNL A   1      38.108  33.191  35.368  1.00  0.00    -0.744 OA
ENDBRANCH  79  82
ENDBRANCH  52  75
ENDBRANCH  26  27
ENDBRANCH  19  21
ENDBRANCH  18  19
ENDBRANCH  17  18
ENDBRANCH   1  17
TORSDOF 17
ENDMDL
MODEL 3
REMARK VINA RESULT:      -9.6      4.033      8.823
REMARK SMILES CC(=O)N(C)n1cnn(CC(=O)OCCOC(=O)c2ccc(-c3c4nc(c(-c5cccc(S(=O)(=O)[O-])c5F)c5ccc([nH]5)c(-c5cccc(S(=O)(=O)[O-])c5F)c5nc(c(-c6cccc(S(=O)(=O)[O-])c6F)c6ccc3[nH]6)C=C5)C=C4)cc2)c1=S
REMARK SMILES IDX 14 1 13 2 11 3 12 4 10 5 9 6 6 7 7 8 82 9 8 10 83 11 4 12
REMARK SMILES IDX 5 13 2 14 1 15 3 16 15 17 16 18 17 19 18 20 19 21 20 22
REMARK SMILES IDX 81 23 21 24 80 25 22 26 23 27 24 28 74 29 25 30 79 31 73 32
REMARK SMILES IDX 75 33 26 34 78 35 72 36 71 37 27 39 59 40 39 41 58 42 40 43
REMARK SMILES IDX 43 44 57 45 76 46 41 47 42 48 56 50 77 51 44 52 28 53 29 54
REMARK SMILES IDX 37 55 30 56 32 57 38 58 31 59 33 60 34 61 35 62 36 63 60 64
REMARK SMILES IDX 61 65 69 66 62 67 64 68 70 69 63 70 65 71 66 72 67 73 68 74
REMARK SMILES IDX 45 75 46 76 54 77 47 78 49 79 55 80 48 81 50 82 51 83 52 84
REMARK SMILES IDX 53 85
REMARK H PARENT 75 38 43 49
REMARK Flexibility Score: inf
ROOT
ATOM      1  C   UNL A   1      37.484  23.692  25.622  1.00  0.00     0.274 C 
ENDROOT
BRANCH   1   2
ATOM      2  O   UNL A   1      36.358  23.707  26.525  1.00  0.00    -0.461 OA
BRANCH   2   3
ATOM      3  C   UNL A   1      35.157  23.361  25.992  1.00  0.00     0.328 C 
ATOM      4  O   UNL A   1      34.072  23.665  26.483  1.00  0.00    -0.250 OA
BRANCH   3   5
ATOM      5  C   UNL A   1      35.247  22.504  24.735  1.00  0.00     0.270 C 
BRANCH   5   6
ATOM      6  N   UNL A   1      35.018  21.070  24.841  1.00  0.00    -0.226 N 
ATOM      7  N   UNL A   1      34.217  19.018  24.737  1.00  0.00    -0.211 N 
ATOM      8  C   UNL A   1      35.563  19.014  24.826  1.00  0.00     0.247 A 
ATOM      9  C   UNL A   1      33.815  20.342  24.757  1.00  0.00     0.217 A 
ATOM     10  N   UNL A   1      36.097  20.193  24.842  1.00  0.00    -0.158 NA
ATOM     11  S   UNL A   1      32.271  20.957  24.626  1.00  0.00    -0.037 S 
BRANCH   7  12
ATOM     12  N   UNL A   1      33.451  17.887  24.467  1.00  0.00    -0.250 N 
ATOM     13  C   UNL A   1      32.719  17.400  25.626  1.00  0.00     0.176 C 
BRANCH  12  14
ATOM     14  C   UNL A   1      33.388  17.437  23.163  1.00  0.00     0.238 C 
ATOM     15  C   UNL A   1      32.350  18.090  22.285  1.00  0.00     0.116 C 
ATOM     16  O   UNL A   1      34.127  16.566  22.707  1.00  0.00    -0.273 OA
ENDBRANCH  12  14
ENDBRANCH   7  12
ENDBRANCH   5   6
ENDBRANCH   3   5
ENDBRANCH   2   3
ENDBRANCH   1   2
BRANCH   1  17
ATOM     17  C   UNL A   1      38.704  23.031  26.259  1.00  0.00     0.275 C 
BRANCH  17  18
ATOM     18  O   UNL A   1      39.869  23.841  26.089  1.00  0.00    -0.458 OA
BRANCH  18  19
ATOM     19  C   UNL A   1      40.367  24.307  27.250  1.00  0.00     0.338 C 
ATOM     20  O   UNL A   1      41.158  23.721  27.995  1.00  0.00    -0.246 OA
BRANCH  19  21
ATOM     21  C   UNL A   1      39.751  25.576  27.617  1.00  0.00     0.060 A 
ATOM     22  C   UNL A   1      40.166  26.717  26.919  1.00  0.00     0.016 A 
ATOM     23  C   UNL A   1      39.078  25.654  28.840  1.00  0.00     0.016 A 
ATOM     24  C   UNL A   1      40.097  27.942  27.546  1.00  0.00     0.010 A 
ATOM     25  C   UNL A   1      39.027  26.873  29.474  1.00  0.00     0.010 A 
ATOM     26  C   UNL A   1      39.620  27.979  28.855  1.00  0.00    -0.014 A 
BRANCH  26  27
ATOM     27  C   UNL A   1      39.912  29.155  29.652  1.00  0.00     0.031 A 
ATOM     28  C   UNL A   1      38.797  30.095  29.887  1.00  0.00     0.074 A 
ATOM     29  C   UNL A   1      41.090  29.229  30.304  1.00  0.00     0.049 A 
ATOM     30  N   UNL A   1      38.778  31.372  29.682  1.00  0.00    -0.248 NA
ATOM     31  C   UNL A   1      37.519  29.534  30.347  1.00  0.00     0.031 C 
ATOM     32  C   UNL A   1      42.107  28.175  30.412  1.00  0.00     0.029 A 
ATOM     33  N   UNL A   1      41.523  30.176  31.182  1.00  0.00    -0.354 N 
ATOM     34  C   UNL A   1      37.540  31.803  30.152  1.00  0.00     0.074 A 
ATOM     35  C   UNL A   1      36.757  30.622  30.407  1.00  0.00     0.031 C 
ATOM     36  C   UNL A   1      42.859  28.411  31.507  1.00  0.00     0.029 A 
ATOM     37  C   UNL A   1      42.443  29.674  32.094  1.00  0.00     0.049 A 
ATOM     38  H   UNL A   1      41.218  31.112  31.172  1.00  0.00     0.167 HD
ATOM     39  C   UNL A   1      37.298  33.094  30.498  1.00  0.00     0.034 A 
ATOM     40  C   UNL A   1      42.724  30.187  33.314  1.00  0.00     0.034 A 
ATOM     41  C   UNL A   1      38.308  33.995  30.027  1.00  0.00     0.049 A 
ATOM     42  C   UNL A   1      42.251  31.592  33.337  1.00  0.00     0.074 A 
ATOM     43  C   UNL A   1      38.803  34.345  28.788  1.00  0.00     0.029 A 
ATOM     44  N   UNL A   1      39.219  34.463  30.944  1.00  0.00    -0.354 N 
ATOM     45  N   UNL A   1      42.767  32.549  32.616  1.00  0.00    -0.248 NA
ATOM     46  C   UNL A   1      40.923  31.860  33.867  1.00  0.00     0.031 C 
ATOM     47  C   UNL A   1      40.190  34.585  28.998  1.00  0.00     0.029 A 
ATOM     48  C   UNL A   1      40.453  34.380  30.355  1.00  0.00     0.049 A 
ATOM     49  H   UNL A   1      39.021  34.794  31.850  1.00  0.00     0.167 HD
ATOM     50  C   UNL A   1      41.683  33.335  32.244  1.00  0.00     0.074 A 
ATOM     51  C   UNL A   1      40.604  32.937  33.144  1.00  0.00     0.031 C 
ATOM     52  C   UNL A   1      41.666  34.016  31.057  1.00  0.00     0.034 A 
BRANCH  39  53
ATOM     53  C   UNL A   1      36.268  33.514  31.507  1.00  0.00     0.023 A 
ATOM     54  C   UNL A   1      36.328  32.944  32.795  1.00  0.00     0.012 A 
ATOM     55  C   UNL A   1      35.120  34.272  31.187  1.00  0.00     0.148 A 
ATOM     56  C   UNL A   1      35.292  33.118  33.717  1.00  0.00     0.002 A 
ATOM     57  C   UNL A   1      34.140  34.522  32.139  1.00  0.00     0.091 A 
ATOM     58  F   UNL A   1      34.901  34.653  29.922  1.00  0.00    -0.205 F 
ATOM     59  C   UNL A   1      34.206  33.926  33.398  1.00  0.00     0.022 A 
BRANCH  57  60
ATOM     60  S   UNL A   1      32.788  35.646  31.776  1.00  0.00     0.127 S 
ATOM     61  O   UNL A   1      32.404  35.228  30.433  1.00  0.00    -0.237 OA
ATOM     62  O   UNL A   1      31.821  35.322  32.827  1.00  0.00    -0.237 OA
ATOM     63  O   UNL A   1      33.376  36.975  31.906  1.00  0.00    -0.744 OA
ENDBRANCH  57  60
ENDBRANCH  39  53
BRANCH  40  64
ATOM     64  C   UNL A   1      43.115  29.439  34.532  1.00  0.00     0.023 A 
ATOM     65  C   UNL A   1      44.154  29.917  35.349  1.00  0.00     0.012 A 
ATOM     66  C   UNL A   1      42.341  28.354  35.009  1.00  0.00     0.148 A 
ATOM     67  C   UNL A   1      44.421  29.328  36.591  1.00  0.00     0.002 A 
ATOM     68  C   UNL A   1      42.632  27.748  36.228  1.00  0.00     0.091 A 
ATOM     69  F   UNL A   1      41.260  27.968  34.318  1.00  0.00    -0.205 F 
ATOM     70  C   UNL A   1      43.667  28.240  37.028  1.00  0.00     0.022 A 
BRANCH  68  71
ATOM     71  S   UNL A   1      41.711  26.318  36.810  1.00  0.00     0.127 S 
ATOM     72  O   UNL A   1      42.671  25.673  37.706  1.00  0.00    -0.237 OA
ATOM     73  O   UNL A   1      40.571  26.939  37.478  1.00  0.00    -0.237 OA
ATOM     74  O   UNL A   1      41.407  25.542  35.613  1.00  0.00    -0.744 OA
ENDBRANCH  68  71
ENDBRANCH  40  64
BRANCH  52  75
ATOM     75  C   UNL A   1      42.940  34.086  30.244  1.00  0.00     0.023 A 
ATOM     76  C   UNL A   1      43.351  33.005  29.436  1.00  0.00     0.012 A 
ATOM     77  C   UNL A   1      43.605  35.318  30.107  1.00  0.00     0.148 A 
ATOM     78  C   UNL A   1      44.410  33.137  28.534  1.00  0.00     0.002 A 
ATOM     79  C   UNL A   1      44.627  35.460  29.172  1.00  0.00     0.091 A 
ATOM     80  F   UNL A   1      43.203  36.348  30.868  1.00  0.00    -0.205 F 
ATOM     81  C   UNL A   1      45.038  34.368  28.392  1.00  0.00     0.022 A 
BRANCH  79  82
ATOM     82  S   UNL A   1      45.374  37.058  28.831  1.00  0.00     0.127 S 
ATOM     83  O   UNL A   1      46.256  37.238  29.980  1.00  0.00    -0.237 OA
ATOM     84  O   UNL A   1      46.065  36.824  27.561  1.00  0.00    -0.237 OA
ATOM     85  O   UNL A   1      44.264  37.999  28.732  1.00  0.00    -0.744 OA
ENDBRANCH  79  82
ENDBRANCH  52  75
ENDBRANCH  26  27
ENDBRANCH  19  21
ENDBRANCH  18  19
ENDBRANCH  17  18
ENDBRANCH   1  17
TORSDOF 17
ENDMDL
