MODEL 1
REMARK VINA RESULT:     -12.2      0.000      0.000
REMARK SMILES COC(=O)C[C@@H](NC(=O)c1ccccc1C(=O)OCCOC(=O)c1ccc(-c2c3nc(c(-c4cccc(S(=O)(=O)[O-])c4F)c4ccc([nH]4)c(-c4cccc(S(=O)(=O)[O-])c4F)c4nc(c(-c5cccc(S(=O)(=O)[O-])c5F)c5ccc2[nH]5)C=C4)C=C3)cc1)c1cccc(C)c1C
REMARK SMILES IDX 19 1 18 2 16 3 17 4 15 5 10 6 11 7 12 8 14 9 13 10 8 11 7 12
REMARK SMILES IDX 9 14 6 15 5 16 3 17 4 18 2 19 1 20 87 21 88 22 93 23 89 24
REMARK SMILES IDX 91 25 94 26 90 27 92 28 20 29 21 30 22 31 23 32 24 33 25 34
REMARK SMILES IDX 86 35 26 36 85 37 27 38 28 39 29 40 79 41 30 42 84 43 78 44
REMARK SMILES IDX 80 45 31 46 83 47 77 48 76 49 32 51 64 52 44 53 63 54 45 55
REMARK SMILES IDX 48 56 62 57 81 58 46 59 47 60 61 62 82 63 49 64 33 65 34 66
REMARK SMILES IDX 42 67 35 68 37 69 43 70 36 71 38 72 39 73 40 74 41 75 65 76
REMARK SMILES IDX 66 77 74 78 67 79 69 80 75 81 68 82 70 83 71 84 72 85 73 86
REMARK SMILES IDX 50 87 51 88 59 89 52 90 54 91 60 92 53 93 55 94 56 95 57 96
REMARK SMILES IDX 58 97
REMARK H PARENT 7 13 80 50 48 61
REMARK Flexibility Score: inf
ROOT
ATOM      1  C   UNL A   1      31.398  28.856  24.976  1.00  0.00     0.275 C 
ENDROOT
BRANCH   1   2
ATOM      2  O   UNL A   1      31.150  27.674  25.767  1.00  0.00    -0.458 OA
BRANCH   2   3
ATOM      3  C   UNL A   1      30.816  26.597  25.025  1.00  0.00     0.339 C 
ATOM      4  O   UNL A   1      30.300  26.648  23.917  1.00  0.00    -0.246 OA
BRANCH   3   5
ATOM      5  C   UNL A   1      31.093  25.318  25.685  1.00  0.00     0.072 A 
ATOM      6  C   UNL A   1      32.393  24.894  25.929  1.00  0.00     0.054 A 
ATOM      7  C   UNL A   1      32.617  23.702  26.647  1.00  0.00     0.015 A 
ATOM      8  C   UNL A   1      31.551  22.985  27.189  1.00  0.00     0.001 A 
ATOM      9  C   UNL A   1      30.025  24.578  26.219  1.00  0.00     0.016 A 
ATOM     10  C   UNL A   1      30.251  23.429  26.981  1.00  0.00     0.001 A 
BRANCH   6  11
ATOM     11  C   UNL A   1      33.593  25.600  25.472  1.00  0.00     0.252 C 
ATOM     12  N   UNL A   1      34.109  25.481  24.212  1.00  0.00    -0.345 N 
ATOM     13  H   UNL A   1      34.636  26.274  23.960  1.00  0.00     0.164 HD
ATOM     14  O   UNL A   1      34.076  26.451  26.220  1.00  0.00    -0.269 OA
BRANCH  12  15
ATOM     15  C   UNL A   1      34.083  24.470  23.122  1.00  0.00     0.124 C 
BRANCH  15  16
ATOM     16  C   UNL A   1      32.840  24.714  22.255  1.00  0.00     0.152 C 
BRANCH  16  17
ATOM     17  C   UNL A   1      33.015  25.978  21.452  1.00  0.00     0.307 C 
ATOM     18  O   UNL A   1      33.172  26.014  20.239  1.00  0.00    -0.252 OA
BRANCH  17  19
ATOM     19  O   UNL A   1      32.984  27.070  22.268  1.00  0.00    -0.469 OA
ATOM     20  C   UNL A   1      33.877  28.122  21.888  1.00  0.00     0.282 C 
ENDBRANCH  17  19
ENDBRANCH  16  17
ENDBRANCH  15  16
BRANCH  15  21
ATOM     21  C   UNL A   1      34.173  22.998  23.523  1.00  0.00    -0.022 A 
ATOM     22  C   UNL A   1      33.024  22.193  23.534  1.00  0.00     0.006 A 
ATOM     23  C   UNL A   1      35.405  22.425  23.966  1.00  0.00    -0.043 A 
ATOM     24  C   UNL A   1      33.035  20.935  24.133  1.00  0.00     0.001 A 
ATOM     25  C   UNL A   1      35.412  21.133  24.553  1.00  0.00    -0.048 A 
ATOM     26  C   UNL A   1      36.730  23.147  23.829  1.00  0.00     0.045 C 
ATOM     27  C   UNL A   1      34.211  20.424  24.671  1.00  0.00     0.004 A 
ATOM     28  C   UNL A   1      36.655  20.530  25.161  1.00  0.00     0.044 C 
ENDBRANCH  15  21
ENDBRANCH  12  15
ENDBRANCH   6  11
ENDBRANCH   3   5
ENDBRANCH   2   3
ENDBRANCH   1   2
BRANCH   1  29
ATOM     29  C   UNL A   1      32.587  29.687  25.472  1.00  0.00     0.275 C 
BRANCH  29  30
ATOM     30  O   UNL A   1      32.488  30.022  26.869  1.00  0.00    -0.458 OA
BRANCH  30  31
ATOM     31  C   UNL A   1      33.146  31.150  27.224  1.00  0.00     0.338 C 
ATOM     32  O   UNL A   1      32.675  32.268  27.336  1.00  0.00    -0.246 OA
BRANCH  31  33
ATOM     33  C   UNL A   1      34.563  30.881  27.525  1.00  0.00     0.060 A 
ATOM     34  C   UNL A   1      34.955  29.584  27.848  1.00  0.00     0.016 A 
ATOM     35  C   UNL A   1      35.428  31.947  27.755  1.00  0.00     0.016 A 
ATOM     36  C   UNL A   1      36.133  29.360  28.544  1.00  0.00     0.010 A 
ATOM     37  C   UNL A   1      36.674  31.703  28.338  1.00  0.00     0.010 A 
ATOM     38  C   UNL A   1      37.014  30.415  28.792  1.00  0.00    -0.014 A 
BRANCH  38  39
ATOM     39  C   UNL A   1      38.255  30.178  29.569  1.00  0.00     0.031 A 
ATOM     40  C   UNL A   1      39.330  29.293  29.003  1.00  0.00     0.074 A 
ATOM     41  C   UNL A   1      38.413  30.751  30.778  1.00  0.00     0.049 A 
ATOM     42  N   UNL A   1      40.367  28.768  29.598  1.00  0.00    -0.248 NA
ATOM     43  C   UNL A   1      39.208  28.932  27.581  1.00  0.00     0.031 C 
ATOM     44  C   UNL A   1      37.465  31.670  31.413  1.00  0.00     0.029 A 
ATOM     45  N   UNL A   1      39.422  30.628  31.701  1.00  0.00    -0.354 N 
ATOM     46  C   UNL A   1      40.967  27.942  28.656  1.00  0.00     0.074 A 
ATOM     47  C   UNL A   1      40.189  28.051  27.441  1.00  0.00     0.031 C 
ATOM     48  C   UNL A   1      37.933  32.028  32.616  1.00  0.00     0.029 A 
ATOM     49  C   UNL A   1      39.160  31.287  32.879  1.00  0.00     0.049 A 
ATOM     50  H   UNL A   1      40.249  30.119  31.536  1.00  0.00     0.167 HD
ATOM     51  C   UNL A   1      42.065  27.162  28.796  1.00  0.00     0.034 A 
ATOM     52  C   UNL A   1      39.795  31.246  34.065  1.00  0.00     0.034 A 
ATOM     53  C   UNL A   1      42.864  27.121  29.993  1.00  0.00     0.049 A 
ATOM     54  C   UNL A   1      41.010  30.377  34.200  1.00  0.00     0.074 A 
ATOM     55  C   UNL A   1      44.018  26.400  30.237  1.00  0.00     0.029 A 
ATOM     56  N   UNL A   1      42.589  27.841  31.147  1.00  0.00    -0.354 N 
ATOM     57  N   UNL A   1      41.580  29.614  33.298  1.00  0.00    -0.248 NA
ATOM     58  C   UNL A   1      41.676  30.369  35.508  1.00  0.00     0.031 C 
ATOM     59  C   UNL A   1      44.431  26.671  31.546  1.00  0.00     0.029 A 
ATOM     60  C   UNL A   1      43.550  27.581  32.109  1.00  0.00     0.049 A 
ATOM     61  H   UNL A   1      41.823  28.448  31.265  1.00  0.00     0.167 HD
ATOM     62  C   UNL A   1      42.684  29.048  33.921  1.00  0.00     0.074 A 
ATOM     63  C   UNL A   1      42.716  29.579  35.271  1.00  0.00     0.031 C 
ATOM     64  C   UNL A   1      43.581  28.157  33.430  1.00  0.00     0.034 A 
BRANCH  51  65
ATOM     65  C   UNL A   1      42.461  26.292  27.629  1.00  0.00     0.023 A 
ATOM     66  C   UNL A   1      43.282  26.807  26.606  1.00  0.00     0.012 A 
ATOM     67  C   UNL A   1      42.029  24.952  27.556  1.00  0.00     0.148 A 
ATOM     68  C   UNL A   1      43.628  26.019  25.508  1.00  0.00     0.002 A 
ATOM     69  C   UNL A   1      42.418  24.159  26.482  1.00  0.00     0.091 A 
ATOM     70  F   UNL A   1      41.228  24.484  28.523  1.00  0.00    -0.205 F 
ATOM     71  C   UNL A   1      43.205  24.694  25.450  1.00  0.00     0.022 A 
BRANCH  69  72
ATOM     72  S   UNL A   1      41.985  22.419  26.362  1.00  0.00     0.127 S 
ATOM     73  O   UNL A   1      40.528  22.482  26.262  1.00  0.00    -0.237 OA
ATOM     74  O   UNL A   1      42.663  22.016  25.127  1.00  0.00    -0.237 OA
ATOM     75  O   UNL A   1      42.506  21.793  27.569  1.00  0.00    -0.744 OA
ENDBRANCH  69  72
ENDBRANCH  51  65
BRANCH  52  76
ATOM     76  C   UNL A   1      39.270  32.050  35.205  1.00  0.00     0.023 A 
ATOM     77  C   UNL A   1      38.404  31.448  36.137  1.00  0.00     0.012 A 
ATOM     78  C   UNL A   1      39.691  33.379  35.415  1.00  0.00     0.148 A 
ATOM     79  C   UNL A   1      37.957  32.159  37.251  1.00  0.00     0.002 A 
ATOM     80  C   UNL A   1      39.294  34.059  36.560  1.00  0.00     0.091 A 
ATOM     81  F   UNL A   1      40.505  33.937  34.508  1.00  0.00    -0.205 F 
ATOM     82  C   UNL A   1      38.413  33.457  37.471  1.00  0.00     0.022 A 
BRANCH  80  83
ATOM     83  S   UNL A   1      39.955  35.669  37.002  1.00  0.00     0.127 S 
ATOM     84  O   UNL A   1      39.203  35.979  38.216  1.00  0.00    -0.237 OA
ATOM     85  O   UNL A   1      41.371  35.365  37.214  1.00  0.00    -0.237 OA
ATOM     86  O   UNL A   1      39.692  36.533  35.859  1.00  0.00    -0.744 OA
ENDBRANCH  80  83
ENDBRANCH  52  76
BRANCH  64  87
ATOM     87  C   UNL A   1      44.692  27.726  34.348  1.00  0.00     0.023 A 
ATOM     88  C   UNL A   1      45.886  28.474  34.405  1.00  0.00     0.012 A 
ATOM     89  C   UNL A   1      44.525  26.618  35.202  1.00  0.00     0.148 A 
ATOM     90  C   UNL A   1      46.908  28.105  35.276  1.00  0.00     0.002 A 
ATOM     91  C   UNL A   1      45.529  26.287  36.102  1.00  0.00     0.091 A 
ATOM     92  F   UNL A   1      43.391  25.908  35.114  1.00  0.00    -0.205 F 
ATOM     93  C   UNL A   1      46.727  27.021  36.132  1.00  0.00     0.022 A 
BRANCH  91  94
ATOM     94  S   UNL A   1      45.342  24.968  37.306  1.00  0.00     0.127 S 
ATOM     95  O   UNL A   1      44.233  25.461  38.119  1.00  0.00    -0.237 OA
ATOM     96  O   UNL A   1      45.016  23.820  36.460  1.00  0.00    -0.237 OA
ATOM     97  O   UNL A   1      46.625  24.867  37.991  1.00  0.00    -0.744 OA
ENDBRANCH  91  94
ENDBRANCH  64  87
ENDBRANCH  38  39
ENDBRANCH  31  33
ENDBRANCH  30  31
ENDBRANCH  29  30
ENDBRANCH   1  29
TORSDOF 20
ENDMDL
MODEL 2
REMARK VINA RESULT:     -12.0      5.042      9.874
REMARK SMILES COC(=O)C[C@@H](NC(=O)c1ccccc1C(=O)OCCOC(=O)c1ccc(-c2c3nc(c(-c4cccc(S(=O)(=O)[O-])c4F)c4ccc([nH]4)c(-c4cccc(S(=O)(=O)[O-])c4F)c4nc(c(-c5cccc(S(=O)(=O)[O-])c5F)c5ccc2[nH]5)C=C4)C=C3)cc1)c1cccc(C)c1C
REMARK SMILES IDX 19 1 18 2 16 3 17 4 15 5 10 6 11 7 12 8 14 9 13 10 8 11 7 12
REMARK SMILES IDX 9 14 6 15 5 16 3 17 4 18 2 19 1 20 87 21 88 22 93 23 89 24
REMARK SMILES IDX 91 25 94 26 90 27 92 28 20 29 21 30 22 31 23 32 24 33 25 34
REMARK SMILES IDX 86 35 26 36 85 37 27 38 28 39 29 40 79 41 30 42 84 43 78 44
REMARK SMILES IDX 80 45 31 46 83 47 77 48 76 49 32 51 64 52 44 53 63 54 45 55
REMARK SMILES IDX 48 56 62 57 81 58 46 59 47 60 61 62 82 63 49 64 33 65 34 66
REMARK SMILES IDX 42 67 35 68 37 69 43 70 36 71 38 72 39 73 40 74 41 75 65 76
REMARK SMILES IDX 66 77 74 78 67 79 69 80 75 81 68 82 70 83 71 84 72 85 73 86
REMARK SMILES IDX 50 87 51 88 59 89 52 90 54 91 60 92 53 93 55 94 56 95 57 96
REMARK SMILES IDX 58 97
REMARK H PARENT 7 13 80 50 48 61
REMARK Flexibility Score: inf
ROOT
ATOM      1  C   UNL A   1      35.316  21.110  24.725  1.00  0.00     0.275 C 
ENDROOT
BRANCH   1   2
ATOM      2  O   UNL A   1      34.986  22.091  23.719  1.00  0.00    -0.458 OA
BRANCH   2   3
ATOM      3  C   UNL A   1      33.687  22.457  23.738  1.00  0.00     0.339 C 
ATOM      4  O   UNL A   1      32.785  21.797  24.235  1.00  0.00    -0.246 OA
BRANCH   3   5
ATOM      5  C   UNL A   1      33.424  23.731  23.063  1.00  0.00     0.072 A 
ATOM      6  C   UNL A   1      33.639  24.947  23.698  1.00  0.00     0.054 A 
ATOM      7  C   UNL A   1      33.461  26.150  22.986  1.00  0.00     0.015 A 
ATOM      8  C   UNL A   1      33.154  26.135  21.626  1.00  0.00     0.001 A 
ATOM      9  C   UNL A   1      33.095  23.726  21.697  1.00  0.00     0.016 A 
ATOM     10  C   UNL A   1      32.978  24.919  20.978  1.00  0.00     0.001 A 
BRANCH   6  11
ATOM     11  C   UNL A   1      34.033  25.088  25.103  1.00  0.00     0.252 C 
ATOM     12  N   UNL A   1      33.145  25.121  26.140  1.00  0.00    -0.345 N 
ATOM     13  H   UNL A   1      33.561  24.830  26.984  1.00  0.00     0.164 HD
ATOM     14  O   UNL A   1      35.235  25.031  25.369  1.00  0.00    -0.269 OA
BRANCH  12  15
ATOM     15  C   UNL A   1      31.715  25.482  26.330  1.00  0.00     0.124 C 
BRANCH  15  16
ATOM     16  C   UNL A   1      30.846  24.290  25.904  1.00  0.00     0.152 C 
BRANCH  16  17
ATOM     17  C   UNL A   1      30.710  23.319  27.050  1.00  0.00     0.307 C 
ATOM     18  O   UNL A   1      29.721  22.632  27.264  1.00  0.00    -0.252 OA
BRANCH  17  19
ATOM     19  O   UNL A   1      31.839  23.325  27.816  1.00  0.00    -0.469 OA
ATOM     20  C   UNL A   1      32.629  22.136  27.720  1.00  0.00     0.282 C 
ENDBRANCH  17  19
ENDBRANCH  16  17
ENDBRANCH  15  16
BRANCH  15  21
ATOM     21  C   UNL A   1      31.217  26.767  25.669  1.00  0.00    -0.022 A 
ATOM     22  C   UNL A   1      30.418  26.711  24.517  1.00  0.00     0.006 A 
ATOM     23  C   UNL A   1      31.611  28.052  26.158  1.00  0.00    -0.043 A 
ATOM     24  C   UNL A   1      30.169  27.854  23.760  1.00  0.00     0.001 A 
ATOM     25  C   UNL A   1      31.333  29.213  25.391  1.00  0.00    -0.048 A 
ATOM     26  C   UNL A   1      32.321  28.232  27.484  1.00  0.00     0.045 C 
ATOM     27  C   UNL A   1      30.653  29.089  24.175  1.00  0.00     0.004 A 
ATOM     28  C   UNL A   1      31.839  30.580  25.786  1.00  0.00     0.044 C 
ENDBRANCH  15  21
ENDBRANCH  12  15
ENDBRANCH   6  11
ENDBRANCH   3   5
ENDBRANCH   2   3
ENDBRANCH   1   2
BRANCH   1  29
ATOM     29  C   UNL A   1      36.412  21.571  25.694  1.00  0.00     0.275 C 
BRANCH  29  30
ATOM     30  O   UNL A   1      37.666  21.826  25.034  1.00  0.00    -0.458 OA
BRANCH  30  31
ATOM     31  C   UNL A   1      38.759  21.512  25.768  1.00  0.00     0.338 C 
ATOM     32  O   UNL A   1      39.363  20.454  25.767  1.00  0.00    -0.246 OA
BRANCH  31  33
ATOM     33  C   UNL A   1      39.211  22.651  26.586  1.00  0.00     0.060 A 
ATOM     34  C   UNL A   1      38.738  23.928  26.293  1.00  0.00     0.016 A 
ATOM     35  C   UNL A   1      40.296  22.490  27.444  1.00  0.00     0.016 A 
ATOM     36  C   UNL A   1      39.436  25.048  26.718  1.00  0.00     0.010 A 
ATOM     37  C   UNL A   1      40.917  23.621  27.979  1.00  0.00     0.010 A 
ATOM     38  C   UNL A   1      40.530  24.912  27.574  1.00  0.00    -0.014 A 
BRANCH  38  39
ATOM     39  C   UNL A   1      41.296  26.110  27.997  1.00  0.00     0.031 A 
ATOM     40  C   UNL A   1      40.615  27.184  28.797  1.00  0.00     0.074 A 
ATOM     41  C   UNL A   1      42.595  26.234  27.660  1.00  0.00     0.049 A 
ATOM     42  N   UNL A   1      41.016  28.399  29.062  1.00  0.00    -0.248 NA
ATOM     43  C   UNL A   1      39.293  26.855  29.356  1.00  0.00     0.031 C 
ATOM     44  C   UNL A   1      43.381  25.237  26.928  1.00  0.00     0.029 A 
ATOM     45  N   UNL A   1      43.478  27.264  27.868  1.00  0.00    -0.354 N 
ATOM     46  C   UNL A   1      39.963  29.008  29.732  1.00  0.00     0.074 A 
ATOM     47  C   UNL A   1      38.911  28.023  29.853  1.00  0.00     0.031 C 
ATOM     48  C   UNL A   1      44.626  25.700  26.750  1.00  0.00     0.029 A 
ATOM     49  C   UNL A   1      44.696  27.062  27.262  1.00  0.00     0.049 A 
ATOM     50  H   UNL A   1      43.262  28.065  28.397  1.00  0.00     0.167 HD
ATOM     51  C   UNL A   1      39.883  30.277  30.201  1.00  0.00     0.034 A 
ATOM     52  C   UNL A   1      45.731  27.902  27.074  1.00  0.00     0.034 A 
ATOM     53  C   UNL A   1      40.969  31.219  30.130  1.00  0.00     0.049 A 
ATOM     54  C   UNL A   1      45.623  29.302  27.601  1.00  0.00     0.074 A 
ATOM     55  C   UNL A   1      41.018  32.517  30.605  1.00  0.00     0.029 A 
ATOM     56  N   UNL A   1      42.202  30.958  29.550  1.00  0.00    -0.354 N 
ATOM     57  N   UNL A   1      44.631  29.864  28.249  1.00  0.00    -0.248 NA
ATOM     58  C   UNL A   1      46.778  30.182  27.381  1.00  0.00     0.031 C 
ATOM     59  C   UNL A   1      42.275  33.046  30.295  1.00  0.00     0.029 A 
ATOM     60  C   UNL A   1      43.020  32.070  29.651  1.00  0.00     0.049 A 
ATOM     61  H   UNL A   1      42.458  30.107  29.127  1.00  0.00     0.167 HD
ATOM     62  C   UNL A   1      45.046  31.157  28.534  1.00  0.00     0.074 A 
ATOM     63  C   UNL A   1      46.393  31.286  28.010  1.00  0.00     0.031 C 
ATOM     64  C   UNL A   1      44.372  32.156  29.158  1.00  0.00     0.034 A 
BRANCH  51  65
ATOM     65  C   UNL A   1      38.582  30.713  30.825  1.00  0.00     0.023 A 
ATOM     66  C   UNL A   1      38.338  30.482  32.194  1.00  0.00     0.012 A 
ATOM     67  C   UNL A   1      37.602  31.371  30.053  1.00  0.00     0.148 A 
ATOM     68  C   UNL A   1      37.125  30.856  32.773  1.00  0.00     0.002 A 
ATOM     69  C   UNL A   1      36.415  31.782  30.649  1.00  0.00     0.091 A 
ATOM     70  F   UNL A   1      37.838  31.560  28.747  1.00  0.00    -0.205 F 
ATOM     71  C   UNL A   1      36.168  31.513  32.004  1.00  0.00     0.022 A 
BRANCH  69  72
ATOM     72  S   UNL A   1      35.157  32.704  29.756  1.00  0.00     0.127 S 
ATOM     73  O   UNL A   1      34.605  31.677  28.875  1.00  0.00    -0.237 OA
ATOM     74  O   UNL A   1      34.261  33.128  30.834  1.00  0.00    -0.237 OA
ATOM     75  O   UNL A   1      35.858  33.793  29.089  1.00  0.00    -0.744 OA
ENDBRANCH  69  72
ENDBRANCH  51  65
BRANCH  52  76
ATOM     76  C   UNL A   1      46.938  27.425  26.343  1.00  0.00     0.023 A 
ATOM     77  C   UNL A   1      47.801  26.500  26.960  1.00  0.00     0.012 A 
ATOM     78  C   UNL A   1      47.188  27.818  25.012  1.00  0.00     0.148 A 
ATOM     79  C   UNL A   1      48.898  25.985  26.268  1.00  0.00     0.002 A 
ATOM     80  C   UNL A   1      48.244  27.253  24.309  1.00  0.00     0.091 A 
ATOM     81  F   UNL A   1      46.362  28.711  24.449  1.00  0.00    -0.205 F 
ATOM     82  C   UNL A   1      49.111  26.347  24.940  1.00  0.00     0.022 A 
BRANCH  80  83
ATOM     83  S   UNL A   1      48.498  27.541  22.554  1.00  0.00     0.127 S 
ATOM     84  O   UNL A   1      49.742  28.306  22.554  1.00  0.00    -0.237 OA
ATOM     85  O   UNL A   1      48.613  26.176  22.039  1.00  0.00    -0.237 OA
ATOM     86  O   UNL A   1      47.315  28.257  22.096  1.00  0.00    -0.744 OA
ENDBRANCH  80  83
ENDBRANCH  52  76
BRANCH  64  87
ATOM     87  C   UNL A   1      45.093  33.464  29.335  1.00  0.00     0.023 A 
ATOM     88  C   UNL A   1      45.873  33.685  30.487  1.00  0.00     0.012 A 
ATOM     89  C   UNL A   1      45.049  34.447  28.326  1.00  0.00     0.148 A 
ATOM     90  C   UNL A   1      46.573  34.879  30.647  1.00  0.00     0.002 A 
ATOM     91  C   UNL A   1      45.789  35.613  28.471  1.00  0.00     0.091 A 
ATOM     92  F   UNL A   1      44.283  34.224  27.249  1.00  0.00    -0.205 F 
ATOM     93  C   UNL A   1      46.542  35.837  29.636  1.00  0.00     0.022 A 
BRANCH  91  94
ATOM     94  S   UNL A   1      45.884  36.856  27.178  1.00  0.00     0.127 S 
ATOM     95  O   UNL A   1      44.492  37.291  27.081  1.00  0.00    -0.237 OA
ATOM     96  O   UNL A   1      46.793  37.842  27.762  1.00  0.00    -0.237 OA
ATOM     97  O   UNL A   1      46.410  36.173  26.003  1.00  0.00    -0.744 OA
ENDBRANCH  91  94
ENDBRANCH  64  87
ENDBRANCH  38  39
ENDBRANCH  31  33
ENDBRANCH  30  31
ENDBRANCH  29  30
ENDBRANCH   1  29
TORSDOF 20
ENDMDL
MODEL 3
REMARK VINA RESULT:     -11.8      1.028      2.272
REMARK SMILES COC(=O)C[C@@H](NC(=O)c1ccccc1C(=O)OCCOC(=O)c1ccc(-c2c3nc(c(-c4cccc(S(=O)(=O)[O-])c4F)c4ccc([nH]4)c(-c4cccc(S(=O)(=O)[O-])c4F)c4nc(c(-c5cccc(S(=O)(=O)[O-])c5F)c5ccc2[nH]5)C=C4)C=C3)cc1)c1cccc(C)c1C
REMARK SMILES IDX 19 1 18 2 16 3 17 4 15 5 10 6 11 7 12 8 14 9 13 10 8 11 7 12
REMARK SMILES IDX 9 14 6 15 5 16 3 17 4 18 2 19 1 20 87 21 88 22 93 23 89 24
REMARK SMILES IDX 91 25 94 26 90 27 92 28 20 29 21 30 22 31 23 32 24 33 25 34
REMARK SMILES IDX 86 35 26 36 85 37 27 38 28 39 29 40 79 41 30 42 84 43 78 44
REMARK SMILES IDX 80 45 31 46 83 47 77 48 76 49 32 51 64 52 44 53 63 54 45 55
REMARK SMILES IDX 48 56 62 57 81 58 46 59 47 60 61 62 82 63 49 64 33 65 34 66
REMARK SMILES IDX 42 67 35 68 37 69 43 70 36 71 38 72 39 73 40 74 41 75 65 76
REMARK SMILES IDX 66 77 74 78 67 79 69 80 75 81 68 82 70 83 71 84 72 85 73 86
REMARK SMILES IDX 50 87 51 88 59 89 52 90 54 91 60 92 53 93 55 94 56 95 57 96
REMARK SMILES IDX 58 97
REMARK H PARENT 7 13 80 50 48 61
REMARK Flexibility Score: inf
ROOT
ATOM      1  C   UNL A   1      32.022  27.992  26.638  1.00  0.00     0.275 C 
ENDROOT
BRANCH   1   2
ATOM      2  O   UNL A   1      33.323  27.375  26.532  1.00  0.00    -0.458 OA
BRANCH   2   3
ATOM      3  C   UNL A   1      33.742  27.231  25.257  1.00  0.00     0.339 C 
ATOM      4  O   UNL A   1      33.786  28.134  24.433  1.00  0.00    -0.246 OA
BRANCH   3   5
ATOM      5  C   UNL A   1      34.118  25.857  24.912  1.00  0.00     0.072 A 
ATOM      6  C   UNL A   1      33.869  25.332  23.651  1.00  0.00     0.054 A 
ATOM      7  C   UNL A   1      34.326  24.038  23.329  1.00  0.00     0.015 A 
ATOM      8  C   UNL A   1      35.098  23.309  24.234  1.00  0.00     0.001 A 
ATOM      9  C   UNL A   1      34.879  25.107  25.824  1.00  0.00     0.016 A 
ATOM     10  C   UNL A   1      35.383  23.849  25.482  1.00  0.00     0.001 A 
BRANCH   6  11
ATOM     11  C   UNL A   1      33.132  26.030  22.595  1.00  0.00     0.252 C 
ATOM     12  N   UNL A   1      31.794  26.302  22.657  1.00  0.00    -0.345 N 
ATOM     13  H   UNL A   1      31.554  27.077  22.098  1.00  0.00     0.164 HD
ATOM     14  O   UNL A   1      33.782  26.521  21.670  1.00  0.00    -0.269 OA
BRANCH  12  15
ATOM     15  C   UNL A   1      30.605  25.735  23.347  1.00  0.00     0.124 C 
BRANCH  15  16
ATOM     16  C   UNL A   1      29.746  26.892  23.877  1.00  0.00     0.152 C 
BRANCH  16  17
ATOM     17  C   UNL A   1      30.230  28.197  23.297  1.00  0.00     0.307 C 
ATOM     18  O   UNL A   1      30.963  28.985  23.879  1.00  0.00    -0.252 OA
BRANCH  17  19
ATOM     19  O   UNL A   1      29.728  28.378  22.042  1.00  0.00    -0.469 OA
ATOM     20  C   UNL A   1      29.666  29.743  21.617  1.00  0.00     0.282 C 
ENDBRANCH  17  19
ENDBRANCH  16  17
ENDBRANCH  15  16
BRANCH  15  21
ATOM     21  C   UNL A   1      30.852  24.706  24.449  1.00  0.00    -0.022 A 
ATOM     22  C   UNL A   1      30.824  25.090  25.799  1.00  0.00     0.006 A 
ATOM     23  C   UNL A   1      31.191  23.353  24.137  1.00  0.00    -0.043 A 
ATOM     24  C   UNL A   1      31.292  24.238  26.797  1.00  0.00     0.001 A 
ATOM     25  C   UNL A   1      31.645  22.485  25.164  1.00  0.00    -0.048 A 
ATOM     26  C   UNL A   1      31.079  22.793  22.735  1.00  0.00     0.045 C 
ATOM     27  C   UNL A   1      31.733  22.959  26.477  1.00  0.00     0.004 A 
ATOM     28  C   UNL A   1      32.144  21.089  24.878  1.00  0.00     0.044 C 
ENDBRANCH  15  21
ENDBRANCH  12  15
ENDBRANCH   6  11
ENDBRANCH   3   5
ENDBRANCH   2   3
ENDBRANCH   1   2
BRANCH   1  29
ATOM     29  C   UNL A   1      32.057  29.394  27.256  1.00  0.00     0.275 C 
BRANCH  29  30
ATOM     30  O   UNL A   1      32.852  30.320  26.492  1.00  0.00    -0.458 OA
BRANCH  30  31
ATOM     31  C   UNL A   1      33.402  31.321  27.218  1.00  0.00     0.338 C 
ATOM     32  O   UNL A   1      32.844  32.326  27.620  1.00  0.00    -0.246 OA
BRANCH  31  33
ATOM     33  C   UNL A   1      34.813  31.048  27.539  1.00  0.00     0.060 A 
ATOM     34  C   UNL A   1      35.209  29.740  27.812  1.00  0.00     0.016 A 
ATOM     35  C   UNL A   1      35.665  32.109  27.836  1.00  0.00     0.016 A 
ATOM     36  C   UNL A   1      36.373  29.494  28.524  1.00  0.00     0.010 A 
ATOM     37  C   UNL A   1      36.900  31.847  28.435  1.00  0.00     0.010 A 
ATOM     38  C   UNL A   1      37.239  30.542  28.838  1.00  0.00    -0.014 A 
BRANCH  38  39
ATOM     39  C   UNL A   1      38.465  30.279  29.632  1.00  0.00     0.031 A 
ATOM     40  C   UNL A   1      39.530  29.375  29.078  1.00  0.00     0.074 A 
ATOM     41  C   UNL A   1      38.617  30.844  30.845  1.00  0.00     0.049 A 
ATOM     42  N   UNL A   1      40.549  28.828  29.685  1.00  0.00    -0.248 NA
ATOM     43  C   UNL A   1      39.422  29.022  27.652  1.00  0.00     0.031 C 
ATOM     44  C   UNL A   1      37.677  31.778  31.470  1.00  0.00     0.029 A 
ATOM     45  N   UNL A   1      39.610  30.698  31.782  1.00  0.00    -0.354 N 
ATOM     46  C   UNL A   1      41.146  27.994  28.748  1.00  0.00     0.074 A 
ATOM     47  C   UNL A   1      40.388  28.123  27.523  1.00  0.00     0.031 C 
ATOM     48  C   UNL A   1      38.135  32.122  32.682  1.00  0.00     0.029 A 
ATOM     49  C   UNL A   1      39.344  31.357  32.959  1.00  0.00     0.049 A 
ATOM     50  H   UNL A   1      40.429  30.174  31.626  1.00  0.00     0.167 HD
ATOM     51  C   UNL A   1      42.228  27.193  28.900  1.00  0.00     0.034 A 
ATOM     52  C   UNL A   1      39.960  31.300  34.154  1.00  0.00     0.034 A 
ATOM     53  C   UNL A   1      43.008  27.133  30.108  1.00  0.00     0.049 A 
ATOM     54  C   UNL A   1      41.157  30.407  34.302  1.00  0.00     0.074 A 
ATOM     55  C   UNL A   1      44.144  26.389  30.365  1.00  0.00     0.029 A 
ATOM     56  N   UNL A   1      42.731  27.854  31.261  1.00  0.00    -0.354 N 
ATOM     57  N   UNL A   1      41.725  29.637  33.405  1.00  0.00    -0.248 NA
ATOM     58  C   UNL A   1      41.804  30.381  35.619  1.00  0.00     0.031 C 
ATOM     59  C   UNL A   1      44.544  26.646  31.681  1.00  0.00     0.029 A 
ATOM     60  C   UNL A   1      43.673  27.571  32.235  1.00  0.00     0.049 A 
ATOM     61  H   UNL A   1      41.975  28.474  31.371  1.00  0.00     0.167 HD
ATOM     62  C   UNL A   1      42.809  29.048  34.041  1.00  0.00     0.074 A 
ATOM     63  C   UNL A   1      42.832  29.573  35.393  1.00  0.00     0.031 C 
ATOM     64  C   UNL A   1      43.696  28.142  33.559  1.00  0.00     0.034 A 
BRANCH  51  65
ATOM     65  C   UNL A   1      42.623  26.321  27.735  1.00  0.00     0.023 A 
ATOM     66  C   UNL A   1      43.503  26.809  26.749  1.00  0.00     0.012 A 
ATOM     67  C   UNL A   1      42.131  25.003  27.627  1.00  0.00     0.148 A 
ATOM     68  C   UNL A   1      43.851  26.019  25.653  1.00  0.00     0.002 A 
ATOM     69  C   UNL A   1      42.520  24.206  26.557  1.00  0.00     0.091 A 
ATOM     70  F   UNL A   1      41.275  24.562  28.559  1.00  0.00    -0.205 F 
ATOM     71  C   UNL A   1      43.368  24.717  25.561  1.00  0.00     0.022 A 
BRANCH  69  72
ATOM     72  S   UNL A   1      42.010  22.491  26.396  1.00  0.00     0.127 S 
ATOM     73  O   UNL A   1      42.610  22.121  25.115  1.00  0.00    -0.237 OA
ATOM     74  O   UNL A   1      42.639  21.871  27.564  1.00  0.00    -0.237 OA
ATOM     75  O   UNL A   1      40.554  22.502  26.429  1.00  0.00    -0.744 OA
ENDBRANCH  69  72
ENDBRANCH  51  65
BRANCH  52  76
ATOM     76  C   UNL A   1      39.435  32.109  35.289  1.00  0.00     0.023 A 
ATOM     77  C   UNL A   1      38.592  31.504  36.240  1.00  0.00     0.012 A 
ATOM     78  C   UNL A   1      39.833  33.448  35.476  1.00  0.00     0.148 A 
ATOM     79  C   UNL A   1      38.146  32.222  37.350  1.00  0.00     0.002 A 
ATOM     80  C   UNL A   1      39.438  34.137  36.616  1.00  0.00     0.091 A 
ATOM     81  F   UNL A   1      40.626  34.010  34.551  1.00  0.00    -0.205 F 
ATOM     82  C   UNL A   1      38.580  33.531  37.547  1.00  0.00     0.022 A 
BRANCH  80  83
ATOM     83  S   UNL A   1      40.075  35.765  37.029  1.00  0.00     0.127 S 
ATOM     84  O   UNL A   1      41.509  35.508  37.130  1.00  0.00    -0.237 OA
ATOM     85  O   UNL A   1      39.669  36.551  35.863  1.00  0.00    -0.237 OA
ATOM     86  O   UNL A   1      39.412  36.146  38.269  1.00  0.00    -0.744 OA
ENDBRANCH  80  83
ENDBRANCH  52  76
BRANCH  64  87
ATOM     87  C   UNL A   1      44.786  27.686  34.491  1.00  0.00     0.023 A 
ATOM     88  C   UNL A   1      45.984  28.422  34.582  1.00  0.00     0.012 A 
ATOM     89  C   UNL A   1      44.593  26.566  35.324  1.00  0.00     0.148 A 
ATOM     90  C   UNL A   1      46.987  28.031  35.466  1.00  0.00     0.002 A 
ATOM     91  C   UNL A   1      45.577  26.212  36.237  1.00  0.00     0.091 A 
ATOM     92  F   UNL A   1      43.455  25.869  35.203  1.00  0.00    -0.205 F 
ATOM     93  C   UNL A   1      46.780  26.935  36.302  1.00  0.00     0.022 A 
BRANCH  91  94
ATOM     94  S   UNL A   1      45.355  24.875  37.416  1.00  0.00     0.127 S 
ATOM     95  O   UNL A   1      44.168  25.316  38.147  1.00  0.00    -0.237 OA
ATOM     96  O   UNL A   1      45.141  23.723  36.542  1.00  0.00    -0.237 OA
ATOM     97  O   UNL A   1      46.586  24.822  38.195  1.00  0.00    -0.744 OA
ENDBRANCH  91  94
ENDBRANCH  64  87
ENDBRANCH  38  39
ENDBRANCH  31  33
ENDBRANCH  30  31
ENDBRANCH  29  30
ENDBRANCH   1  29
TORSDOF 20
ENDMDL
