MODEL 1
REMARK VINA RESULT:     -11.9      0.000      0.000
REMARK SMILES O=C(OCCOC(=O)[C@H]1C[NH2+]C[C@H]1c1ccc(C2CC2)cc1)c1ccc(-c2c3nc(c(-c4cccc(S(=O)(=O)[O-])c4F)c4ccc([nH]4)c(-c4cccc(S(=O)(=O)[O-])c4F)c4nc(c(-c5cccc(S(=O)(=O)[O-])c5F)c5ccc2[nH]5)C=C4)C=C3)cc1
REMARK SMILES IDX 4 1 3 2 2 3 1 4 23 5 24 6 85 7 25 8 84 9 26 10 27 11 28 12
REMARK SMILES IDX 78 13 29 14 83 15 77 16 79 17 30 18 82 19 76 20 75 21 31 23
REMARK SMILES IDX 63 24 43 25 62 26 44 27 47 28 61 29 80 30 45 31 46 32 60 34
REMARK SMILES IDX 81 35 48 36 32 37 33 38 41 39 34 40 36 41 42 42 35 43 37 44
REMARK SMILES IDX 38 45 39 46 40 47 64 48 65 49 73 50 66 51 68 52 74 53 67 54
REMARK SMILES IDX 69 55 70 56 71 57 72 58 49 59 50 60 58 61 51 62 53 63 59 64
REMARK SMILES IDX 52 65 54 66 55 67 56 68 57 69 5 70 6 71 7 72 8 73 9 74 10 75
REMARK SMILES IDX 13 76 11 77 12 78 14 81 15 82 22 83 16 84 21 85 17 86 18 87
REMARK SMILES IDX 19 88 20 89
REMARK H PARENT 79 22 47 33 11 79 11 80
REMARK Flexibility Score: inf
ROOT
ATOM      1  C   UNL A   1      37.388  21.294  24.460  1.00  0.00     0.275 C 
ENDROOT
BRANCH   1   2
ATOM      2  O   UNL A   1      37.914  21.404  25.789  1.00  0.00    -0.458 OA
BRANCH   2   3
ATOM      3  C   UNL A   1      39.193  21.577  26.197  1.00  0.00     0.338 C 
ATOM      4  O   UNL A   1      39.949  20.607  26.177  1.00  0.00    -0.246 OA
BRANCH   3   5
ATOM      5  C   UNL A   1      39.690  22.847  26.820  1.00  0.00     0.060 A 
ATOM      6  C   UNL A   1      40.653  22.964  27.827  1.00  0.00     0.016 A 
ATOM      7  C   UNL A   1      39.173  24.029  26.270  1.00  0.00     0.016 A 
ATOM      8  C   UNL A   1      41.204  24.206  28.169  1.00  0.00     0.010 A 
ATOM      9  C   UNL A   1      39.758  25.263  26.565  1.00  0.00     0.010 A 
ATOM     10  C   UNL A   1      40.790  25.362  27.515  1.00  0.00    -0.014 A 
BRANCH  10  11
ATOM     11  C   UNL A   1      41.278  26.702  27.922  1.00  0.00     0.031 A 
ATOM     12  C   UNL A   1      42.754  26.935  27.820  1.00  0.00     0.074 A 
ATOM     13  C   UNL A   1      40.468  27.677  28.391  1.00  0.00     0.049 A 
ATOM     14  N   UNL A   1      43.428  28.020  28.073  1.00  0.00    -0.248 NA
ATOM     15  C   UNL A   1      43.576  25.813  27.323  1.00  0.00     0.031 C 
ATOM     16  C   UNL A   1      39.010  27.639  28.435  1.00  0.00     0.029 A 
ATOM     17  N   UNL A   1      40.763  28.886  28.975  1.00  0.00    -0.354 N 
ATOM     18  C   UNL A   1      44.734  27.725  27.718  1.00  0.00     0.074 A 
ATOM     19  C   UNL A   1      44.790  26.330  27.359  1.00  0.00     0.031 C 
ATOM     20  C   UNL A   1      38.546  28.671  29.162  1.00  0.00     0.029 A 
ATOM     21  C   UNL A   1      39.671  29.505  29.550  1.00  0.00     0.049 A 
ATOM     22  H   UNL A   1      41.669  29.273  28.984  1.00  0.00     0.167 HD
ATOM     23  C   UNL A   1      45.778  28.572  27.607  1.00  0.00     0.034 A 
ATOM     24  C   UNL A   1      39.585  30.639  30.272  1.00  0.00     0.034 A 
ATOM     25  C   UNL A   1      45.711  29.949  27.987  1.00  0.00     0.049 A 
ATOM     26  C   UNL A   1      40.806  31.518  30.305  1.00  0.00     0.074 A 
ATOM     27  C   UNL A   1      46.692  30.915  27.911  1.00  0.00     0.029 A 
ATOM     28  N   UNL A   1      44.593  30.544  28.556  1.00  0.00    -0.354 N 
ATOM     29  N   UNL A   1      41.993  31.288  29.798  1.00  0.00    -0.248 NA
ATOM     30  C   UNL A   1      40.645  32.858  30.884  1.00  0.00     0.031 C 
ATOM     31  C   UNL A   1      46.183  32.084  28.486  1.00  0.00     0.029 A 
ATOM     32  C   UNL A   1      44.869  31.858  28.872  1.00  0.00     0.049 A 
ATOM     33  H   UNL A   1      43.731  30.095  28.712  1.00  0.00     0.167 HD
ATOM     34  C   UNL A   1      42.690  32.483  29.904  1.00  0.00     0.074 A 
ATOM     35  C   UNL A   1      41.797  33.426  30.549  1.00  0.00     0.031 C 
ATOM     36  C   UNL A   1      43.943  32.780  29.481  1.00  0.00     0.034 A 
BRANCH  23  37
ATOM     37  C   UNL A   1      47.037  27.991  27.033  1.00  0.00     0.023 A 
ATOM     38  C   UNL A   1      48.116  27.679  27.890  1.00  0.00     0.012 A 
ATOM     39  C   UNL A   1      47.186  27.845  25.646  1.00  0.00     0.148 A 
ATOM     40  C   UNL A   1      49.346  27.289  27.368  1.00  0.00     0.002 A 
ATOM     41  C   UNL A   1      48.400  27.411  25.135  1.00  0.00     0.091 A 
ATOM     42  F   UNL A   1      46.159  28.183  24.854  1.00  0.00    -0.205 F 
ATOM     43  C   UNL A   1      49.486  27.151  25.989  1.00  0.00     0.022 A 
BRANCH  41  44
ATOM     44  S   UNL A   1      48.672  27.155  23.381  1.00  0.00     0.127 S 
ATOM     45  O   UNL A   1      50.131  27.126  23.308  1.00  0.00    -0.237 OA
ATOM     46  O   UNL A   1      48.021  25.866  23.159  1.00  0.00    -0.237 OA
ATOM     47  O   UNL A   1      48.040  28.284  22.706  1.00  0.00    -0.744 OA
ENDBRANCH  41  44
ENDBRANCH  23  37
BRANCH  24  48
ATOM     48  C   UNL A   1      38.283  31.098  30.845  1.00  0.00     0.023 A 
ATOM     49  C   UNL A   1      37.971  30.790  32.185  1.00  0.00     0.012 A 
ATOM     50  C   UNL A   1      37.347  31.823  30.078  1.00  0.00     0.148 A 
ATOM     51  C   UNL A   1      36.739  31.149  32.736  1.00  0.00     0.002 A 
ATOM     52  C   UNL A   1      36.131  32.205  30.643  1.00  0.00     0.091 A 
ATOM     53  F   UNL A   1      37.656  32.111  28.805  1.00  0.00    -0.205 F 
ATOM     54  C   UNL A   1      35.820  31.856  31.967  1.00  0.00     0.022 A 
BRANCH  52  55
ATOM     55  S   UNL A   1      34.899  33.180  29.765  1.00  0.00     0.127 S 
ATOM     56  O   UNL A   1      34.332  32.192  28.850  1.00  0.00    -0.237 OA
ATOM     57  O   UNL A   1      34.011  33.591  30.853  1.00  0.00    -0.237 OA
ATOM     58  O   UNL A   1      35.632  34.271  29.137  1.00  0.00    -0.744 OA
ENDBRANCH  52  55
ENDBRANCH  24  48
BRANCH  36  59
ATOM     59  C   UNL A   1      44.415  34.195  29.657  1.00  0.00     0.023 A 
ATOM     60  C   UNL A   1      45.122  34.564  30.817  1.00  0.00     0.012 A 
ATOM     61  C   UNL A   1      44.239  35.130  28.619  1.00  0.00     0.148 A 
ATOM     62  C   UNL A   1      45.622  35.856  30.954  1.00  0.00     0.002 A 
ATOM     63  C   UNL A   1      44.796  36.394  28.734  1.00  0.00     0.091 A 
ATOM     64  F   UNL A   1      43.543  34.759  27.534  1.00  0.00    -0.205 F 
ATOM     65  C   UNL A   1      45.475  36.764  29.907  1.00  0.00     0.022 A 
BRANCH  63  66
ATOM     66  S   UNL A   1      44.764  37.582  27.388  1.00  0.00     0.127 S 
ATOM     67  O   UNL A   1      45.115  38.822  28.078  1.00  0.00    -0.237 OA
ATOM     68  O   UNL A   1      45.801  37.064  26.496  1.00  0.00    -0.237 OA
ATOM     69  O   UNL A   1      43.415  37.533  26.840  1.00  0.00    -0.744 OA
ENDBRANCH  63  66
ENDBRANCH  36  59
ENDBRANCH  10  11
ENDBRANCH   3   5
ENDBRANCH   2   3
ENDBRANCH   1   2
BRANCH   1  70
ATOM     70  C   UNL A   1      36.814  22.581  23.852  1.00  0.00     0.274 C 
BRANCH  70  71
ATOM     71  O   UNL A   1      35.791  23.241  24.622  1.00  0.00    -0.462 OA
BRANCH  71  72
ATOM     72  C   UNL A   1      34.735  23.725  23.901  1.00  0.00     0.315 C 
ATOM     73  O   UNL A   1      34.795  23.945  22.695  1.00  0.00    -0.252 OA
BRANCH  72  74
ATOM     74  C   UNL A   1      33.466  24.006  24.725  1.00  0.00     0.167 C 
ATOM     75  C   UNL A   1      32.885  25.371  24.532  1.00  0.00     0.276 C 
ATOM     76  C   UNL A   1      32.236  23.144  24.408  1.00  0.00     0.094 C 
ATOM     77  N   UNL A   1      32.127  25.252  23.297  1.00  0.00    -0.345 N 
ATOM     78  C   UNL A   1      31.519  23.911  23.295  1.00  0.00     0.269 C 
ATOM     79  H   UNL A   1      32.746  25.358  22.493  1.00  0.00     0.346 HD
ATOM     80  H   UNL A   1      31.411  25.977  23.236  1.00  0.00     0.346 HD
BRANCH  76  81
ATOM     81  C   UNL A   1      32.610  21.704  24.253  1.00  0.00    -0.038 A 
ATOM     82  C   UNL A   1      33.260  20.939  25.216  1.00  0.00     0.004 A 
ATOM     83  C   UNL A   1      32.180  21.086  23.073  1.00  0.00     0.004 A 
ATOM     84  C   UNL A   1      33.370  19.557  25.040  1.00  0.00     0.004 A 
ATOM     85  C   UNL A   1      32.268  19.716  22.920  1.00  0.00     0.004 A 
ATOM     86  C   UNL A   1      32.839  18.910  23.909  1.00  0.00    -0.045 A 
BRANCH  86  87
ATOM     87  C   UNL A   1      32.908  17.409  23.776  1.00  0.00     0.019 C 
ATOM     88  C   UNL A   1      34.127  16.699  23.232  1.00  0.00     0.009 C 
ATOM     89  C   UNL A   1      33.828  16.653  24.703  1.00  0.00     0.009 C 
ENDBRANCH  86  87
ENDBRANCH  76  81
ENDBRANCH  72  74
ENDBRANCH  71  72
ENDBRANCH  70  71
ENDBRANCH   1  70
TORSDOF 16
ENDMDL
MODEL 2
REMARK VINA RESULT:     -11.7      1.287      1.528
REMARK SMILES O=C(OCCOC(=O)[C@H]1C[NH2+]C[C@H]1c1ccc(C2CC2)cc1)c1ccc(-c2c3nc(c(-c4cccc(S(=O)(=O)[O-])c4F)c4ccc([nH]4)c(-c4cccc(S(=O)(=O)[O-])c4F)c4nc(c(-c5cccc(S(=O)(=O)[O-])c5F)c5ccc2[nH]5)C=C4)C=C3)cc1
REMARK SMILES IDX 4 1 3 2 2 3 1 4 23 5 24 6 85 7 25 8 84 9 26 10 27 11 28 12
REMARK SMILES IDX 78 13 29 14 83 15 77 16 79 17 30 18 82 19 76 20 75 21 31 23
REMARK SMILES IDX 63 24 43 25 62 26 44 27 47 28 61 29 80 30 45 31 46 32 60 34
REMARK SMILES IDX 81 35 48 36 32 37 33 38 41 39 34 40 36 41 42 42 35 43 37 44
REMARK SMILES IDX 38 45 39 46 40 47 64 48 65 49 73 50 66 51 68 52 74 53 67 54
REMARK SMILES IDX 69 55 70 56 71 57 72 58 49 59 50 60 58 61 51 62 53 63 59 64
REMARK SMILES IDX 52 65 54 66 55 67 56 68 57 69 5 70 6 71 7 72 8 73 9 74 10 75
REMARK SMILES IDX 13 76 11 77 12 78 14 81 15 82 22 83 16 84 21 85 17 86 18 87
REMARK SMILES IDX 19 88 20 89
REMARK H PARENT 79 22 47 33 11 79 11 80
REMARK Flexibility Score: inf
ROOT
ATOM      1  C   UNL A   1      37.212  21.955  24.293  1.00  0.00     0.275 C 
ENDROOT
BRANCH   1   2
ATOM      2  O   UNL A   1      37.752  21.348  25.474  1.00  0.00    -0.458 OA
BRANCH   2   3
ATOM      3  C   UNL A   1      39.007  21.412  25.978  1.00  0.00     0.338 C 
ATOM      4  O   UNL A   1      39.666  20.375  26.037  1.00  0.00    -0.246 OA
BRANCH   3   5
ATOM      5  C   UNL A   1      39.574  22.647  26.610  1.00  0.00     0.060 A 
ATOM      6  C   UNL A   1      40.574  22.704  27.587  1.00  0.00     0.016 A 
ATOM      7  C   UNL A   1      39.087  23.861  26.104  1.00  0.00     0.016 A 
ATOM      8  C   UNL A   1      41.185  23.915  27.937  1.00  0.00     0.010 A 
ATOM      9  C   UNL A   1      39.730  25.064  26.406  1.00  0.00     0.010 A 
ATOM     10  C   UNL A   1      40.796  25.101  27.322  1.00  0.00    -0.014 A 
BRANCH  10  11
ATOM     11  C   UNL A   1      41.349  26.412  27.741  1.00  0.00     0.031 A 
ATOM     12  C   UNL A   1      42.818  26.615  27.527  1.00  0.00     0.074 A 
ATOM     13  C   UNL A   1      40.606  27.384  28.315  1.00  0.00     0.049 A 
ATOM     14  N   UNL A   1      43.538  27.673  27.767  1.00  0.00    -0.248 NA
ATOM     15  C   UNL A   1      43.568  25.498  26.919  1.00  0.00     0.031 C 
ATOM     16  C   UNL A   1      39.156  27.376  28.478  1.00  0.00     0.029 A 
ATOM     17  N   UNL A   1      40.979  28.559  28.921  1.00  0.00    -0.354 N 
ATOM     18  C   UNL A   1      44.803  27.365  27.294  1.00  0.00     0.074 A 
ATOM     19  C   UNL A   1      44.793  25.986  26.875  1.00  0.00     0.031 C 
ATOM     20  C   UNL A   1      38.780  28.386  29.282  1.00  0.00     0.029 A 
ATOM     21  C   UNL A   1      39.954  29.178  29.609  1.00  0.00     0.049 A 
ATOM     22  H   UNL A   1      41.892  28.926  28.870  1.00  0.00     0.167 HD
ATOM     23  C   UNL A   1      45.855  28.192  27.131  1.00  0.00     0.034 A 
ATOM     24  C   UNL A   1      39.956  30.281  30.381  1.00  0.00     0.034 A 
ATOM     25  C   UNL A   1      45.855  29.553  27.570  1.00  0.00     0.049 A 
ATOM     26  C   UNL A   1      41.198  31.131  30.348  1.00  0.00     0.074 A 
ATOM     27  C   UNL A   1      46.851  30.499  27.453  1.00  0.00     0.029 A 
ATOM     28  N   UNL A   1      44.803  30.148  28.254  1.00  0.00    -0.354 N 
ATOM     29  N   UNL A   1      42.333  30.897  29.736  1.00  0.00    -0.248 NA
ATOM     30  C   UNL A   1      41.120  32.449  30.992  1.00  0.00     0.031 C 
ATOM     31  C   UNL A   1      46.421  31.654  28.115  1.00  0.00     0.029 A 
ATOM     32  C   UNL A   1      45.138  31.441  28.599  1.00  0.00     0.049 A 
ATOM     33  H   UNL A   1      43.946  29.712  28.463  1.00  0.00     0.167 HD
ATOM     34  C   UNL A   1      43.067  32.070  29.832  1.00  0.00     0.074 A 
ATOM     35  C   UNL A   1      42.254  33.004  30.586  1.00  0.00     0.031 C 
ATOM     36  C   UNL A   1      44.289  32.357  29.320  1.00  0.00     0.034 A 
BRANCH  23  37
ATOM     37  C   UNL A   1      47.047  27.609  26.432  1.00  0.00     0.023 A 
ATOM     38  C   UNL A   1      47.145  27.698  25.025  1.00  0.00     0.012 A 
ATOM     39  C   UNL A   1      48.016  26.894  27.152  1.00  0.00     0.148 A 
ATOM     40  C   UNL A   1      48.158  27.029  24.341  1.00  0.00     0.002 A 
ATOM     41  C   UNL A   1      49.049  26.270  26.468  1.00  0.00     0.091 A 
ATOM     42  F   UNL A   1      47.879  26.795  28.482  1.00  0.00    -0.205 F 
ATOM     43  C   UNL A   1      49.112  26.319  25.064  1.00  0.00     0.022 A 
BRANCH  41  44
ATOM     44  S   UNL A   1      50.354  25.370  27.305  1.00  0.00     0.127 S 
ATOM     45  O   UNL A   1      50.823  26.359  28.273  1.00  0.00    -0.237 OA
ATOM     46  O   UNL A   1      49.623  24.244  27.883  1.00  0.00    -0.237 OA
ATOM     47  O   UNL A   1      51.320  25.007  26.273  1.00  0.00    -0.744 OA
ENDBRANCH  41  44
ENDBRANCH  23  37
BRANCH  24  48
ATOM     48  C   UNL A   1      38.718  30.745  31.078  1.00  0.00     0.023 A 
ATOM     49  C   UNL A   1      38.564  30.491  32.456  1.00  0.00     0.012 A 
ATOM     50  C   UNL A   1      37.686  31.421  30.392  1.00  0.00     0.148 A 
ATOM     51  C   UNL A   1      37.395  30.854  33.127  1.00  0.00     0.002 A 
ATOM     52  C   UNL A   1      36.534  31.808  31.074  1.00  0.00     0.091 A 
ATOM     53  F   UNL A   1      37.844  31.657  29.082  1.00  0.00    -0.205 F 
ATOM     54  C   UNL A   1      36.381  31.512  32.438  1.00  0.00     0.022 A 
BRANCH  52  55
ATOM     55  S   UNL A   1      35.191  32.724  30.302  1.00  0.00     0.127 S 
ATOM     56  O   UNL A   1      34.249  32.865  31.409  1.00  0.00    -0.237 OA
ATOM     57  O   UNL A   1      35.863  33.962  29.904  1.00  0.00    -0.237 OA
ATOM     58  O   UNL A   1      34.736  31.898  29.191  1.00  0.00    -0.744 OA
ENDBRANCH  52  55
ENDBRANCH  24  48
BRANCH  36  59
ATOM     59  C   UNL A   1      44.810  33.752  29.513  1.00  0.00     0.023 A 
ATOM     60  C   UNL A   1      45.547  34.076  30.667  1.00  0.00     0.012 A 
ATOM     61  C   UNL A   1      44.647  34.711  28.495  1.00  0.00     0.148 A 
ATOM     62  C   UNL A   1      46.092  35.349  30.819  1.00  0.00     0.002 A 
ATOM     63  C   UNL A   1      45.247  35.955  28.623  1.00  0.00     0.091 A 
ATOM     64  F   UNL A   1      43.921  34.384  27.415  1.00  0.00    -0.205 F 
ATOM     65  C   UNL A   1      45.957  36.280  29.791  1.00  0.00     0.022 A 
BRANCH  63  66
ATOM     66  S   UNL A   1      45.232  37.167  27.300  1.00  0.00     0.127 S 
ATOM     67  O   UNL A   1      45.888  38.309  27.936  1.00  0.00    -0.237 OA
ATOM     68  O   UNL A   1      46.025  36.504  26.266  1.00  0.00    -0.237 OA
ATOM     69  O   UNL A   1      43.831  37.367  26.953  1.00  0.00    -0.744 OA
ENDBRANCH  63  66
ENDBRANCH  36  59
ENDBRANCH  10  11
ENDBRANCH   3   5
ENDBRANCH   2   3
ENDBRANCH   1   2
BRANCH   1  70
ATOM     70  C   UNL A   1      35.684  22.091  24.242  1.00  0.00     0.274 C 
BRANCH  70  71
ATOM     71  O   UNL A   1      35.150  23.363  24.656  1.00  0.00    -0.462 OA
BRANCH  71  72
ATOM     72  C   UNL A   1      34.081  23.814  23.933  1.00  0.00     0.315 C 
ATOM     73  O   UNL A   1      34.147  24.075  22.736  1.00  0.00    -0.252 OA
BRANCH  72  74
ATOM     74  C   UNL A   1      32.786  24.002  24.744  1.00  0.00     0.167 C 
ATOM     75  C   UNL A   1      32.058  25.279  24.471  1.00  0.00     0.276 C 
ATOM     76  C   UNL A   1      31.661  22.990  24.486  1.00  0.00     0.094 C 
ATOM     77  N   UNL A   1      31.320  25.001  23.249  1.00  0.00    -0.345 N 
ATOM     78  C   UNL A   1      30.866  23.602  23.332  1.00  0.00     0.269 C 
ATOM     79  H   UNL A   1      31.925  25.126  22.437  1.00  0.00     0.346 HD
ATOM     80  H   UNL A   1      30.527  25.636  23.148  1.00  0.00     0.346 HD
BRANCH  76  81
ATOM     81  C   UNL A   1      32.195  21.594  24.419  1.00  0.00    -0.038 A 
ATOM     82  C   UNL A   1      32.602  20.840  25.514  1.00  0.00     0.004 A 
ATOM     83  C   UNL A   1      32.186  21.000  23.152  1.00  0.00     0.004 A 
ATOM     84  C   UNL A   1      32.884  19.481  25.349  1.00  0.00     0.004 A 
ATOM     85  C   UNL A   1      32.439  19.650  23.002  1.00  0.00     0.004 A 
ATOM     86  C   UNL A   1      32.769  18.847  24.098  1.00  0.00    -0.045 A 
BRANCH  86  87
ATOM     87  C   UNL A   1      33.010  17.365  23.960  1.00  0.00     0.019 C 
ATOM     88  C   UNL A   1      34.000  16.795  22.969  1.00  0.00     0.009 C 
ATOM     89  C   UNL A   1      34.331  16.810  24.433  1.00  0.00     0.009 C 
ENDBRANCH  86  87
ENDBRANCH  76  81
ENDBRANCH  72  74
ENDBRANCH  71  72
ENDBRANCH  70  71
ENDBRANCH   1  70
TORSDOF 16
ENDMDL
MODEL 3
REMARK VINA RESULT:     -11.6      2.077      2.468
REMARK SMILES O=C(OCCOC(=O)[C@H]1C[NH2+]C[C@H]1c1ccc(C2CC2)cc1)c1ccc(-c2c3nc(c(-c4cccc(S(=O)(=O)[O-])c4F)c4ccc([nH]4)c(-c4cccc(S(=O)(=O)[O-])c4F)c4nc(c(-c5cccc(S(=O)(=O)[O-])c5F)c5ccc2[nH]5)C=C4)C=C3)cc1
REMARK SMILES IDX 4 1 3 2 2 3 1 4 23 5 24 6 85 7 25 8 84 9 26 10 27 11 28 12
REMARK SMILES IDX 78 13 29 14 83 15 77 16 79 17 30 18 82 19 76 20 75 21 31 23
REMARK SMILES IDX 63 24 43 25 62 26 44 27 47 28 61 29 80 30 45 31 46 32 60 34
REMARK SMILES IDX 81 35 48 36 32 37 33 38 41 39 34 40 36 41 42 42 35 43 37 44
REMARK SMILES IDX 38 45 39 46 40 47 64 48 65 49 73 50 66 51 68 52 74 53 67 54
REMARK SMILES IDX 69 55 70 56 71 57 72 58 49 59 50 60 58 61 51 62 53 63 59 64
REMARK SMILES IDX 52 65 54 66 55 67 56 68 57 69 5 70 6 71 7 72 8 73 9 74 10 75
REMARK SMILES IDX 13 76 11 77 12 78 14 81 15 82 22 83 16 84 21 85 17 86 18 87
REMARK SMILES IDX 19 88 20 89
REMARK H PARENT 79 22 47 33 11 79 11 80
REMARK Flexibility Score: inf
ROOT
ATOM      1  C   UNL A   1      37.376  21.975  24.650  1.00  0.00     0.275 C 
ENDROOT
BRANCH   1   2
ATOM      2  O   UNL A   1      37.759  22.555  25.904  1.00  0.00    -0.458 OA
BRANCH   2   3
ATOM      3  C   UNL A   1      38.992  22.702  26.444  1.00  0.00     0.338 C 
ATOM      4  O   UNL A   1      39.614  21.690  26.763  1.00  0.00    -0.246 OA
BRANCH   3   5
ATOM      5  C   UNL A   1      39.569  24.034  26.818  1.00  0.00     0.060 A 
ATOM      6  C   UNL A   1      40.307  24.887  25.992  1.00  0.00     0.016 A 
ATOM      7  C   UNL A   1      39.266  24.480  28.112  1.00  0.00     0.016 A 
ATOM      8  C   UNL A   1      40.599  26.203  26.376  1.00  0.00     0.010 A 
ATOM      9  C   UNL A   1      39.502  25.807  28.478  1.00  0.00     0.010 A 
ATOM     10  C   UNL A   1      40.166  26.687  27.606  1.00  0.00    -0.014 A 
BRANCH  10  11
ATOM     11  C   UNL A   1      40.544  28.039  28.086  1.00  0.00     0.031 A 
ATOM     12  C   UNL A   1      42.010  28.309  28.230  1.00  0.00     0.074 A 
ATOM     13  C   UNL A   1      39.643  28.991  28.412  1.00  0.00     0.049 A 
ATOM     14  N   UNL A   1      42.605  29.411  28.590  1.00  0.00    -0.248 NA
ATOM     15  C   UNL A   1      42.933  27.211  27.880  1.00  0.00     0.031 C 
ATOM     16  C   UNL A   1      38.200  28.916  28.213  1.00  0.00     0.029 A 
ATOM     17  N   UNL A   1      39.806  30.206  29.035  1.00  0.00    -0.354 N 
ATOM     18  C   UNL A   1      43.959  29.151  28.458  1.00  0.00     0.074 A 
ATOM     19  C   UNL A   1      44.110  27.759  28.116  1.00  0.00     0.031 C 
ATOM     20  C   UNL A   1      37.595  29.934  28.851  1.00  0.00     0.029 A 
ATOM     21  C   UNL A   1      38.618  30.795  29.419  1.00  0.00     0.049 A 
ATOM     22  H   UNL A   1      40.687  30.616  29.193  1.00  0.00     0.167 HD
ATOM     23  C   UNL A   1      44.985  30.024  28.520  1.00  0.00     0.034 A 
ATOM     24  C   UNL A   1      38.383  31.925  30.114  1.00  0.00     0.034 A 
ATOM     25  C   UNL A   1      44.820  31.398  28.881  1.00  0.00     0.049 A 
ATOM     26  C   UNL A   1      39.559  32.835  30.347  1.00  0.00     0.074 A 
ATOM     27  C   UNL A   1      45.775  32.389  28.967  1.00  0.00     0.029 A 
ATOM     28  N   UNL A   1      43.608  31.963  29.255  1.00  0.00    -0.354 N 
ATOM     29  N   UNL A   1      40.819  32.637  30.046  1.00  0.00    -0.248 NA
ATOM     30  C   UNL A   1      39.270  34.169  30.889  1.00  0.00     0.031 C 
ATOM     31  C   UNL A   1      45.148  33.544  29.447  1.00  0.00     0.029 A 
ATOM     32  C   UNL A   1      43.794  33.283  29.610  1.00  0.00     0.049 A 
ATOM     33  H   UNL A   1      42.744  31.491  29.267  1.00  0.00     0.167 HD
ATOM     34  C   UNL A   1      41.458  33.849  30.263  1.00  0.00     0.074 A 
ATOM     35  C   UNL A   1      40.446  34.767  30.749  1.00  0.00     0.031 C 
ATOM     36  C   UNL A   1      42.756  34.179  30.055  1.00  0.00     0.034 A 
BRANCH  23  37
ATOM     37  C   UNL A   1      46.336  29.478  28.165  1.00  0.00     0.023 A 
ATOM     38  C   UNL A   1      46.757  29.479  26.816  1.00  0.00     0.012 A 
ATOM     39  C   UNL A   1      47.143  28.880  29.145  1.00  0.00     0.148 A 
ATOM     40  C   UNL A   1      47.934  28.836  26.440  1.00  0.00     0.002 A 
ATOM     41  C   UNL A   1      48.338  28.284  28.770  1.00  0.00     0.091 A 
ATOM     42  F   UNL A   1      46.702  28.862  30.410  1.00  0.00    -0.205 F 
ATOM     43  C   UNL A   1      48.726  28.242  27.419  1.00  0.00     0.022 A 
BRANCH  41  44
ATOM     44  S   UNL A   1      49.453  27.533  29.956  1.00  0.00     0.127 S 
ATOM     45  O   UNL A   1      49.740  28.656  30.846  1.00  0.00    -0.237 OA
ATOM     46  O   UNL A   1      48.615  26.487  30.539  1.00  0.00    -0.237 OA
ATOM     47  O   UNL A   1      50.593  27.046  29.185  1.00  0.00    -0.744 OA
ENDBRANCH  41  44
ENDBRANCH  23  37
BRANCH  24  48
ATOM     48  C   UNL A   1      36.993  32.349  30.462  1.00  0.00     0.023 A 
ATOM     49  C   UNL A   1      36.470  32.029  31.731  1.00  0.00     0.012 A 
ATOM     50  C   UNL A   1      36.179  33.052  29.548  1.00  0.00     0.148 A 
ATOM     51  C   UNL A   1      35.155  32.355  32.069  1.00  0.00     0.002 A 
ATOM     52  C   UNL A   1      34.877  33.401  29.902  1.00  0.00     0.091 A 
ATOM     53  F   UNL A   1      36.688  33.352  28.345  1.00  0.00    -0.205 F 
ATOM     54  C   UNL A   1      34.359  33.041  31.157  1.00  0.00     0.022 A 
BRANCH  52  55
ATOM     55  S   UNL A   1      33.784  34.347  28.831  1.00  0.00     0.127 S 
ATOM     56  O   UNL A   1      32.793  34.848  29.780  1.00  0.00    -0.237 OA
ATOM     57  O   UNL A   1      34.692  35.363  28.298  1.00  0.00    -0.237 OA
ATOM     58  O   UNL A   1      33.285  33.402  27.840  1.00  0.00    -0.744 OA
ENDBRANCH  52  55
ENDBRANCH  24  48
BRANCH  36  59
ATOM     59  C   UNL A   1      43.155  35.606  30.304  1.00  0.00     0.023 A 
ATOM     60  C   UNL A   1      43.733  35.972  31.534  1.00  0.00     0.012 A 
ATOM     61  C   UNL A   1      43.045  36.558  29.272  1.00  0.00     0.148 A 
ATOM     62  C   UNL A   1      44.169  37.278  31.744  1.00  0.00     0.002 A 
ATOM     63  C   UNL A   1      43.540  37.838  29.466  1.00  0.00     0.091 A 
ATOM     64  F   UNL A   1      42.470  36.188  28.118  1.00  0.00    -0.205 F 
ATOM     65  C   UNL A   1      44.089  38.204  30.706  1.00  0.00     0.022 A 
BRANCH  63  66
ATOM     66  S   UNL A   1      43.593  39.055  28.148  1.00  0.00     0.127 S 
ATOM     67  O   UNL A   1      42.171  39.289  27.902  1.00  0.00    -0.237 OA
ATOM     68  O   UNL A   1      44.294  40.169  28.785  1.00  0.00    -0.237 OA
ATOM     69  O   UNL A   1      44.321  38.431  27.051  1.00  0.00    -0.744 OA
ENDBRANCH  63  66
ENDBRANCH  36  59
ENDBRANCH  10  11
ENDBRANCH   3   5
ENDBRANCH   2   3
ENDBRANCH   1   2
BRANCH   1  70
ATOM     70  C   UNL A   1      35.952  22.283  24.171  1.00  0.00     0.274 C 
BRANCH  70  71
ATOM     71  O   UNL A   1      35.355  23.484  24.697  1.00  0.00    -0.462 OA
BRANCH  71  72
ATOM     72  C   UNL A   1      34.314  23.990  23.969  1.00  0.00     0.315 C 
ATOM     73  O   UNL A   1      34.403  24.256  22.774  1.00  0.00    -0.252 OA
BRANCH  72  74
ATOM     74  C   UNL A   1      33.024  24.235  24.771  1.00  0.00     0.167 C 
ATOM     75  C   UNL A   1      32.331  25.524  24.462  1.00  0.00     0.276 C 
ATOM     76  C   UNL A   1      31.872  23.248  24.536  1.00  0.00     0.094 C 
ATOM     77  N   UNL A   1      31.589  25.234  23.245  1.00  0.00    -0.345 N 
ATOM     78  C   UNL A   1      31.096  23.852  23.363  1.00  0.00     0.269 C 
ATOM     79  H   UNL A   1      32.199  25.322  22.432  1.00  0.00     0.346 HD
ATOM     80  H   UNL A   1      30.815  25.888  23.125  1.00  0.00     0.346 HD
BRANCH  76  81
ATOM     81  C   UNL A   1      32.366  21.837  24.506  1.00  0.00    -0.038 A 
ATOM     82  C   UNL A   1      32.806  21.121  25.614  1.00  0.00     0.004 A 
ATOM     83  C   UNL A   1      32.283  21.189  23.269  1.00  0.00     0.004 A 
ATOM     84  C   UNL A   1      33.046  19.749  25.498  1.00  0.00     0.004 A 
ATOM     85  C   UNL A   1      32.495  19.827  23.168  1.00  0.00     0.004 A 
ATOM     86  C   UNL A   1      32.855  19.064  24.283  1.00  0.00    -0.045 A 
BRANCH  86  87
ATOM     87  C   UNL A   1      33.053  17.571  24.200  1.00  0.00     0.019 C 
ATOM     88  C   UNL A   1      33.885  16.924  23.116  1.00  0.00     0.009 C 
ATOM     89  C   UNL A   1      34.420  17.014  24.516  1.00  0.00     0.009 C 
ENDBRANCH  86  87
ENDBRANCH  76  81
ENDBRANCH  72  74
ENDBRANCH  71  72
ENDBRANCH  70  71
ENDBRANCH   1  70
TORSDOF 16
ENDMDL
