MODEL 1
REMARK VINA RESULT:     -10.6      0.000      0.000
REMARK SMILES Cn1cc(-c2ccn(Cc3ccc(C(=O)OCCOC(=O)c4ccc(-c5c6nc(c(-c7cccc(S(=O)(=O)[O-])c7F)c7ccc([nH]7)c(-c7cccc(S(=O)(=O)[O-])c7F)c7nc(c(-c8cccc(S(=O)(=O)[O-])c8F)c8ccc5[nH]8)C=C7)C=C6)cc4)cc3)n2)cn1
REMARK SMILES IDX 17 1 16 2 14 3 15 4 13 5 10 6 11 7 86 8 12 9 85 10 9 11 8 12
REMARK SMILES IDX 5 13 6 14 87 15 7 16 4 17 1 18 2 19 3 20 89 21 88 22 18 23
REMARK SMILES IDX 19 24 20 25 21 26 22 27 23 28 84 29 24 30 83 31 25 32 26 33
REMARK SMILES IDX 27 34 77 35 28 36 82 37 76 38 78 39 29 40 81 41 75 42 74 43
REMARK SMILES IDX 30 45 62 46 42 47 61 48 43 49 46 50 60 51 79 52 44 53 45 54
REMARK SMILES IDX 59 56 80 57 47 58 31 59 32 60 40 61 33 62 35 63 41 64 34 65
REMARK SMILES IDX 36 66 37 67 38 68 39 69 63 70 64 71 72 72 65 73 67 74 73 75
REMARK SMILES IDX 66 76 68 77 69 78 70 79 71 80 48 81 49 82 57 83 50 84 52 85
REMARK SMILES IDX 58 86 51 87 53 88 54 89 55 90 56 91
REMARK H PARENT 78 44 46 55
REMARK Flexibility Score: inf
ROOT
ATOM      1  C   UNL A   1      34.270  34.182  30.249  1.00  0.00     0.275 C 
ENDROOT
BRANCH   1   2
ATOM      2  O   UNL A   1      34.166  32.933  30.949  1.00  0.00    -0.458 OA
BRANCH   2   3
ATOM      3  C   UNL A   1      34.376  32.990  32.289  1.00  0.00     0.338 C 
ATOM      4  O   UNL A   1      33.521  33.170  33.146  1.00  0.00    -0.246 OA
BRANCH   3   5
ATOM      5  C   UNL A   1      35.803  32.737  32.609  1.00  0.00     0.060 A 
ATOM      6  C   UNL A   1      38.452  32.141  33.340  1.00  0.00    -0.026 A 
ATOM      7  C   UNL A   1      37.614  31.135  32.842  1.00  0.00     0.006 A 
ATOM      8  C   UNL A   1      37.971  33.461  33.381  1.00  0.00     0.006 A 
ATOM      9  C   UNL A   1      36.297  31.432  32.479  1.00  0.00     0.016 A 
ATOM     10  C   UNL A   1      36.656  33.759  33.031  1.00  0.00     0.016 A 
BRANCH   6  11
ATOM     11  C   UNL A   1      39.841  31.821  33.841  1.00  0.00     0.179 C 
BRANCH  11  12
ATOM     12  N   UNL A   1      40.835  32.779  33.352  1.00  0.00    -0.268 N 
ATOM     13  C   UNL A   1      41.841  34.024  31.966  1.00  0.00     0.095 A 
ATOM     14  C   UNL A   1      42.536  34.161  33.183  1.00  0.00     0.050 A 
ATOM     15  N   UNL A   1      40.843  33.145  32.051  1.00  0.00    -0.172 NA
ATOM     16  C   UNL A   1      41.859  33.346  34.065  1.00  0.00     0.110 A 
BRANCH  13  17
ATOM     17  C   UNL A   1      42.149  34.731  30.740  1.00  0.00     0.040 A 
ATOM     18  C   UNL A   1      41.829  35.970  27.389  1.00  0.00     0.173 C 
ATOM     19  N   UNL A   1      42.164  35.593  28.739  1.00  0.00    -0.275 N 
ATOM     20  C   UNL A   1      41.484  34.720  29.537  1.00  0.00     0.118 A 
ATOM     21  N   UNL A   1      43.251  36.133  29.324  1.00  0.00    -0.181 NA
ATOM     22  C   UNL A   1      43.218  35.627  30.563  1.00  0.00     0.145 A 
ENDBRANCH  13  17
ENDBRANCH  11  12
ENDBRANCH   6  11
ENDBRANCH   3   5
ENDBRANCH   2   3
ENDBRANCH   1   2
BRANCH   1  23
ATOM     23  C   UNL A   1      34.567  33.963  28.773  1.00  0.00     0.275 C 
BRANCH  23  24
ATOM     24  O   UNL A   1      35.797  33.270  28.568  1.00  0.00    -0.458 OA
BRANCH  24  25
ATOM     25  C   UNL A   1      35.657  31.988  28.159  1.00  0.00     0.338 C 
ATOM     26  O   UNL A   1      34.691  31.488  27.609  1.00  0.00    -0.246 OA
BRANCH  25  27
ATOM     27  C   UNL A   1      36.758  31.186  28.692  1.00  0.00     0.060 A 
ATOM     28  C   UNL A   1      37.861  31.863  29.223  1.00  0.00     0.016 A 
ATOM     29  C   UNL A   1      36.791  29.810  28.425  1.00  0.00     0.016 A 
ATOM     30  C   UNL A   1      39.045  31.170  29.385  1.00  0.00     0.010 A 
ATOM     31  C   UNL A   1      37.976  29.126  28.572  1.00  0.00     0.010 A 
ATOM     32  C   UNL A   1      39.102  29.823  29.005  1.00  0.00    -0.014 A 
BRANCH  32  33
ATOM     33  C   UNL A   1      40.325  29.085  29.266  1.00  0.00     0.031 A 
ATOM     34  C   UNL A   1      40.527  28.844  30.716  1.00  0.00     0.074 A 
ATOM     35  C   UNL A   1      41.080  28.556  28.283  1.00  0.00     0.049 A 
ATOM     36  N   UNL A   1      41.470  29.307  31.468  1.00  0.00    -0.248 NA
ATOM     37  C   UNL A   1      39.442  28.180  31.460  1.00  0.00     0.031 C 
ATOM     38  C   UNL A   1      40.766  28.525  26.849  1.00  0.00     0.029 A 
ATOM     39  N   UNL A   1      42.215  27.805  28.365  1.00  0.00    -0.354 N 
ATOM     40  C   UNL A   1      41.230  28.760  32.728  1.00  0.00     0.074 A 
ATOM     41  C   UNL A   1      39.873  28.295  32.716  1.00  0.00     0.031 C 
ATOM     42  C   UNL A   1      41.539  27.594  26.246  1.00  0.00     0.029 A 
ATOM     43  C   UNL A   1      42.479  27.062  27.216  1.00  0.00     0.049 A 
ATOM     44  H   UNL A   1      42.793  27.789  29.163  1.00  0.00     0.167 HD
ATOM     45  C   UNL A   1      42.266  28.446  33.551  1.00  0.00     0.034 A 
ATOM     46  C   UNL A   1      43.357  26.036  27.096  1.00  0.00     0.034 A 
ATOM     47  C   UNL A   1      43.473  29.107  33.121  1.00  0.00     0.049 A 
ATOM     48  C   UNL A   1      44.298  26.127  28.231  1.00  0.00     0.074 A 
ATOM     49  C   UNL A   1      43.914  30.407  33.013  1.00  0.00     0.029 A 
ATOM     50  N   UNL A   1      44.292  28.332  32.340  1.00  0.00    -0.354 N 
ATOM     51  N   UNL A   1      45.192  27.065  28.349  1.00  0.00    -0.248 NA
ATOM     52  C   UNL A   1      44.028  25.359  29.437  1.00  0.00     0.031 C 
ATOM     53  C   UNL A   1      44.816  30.412  31.911  1.00  0.00     0.029 A 
ATOM     54  C   UNL A   1      44.935  29.109  31.422  1.00  0.00     0.049 A 
ATOM     55  H   UNL A   1      44.400  27.358  32.430  1.00  0.00     0.167 HD
ATOM     56  C   UNL A   1      45.232  27.316  29.711  1.00  0.00     0.074 A 
ATOM     57  C   UNL A   1      44.652  26.130  30.331  1.00  0.00     0.031 C 
ATOM     58  C   UNL A   1      45.432  28.584  30.169  1.00  0.00     0.034 A 
BRANCH  45  59
ATOM     59  C   UNL A   1      42.343  27.189  34.408  1.00  0.00     0.023 A 
ATOM     60  C   UNL A   1      41.965  27.330  35.765  1.00  0.00     0.012 A 
ATOM     61  C   UNL A   1      43.042  26.007  34.068  1.00  0.00     0.148 A 
ATOM     62  C   UNL A   1      42.338  26.396  36.738  1.00  0.00     0.002 A 
ATOM     63  C   UNL A   1      43.352  25.048  35.027  1.00  0.00     0.091 A 
ATOM     64  F   UNL A   1      43.531  25.837  32.840  1.00  0.00    -0.205 F 
ATOM     65  C   UNL A   1      43.035  25.255  36.369  1.00  0.00     0.022 A 
BRANCH  63  66
ATOM     66  S   UNL A   1      44.228  23.534  34.602  1.00  0.00     0.127 S 
ATOM     67  O   UNL A   1      43.284  22.895  33.692  1.00  0.00    -0.237 OA
ATOM     68  O   UNL A   1      45.439  24.062  33.973  1.00  0.00    -0.237 OA
ATOM     69  O   UNL A   1      44.464  22.843  35.864  1.00  0.00    -0.744 OA
ENDBRANCH  63  66
ENDBRANCH  45  59
BRANCH  46  70
ATOM     70  C   UNL A   1      43.377  24.857  26.201  1.00  0.00     0.023 A 
ATOM     71  C   UNL A   1      44.403  24.735  25.240  1.00  0.00     0.012 A 
ATOM     72  C   UNL A   1      42.592  23.720  26.485  1.00  0.00     0.148 A 
ATOM     73  C   UNL A   1      44.676  23.509  24.623  1.00  0.00     0.002 A 
ATOM     74  C   UNL A   1      42.867  22.502  25.869  1.00  0.00     0.091 A 
ATOM     75  F   UNL A   1      41.645  23.813  27.427  1.00  0.00    -0.205 F 
ATOM     76  C   UNL A   1      43.918  22.389  24.948  1.00  0.00     0.022 A 
BRANCH  74  77
ATOM     77  S   UNL A   1      41.966  20.998  26.269  1.00  0.00     0.127 S 
ATOM     78  O   UNL A   1      42.582  20.028  25.364  1.00  0.00    -0.237 OA
ATOM     79  O   UNL A   1      42.297  20.815  27.679  1.00  0.00    -0.237 OA
ATOM     80  O   UNL A   1      40.567  21.284  25.979  1.00  0.00    -0.744 OA
ENDBRANCH  74  77
ENDBRANCH  46  70
BRANCH  58  81
ATOM     81  C   UNL A   1      46.048  29.572  29.218  1.00  0.00     0.023 A 
ATOM     82  C   UNL A   1      47.431  29.636  28.954  1.00  0.00     0.012 A 
ATOM     83  C   UNL A   1      45.172  30.385  28.481  1.00  0.00     0.148 A 
ATOM     84  C   UNL A   1      47.928  30.519  27.991  1.00  0.00     0.002 A 
ATOM     85  C   UNL A   1      45.664  31.218  27.489  1.00  0.00     0.091 A 
ATOM     86  F   UNL A   1      43.859  30.316  28.756  1.00  0.00    -0.205 F 
ATOM     87  C   UNL A   1      47.043  31.298  27.248  1.00  0.00     0.022 A 
BRANCH  85  88
ATOM     88  S   UNL A   1      44.552  32.136  26.424  1.00  0.00     0.127 S 
ATOM     89  O   UNL A   1      43.577  31.115  26.047  1.00  0.00    -0.237 OA
ATOM     90  O   UNL A   1      44.040  33.173  27.321  1.00  0.00    -0.237 OA
ATOM     91  O   UNL A   1      45.379  32.650  25.338  1.00  0.00    -0.744 OA
ENDBRANCH  85  88
ENDBRANCH  58  81
ENDBRANCH  32  33
ENDBRANCH  25  27
ENDBRANCH  24  25
ENDBRANCH  23  24
ENDBRANCH   1  23
TORSDOF 17
ENDMDL
MODEL 2
REMARK VINA RESULT:     -10.4      5.424     11.347
REMARK SMILES Cn1cc(-c2ccn(Cc3ccc(C(=O)OCCOC(=O)c4ccc(-c5c6nc(c(-c7cccc(S(=O)(=O)[O-])c7F)c7ccc([nH]7)c(-c7cccc(S(=O)(=O)[O-])c7F)c7nc(c(-c8cccc(S(=O)(=O)[O-])c8F)c8ccc5[nH]8)C=C7)C=C6)cc4)cc3)n2)cn1
REMARK SMILES IDX 17 1 16 2 14 3 15 4 13 5 10 6 11 7 86 8 12 9 85 10 9 11 8 12
REMARK SMILES IDX 5 13 6 14 87 15 7 16 4 17 1 18 2 19 3 20 89 21 88 22 18 23
REMARK SMILES IDX 19 24 20 25 21 26 22 27 23 28 84 29 24 30 83 31 25 32 26 33
REMARK SMILES IDX 27 34 77 35 28 36 82 37 76 38 78 39 29 40 81 41 75 42 74 43
REMARK SMILES IDX 30 45 62 46 42 47 61 48 43 49 46 50 60 51 79 52 44 53 45 54
REMARK SMILES IDX 59 56 80 57 47 58 31 59 32 60 40 61 33 62 35 63 41 64 34 65
REMARK SMILES IDX 36 66 37 67 38 68 39 69 63 70 64 71 72 72 65 73 67 74 73 75
REMARK SMILES IDX 66 76 68 77 69 78 70 79 71 80 48 81 49 82 57 83 50 84 52 85
REMARK SMILES IDX 58 86 51 87 53 88 54 89 55 90 56 91
REMARK H PARENT 78 44 46 55
REMARK Flexibility Score: inf
ROOT
ATOM      1  C   UNL A   1      37.432  22.490  25.769  1.00  0.00     0.275 C 
ENDROOT
BRANCH   1   2
ATOM      2  O   UNL A   1      36.794  22.248  24.506  1.00  0.00    -0.458 OA
BRANCH   2   3
ATOM      3  C   UNL A   1      35.502  21.834  24.569  1.00  0.00     0.338 C 
ATOM      4  O   UNL A   1      35.093  20.829  25.136  1.00  0.00    -0.246 OA
BRANCH   3   5
ATOM      5  C   UNL A   1      34.603  22.808  23.900  1.00  0.00     0.060 A 
ATOM      6  C   UNL A   1      32.952  24.584  22.477  1.00  0.00    -0.026 A 
ATOM      7  C   UNL A   1      32.751  23.201  22.379  1.00  0.00     0.006 A 
ATOM      8  C   UNL A   1      33.931  25.062  23.365  1.00  0.00     0.006 A 
ATOM      9  C   UNL A   1      33.573  22.319  23.087  1.00  0.00     0.016 A 
ATOM     10  C   UNL A   1      34.759  24.186  24.063  1.00  0.00     0.016 A 
BRANCH   6  11
ATOM     11  C   UNL A   1      32.148  25.550  21.637  1.00  0.00     0.179 C 
BRANCH  11  12
ATOM     12  N   UNL A   1      31.094  26.206  22.414  1.00  0.00    -0.268 N 
ATOM     13  C   UNL A   1      29.758  27.740  22.999  1.00  0.00     0.095 A 
ATOM     14  C   UNL A   1      29.543  26.678  23.897  1.00  0.00     0.050 A 
ATOM     15  N   UNL A   1      30.735  27.478  22.133  1.00  0.00    -0.172 NA
ATOM     16  C   UNL A   1      30.419  25.695  23.492  1.00  0.00     0.110 A 
BRANCH  13  17
ATOM     17  C   UNL A   1      29.027  28.991  22.990  1.00  0.00     0.040 A 
ATOM     18  C   UNL A   1      28.366  32.509  22.755  1.00  0.00     0.173 C 
ATOM     19  N   UNL A   1      28.397  31.074  22.889  1.00  0.00    -0.275 N 
ATOM     20  C   UNL A   1      29.503  30.277  22.901  1.00  0.00     0.118 A 
ATOM     21  N   UNL A   1      27.238  30.398  23.012  1.00  0.00    -0.181 NA
ATOM     22  C   UNL A   1      27.628  29.118  23.040  1.00  0.00     0.145 A 
ENDBRANCH  13  17
ENDBRANCH  11  12
ENDBRANCH   6  11
ENDBRANCH   3   5
ENDBRANCH   2   3
ENDBRANCH   1   2
BRANCH   1  23
ATOM     23  C   UNL A   1      38.780  21.788  25.848  1.00  0.00     0.275 C 
BRANCH  23  24
ATOM     24  O   UNL A   1      39.865  22.712  25.913  1.00  0.00    -0.458 OA
BRANCH  24  25
ATOM     25  C   UNL A   1      40.441  22.815  27.132  1.00  0.00     0.338 C 
ATOM     26  O   UNL A   1      40.589  21.931  27.959  1.00  0.00    -0.246 OA
BRANCH  25  27
ATOM     27  C   UNL A   1      40.660  24.227  27.446  1.00  0.00     0.060 A 
ATOM     28  C   UNL A   1      41.841  24.572  28.110  1.00  0.00     0.016 A 
ATOM     29  C   UNL A   1      39.595  25.129  27.311  1.00  0.00     0.016 A 
ATOM     30  C   UNL A   1      41.911  25.800  28.739  1.00  0.00     0.010 A 
ATOM     31  C   UNL A   1      39.660  26.344  27.953  1.00  0.00     0.010 A 
ATOM     32  C   UNL A   1      40.796  26.648  28.699  1.00  0.00    -0.014 A 
BRANCH  32  33
ATOM     33  C   UNL A   1      40.917  27.970  29.287  1.00  0.00     0.031 A 
ATOM     34  C   UNL A   1      41.950  28.788  28.604  1.00  0.00     0.074 A 
ATOM     35  C   UNL A   1      40.070  28.427  30.230  1.00  0.00     0.049 A 
ATOM     36  N   UNL A   1      43.058  29.230  29.097  1.00  0.00    -0.248 NA
ATOM     37  C   UNL A   1      41.835  28.961  27.144  1.00  0.00     0.031 C 
ATOM     38  C   UNL A   1      38.861  27.760  30.729  1.00  0.00     0.029 A 
ATOM     39  N   UNL A   1      40.020  29.647  30.838  1.00  0.00    -0.354 N 
ATOM     40  C   UNL A   1      43.645  29.966  28.068  1.00  0.00     0.074 A 
ATOM     41  C   UNL A   1      42.987  29.566  26.858  1.00  0.00     0.031 C 
ATOM     42  C   UNL A   1      38.080  28.666  31.356  1.00  0.00     0.029 A 
ATOM     43  C   UNL A   1      38.783  29.935  31.414  1.00  0.00     0.049 A 
ATOM     44  H   UNL A   1      40.786  30.265  30.867  1.00  0.00     0.167 HD
ATOM     45  C   UNL A   1      44.388  31.070  28.348  1.00  0.00     0.034 A 
ATOM     46  C   UNL A   1      38.349  31.147  31.838  1.00  0.00     0.034 A 
ATOM     47  C   UNL A   1      44.776  31.080  29.736  1.00  0.00     0.049 A 
ATOM     48  C   UNL A   1      39.538  32.007  32.009  1.00  0.00     0.074 A 
ATOM     49  C   UNL A   1      45.565  30.305  30.557  1.00  0.00     0.029 A 
ATOM     50  N   UNL A   1      43.961  31.831  30.544  1.00  0.00    -0.354 N 
ATOM     51  N   UNL A   1      40.419  31.835  32.951  1.00  0.00    -0.248 NA
ATOM     52  C   UNL A   1      39.947  32.873  30.914  1.00  0.00     0.031 C 
ATOM     53  C   UNL A   1      44.974  30.398  31.850  1.00  0.00     0.029 A 
ATOM     54  C   UNL A   1      43.883  31.267  31.783  1.00  0.00     0.049 A 
ATOM     55  H   UNL A   1      43.501  32.656  30.269  1.00  0.00     0.167 HD
ATOM     56  C   UNL A   1      41.621  32.161  32.344  1.00  0.00     0.074 A 
ATOM     57  C   UNL A   1      41.253  32.959  31.181  1.00  0.00     0.031 C 
ATOM     58  C   UNL A   1      42.758  31.482  32.667  1.00  0.00     0.034 A 
BRANCH  45  59
ATOM     59  C   UNL A   1      44.346  32.368  27.553  1.00  0.00     0.023 A 
ATOM     60  C   UNL A   1      45.392  32.568  26.621  1.00  0.00     0.012 A 
ATOM     61  C   UNL A   1      43.566  33.503  27.879  1.00  0.00     0.148 A 
ATOM     62  C   UNL A   1      45.699  33.836  26.113  1.00  0.00     0.002 A 
ATOM     63  C   UNL A   1      43.833  34.749  27.319  1.00  0.00     0.091 A 
ATOM     64  F   UNL A   1      42.630  33.435  28.825  1.00  0.00    -0.205 F 
ATOM     65  C   UNL A   1      44.920  34.928  26.465  1.00  0.00     0.022 A 
BRANCH  63  66
ATOM     66  S   UNL A   1      42.838  36.196  27.715  1.00  0.00     0.127 S 
ATOM     67  O   UNL A   1      43.036  36.302  29.157  1.00  0.00    -0.237 OA
ATOM     68  O   UNL A   1      43.496  37.232  26.919  1.00  0.00    -0.237 OA
ATOM     69  O   UNL A   1      41.483  35.879  27.281  1.00  0.00    -0.744 OA
ENDBRANCH  63  66
ENDBRANCH  45  59
BRANCH  46  70
ATOM     70  C   UNL A   1      36.988  31.722  31.948  1.00  0.00     0.023 A 
ATOM     71  C   UNL A   1      36.495  32.094  33.216  1.00  0.00     0.012 A 
ATOM     72  C   UNL A   1      36.306  32.186  30.805  1.00  0.00     0.148 A 
ATOM     73  C   UNL A   1      35.392  32.945  33.343  1.00  0.00     0.002 A 
ATOM     74  C   UNL A   1      35.209  33.035  30.935  1.00  0.00     0.091 A 
ATOM     75  F   UNL A   1      36.791  31.876  29.596  1.00  0.00    -0.205 F 
ATOM     76  C   UNL A   1      34.758  33.428  32.203  1.00  0.00     0.022 A 
BRANCH  74  77
ATOM     77  S   UNL A   1      34.364  33.738  29.513  1.00  0.00     0.127 S 
ATOM     78  O   UNL A   1      35.420  34.549  28.906  1.00  0.00    -0.237 OA
ATOM     79  O   UNL A   1      34.001  32.543  28.757  1.00  0.00    -0.237 OA
ATOM     80  O   UNL A   1      33.251  34.508  30.052  1.00  0.00    -0.744 OA
ENDBRANCH  74  77
ENDBRANCH  46  70
BRANCH  58  81
ATOM     81  C   UNL A   1      42.768  30.733  33.970  1.00  0.00     0.023 A 
ATOM     82  C   UNL A   1      43.016  31.345  35.215  1.00  0.00     0.012 A 
ATOM     83  C   UNL A   1      42.397  29.379  33.934  1.00  0.00     0.148 A 
ATOM     84  C   UNL A   1      42.921  30.607  36.399  1.00  0.00     0.002 A 
ATOM     85  C   UNL A   1      42.251  28.666  35.114  1.00  0.00     0.091 A 
ATOM     86  F   UNL A   1      42.177  28.812  32.737  1.00  0.00    -0.205 F 
ATOM     87  C   UNL A   1      42.524  29.272  36.349  1.00  0.00     0.022 A 
BRANCH  85  88
ATOM     88  S   UNL A   1      41.616  26.990  35.102  1.00  0.00     0.127 S 
ATOM     89  O   UNL A   1      42.799  26.217  34.733  1.00  0.00    -0.237 OA
ATOM     90  O   UNL A   1      41.172  26.810  36.485  1.00  0.00    -0.237 OA
ATOM     91  O   UNL A   1      40.529  26.986  34.128  1.00  0.00    -0.744 OA
ENDBRANCH  85  88
ENDBRANCH  58  81
ENDBRANCH  32  33
ENDBRANCH  25  27
ENDBRANCH  24  25
ENDBRANCH  23  24
ENDBRANCH   1  23
TORSDOF 17
ENDMDL
MODEL 3
REMARK VINA RESULT:     -10.3      2.035      3.485
REMARK SMILES Cn1cc(-c2ccn(Cc3ccc(C(=O)OCCOC(=O)c4ccc(-c5c6nc(c(-c7cccc(S(=O)(=O)[O-])c7F)c7ccc([nH]7)c(-c7cccc(S(=O)(=O)[O-])c7F)c7nc(c(-c8cccc(S(=O)(=O)[O-])c8F)c8ccc5[nH]8)C=C7)C=C6)cc4)cc3)n2)cn1
REMARK SMILES IDX 17 1 16 2 14 3 15 4 13 5 10 6 11 7 86 8 12 9 85 10 9 11 8 12
REMARK SMILES IDX 5 13 6 14 87 15 7 16 4 17 1 18 2 19 3 20 89 21 88 22 18 23
REMARK SMILES IDX 19 24 20 25 21 26 22 27 23 28 84 29 24 30 83 31 25 32 26 33
REMARK SMILES IDX 27 34 77 35 28 36 82 37 76 38 78 39 29 40 81 41 75 42 74 43
REMARK SMILES IDX 30 45 62 46 42 47 61 48 43 49 46 50 60 51 79 52 44 53 45 54
REMARK SMILES IDX 59 56 80 57 47 58 31 59 32 60 40 61 33 62 35 63 41 64 34 65
REMARK SMILES IDX 36 66 37 67 38 68 39 69 63 70 64 71 72 72 65 73 67 74 73 75
REMARK SMILES IDX 66 76 68 77 69 78 70 79 71 80 48 81 49 82 57 83 50 84 52 85
REMARK SMILES IDX 58 86 51 87 53 88 54 89 55 90 56 91
REMARK H PARENT 78 44 46 55
REMARK Flexibility Score: inf
ROOT
ATOM      1  C   UNL A   1      34.085  35.010  29.123  1.00  0.00     0.275 C 
ENDROOT
BRANCH   1   2
ATOM      2  O   UNL A   1      33.680  34.226  30.255  1.00  0.00    -0.458 OA
BRANCH   2   3
ATOM      3  C   UNL A   1      34.106  34.674  31.464  1.00  0.00     0.338 C 
ATOM      4  O   UNL A   1      33.622  35.600  32.101  1.00  0.00    -0.246 OA
BRANCH   3   5
ATOM      5  C   UNL A   1      35.227  33.843  31.969  1.00  0.00     0.060 A 
ATOM      6  C   UNL A   1      37.240  32.208  33.055  1.00  0.00    -0.026 A 
ATOM      7  C   UNL A   1      36.056  31.639  32.568  1.00  0.00     0.006 A 
ATOM      8  C   UNL A   1      37.435  33.591  32.908  1.00  0.00     0.006 A 
ATOM      9  C   UNL A   1      35.055  32.453  32.029  1.00  0.00     0.016 A 
ATOM     10  C   UNL A   1      36.436  34.407  32.381  1.00  0.00     0.016 A 
BRANCH   6  11
ATOM     11  C   UNL A   1      38.287  31.360  33.741  1.00  0.00     0.179 C 
BRANCH  11  12
ATOM     12  N   UNL A   1      38.637  31.884  35.062  1.00  0.00    -0.268 N 
ATOM     13  C   UNL A   1      38.400  32.342  37.116  1.00  0.00     0.095 A 
ATOM     14  C   UNL A   1      39.656  32.858  36.749  1.00  0.00     0.050 A 
ATOM     15  N   UNL A   1      37.756  31.800  36.083  1.00  0.00    -0.172 NA
ATOM     16  C   UNL A   1      39.787  32.543  35.413  1.00  0.00     0.110 A 
BRANCH  13  17
ATOM     17  C   UNL A   1      37.832  32.383  38.448  1.00  0.00     0.040 A 
ATOM     18  C   UNL A   1      35.694  31.633  41.229  1.00  0.00     0.173 C 
ATOM     19  N   UNL A   1      36.659  32.089  40.260  1.00  0.00    -0.275 N 
ATOM     20  C   UNL A   1      36.718  31.748  38.941  1.00  0.00     0.118 A 
ATOM     21  N   UNL A   1      37.630  32.940  40.647  1.00  0.00    -0.181 NA
ATOM     22  C   UNL A   1      38.367  33.090  39.540  1.00  0.00     0.145 A 
ENDBRANCH  13  17
ENDBRANCH  11  12
ENDBRANCH   6  11
ENDBRANCH   3   5
ENDBRANCH   2   3
ENDBRANCH   1   2
BRANCH   1  23
ATOM     23  C   UNL A   1      34.706  34.136  28.042  1.00  0.00     0.275 C 
BRANCH  23  24
ATOM     24  O   UNL A   1      35.706  33.262  28.564  1.00  0.00    -0.458 OA
BRANCH  24  25
ATOM     25  C   UNL A   1      35.535  31.960  28.241  1.00  0.00     0.338 C 
ATOM     26  O   UNL A   1      34.539  31.438  27.770  1.00  0.00    -0.246 OA
BRANCH  25  27
ATOM     27  C   UNL A   1      36.656  31.180  28.767  1.00  0.00     0.060 A 
ATOM     28  C   UNL A   1      37.747  31.878  29.293  1.00  0.00     0.016 A 
ATOM     29  C   UNL A   1      36.716  29.806  28.497  1.00  0.00     0.016 A 
ATOM     30  C   UNL A   1      38.945  31.210  29.449  1.00  0.00     0.010 A 
ATOM     31  C   UNL A   1      37.915  29.146  28.637  1.00  0.00     0.010 A 
ATOM     32  C   UNL A   1      39.028  29.865  29.066  1.00  0.00    -0.014 A 
BRANCH  32  33
ATOM     33  C   UNL A   1      40.268  29.152  29.319  1.00  0.00     0.031 A 
ATOM     34  C   UNL A   1      40.479  28.907  30.767  1.00  0.00     0.074 A 
ATOM     35  C   UNL A   1      41.031  28.645  28.331  1.00  0.00     0.049 A 
ATOM     36  N   UNL A   1      41.414  29.386  31.520  1.00  0.00    -0.248 NA
ATOM     37  C   UNL A   1      39.411  28.216  31.511  1.00  0.00     0.031 C 
ATOM     38  C   UNL A   1      40.714  28.615  26.898  1.00  0.00     0.029 A 
ATOM     39  N   UNL A   1      42.182  27.918  28.406  1.00  0.00    -0.354 N 
ATOM     40  C   UNL A   1      41.190  28.827  32.777  1.00  0.00     0.074 A 
ATOM     41  C   UNL A   1      39.843  28.333  32.766  1.00  0.00     0.031 C 
ATOM     42  C   UNL A   1      41.504  27.704  26.288  1.00  0.00     0.029 A 
ATOM     43  C   UNL A   1      42.459  27.186  27.252  1.00  0.00     0.049 A 
ATOM     44  H   UNL A   1      42.762  27.910  29.202  1.00  0.00     0.167 HD
ATOM     45  C   UNL A   1      42.234  28.531  33.595  1.00  0.00     0.034 A 
ATOM     46  C   UNL A   1      43.358  26.181  27.124  1.00  0.00     0.034 A 
ATOM     47  C   UNL A   1      43.425  29.220  33.166  1.00  0.00     0.049 A 
ATOM     48  C   UNL A   1      44.300  26.285  28.257  1.00  0.00     0.074 A 
ATOM     49  C   UNL A   1      43.838  30.529  33.064  1.00  0.00     0.029 A 
ATOM     50  N   UNL A   1      44.258  28.467  32.378  1.00  0.00    -0.354 N 
ATOM     51  N   UNL A   1      45.175  27.242  28.378  1.00  0.00    -0.248 NA
ATOM     52  C   UNL A   1      44.050  25.505  29.460  1.00  0.00     0.031 C 
ATOM     53  C   UNL A   1      44.737  30.560  31.959  1.00  0.00     0.029 A 
ATOM     54  C   UNL A   1      44.882  29.263  31.463  1.00  0.00     0.049 A 
ATOM     55  H   UNL A   1      44.388  27.495  32.463  1.00  0.00     0.167 HD
ATOM     56  C   UNL A   1      45.213  27.486  29.741  1.00  0.00     0.074 A 
ATOM     57  C   UNL A   1      44.660  26.285  30.357  1.00  0.00     0.031 C 
ATOM     58  C   UNL A   1      45.387  28.756  30.206  1.00  0.00     0.034 A 
BRANCH  45  59
ATOM     59  C   UNL A   1      42.340  27.272  34.445  1.00  0.00     0.023 A 
ATOM     60  C   UNL A   1      41.992  27.404  35.811  1.00  0.00     0.012 A 
ATOM     61  C   UNL A   1      43.041  26.096  34.084  1.00  0.00     0.148 A 
ATOM     62  C   UNL A   1      42.394  26.469  36.771  1.00  0.00     0.002 A 
ATOM     63  C   UNL A   1      43.380  25.136  35.032  1.00  0.00     0.091 A 
ATOM     64  F   UNL A   1      43.503  25.935  32.845  1.00  0.00    -0.205 F 
ATOM     65  C   UNL A   1      43.091  25.335  36.382  1.00  0.00     0.022 A 
BRANCH  63  66
ATOM     66  S   UNL A   1      44.258  23.631  34.582  1.00  0.00     0.127 S 
ATOM     67  O   UNL A   1      45.516  24.167  34.073  1.00  0.00    -0.237 OA
ATOM     68  O   UNL A   1      44.349  22.947  35.872  1.00  0.00    -0.237 OA
ATOM     69  O   UNL A   1      43.414  22.954  33.605  1.00  0.00    -0.744 OA
ENDBRANCH  63  66
ENDBRANCH  45  59
BRANCH  46  70
ATOM     70  C   UNL A   1      43.401  25.007  26.223  1.00  0.00     0.023 A 
ATOM     71  C   UNL A   1      44.437  24.904  25.270  1.00  0.00     0.012 A 
ATOM     72  C   UNL A   1      42.627  23.859  26.493  1.00  0.00     0.148 A 
ATOM     73  C   UNL A   1      44.730  23.685  24.648  1.00  0.00     0.002 A 
ATOM     74  C   UNL A   1      42.924  22.648  25.873  1.00  0.00     0.091 A 
ATOM     75  F   UNL A   1      41.671  23.934  27.427  1.00  0.00    -0.205 F 
ATOM     76  C   UNL A   1      43.984  22.554  24.961  1.00  0.00     0.022 A 
BRANCH  74  77
ATOM     77  S   UNL A   1      42.038  21.131  26.255  1.00  0.00     0.127 S 
ATOM     78  O   UNL A   1      40.666  21.481  25.886  1.00  0.00    -0.237 OA
ATOM     79  O   UNL A   1      42.685  20.172  25.364  1.00  0.00    -0.237 OA
ATOM     80  O   UNL A   1      42.236  20.903  27.680  1.00  0.00    -0.744 OA
ENDBRANCH  74  77
ENDBRANCH  46  70
BRANCH  58  81
ATOM     81  C   UNL A   1      45.979  29.761  29.258  1.00  0.00     0.023 A 
ATOM     82  C   UNL A   1      47.365  29.907  29.047  1.00  0.00     0.012 A 
ATOM     83  C   UNL A   1      45.085  30.505  28.471  1.00  0.00     0.148 A 
ATOM     84  C   UNL A   1      47.846  30.800  28.085  1.00  0.00     0.002 A 
ATOM     85  C   UNL A   1      45.565  31.347  27.481  1.00  0.00     0.091 A 
ATOM     86  F   UNL A   1      43.769  30.360  28.696  1.00  0.00    -0.205 F 
ATOM     87  C   UNL A   1      46.945  31.509  27.292  1.00  0.00     0.022 A 
BRANCH  85  88
ATOM     88  S   UNL A   1      44.442  32.174  26.355  1.00  0.00     0.127 S 
ATOM     89  O   UNL A   1      43.511  31.103  26.009  1.00  0.00    -0.237 OA
ATOM     90  O   UNL A   1      43.876  33.233  27.192  1.00  0.00    -0.237 OA
ATOM     91  O   UNL A   1      45.272  32.668  25.261  1.00  0.00    -0.744 OA
ENDBRANCH  85  88
ENDBRANCH  58  81
ENDBRANCH  32  33
ENDBRANCH  25  27
ENDBRANCH  24  25
ENDBRANCH  23  24
ENDBRANCH   1  23
TORSDOF 17
ENDMDL
