MODEL 1
REMARK VINA RESULT:     -12.8      0.000      0.000
REMARK SMILES O=C(OCCOC(=O)c1ccc2c(c1)NC1=[NH+]S(=O)(=O)[NH+]=C1N2)c1ccc(-c2c3nc(c(-c4cccc(S(=O)(=O)[O-])c4F)c4ccc([nH]4)c(-c4cccc(S(=O)(=O)[O-])c4F)c4nc(c(-c5cccc(S(=O)(=O)[O-])c5F)c5ccc2[nH]5)C=C4)C=C3)cc1
REMARK SMILES IDX 3 1 2 2 1 3 24 4 25 5 86 6 26 7 85 8 27 9 28 10 29 11 79 12
REMARK SMILES IDX 30 13 84 14 78 15 80 16 31 17 83 18 77 19 76 20 32 22 64 23
REMARK SMILES IDX 44 24 63 25 45 26 48 27 62 28 81 29 46 30 47 31 61 33 82 34
REMARK SMILES IDX 49 35 33 36 34 37 42 38 35 39 37 40 43 41 36 42 38 43 39 44
REMARK SMILES IDX 40 45 41 46 65 47 66 48 74 49 67 50 69 51 75 52 68 53 70 54
REMARK SMILES IDX 71 55 72 56 73 57 50 58 51 59 59 60 52 61 54 62 60 63 53 64
REMARK SMILES IDX 55 65 56 66 57 67 58 68 4 69 5 70 6 71 7 72 8 73 9 74 10 75
REMARK SMILES IDX 14 76 11 77 13 78 12 79 15 80 23 81 16 82 22 84 17 86 21 87
REMARK SMILES IDX 18 88 19 91 20 92
REMARK H PARENT 80 21 48 32 15 83 23 85 17 89 21 90
REMARK Flexibility Score: inf
ROOT
ATOM      1  O   UNL A   1      41.377  21.392  27.559  1.00  0.00    -0.458 OA
ENDROOT
BRANCH   1   2
ATOM      2  C   UNL A   1      40.458  22.316  27.153  1.00  0.00     0.338 C 
ATOM      3  O   UNL A   1      39.400  21.991  26.628  1.00  0.00    -0.246 OA
BRANCH   2   4
ATOM      4  C   UNL A   1      40.874  23.728  27.181  1.00  0.00     0.060 A 
ATOM      5  C   UNL A   1      41.955  24.029  28.003  1.00  0.00     0.016 A 
ATOM      6  C   UNL A   1      40.067  24.738  26.651  1.00  0.00     0.016 A 
ATOM      7  C   UNL A   1      42.010  25.290  28.561  1.00  0.00     0.010 A 
ATOM      8  C   UNL A   1      40.131  26.008  27.210  1.00  0.00     0.010 A 
ATOM      9  C   UNL A   1      41.028  26.246  28.250  1.00  0.00    -0.014 A 
BRANCH   9  10
ATOM     10  C   UNL A   1      41.118  27.529  28.953  1.00  0.00     0.031 A 
ATOM     11  C   UNL A   1      42.243  28.370  28.461  1.00  0.00     0.074 A 
ATOM     12  C   UNL A   1      40.255  27.969  29.893  1.00  0.00     0.049 A 
ATOM     13  N   UNL A   1      43.246  28.852  29.125  1.00  0.00    -0.248 NA
ATOM     14  C   UNL A   1      42.345  28.515  26.997  1.00  0.00     0.031 C 
ATOM     15  C   UNL A   1      38.999  27.347  30.314  1.00  0.00     0.029 A 
ATOM     16  N   UNL A   1      40.254  29.158  30.577  1.00  0.00    -0.354 N 
ATOM     17  C   UNL A   1      43.989  29.543  28.174  1.00  0.00     0.074 A 
ATOM     18  C   UNL A   1      43.512  29.140  26.876  1.00  0.00     0.031 C 
ATOM     19  C   UNL A   1      38.248  28.260  30.966  1.00  0.00     0.029 A 
ATOM     20  C   UNL A   1      38.995  29.499  31.071  1.00  0.00     0.049 A 
ATOM     21  H   UNL A   1      41.056  29.712  30.706  1.00  0.00     0.167 HD
ATOM     22  C   UNL A   1      44.766  30.615  28.472  1.00  0.00     0.034 A 
ATOM     23  C   UNL A   1      38.564  30.742  31.407  1.00  0.00     0.034 A 
ATOM     24  C   UNL A   1      45.110  30.718  29.853  1.00  0.00     0.049 A 
ATOM     25  C   UNL A   1      39.765  31.577  31.634  1.00  0.00     0.074 A 
ATOM     26  C   UNL A   1      45.848  29.968  30.740  1.00  0.00     0.029 A 
ATOM     27  N   UNL A   1      44.377  31.604  30.599  1.00  0.00    -0.354 N 
ATOM     28  N   UNL A   1      40.581  31.438  32.639  1.00  0.00    -0.248 NA
ATOM     29  C   UNL A   1      40.247  32.411  30.544  1.00  0.00     0.031 C 
ATOM     30  C   UNL A   1      45.243  30.178  32.011  1.00  0.00     0.029 A 
ATOM     31  C   UNL A   1      44.166  31.050  31.832  1.00  0.00     0.049 A 
ATOM     32  H   UNL A   1      44.058  32.485  30.299  1.00  0.00     0.167 HD
ATOM     33  C   UNL A   1      41.817  31.812  32.134  1.00  0.00     0.074 A 
ATOM     34  C   UNL A   1      41.526  32.532  30.902  1.00  0.00     0.031 C 
ATOM     35  C   UNL A   1      42.964  31.253  32.613  1.00  0.00     0.034 A 
BRANCH  22  36
ATOM     36  C   UNL A   1      44.885  31.757  27.508  1.00  0.00     0.023 A 
ATOM     37  C   UNL A   1      43.790  32.116  26.709  1.00  0.00     0.012 A 
ATOM     38  C   UNL A   1      46.127  32.378  27.239  1.00  0.00     0.148 A 
ATOM     39  C   UNL A   1      43.918  33.101  25.722  1.00  0.00     0.002 A 
ATOM     40  C   UNL A   1      46.225  33.425  26.340  1.00  0.00     0.091 A 
ATOM     41  F   UNL A   1      47.247  31.878  27.783  1.00  0.00    -0.205 F 
ATOM     42  C   UNL A   1      45.125  33.782  25.562  1.00  0.00     0.022 A 
BRANCH  40  43
ATOM     43  S   UNL A   1      47.738  34.380  26.217  1.00  0.00     0.127 S 
ATOM     44  O   UNL A   1      47.292  35.548  25.466  1.00  0.00    -0.237 OA
ATOM     45  O   UNL A   1      48.060  34.628  27.623  1.00  0.00    -0.237 OA
ATOM     46  O   UNL A   1      48.681  33.493  25.543  1.00  0.00    -0.744 OA
ENDBRANCH  40  43
ENDBRANCH  22  36
BRANCH  23  47
ATOM     47  C   UNL A   1      37.213  31.355  31.284  1.00  0.00     0.023 A 
ATOM     48  C   UNL A   1      36.651  31.999  32.410  1.00  0.00     0.012 A 
ATOM     49  C   UNL A   1      36.590  31.571  30.035  1.00  0.00     0.148 A 
ATOM     50  C   UNL A   1      35.561  32.871  32.284  1.00  0.00     0.002 A 
ATOM     51  C   UNL A   1      35.490  32.418  29.918  1.00  0.00     0.091 A 
ATOM     52  F   UNL A   1      37.128  31.039  28.930  1.00  0.00    -0.205 F 
ATOM     53  C   UNL A   1      34.985  33.088  31.038  1.00  0.00     0.022 A 
BRANCH  51  54
ATOM     54  S   UNL A   1      34.710  32.720  28.327  1.00  0.00     0.127 S 
ATOM     55  O   UNL A   1      33.658  33.678  28.671  1.00  0.00    -0.237 OA
ATOM     56  O   UNL A   1      35.812  33.274  27.547  1.00  0.00    -0.237 OA
ATOM     57  O   UNL A   1      34.207  31.422  27.892  1.00  0.00    -0.744 OA
ENDBRANCH  51  54
ENDBRANCH  23  47
BRANCH  35  58
ATOM     58  C   UNL A   1      42.901  30.535  33.933  1.00  0.00     0.023 A 
ATOM     59  C   UNL A   1      43.001  31.217  35.163  1.00  0.00     0.012 A 
ATOM     60  C   UNL A   1      42.548  29.174  33.927  1.00  0.00     0.148 A 
ATOM     61  C   UNL A   1      42.762  30.549  36.367  1.00  0.00     0.002 A 
ATOM     62  C   UNL A   1      42.267  28.527  35.123  1.00  0.00     0.091 A 
ATOM     63  F   UNL A   1      42.451  28.552  32.743  1.00  0.00    -0.205 F 
ATOM     64  C   UNL A   1      42.381  29.208  36.345  1.00  0.00     0.022 A 
BRANCH  62  65
ATOM     65  S   UNL A   1      41.649  26.843  35.165  1.00  0.00     0.127 S 
ATOM     66  O   UNL A   1      40.540  26.899  34.214  1.00  0.00    -0.237 OA
ATOM     67  O   UNL A   1      42.811  26.078  34.709  1.00  0.00    -0.237 OA
ATOM     68  O   UNL A   1      41.269  26.585  36.549  1.00  0.00    -0.744 OA
ENDBRANCH  62  65
ENDBRANCH  35  58
ENDBRANCH   9  10
ENDBRANCH   2   4
ENDBRANCH   1   2
BRANCH   1  69
ATOM     69  C   UNL A   1      41.338  19.956  27.314  1.00  0.00     0.275 C 
BRANCH  69  70
ATOM     70  C   UNL A   1      42.280  19.417  26.225  1.00  0.00     0.275 C 
BRANCH  70  71
ATOM     71  O   UNL A   1      42.773  20.463  25.390  1.00  0.00    -0.458 OA
BRANCH  71  72
ATOM     72  C   UNL A   1      44.102  20.673  25.354  1.00  0.00     0.338 C 
ATOM     73  O   UNL A   1      44.999  19.848  25.282  1.00  0.00    -0.246 OA
BRANCH  72  74
ATOM     74  C   UNL A   1      44.283  22.133  25.376  1.00  0.00     0.064 A 
ATOM     75  C   UNL A   1      43.333  22.974  24.790  1.00  0.00     0.020 A 
ATOM     76  C   UNL A   1      45.477  22.647  25.894  1.00  0.00     0.072 A 
ATOM     77  C   UNL A   1      43.590  24.347  24.693  1.00  0.00     0.057 A 
ATOM     78  C   UNL A   1      45.734  24.016  25.812  1.00  0.00     0.173 A 
ATOM     79  C   UNL A   1      44.783  24.879  25.198  1.00  0.00     0.172 A 
ATOM     80  N   UNL A   1      46.934  24.538  26.331  1.00  0.00    -0.229 N 
ATOM     81  N   UNL A   1      45.051  26.260  25.101  1.00  0.00    -0.229 N 
ATOM     82  C   UNL A   1      47.200  25.877  26.289  1.00  0.00     0.383 C 
ATOM     83  H   UNL A   1      47.594  23.926  26.730  1.00  0.00     0.313 HD
ATOM     84  C   UNL A   1      46.193  26.802  25.626  1.00  0.00     0.383 C 
ATOM     85  H   UNL A   1      44.403  26.846  24.646  1.00  0.00     0.313 HD
ATOM     86  N   UNL A   1      48.223  26.501  26.752  1.00  0.00    -0.122 N 
ATOM     87  N   UNL A   1      46.565  28.033  25.652  1.00  0.00    -0.122 N 
ATOM     88  S   UNL A   1      48.003  28.089  26.430  1.00  0.00     0.469 S 
ATOM     89  H   UNL A   1      48.995  26.100  27.214  1.00  0.00     0.331 HD
ATOM     90  H   UNL A   1      46.076  28.799  25.275  1.00  0.00     0.331 HD
ATOM     91  O   UNL A   1      47.816  28.783  27.690  1.00  0.00    -0.143 OA
ATOM     92  O   UNL A   1      49.023  28.515  25.501  1.00  0.00    -0.143 OA
ENDBRANCH  72  74
ENDBRANCH  71  72
ENDBRANCH  70  71
ENDBRANCH  69  70
ENDBRANCH   1  69
TORSDOF 14
ENDMDL
MODEL 2
REMARK VINA RESULT:     -12.8      4.657     11.636
REMARK SMILES O=C(OCCOC(=O)c1ccc2c(c1)NC1=[NH+]S(=O)(=O)[NH+]=C1N2)c1ccc(-c2c3nc(c(-c4cccc(S(=O)(=O)[O-])c4F)c4ccc([nH]4)c(-c4cccc(S(=O)(=O)[O-])c4F)c4nc(c(-c5cccc(S(=O)(=O)[O-])c5F)c5ccc2[nH]5)C=C4)C=C3)cc1
REMARK SMILES IDX 3 1 2 2 1 3 24 4 25 5 86 6 26 7 85 8 27 9 28 10 29 11 79 12
REMARK SMILES IDX 30 13 84 14 78 15 80 16 31 17 83 18 77 19 76 20 32 22 64 23
REMARK SMILES IDX 44 24 63 25 45 26 48 27 62 28 81 29 46 30 47 31 61 33 82 34
REMARK SMILES IDX 49 35 33 36 34 37 42 38 35 39 37 40 43 41 36 42 38 43 39 44
REMARK SMILES IDX 40 45 41 46 65 47 66 48 74 49 67 50 69 51 75 52 68 53 70 54
REMARK SMILES IDX 71 55 72 56 73 57 50 58 51 59 59 60 52 61 54 62 60 63 53 64
REMARK SMILES IDX 55 65 56 66 57 67 58 68 4 69 5 70 6 71 7 72 8 73 9 74 10 75
REMARK SMILES IDX 14 76 11 77 13 78 12 79 15 80 23 81 16 82 22 84 17 86 21 87
REMARK SMILES IDX 18 88 19 91 20 92
REMARK H PARENT 80 21 48 32 15 83 23 85 17 89 21 90
REMARK Flexibility Score: inf
ROOT
ATOM      1  O   UNL A   1      34.978  32.092  31.078  1.00  0.00    -0.458 OA
ENDROOT
BRANCH   1   2
ATOM      2  C   UNL A   1      36.204  31.789  31.596  1.00  0.00     0.338 C 
ATOM      3  O   UNL A   1      36.619  32.309  32.625  1.00  0.00    -0.246 OA
BRANCH   2   4
ATOM      4  C   UNL A   1      37.097  30.966  30.763  1.00  0.00     0.060 A 
ATOM      5  C   UNL A   1      36.861  29.596  30.786  1.00  0.00     0.016 A 
ATOM      6  C   UNL A   1      38.275  31.487  30.221  1.00  0.00     0.016 A 
ATOM      7  C   UNL A   1      37.935  28.752  30.587  1.00  0.00     0.010 A 
ATOM      8  C   UNL A   1      39.351  30.633  30.013  1.00  0.00     0.010 A 
ATOM      9  C   UNL A   1      39.208  29.279  30.312  1.00  0.00    -0.014 A 
BRANCH   9  10
ATOM     10  C   UNL A   1      40.306  28.314  30.199  1.00  0.00     0.031 A 
ATOM     11  C   UNL A   1      41.124  28.235  31.439  1.00  0.00     0.074 A 
ATOM     12  C   UNL A   1      40.539  27.514  29.137  1.00  0.00     0.049 A 
ATOM     13  N   UNL A   1      42.395  28.445  31.587  1.00  0.00    -0.248 NA
ATOM     14  C   UNL A   1      40.371  28.095  32.699  1.00  0.00     0.031 C 
ATOM     15  C   UNL A   1      39.699  27.334  27.952  1.00  0.00     0.029 A 
ATOM     16  N   UNL A   1      41.522  26.574  28.962  1.00  0.00    -0.354 N 
ATOM     17  C   UNL A   1      42.620  28.248  32.945  1.00  0.00     0.074 A 
ATOM     18  C   UNL A   1      41.337  28.238  33.600  1.00  0.00     0.031 C 
ATOM     19  C   UNL A   1      40.054  26.194  27.324  1.00  0.00     0.029 A 
ATOM     20  C   UNL A   1      41.186  25.606  28.016  1.00  0.00     0.049 A 
ATOM     21  H   UNL A   1      42.375  26.582  29.452  1.00  0.00     0.167 HD
ATOM     22  C   UNL A   1      43.808  27.825  33.449  1.00  0.00     0.034 A 
ATOM     23  C   UNL A   1      41.712  24.359  27.909  1.00  0.00     0.034 A 
ATOM     24  C   UNL A   1      44.912  28.010  32.565  1.00  0.00     0.049 A 
ATOM     25  C   UNL A   1      43.011  24.367  28.617  1.00  0.00     0.074 A 
ATOM     26  C   UNL A   1      45.560  29.094  32.016  1.00  0.00     0.029 A 
ATOM     27  N   UNL A   1      45.324  26.907  31.864  1.00  0.00    -0.354 N 
ATOM     28  N   UNL A   1      44.072  24.998  28.204  1.00  0.00    -0.248 NA
ATOM     29  C   UNL A   1      43.056  23.896  29.993  1.00  0.00     0.031 C 
ATOM     30  C   UNL A   1      46.047  28.646  30.756  1.00  0.00     0.029 A 
ATOM     31  C   UNL A   1      45.673  27.309  30.603  1.00  0.00     0.049 A 
ATOM     32  H   UNL A   1      45.362  25.986  32.207  1.00  0.00     0.167 HD
ATOM     33  C   UNL A   1      44.730  25.366  29.369  1.00  0.00     0.074 A 
ATOM     34  C   UNL A   1      44.143  24.542  30.416  1.00  0.00     0.031 C 
ATOM     35  C   UNL A   1      45.481  26.502  29.417  1.00  0.00     0.034 A 
BRANCH  22  36
ATOM     36  C   UNL A   1      43.846  26.901  34.629  1.00  0.00     0.023 A 
ATOM     37  C   UNL A   1      43.187  25.665  34.573  1.00  0.00     0.012 A 
ATOM     38  C   UNL A   1      44.372  27.310  35.877  1.00  0.00     0.148 A 
ATOM     39  C   UNL A   1      43.112  24.843  35.704  1.00  0.00     0.002 A 
ATOM     40  C   UNL A   1      44.392  26.451  36.961  1.00  0.00     0.091 A 
ATOM     41  F   UNL A   1      44.763  28.583  36.044  1.00  0.00    -0.205 F 
ATOM     42  C   UNL A   1      43.746  25.218  36.888  1.00  0.00     0.022 A 
BRANCH  40  43
ATOM     43  S   UNL A   1      45.308  26.879  38.444  1.00  0.00     0.127 S 
ATOM     44  O   UNL A   1      44.574  28.047  38.918  1.00  0.00    -0.237 OA
ATOM     45  O   UNL A   1      45.154  25.673  39.258  1.00  0.00    -0.237 OA
ATOM     46  O   UNL A   1      46.672  27.110  37.982  1.00  0.00    -0.744 OA
ENDBRANCH  40  43
ENDBRANCH  22  36
BRANCH  23  47
ATOM     47  C   UNL A   1      41.072  23.081  27.488  1.00  0.00     0.023 A 
ATOM     48  C   UNL A   1      39.723  23.100  27.069  1.00  0.00     0.012 A 
ATOM     49  C   UNL A   1      41.819  21.912  27.222  1.00  0.00     0.148 A 
ATOM     50  C   UNL A   1      39.164  22.030  26.356  1.00  0.00     0.002 A 
ATOM     51  C   UNL A   1      41.252  20.839  26.537  1.00  0.00     0.091 A 
ATOM     52  F   UNL A   1      43.119  21.875  27.538  1.00  0.00    -0.205 F 
ATOM     53  C   UNL A   1      39.931  20.902  26.083  1.00  0.00     0.022 A 
BRANCH  51  54
ATOM     54  S   UNL A   1      42.205  19.360  26.170  1.00  0.00     0.127 S 
ATOM     55  O   UNL A   1      41.199  18.481  25.570  1.00  0.00    -0.237 OA
ATOM     56  O   UNL A   1      43.209  19.866  25.240  1.00  0.00    -0.237 OA
ATOM     57  O   UNL A   1      42.703  18.892  27.458  1.00  0.00    -0.744 OA
ENDBRANCH  51  54
ENDBRANCH  23  47
BRANCH  35  58
ATOM     58  C   UNL A   1      45.897  27.128  28.114  1.00  0.00     0.023 A 
ATOM     59  C   UNL A   1      45.138  28.143  27.495  1.00  0.00     0.012 A 
ATOM     60  C   UNL A   1      47.169  26.813  27.606  1.00  0.00     0.148 A 
ATOM     61  C   UNL A   1      45.639  28.824  26.382  1.00  0.00     0.002 A 
ATOM     62  C   UNL A   1      47.681  27.524  26.530  1.00  0.00     0.091 A 
ATOM     63  F   UNL A   1      47.873  25.850  28.220  1.00  0.00    -0.205 F 
ATOM     64  C   UNL A   1      46.916  28.525  25.910  1.00  0.00     0.022 A 
BRANCH  62  65
ATOM     65  S   UNL A   1      49.361  27.283  25.948  1.00  0.00     0.127 S 
ATOM     66  O   UNL A   1      49.435  28.218  24.826  1.00  0.00    -0.237 OA
ATOM     67  O   UNL A   1      50.149  27.669  27.120  1.00  0.00    -0.237 OA
ATOM     68  O   UNL A   1      49.469  25.874  25.591  1.00  0.00    -0.744 OA
ENDBRANCH  62  65
ENDBRANCH  35  58
ENDBRANCH   9  10
ENDBRANCH   2   4
ENDBRANCH   1   2
BRANCH   1  69
ATOM     69  C   UNL A   1      34.698  33.002  29.975  1.00  0.00     0.275 C 
BRANCH  69  70
ATOM     70  C   UNL A   1      34.985  32.478  28.559  1.00  0.00     0.275 C 
BRANCH  70  71
ATOM     71  O   UNL A   1      34.328  31.235  28.314  1.00  0.00    -0.458 OA
BRANCH  71  72
ATOM     72  C   UNL A   1      34.961  30.321  27.557  1.00  0.00     0.338 C 
ATOM     73  O   UNL A   1      36.152  30.051  27.530  1.00  0.00    -0.246 OA
BRANCH  72  74
ATOM     74  C   UNL A   1      33.915  29.653  26.768  1.00  0.00     0.064 A 
ATOM     75  C   UNL A   1      34.008  28.288  26.479  1.00  0.00     0.020 A 
ATOM     76  C   UNL A   1      32.891  30.435  26.223  1.00  0.00     0.072 A 
ATOM     77  C   UNL A   1      33.082  27.700  25.610  1.00  0.00     0.057 A 
ATOM     78  C   UNL A   1      31.957  29.853  25.365  1.00  0.00     0.173 A 
ATOM     79  C   UNL A   1      32.055  28.468  25.046  1.00  0.00     0.172 A 
ATOM     80  N   UNL A   1      30.926  30.636  24.813  1.00  0.00    -0.229 N 
ATOM     81  N   UNL A   1      31.121  27.884  24.167  1.00  0.00    -0.229 N 
ATOM     82  C   UNL A   1      29.982  30.086  23.993  1.00  0.00     0.383 C 
ATOM     83  H   UNL A   1      30.884  31.597  25.021  1.00  0.00     0.313 HD
ATOM     84  C   UNL A   1      30.087  28.611  23.641  1.00  0.00     0.383 C 
ATOM     85  H   UNL A   1      31.214  26.934  23.926  1.00  0.00     0.313 HD
ATOM     86  N   UNL A   1      28.967  30.659  23.449  1.00  0.00    -0.122 N 
ATOM     87  N   UNL A   1      29.141  28.224  22.861  1.00  0.00    -0.122 N 
ATOM     88  S   UNL A   1      28.180  29.518  22.582  1.00  0.00     0.469 S 
ATOM     89  H   UNL A   1      28.712  31.605  23.539  1.00  0.00     0.331 HD
ATOM     90  H   UNL A   1      29.017  27.317  22.500  1.00  0.00     0.331 HD
ATOM     91  O   UNL A   1      26.895  29.279  23.212  1.00  0.00    -0.143 OA
ATOM     92  O   UNL A   1      28.259  29.868  21.183  1.00  0.00    -0.143 OA
ENDBRANCH  72  74
ENDBRANCH  71  72
ENDBRANCH  70  71
ENDBRANCH  69  70
ENDBRANCH   1  69
TORSDOF 14
ENDMDL
MODEL 3
REMARK VINA RESULT:     -12.8      5.063     11.148
REMARK SMILES O=C(OCCOC(=O)c1ccc2c(c1)NC1=[NH+]S(=O)(=O)[NH+]=C1N2)c1ccc(-c2c3nc(c(-c4cccc(S(=O)(=O)[O-])c4F)c4ccc([nH]4)c(-c4cccc(S(=O)(=O)[O-])c4F)c4nc(c(-c5cccc(S(=O)(=O)[O-])c5F)c5ccc2[nH]5)C=C4)C=C3)cc1
REMARK SMILES IDX 3 1 2 2 1 3 24 4 25 5 86 6 26 7 85 8 27 9 28 10 29 11 79 12
REMARK SMILES IDX 30 13 84 14 78 15 80 16 31 17 83 18 77 19 76 20 32 22 64 23
REMARK SMILES IDX 44 24 63 25 45 26 48 27 62 28 81 29 46 30 47 31 61 33 82 34
REMARK SMILES IDX 49 35 33 36 34 37 42 38 35 39 37 40 43 41 36 42 38 43 39 44
REMARK SMILES IDX 40 45 41 46 65 47 66 48 74 49 67 50 69 51 75 52 68 53 70 54
REMARK SMILES IDX 71 55 72 56 73 57 50 58 51 59 59 60 52 61 54 62 60 63 53 64
REMARK SMILES IDX 55 65 56 66 57 67 58 68 4 69 5 70 6 71 7 72 8 73 9 74 10 75
REMARK SMILES IDX 14 76 11 77 13 78 12 79 15 80 23 81 16 82 22 84 17 86 21 87
REMARK SMILES IDX 18 88 19 91 20 92
REMARK H PARENT 80 21 48 32 15 83 23 85 17 89 21 90
REMARK Flexibility Score: inf
ROOT
ATOM      1  O   UNL A   1      35.023  28.781  27.268  1.00  0.00    -0.458 OA
ENDROOT
BRANCH   1   2
ATOM      2  C   UNL A   1      35.622  29.898  27.775  1.00  0.00     0.338 C 
ATOM      3  O   UNL A   1      35.156  31.018  27.605  1.00  0.00    -0.246 OA
BRANCH   2   4
ATOM      4  C   UNL A   1      36.963  29.729  28.361  1.00  0.00     0.060 A 
ATOM      5  C   UNL A   1      38.035  29.989  27.513  1.00  0.00     0.016 A 
ATOM      6  C   UNL A   1      37.150  29.078  29.582  1.00  0.00     0.016 A 
ATOM      7  C   UNL A   1      39.211  29.300  27.729  1.00  0.00     0.010 A 
ATOM      8  C   UNL A   1      38.338  28.392  29.800  1.00  0.00     0.010 A 
ATOM      9  C   UNL A   1      39.322  28.412  28.812  1.00  0.00    -0.014 A 
BRANCH   9  10
ATOM     10  C   UNL A   1      40.576  27.660  28.916  1.00  0.00     0.031 A 
ATOM     11  C   UNL A   1      41.337  27.991  30.151  1.00  0.00     0.074 A 
ATOM     12  C   UNL A   1      40.996  26.713  28.051  1.00  0.00     0.049 A 
ATOM     13  N   UNL A   1      42.542  28.454  30.263  1.00  0.00    -0.248 NA
ATOM     14  C   UNL A   1      40.562  27.980  31.406  1.00  0.00     0.031 C 
ATOM     15  C   UNL A   1      40.257  26.142  26.924  1.00  0.00     0.029 A 
ATOM     16  N   UNL A   1      42.136  25.952  28.088  1.00  0.00    -0.354 N 
ATOM     17  C   UNL A   1      42.735  28.587  31.634  1.00  0.00     0.074 A 
ATOM     18  C   UNL A   1      41.445  28.480  32.264  1.00  0.00     0.031 C 
ATOM     19  C   UNL A   1      40.836  24.980  26.556  1.00  0.00     0.029 A 
ATOM     20  C   UNL A   1      42.019  24.763  27.367  1.00  0.00     0.049 A 
ATOM     21  H   UNL A   1      42.950  26.216  28.573  1.00  0.00     0.167 HD
ATOM     22  C   UNL A   1      43.954  28.501  32.226  1.00  0.00     0.034 A 
ATOM     23  C   UNL A   1      42.761  23.638  27.531  1.00  0.00     0.034 A 
ATOM     24  C   UNL A   1      45.049  28.696  31.332  1.00  0.00     0.049 A 
ATOM     25  C   UNL A   1      44.004  24.029  28.233  1.00  0.00     0.074 A 
ATOM     26  C   UNL A   1      45.521  29.741  30.571  1.00  0.00     0.029 A 
ATOM     27  N   UNL A   1      45.680  27.565  30.885  1.00  0.00    -0.354 N 
ATOM     28  N   UNL A   1      44.956  24.743  27.704  1.00  0.00    -0.248 NA
ATOM     29  C   UNL A   1      44.066  23.870  29.678  1.00  0.00     0.031 C 
ATOM     30  C   UNL A   1      46.137  29.138  29.439  1.00  0.00     0.029 A 
ATOM     31  C   UNL A   1      46.011  27.753  29.571  1.00  0.00     0.049 A 
ATOM     32  H   UNL A   1      45.863  26.758  31.417  1.00  0.00     0.167 HD
ATOM     33  C   UNL A   1      45.484  25.458  28.770  1.00  0.00     0.074 A 
ATOM     34  C   UNL A   1      45.002  24.777  29.963  1.00  0.00     0.031 C 
ATOM     35  C   UNL A   1      46.020  26.696  28.582  1.00  0.00     0.034 A 
BRANCH  22  36
ATOM     36  C   UNL A   1      44.098  27.865  33.576  1.00  0.00     0.023 A 
ATOM     37  C   UNL A   1      44.552  28.625  34.663  1.00  0.00     0.012 A 
ATOM     38  C   UNL A   1      43.968  26.469  33.758  1.00  0.00     0.148 A 
ATOM     39  C   UNL A   1      44.805  28.022  35.900  1.00  0.00     0.002 A 
ATOM     40  C   UNL A   1      44.114  25.893  35.008  1.00  0.00     0.091 A 
ATOM     41  F   UNL A   1      43.805  25.675  32.688  1.00  0.00    -0.205 F 
ATOM     42  C   UNL A   1      44.552  26.662  36.085  1.00  0.00     0.022 A 
BRANCH  40  43
ATOM     43  S   UNL A   1      43.674  24.174  35.275  1.00  0.00     0.127 S 
ATOM     44  O   UNL A   1      44.452  23.505  34.237  1.00  0.00    -0.237 OA
ATOM     45  O   UNL A   1      44.138  23.948  36.644  1.00  0.00    -0.237 OA
ATOM     46  O   UNL A   1      42.223  24.137  35.129  1.00  0.00    -0.744 OA
ENDBRANCH  40  43
ENDBRANCH  22  36
BRANCH  23  47
ATOM     47  C   UNL A   1      42.376  22.206  27.387  1.00  0.00     0.023 A 
ATOM     48  C   UNL A   1      41.061  21.817  27.728  1.00  0.00     0.012 A 
ATOM     49  C   UNL A   1      43.163  21.279  26.669  1.00  0.00     0.148 A 
ATOM     50  C   UNL A   1      40.533  20.587  27.312  1.00  0.00     0.002 A 
ATOM     51  C   UNL A   1      42.643  20.047  26.281  1.00  0.00     0.091 A 
ATOM     52  F   UNL A   1      44.389  21.631  26.264  1.00  0.00    -0.205 F 
ATOM     53  C   UNL A   1      41.321  19.704  26.581  1.00  0.00     0.022 A 
BRANCH  51  54
ATOM     54  S   UNL A   1      43.630  18.873  25.342  1.00  0.00     0.127 S 
ATOM     55  O   UNL A   1      42.768  17.689  25.319  1.00  0.00    -0.237 OA
ATOM     56  O   UNL A   1      43.773  19.552  24.059  1.00  0.00    -0.237 OA
ATOM     57  O   UNL A   1      44.855  18.696  26.113  1.00  0.00    -0.744 OA
ENDBRANCH  51  54
ENDBRANCH  23  47
BRANCH  35  58
ATOM     58  C   UNL A   1      46.380  27.103  27.179  1.00  0.00     0.023 A 
ATOM     59  C   UNL A   1      45.483  27.808  26.350  1.00  0.00     0.012 A 
ATOM     60  C   UNL A   1      47.711  26.929  26.762  1.00  0.00     0.148 A 
ATOM     61  C   UNL A   1      45.908  28.324  25.123  1.00  0.00     0.002 A 
ATOM     62  C   UNL A   1      48.139  27.483  25.563  1.00  0.00     0.091 A 
ATOM     63  F   UNL A   1      48.546  26.263  27.574  1.00  0.00    -0.205 F 
ATOM     64  C   UNL A   1      47.239  28.174  24.737  1.00  0.00     0.022 A 
BRANCH  62  65
ATOM     65  S   UNL A   1      49.862  27.441  25.063  1.00  0.00     0.127 S 
ATOM     66  O   UNL A   1      49.819  28.104  23.760  1.00  0.00    -0.237 OA
ATOM     67  O   UNL A   1      50.508  28.216  26.123  1.00  0.00    -0.237 OA
ATOM     68  O   UNL A   1      50.242  26.034  25.032  1.00  0.00    -0.744 OA
ENDBRANCH  62  65
ENDBRANCH  35  58
ENDBRANCH   9  10
ENDBRANCH   2   4
ENDBRANCH   1   2
BRANCH   1  69
ATOM     69  C   UNL A   1      33.877  28.737  26.369  1.00  0.00     0.275 C 
BRANCH  69  70
ATOM     70  C   UNL A   1      32.814  27.665  26.660  1.00  0.00     0.275 C 
BRANCH  70  71
ATOM     71  O   UNL A   1      33.251  26.369  26.255  1.00  0.00    -0.458 OA
BRANCH  71  72
ATOM     72  C   UNL A   1      32.326  25.399  26.127  1.00  0.00     0.338 C 
ATOM     73  O   UNL A   1      31.110  25.504  26.138  1.00  0.00    -0.246 OA
BRANCH  72  74
ATOM     74  C   UNL A   1      33.074  24.149  25.922  1.00  0.00     0.064 A 
ATOM     75  C   UNL A   1      34.463  24.172  25.759  1.00  0.00     0.020 A 
ATOM     76  C   UNL A   1      32.354  22.958  25.781  1.00  0.00     0.072 A 
ATOM     77  C   UNL A   1      35.140  22.995  25.423  1.00  0.00     0.057 A 
ATOM     78  C   UNL A   1      33.024  21.778  25.458  1.00  0.00     0.173 A 
ATOM     79  C   UNL A   1      34.435  21.794  25.268  1.00  0.00     0.172 A 
ATOM     80  N   UNL A   1      32.303  20.577  25.314  1.00  0.00    -0.229 N 
ATOM     81  N   UNL A   1      35.109  20.604  24.926  1.00  0.00    -0.229 N 
ATOM     82  C   UNL A   1      32.937  19.402  25.026  1.00  0.00     0.383 C 
ATOM     83  H   UNL A   1      31.325  20.585  25.422  1.00  0.00     0.313 HD
ATOM     84  C   UNL A   1      34.442  19.415  24.813  1.00  0.00     0.383 C 
ATOM     85  H   UNL A   1      36.081  20.630  24.766  1.00  0.00     0.313 HD
ATOM     86  N   UNL A   1      32.424  18.229  24.904  1.00  0.00    -0.122 N 
ATOM     87  N   UNL A   1      34.910  18.247  24.546  1.00  0.00    -0.122 N 
ATOM     88  S   UNL A   1      33.651  17.202  24.567  1.00  0.00     0.469 S 
ATOM     89  H   UNL A   1      31.473  17.994  24.996  1.00  0.00     0.331 HD
ATOM     90  H   UNL A   1      35.850  18.023  24.363  1.00  0.00     0.331 HD
ATOM     91  O   UNL A   1      33.816  16.309  25.698  1.00  0.00    -0.143 OA
ATOM     92  O   UNL A   1      33.457  16.675  23.236  1.00  0.00    -0.143 OA
ENDBRANCH  72  74
ENDBRANCH  71  72
ENDBRANCH  70  71
ENDBRANCH  69  70
ENDBRANCH   1  69
TORSDOF 14
ENDMDL
