MODEL 1
REMARK VINA RESULT:     -12.1      0.000      0.000
REMARK SMILES CC(C)c1ccc2c(c1)c(SC(C)(C)C)c(CC(C)(C)C(=O)OCCOC(=O)c1ccc(-c3c4nc(c(-c5cccc(S(=O)(=O)[O-])c5F)c5ccc([nH]5)c(-c5cccc(S(=O)(=O)[O-])c5F)c5nc(c(-c6cccc(S(=O)(=O)[O-])c6F)c6ccc3[nH]6)C=C5)C=C4)cc1)n2Cc1ccc(Cl)cc1
REMARK SMILES IDX 24 1 23 2 21 3 22 4 18 5 19 6 20 7 17 8 16 9 4 10 5 11 9 12
REMARK SMILES IDX 6 13 8 14 7 15 10 16 92 17 2 18 1 19 3 20 11 21 12 22 13 23
REMARK SMILES IDX 14 24 15 25 93 26 94 27 95 28 100 29 96 30 99 31 97 32 98 33
REMARK SMILES IDX 25 34 26 35 27 36 28 37 29 38 30 39 91 40 31 41 90 42 32 43
REMARK SMILES IDX 33 44 34 45 84 46 35 47 89 48 83 49 85 50 36 51 88 52 82 53
REMARK SMILES IDX 81 54 37 56 69 57 49 58 68 59 50 60 53 61 67 62 86 63 51 64
REMARK SMILES IDX 52 65 66 67 87 68 54 69 38 70 39 71 47 72 40 73 42 74 48 75
REMARK SMILES IDX 41 76 43 77 44 78 45 79 46 80 70 81 71 82 79 83 72 84 74 85
REMARK SMILES IDX 80 86 73 87 75 88 76 89 77 90 78 91 55 92 56 93 64 94 57 95
REMARK SMILES IDX 59 96 65 97 58 98 60 99 61 100 62 101 63 102
REMARK H PARENT 85 55 53 66
REMARK Flexibility Score: inf
ROOT
ATOM      1  C   UNL A   1      33.536  19.119  25.654  1.00  0.00     0.274 C 
ENDROOT
BRANCH   1   2
ATOM      2  O   UNL A   1      33.125  20.323  26.312  1.00  0.00    -0.462 OA
BRANCH   2   3
ATOM      3  C   UNL A   1      32.168  21.012  25.652  1.00  0.00     0.312 C 
ATOM      4  O   UNL A   1      31.564  20.564  24.682  1.00  0.00    -0.252 OA
BRANCH   3   5
ATOM      5  C   UNL A   1      31.967  22.426  26.163  1.00  0.00     0.068 C 
ATOM      6  C   UNL A   1      33.042  22.449  27.264  1.00  0.00     0.024 C 
ATOM      7  C   UNL A   1      30.569  22.698  26.808  1.00  0.00     0.024 C 
BRANCH   5   8
ATOM      8  C   UNL A   1      32.213  23.467  25.042  1.00  0.00     0.073 C 
BRANCH   8   9
ATOM      9  C   UNL A   1      32.433  24.875  25.416  1.00  0.00     0.034 A 
ATOM     10  C   UNL A   1      32.911  29.377  27.149  1.00  0.00    -0.045 A 
ATOM     11  C   UNL A   1      31.613  29.039  27.482  1.00  0.00     0.006 A 
ATOM     12  C   UNL A   1      33.771  28.289  26.579  1.00  0.00     0.015 A 
ATOM     13  C   UNL A   1      31.102  27.837  27.066  1.00  0.00     0.027 A 
ATOM     14  C   UNL A   1      33.265  26.950  26.172  1.00  0.00     0.014 A 
ATOM     15  C   UNL A   1      31.890  26.874  26.380  1.00  0.00     0.050 A 
ATOM     16  C   UNL A   1      33.638  25.500  25.635  1.00  0.00     0.037 A 
ATOM     17  N   UNL A   1      31.444  25.792  25.646  1.00  0.00    -0.339 N 
BRANCH  10  18
ATOM     18  C   UNL A   1      33.080  30.958  27.147  1.00  0.00     0.013 C 
ATOM     19  C   UNL A   1      32.021  32.107  26.978  1.00  0.00     0.012 C 
ATOM     20  C   UNL A   1      34.241  31.389  28.006  1.00  0.00     0.012 C 
ENDBRANCH  10  18
BRANCH  16  21
ATOM     21  S   UNL A   1      35.232  24.455  25.336  1.00  0.00    -0.118 SA
BRANCH  21  22
ATOM     22  C   UNL A   1      35.328  23.434  23.454  1.00  0.00     0.012 C 
ATOM     23  C   UNL A   1      36.706  23.059  22.816  1.00  0.00     0.023 C 
ATOM     24  C   UNL A   1      34.413  22.178  23.259  1.00  0.00     0.023 C 
ATOM     25  C   UNL A   1      34.618  24.381  22.457  1.00  0.00     0.023 C 
ENDBRANCH  21  22
ENDBRANCH  16  21
BRANCH  17  26
ATOM     26  C   UNL A   1      30.180  25.941  24.971  1.00  0.00     0.158 C 
BRANCH  26  27
ATOM     27  C   UNL A   1      29.980  27.155  24.167  1.00  0.00    -0.028 A 
ATOM     28  C   UNL A   1      31.144  28.371  23.425  1.00  0.00     0.007 A 
ATOM     29  C   UNL A   1      28.172  27.429  23.914  1.00  0.00     0.007 A 
ATOM     30  C   UNL A   1      30.529  29.617  22.235  1.00  0.00     0.021 A 
ATOM     31  C   UNL A   1      27.615  28.690  22.769  1.00  0.00     0.021 A 
ATOM     32  C   UNL A   1      28.774  29.716  21.888  1.00  0.00     0.041 A 
ATOM     33  Cl  UNL A   1      28.174  31.194  21.198  1.00  0.00    -0.084 Cl
ENDBRANCH  26  27
ENDBRANCH  17  26
ENDBRANCH   8   9
ENDBRANCH   5   8
ENDBRANCH   3   5
ENDBRANCH   2   3
ENDBRANCH   1   2
BRANCH   1  34
ATOM     34  C   UNL A   1      34.818  19.374  24.844  1.00  0.00     0.275 C 
BRANCH  34  35
ATOM     35  O   UNL A   1      35.666  18.181  24.780  1.00  0.00    -0.458 OA
BRANCH  35  36
ATOM     36  C   UNL A   1      37.087  18.080  25.445  1.00  0.00     0.338 C 
ATOM     37  O   UNL A   1      37.003  16.930  25.926  1.00  0.00    -0.246 OA
BRANCH  36  38
ATOM     38  C   UNL A   1      38.660  19.588  25.262  1.00  0.00     0.060 A 
ATOM     39  C   UNL A   1      40.080  19.639  25.750  1.00  0.00     0.016 A 
ATOM     40  C   UNL A   1      38.544  21.154  25.189  1.00  0.00     0.016 A 
ATOM     41  C   UNL A   1      40.798  20.769  26.521  1.00  0.00     0.010 A 
ATOM     42  C   UNL A   1      39.271  22.277  25.933  1.00  0.00     0.010 A 
ATOM     43  C   UNL A   1      40.297  22.071  26.833  1.00  0.00    -0.014 A 
BRANCH  43  44
ATOM     44  C   UNL A   1      41.081  23.202  27.743  1.00  0.00     0.031 A 
ATOM     45  C   UNL A   1      40.307  24.419  27.583  1.00  0.00     0.074 A 
ATOM     46  C   UNL A   1      42.204  23.508  28.559  1.00  0.00     0.049 A 
ATOM     47  N   UNL A   1      40.612  25.352  26.744  1.00  0.00    -0.248 NA
ATOM     48  C   UNL A   1      38.989  24.520  28.208  1.00  0.00     0.031 C 
ATOM     49  C   UNL A   1      43.315  22.653  28.849  1.00  0.00     0.029 A 
ATOM     50  N   UNL A   1      42.756  24.667  29.265  1.00  0.00    -0.354 N 
ATOM     51  C   UNL A   1      39.725  26.337  27.079  1.00  0.00     0.074 A 
ATOM     52  C   UNL A   1      38.593  25.691  27.704  1.00  0.00     0.031 C 
ATOM     53  C   UNL A   1      44.099  22.980  29.895  1.00  0.00     0.029 A 
ATOM     54  C   UNL A   1      43.825  24.350  30.223  1.00  0.00     0.049 A 
ATOM     55  H   UNL A   1      42.436  25.584  29.110  1.00  0.00     0.167 HD
ATOM     56  C   UNL A   1      40.189  27.597  27.227  1.00  0.00     0.034 A 
ATOM     57  C   UNL A   1      44.813  25.012  30.936  1.00  0.00     0.034 A 
ATOM     58  C   UNL A   1      41.481  27.824  26.654  1.00  0.00     0.049 A 
ATOM     59  C   UNL A   1      45.115  26.283  30.285  1.00  0.00     0.074 A 
ATOM     60  C   UNL A   1      41.861  27.885  25.347  1.00  0.00     0.029 A 
ATOM     61  N   UNL A   1      42.615  27.550  27.398  1.00  0.00    -0.354 N 
ATOM     62  N   UNL A   1      45.913  26.405  29.268  1.00  0.00    -0.248 NA
ATOM     63  C   UNL A   1      44.277  27.419  30.599  1.00  0.00     0.031 C 
ATOM     64  C   UNL A   1      43.139  27.298  25.378  1.00  0.00     0.029 A 
ATOM     65  C   UNL A   1      43.776  27.439  26.604  1.00  0.00     0.049 A 
ATOM     66  H   UNL A   1      42.613  27.443  28.377  1.00  0.00     0.167 HD
ATOM     67  C   UNL A   1      45.287  27.384  28.525  1.00  0.00     0.074 A 
ATOM     68  C   UNL A   1      44.393  28.070  29.446  1.00  0.00     0.031 C 
ATOM     69  C   UNL A   1      45.138  27.200  27.184  1.00  0.00     0.034 A 
BRANCH  56  70
ATOM     70  C   UNL A   1      39.565  28.541  28.157  1.00  0.00     0.023 A 
ATOM     71  C   UNL A   1      38.724  29.530  27.637  1.00  0.00     0.012 A 
ATOM     72  C   UNL A   1      39.949  28.580  29.509  1.00  0.00     0.148 A 
ATOM     73  C   UNL A   1      38.267  30.551  28.464  1.00  0.00     0.002 A 
ATOM     74  C   UNL A   1      39.442  29.555  30.338  1.00  0.00     0.091 A 
ATOM     75  F   UNL A   1      40.883  27.727  29.949  1.00  0.00    -0.205 F 
ATOM     76  C   UNL A   1      38.614  30.555  29.816  1.00  0.00     0.022 A 
BRANCH  74  77
ATOM     77  S   UNL A   1      39.839  29.582  32.082  1.00  0.00     0.127 S 
ATOM     78  O   UNL A   1      39.664  28.177  32.438  1.00  0.00    -0.237 OA
ATOM     79  O   UNL A   1      41.223  30.055  32.061  1.00  0.00    -0.237 OA
ATOM     80  O   UNL A   1      38.900  30.519  32.685  1.00  0.00    -0.744 OA
ENDBRANCH  74  77
ENDBRANCH  56  70
BRANCH  57  81
ATOM     81  C   UNL A   1      45.664  24.621  32.145  1.00  0.00     0.023 A 
ATOM     82  C   UNL A   1      46.919  25.237  32.416  1.00  0.00     0.012 A 
ATOM     83  C   UNL A   1      45.111  23.881  33.201  1.00  0.00     0.148 A 
ATOM     84  C   UNL A   1      47.483  25.241  33.711  1.00  0.00     0.002 A 
ATOM     85  C   UNL A   1      45.664  23.880  34.480  1.00  0.00     0.091 A 
ATOM     86  F   UNL A   1      43.961  23.248  32.994  1.00  0.00    -0.205 F 
ATOM     87  C   UNL A   1      46.830  24.595  34.755  1.00  0.00     0.022 A 
BRANCH  85  88
ATOM     88  S   UNL A   1      44.804  23.086  35.846  1.00  0.00     0.127 S 
ATOM     89  O   UNL A   1      44.923  21.665  35.514  1.00  0.00    -0.237 OA
ATOM     90  O   UNL A   1      45.602  23.517  36.990  1.00  0.00    -0.237 OA
ATOM     91  O   UNL A   1      43.437  23.588  35.800  1.00  0.00    -0.744 OA
ENDBRANCH  85  88
ENDBRANCH  57  81
BRANCH  69  92
ATOM     92  C   UNL A   1      46.493  26.779  26.489  1.00  0.00     0.023 A 
ATOM     93  C   UNL A   1      47.440  25.904  27.086  1.00  0.00     0.012 A 
ATOM     94  C   UNL A   1      46.922  27.354  25.258  1.00  0.00     0.148 A 
ATOM     95  C   UNL A   1      48.657  25.532  26.458  1.00  0.00     0.002 A 
ATOM     96  C   UNL A   1      48.094  26.922  24.588  1.00  0.00     0.091 A 
ATOM     97  F   UNL A   1      46.139  28.292  24.705  1.00  0.00    -0.205 F 
ATOM     98  C   UNL A   1      48.969  26.013  25.193  1.00  0.00     0.022 A 
BRANCH  96  99
ATOM     99  S   UNL A   1      48.507  27.414  22.888  1.00  0.00     0.127 S 
ATOM    100  O   UNL A   1      47.386  28.278  22.519  1.00  0.00    -0.237 OA
ATOM    101  O   UNL A   1      49.774  28.124  23.050  1.00  0.00    -0.237 OA
ATOM    102  O   UNL A   1      48.589  26.172  22.130  1.00  0.00    -0.744 OA
ENDBRANCH  96  99
ENDBRANCH  69  92
ENDBRANCH  43  44
ENDBRANCH  36  38
ENDBRANCH  35  36
ENDBRANCH  34  35
ENDBRANCH   1  34
TORSDOF 21
ENDMDL
MODEL 2
REMARK VINA RESULT:     -11.8      3.726      7.409
REMARK SMILES CC(C)c1ccc2c(c1)c(SC(C)(C)C)c(CC(C)(C)C(=O)OCCOC(=O)c1ccc(-c3c4nc(c(-c5cccc(S(=O)(=O)[O-])c5F)c5ccc([nH]5)c(-c5cccc(S(=O)(=O)[O-])c5F)c5nc(c(-c6cccc(S(=O)(=O)[O-])c6F)c6ccc3[nH]6)C=C5)C=C4)cc1)n2Cc1ccc(Cl)cc1
REMARK SMILES IDX 24 1 23 2 21 3 22 4 18 5 19 6 20 7 17 8 16 9 4 10 5 11 9 12
REMARK SMILES IDX 6 13 8 14 7 15 10 16 92 17 2 18 1 19 3 20 11 21 12 22 13 23
REMARK SMILES IDX 14 24 15 25 93 26 94 27 95 28 100 29 96 30 99 31 97 32 98 33
REMARK SMILES IDX 25 34 26 35 27 36 28 37 29 38 30 39 91 40 31 41 90 42 32 43
REMARK SMILES IDX 33 44 34 45 84 46 35 47 89 48 83 49 85 50 36 51 88 52 82 53
REMARK SMILES IDX 81 54 37 56 69 57 49 58 68 59 50 60 53 61 67 62 86 63 51 64
REMARK SMILES IDX 52 65 66 67 87 68 54 69 38 70 39 71 47 72 40 73 42 74 48 75
REMARK SMILES IDX 41 76 43 77 44 78 45 79 46 80 70 81 71 82 79 83 72 84 74 85
REMARK SMILES IDX 80 86 73 87 75 88 76 89 77 90 78 91 55 92 56 93 64 94 57 95
REMARK SMILES IDX 59 96 65 97 58 98 60 99 61 100 62 101 63 102
REMARK H PARENT 85 55 53 66
REMARK Flexibility Score: inf
ROOT
ATOM      1  C   UNL A   1      34.507  21.414  27.117  1.00  0.00     0.274 C 
ENDROOT
BRANCH   1   2
ATOM      2  O   UNL A   1      33.899  22.665  26.773  1.00  0.00    -0.462 OA
BRANCH   2   3
ATOM      3  C   UNL A   1      32.576  22.727  27.043  1.00  0.00     0.312 C 
ATOM      4  O   UNL A   1      32.125  22.819  28.181  1.00  0.00    -0.252 OA
BRANCH   3   5
ATOM      5  C   UNL A   1      31.693  22.586  25.818  1.00  0.00     0.068 C 
ATOM      6  C   UNL A   1      30.320  22.821  26.471  1.00  0.00     0.024 C 
ATOM      7  C   UNL A   1      31.709  21.169  25.157  1.00  0.00     0.024 C 
BRANCH   5   8
ATOM      8  C   UNL A   1      32.053  23.644  24.744  1.00  0.00     0.073 C 
BRANCH   8   9
ATOM      9  C   UNL A   1      32.298  25.032  25.170  1.00  0.00     0.034 A 
ATOM     10  C   UNL A   1      32.890  29.448  27.080  1.00  0.00    -0.045 A 
ATOM     11  C   UNL A   1      31.612  29.096  27.471  1.00  0.00     0.006 A 
ATOM     12  C   UNL A   1      33.712  28.387  26.412  1.00  0.00     0.015 A 
ATOM     13  C   UNL A   1      31.074  27.915  27.030  1.00  0.00     0.027 A 
ATOM     14  C   UNL A   1      33.180  27.069  25.973  1.00  0.00     0.014 A 
ATOM     15  C   UNL A   1      31.818  26.984  26.256  1.00  0.00     0.050 A 
ATOM     16  C   UNL A   1      33.516  25.645  25.348  1.00  0.00     0.037 A 
ATOM     17  N   UNL A   1      31.327  25.938  25.498  1.00  0.00    -0.339 N 
BRANCH  10  18
ATOM     18  C   UNL A   1      33.064  31.028  27.142  1.00  0.00     0.013 C 
ATOM     19  C   UNL A   1      32.012  32.186  27.002  1.00  0.00     0.012 C 
ATOM     20  C   UNL A   1      34.213  31.421  28.035  1.00  0.00     0.012 C 
ENDBRANCH  10  18
BRANCH  16  21
ATOM     21  S   UNL A   1      35.087  24.614  24.911  1.00  0.00    -0.118 SA
BRANCH  21  22
ATOM     22  C   UNL A   1      34.890  23.299  23.230  1.00  0.00     0.012 C 
ATOM     23  C   UNL A   1      34.312  21.856  23.406  1.00  0.00     0.023 C 
ATOM     24  C   UNL A   1      34.222  23.869  21.933  1.00  0.00     0.023 C 
ATOM     25  C   UNL A   1      36.329  23.139  22.684  1.00  0.00     0.023 C 
ENDBRANCH  21  22
ENDBRANCH  16  21
BRANCH  17  26
ATOM     26  C   UNL A   1      30.027  26.120  24.905  1.00  0.00     0.158 C 
BRANCH  26  27
ATOM     27  C   UNL A   1      29.827  27.306  24.061  1.00  0.00    -0.028 A 
ATOM     28  C   UNL A   1      30.991  28.455  23.219  1.00  0.00     0.007 A 
ATOM     29  C   UNL A   1      28.018  27.626  23.876  1.00  0.00     0.007 A 
ATOM     30  C   UNL A   1      30.361  29.671  22.008  1.00  0.00     0.021 A 
ATOM     31  C   UNL A   1      27.448  28.857  22.706  1.00  0.00     0.021 A 
ATOM     32  C   UNL A   1      28.595  29.811  21.734  1.00  0.00     0.041 A 
ATOM     33  Cl  UNL A   1      28.008  31.278  21.011  1.00  0.00    -0.084 Cl
ENDBRANCH  26  27
ENDBRANCH  17  26
ENDBRANCH   8   9
ENDBRANCH   5   8
ENDBRANCH   3   5
ENDBRANCH   2   3
ENDBRANCH   1   2
BRANCH   1  34
ATOM     34  C   UNL A   1      35.674  21.116  26.159  1.00  0.00     0.275 C 
BRANCH  34  35
ATOM     35  O   UNL A   1      36.634  22.222  26.113  1.00  0.00    -0.458 OA
BRANCH  35  36
ATOM     36  C   UNL A   1      38.178  22.031  25.883  1.00  0.00     0.338 C 
ATOM     37  O   UNL A   1      38.152  20.980  25.206  1.00  0.00    -0.246 OA
BRANCH  36  38
ATOM     38  C   UNL A   1      39.718  23.453  26.506  1.00  0.00     0.060 A 
ATOM     39  C   UNL A   1      40.396  23.704  27.822  1.00  0.00     0.016 A 
ATOM     40  C   UNL A   1      40.006  24.909  25.987  1.00  0.00     0.016 A 
ATOM     41  C   UNL A   1      40.609  25.043  28.560  1.00  0.00     0.010 A 
ATOM     42  C   UNL A   1      40.241  26.234  26.717  1.00  0.00     0.010 A 
ATOM     43  C   UNL A   1      40.310  26.360  28.090  1.00  0.00    -0.014 A 
BRANCH  43  44
ATOM     44  C   UNL A   1      40.475  27.748  28.967  1.00  0.00     0.031 A 
ATOM     45  C   UNL A   1      41.531  28.491  28.304  1.00  0.00     0.074 A 
ATOM     46  C   UNL A   1      40.073  28.492  30.109  1.00  0.00     0.049 A 
ATOM     47  N   UNL A   1      42.761  28.480  28.695  1.00  0.00    -0.248 NA
ATOM     48  C   UNL A   1      41.275  29.094  26.997  1.00  0.00     0.031 C 
ATOM     49  C   UNL A   1      39.172  28.070  31.138  1.00  0.00     0.029 A 
ATOM     50  N   UNL A   1      40.412  29.761  30.758  1.00  0.00    -0.354 N 
ATOM     51  C   UNL A   1      43.321  29.439  27.897  1.00  0.00     0.074 A 
ATOM     52  C   UNL A   1      42.503  29.531  26.710  1.00  0.00     0.031 C 
ATOM     53  C   UNL A   1      38.654  29.018  31.944  1.00  0.00     0.029 A 
ATOM     54  C   UNL A   1      39.459  30.196  31.791  1.00  0.00     0.049 A 
ATOM     55  H   UNL A   1      41.212  30.281  30.521  1.00  0.00     0.167 HD
ATOM     56  C   UNL A   1      44.116  30.369  28.471  1.00  0.00     0.034 A 
ATOM     57  C   UNL A   1      39.398  31.112  32.830  1.00  0.00     0.034 A 
ATOM     58  C   UNL A   1      44.581  30.025  29.781  1.00  0.00     0.049 A 
ATOM     59  C   UNL A   1      40.751  31.467  33.246  1.00  0.00     0.074 A 
ATOM     60  C   UNL A   1      45.481  29.079  30.171  1.00  0.00     0.029 A 
ATOM     61  N   UNL A   1      43.800  30.326  30.882  1.00  0.00    -0.354 N 
ATOM     62  N   UNL A   1      41.471  30.753  34.057  1.00  0.00    -0.248 NA
ATOM     63  C   UNL A   1      41.432  32.510  32.511  1.00  0.00     0.031 C 
ATOM     64  C   UNL A   1      44.940  28.636  31.391  1.00  0.00     0.029 A 
ATOM     65  C   UNL A   1      44.174  29.599  32.033  1.00  0.00     0.049 A 
ATOM     66  H   UNL A   1      43.062  30.978  30.866  1.00  0.00     0.167 HD
ATOM     67  C   UNL A   1      42.735  30.897  33.523  1.00  0.00     0.074 A 
ATOM     68  C   UNL A   1      42.681  32.088  32.690  1.00  0.00     0.031 C 
ATOM     69  C   UNL A   1      43.513  29.791  33.365  1.00  0.00     0.034 A 
BRANCH  56  70
ATOM     70  C   UNL A   1      44.227  31.725  27.929  1.00  0.00     0.023 A 
ATOM     71  C   UNL A   1      45.231  31.988  26.992  1.00  0.00     0.012 A 
ATOM     72  C   UNL A   1      43.476  32.781  28.474  1.00  0.00     0.148 A 
ATOM     73  C   UNL A   1      45.483  33.298  26.600  1.00  0.00     0.002 A 
ATOM     74  C   UNL A   1      43.685  34.068  28.033  1.00  0.00     0.091 A 
ATOM     75  F   UNL A   1      42.637  32.533  29.488  1.00  0.00    -0.205 F 
ATOM     76  C   UNL A   1      44.701  34.336  27.109  1.00  0.00     0.022 A 
BRANCH  74  77
ATOM     77  S   UNL A   1      42.688  35.424  28.640  1.00  0.00     0.127 S 
ATOM     78  O   UNL A   1      42.893  35.310  30.081  1.00  0.00    -0.237 OA
ATOM     79  O   UNL A   1      43.334  36.573  28.005  1.00  0.00    -0.237 OA
ATOM     80  O   UNL A   1      41.336  35.163  28.162  1.00  0.00    -0.744 OA
ENDBRANCH  74  77
ENDBRANCH  56  70
BRANCH  57  81
ATOM     81  C   UNL A   1      38.237  31.694  33.638  1.00  0.00     0.023 A 
ATOM     82  C   UNL A   1      38.385  32.084  34.999  1.00  0.00     0.012 A 
ATOM     83  C   UNL A   1      37.081  32.163  32.994  1.00  0.00     0.148 A 
ATOM     84  C   UNL A   1      37.514  33.015  35.606  1.00  0.00     0.002 A 
ATOM     85  C   UNL A   1      36.218  33.081  33.590  1.00  0.00     0.091 A 
ATOM     86  F   UNL A   1      36.867  31.797  31.735  1.00  0.00    -0.205 F 
ATOM     87  C   UNL A   1      36.451  33.547  34.883  1.00  0.00     0.022 A 
BRANCH  85  88
ATOM     88  S   UNL A   1      34.868  33.807  32.648  1.00  0.00     0.127 S 
ATOM     89  O   UNL A   1      33.987  32.660  32.418  1.00  0.00    -0.237 OA
ATOM     90  O   UNL A   1      34.351  34.797  33.587  1.00  0.00    -0.237 OA
ATOM     91  O   UNL A   1      35.472  34.338  31.433  1.00  0.00    -0.744 OA
ENDBRANCH  85  88
ENDBRANCH  57  81
BRANCH  69  92
ATOM     92  C   UNL A   1      43.580  28.919  34.680  1.00  0.00     0.023 A 
ATOM     93  C   UNL A   1      44.477  29.182  35.750  1.00  0.00     0.012 A 
ATOM     94  C   UNL A   1      42.826  27.718  34.831  1.00  0.00     0.148 A 
ATOM     95  C   UNL A   1      44.534  28.393  36.928  1.00  0.00     0.002 A 
ATOM     96  C   UNL A   1      42.818  26.976  36.038  1.00  0.00     0.091 A 
ATOM     97  F   UNL A   1      42.059  27.334  33.801  1.00  0.00    -0.205 F 
ATOM     98  C   UNL A   1      43.679  27.309  37.089  1.00  0.00     0.022 A 
BRANCH  96  99
ATOM     99  S   UNL A   1      41.649  25.625  36.367  1.00  0.00     0.127 S 
ATOM    100  O   UNL A   1      42.488  24.433  36.244  1.00  0.00    -0.237 OA
ATOM    101  O   UNL A   1      41.205  25.898  37.733  1.00  0.00    -0.237 OA
ATOM    102  O   UNL A   1      40.614  25.744  35.348  1.00  0.00    -0.744 OA
ENDBRANCH  96  99
ENDBRANCH  69  92
ENDBRANCH  43  44
ENDBRANCH  36  38
ENDBRANCH  35  36
ENDBRANCH  34  35
ENDBRANCH   1  34
TORSDOF 21
ENDMDL
MODEL 3
REMARK VINA RESULT:     -11.5      8.935     15.389
REMARK SMILES CC(C)c1ccc2c(c1)c(SC(C)(C)C)c(CC(C)(C)C(=O)OCCOC(=O)c1ccc(-c3c4nc(c(-c5cccc(S(=O)(=O)[O-])c5F)c5ccc([nH]5)c(-c5cccc(S(=O)(=O)[O-])c5F)c5nc(c(-c6cccc(S(=O)(=O)[O-])c6F)c6ccc3[nH]6)C=C5)C=C4)cc1)n2Cc1ccc(Cl)cc1
REMARK SMILES IDX 24 1 23 2 21 3 22 4 18 5 19 6 20 7 17 8 16 9 4 10 5 11 9 12
REMARK SMILES IDX 6 13 8 14 7 15 10 16 92 17 2 18 1 19 3 20 11 21 12 22 13 23
REMARK SMILES IDX 14 24 15 25 93 26 94 27 95 28 100 29 96 30 99 31 97 32 98 33
REMARK SMILES IDX 25 34 26 35 27 36 28 37 29 38 30 39 91 40 31 41 90 42 32 43
REMARK SMILES IDX 33 44 34 45 84 46 35 47 89 48 83 49 85 50 36 51 88 52 82 53
REMARK SMILES IDX 81 54 37 56 69 57 49 58 68 59 50 60 53 61 67 62 86 63 51 64
REMARK SMILES IDX 52 65 66 67 87 68 54 69 38 70 39 71 47 72 40 73 42 74 48 75
REMARK SMILES IDX 41 76 43 77 44 78 45 79 46 80 70 81 71 82 79 83 72 84 74 85
REMARK SMILES IDX 80 86 73 87 75 88 76 89 77 90 78 91 55 92 56 93 64 94 57 95
REMARK SMILES IDX 59 96 65 97 58 98 60 99 61 100 62 101 63 102
REMARK H PARENT 85 55 53 66
REMARK Flexibility Score: inf
ROOT
ATOM      1  C   UNL A   1      48.585  39.216  29.949  1.00  0.00     0.274 C 
ENDROOT
BRANCH   1   2
ATOM      2  O   UNL A   1      49.362  40.417  29.862  1.00  0.00    -0.462 OA
BRANCH   2   3
ATOM      3  C   UNL A   1      48.913  41.422  30.646  1.00  0.00     0.312 C 
ATOM      4  O   UNL A   1      48.424  41.241  31.757  1.00  0.00    -0.252 OA
BRANCH   3   5
ATOM      5  C   UNL A   1      48.988  42.789  29.994  1.00  0.00     0.068 C 
ATOM      6  C   UNL A   1      50.007  42.481  28.883  1.00  0.00     0.024 C 
ATOM      7  C   UNL A   1      49.557  43.922  30.909  1.00  0.00     0.024 C 
BRANCH   5   8
ATOM      8  C   UNL A   1      47.604  43.229  29.454  1.00  0.00     0.073 C 
BRANCH   8   9
ATOM      9  C   UNL A   1      46.660  42.195  28.997  1.00  0.00     0.034 A 
ATOM     10  C   UNL A   1      43.980  38.417  27.566  1.00  0.00    -0.045 A 
ATOM     11  C   UNL A   1      45.175  38.238  26.895  1.00  0.00     0.006 A 
ATOM     12  C   UNL A   1      43.934  39.511  28.590  1.00  0.00     0.015 A 
ATOM     13  C   UNL A   1      46.159  39.186  27.006  1.00  0.00     0.027 A 
ATOM     14  C   UNL A   1      45.008  40.522  28.783  1.00  0.00     0.014 A 
ATOM     15  C   UNL A   1      46.035  40.311  27.865  1.00  0.00     0.050 A 
ATOM     16  C   UNL A   1      45.533  41.749  29.648  1.00  0.00     0.037 A 
ATOM     17  N   UNL A   1      46.782  41.473  27.841  1.00  0.00    -0.339 N 
BRANCH  10  18
ATOM     18  C   UNL A   1      42.818  37.613  26.836  1.00  0.00     0.013 C 
ATOM     19  C   UNL A   1      42.544  36.069  26.730  1.00  0.00     0.012 C 
ATOM     20  C   UNL A   1      41.542  38.412  26.785  1.00  0.00     0.012 C 
ENDBRANCH  10  18
BRANCH  16  21
ATOM     21  S   UNL A   1      45.075  42.628  31.304  1.00  0.00    -0.118 SA
BRANCH  21  22
ATOM     22  C   UNL A   1      43.082  42.282  32.012  1.00  0.00     0.012 C 
ATOM     23  C   UNL A   1      42.398  43.283  33.000  1.00  0.00     0.023 C 
ATOM     24  C   UNL A   1      41.987  41.914  30.954  1.00  0.00     0.023 C 
ATOM     25  C   UNL A   1      43.154  40.918  32.738  1.00  0.00     0.023 C 
ENDBRANCH  21  22
ENDBRANCH  16  21
BRANCH  17  26
ATOM     26  C   UNL A   1      47.268  41.907  26.556  1.00  0.00     0.158 C 
BRANCH  26  27
ATOM     27  C   UNL A   1      46.275  42.370  25.578  1.00  0.00    -0.028 A 
ATOM     28  C   UNL A   1      44.677  43.266  25.742  1.00  0.00     0.007 A 
ATOM     29  C   UNL A   1      46.831  41.908  23.878  1.00  0.00     0.007 A 
ATOM     30  C   UNL A   1      43.843  43.930  24.256  1.00  0.00     0.021 A 
ATOM     31  C   UNL A   1      45.958  42.549  22.451  1.00  0.00     0.021 A 
ATOM     32  C   UNL A   1      44.533  43.602  22.635  1.00  0.00     0.041 A 
ATOM     33  Cl  UNL A   1      43.480  43.773  21.264  1.00  0.00    -0.084 Cl
ENDBRANCH  26  27
ENDBRANCH  17  26
ENDBRANCH   8   9
ENDBRANCH   5   8
ENDBRANCH   3   5
ENDBRANCH   2   3
ENDBRANCH   1   2
BRANCH   1  34
ATOM     34  C   UNL A   1      49.418  38.098  30.600  1.00  0.00     0.275 C 
BRANCH  34  35
ATOM     35  O   UNL A   1      48.790  37.597  31.825  1.00  0.00    -0.458 OA
BRANCH  35  36
ATOM     36  C   UNL A   1      47.260  37.760  32.153  1.00  0.00     0.338 C 
ATOM     37  O   UNL A   1      47.351  38.432  33.204  1.00  0.00    -0.246 OA
BRANCH  36  38
ATOM     38  C   UNL A   1      45.627  37.081  30.866  1.00  0.00     0.060 A 
ATOM     39  C   UNL A   1      44.146  36.959  31.084  1.00  0.00     0.016 A 
ATOM     40  C   UNL A   1      45.632  35.994  29.731  1.00  0.00     0.016 A 
ATOM     41  C   UNL A   1      43.223  35.755  30.799  1.00  0.00     0.010 A 
ATOM     42  C   UNL A   1      44.705  34.813  29.432  1.00  0.00     0.010 A 
ATOM     43  C   UNL A   1      43.560  34.527  30.149  1.00  0.00    -0.014 A 
BRANCH  43  44
ATOM     44  C   UNL A   1      42.548  33.238  29.959  1.00  0.00     0.031 A 
ATOM     45  C   UNL A   1      41.235  33.730  30.336  1.00  0.00     0.074 A 
ATOM     46  C   UNL A   1      42.419  31.859  29.642  1.00  0.00     0.049 A 
ATOM     47  N   UNL A   1      40.718  33.550  31.506  1.00  0.00    -0.248 NA
ATOM     48  C   UNL A   1      40.543  34.676  29.464  1.00  0.00     0.031 C 
ATOM     49  C   UNL A   1      43.479  30.936  29.369  1.00  0.00     0.029 A 
ATOM     50  N   UNL A   1      41.360  30.848  29.581  1.00  0.00    -0.354 N 
ATOM     51  C   UNL A   1      39.445  34.016  31.328  1.00  0.00     0.074 A 
ATOM     52  C   UNL A   1      39.489  34.958  30.233  1.00  0.00     0.031 C 
ATOM     53  C   UNL A   1      43.157  29.775  28.765  1.00  0.00     0.029 A 
ATOM     54  C   UNL A   1      41.738  29.603  28.896  1.00  0.00     0.049 A 
ATOM     55  H   UNL A   1      40.467  30.992  29.967  1.00  0.00     0.167 HD
ATOM     56  C   UNL A   1      38.416  33.264  31.778  1.00  0.00     0.034 A 
ATOM     57  C   UNL A   1      41.270  28.304  28.765  1.00  0.00     0.034 A 
ATOM     58  C   UNL A   1      38.790  32.250  32.717  1.00  0.00     0.049 A 
ATOM     59  C   UNL A   1      40.395  27.987  29.889  1.00  0.00     0.074 A 
ATOM     60  C   UNL A   1      39.213  32.365  34.008  1.00  0.00     0.029 A 
ATOM     61  N   UNL A   1      39.209  31.015  32.257  1.00  0.00    -0.354 N 
ATOM     62  N   UNL A   1      40.822  27.604  31.055  1.00  0.00    -0.248 NA
ATOM     63  C   UNL A   1      39.007  28.382  29.797  1.00  0.00     0.031 C 
ATOM     64  C   UNL A   1      40.155  31.325  34.108  1.00  0.00     0.029 A 
ATOM     65  C   UNL A   1      39.905  30.274  33.236  1.00  0.00     0.049 A 
ATOM     66  H   UNL A   1      39.040  30.687  31.345  1.00  0.00     0.167 HD
ATOM     67  C   UNL A   1      39.931  28.224  31.906  1.00  0.00     0.074 A 
ATOM     68  C   UNL A   1      38.768  28.550  31.095  1.00  0.00     0.031 C 
ATOM     69  C   UNL A   1      40.412  28.883  32.996  1.00  0.00     0.034 A 
BRANCH  56  70
ATOM     70  C   UNL A   1      37.106  33.286  31.125  1.00  0.00     0.023 A 
ATOM     71  C   UNL A   1      36.968  32.647  29.887  1.00  0.00     0.012 A 
ATOM     72  C   UNL A   1      36.065  34.087  31.625  1.00  0.00     0.148 A 
ATOM     73  C   UNL A   1      35.797  32.807  29.156  1.00  0.00     0.002 A 
ATOM     74  C   UNL A   1      34.883  34.188  30.928  1.00  0.00     0.091 A 
ATOM     75  F   UNL A   1      36.275  34.822  32.725  1.00  0.00    -0.205 F 
ATOM     76  C   UNL A   1      34.749  33.565  29.682  1.00  0.00     0.022 A 
BRANCH  74  77
ATOM     77  S   UNL A   1      33.506  35.127  31.577  1.00  0.00     0.127 S 
ATOM     78  O   UNL A   1      32.569  35.076  30.459  1.00  0.00    -0.237 OA
ATOM     79  O   UNL A   1      33.130  34.331  32.746  1.00  0.00    -0.237 OA
ATOM     80  O   UNL A   1      34.045  36.442  31.903  1.00  0.00    -0.744 OA
ENDBRANCH  74  77
ENDBRANCH  56  70
BRANCH  57  81
ATOM     81  C   UNL A   1      41.577  27.183  27.772  1.00  0.00     0.023 A 
ATOM     82  C   UNL A   1      41.096  27.209  26.432  1.00  0.00     0.012 A 
ATOM     83  C   UNL A   1      42.596  26.254  28.033  1.00  0.00     0.148 A 
ATOM     84  C   UNL A   1      41.718  26.469  25.402  1.00  0.00     0.002 A 
ATOM     85  C   UNL A   1      43.212  25.520  27.021  1.00  0.00     0.091 A 
ATOM     86  F   UNL A   1      43.056  26.154  29.275  1.00  0.00    -0.205 F 
ATOM     87  C   UNL A   1      42.807  25.654  25.693  1.00  0.00     0.022 A 
BRANCH  85  88
ATOM     88  S   UNL A   1      44.649  24.498  27.380  1.00  0.00     0.127 S 
ATOM     89  O   UNL A   1      44.138  23.575  28.394  1.00  0.00    -0.237 OA
ATOM     90  O   UNL A   1      44.914  23.893  26.078  1.00  0.00    -0.237 OA
ATOM     91  O   UNL A   1      45.671  25.411  27.876  1.00  0.00    -0.744 OA
ENDBRANCH  85  88
ENDBRANCH  57  81
BRANCH  69  92
ATOM     92  C   UNL A   1      41.425  28.000  33.825  1.00  0.00     0.023 A 
ATOM     93  C   UNL A   1      41.025  26.905  34.638  1.00  0.00     0.012 A 
ATOM     94  C   UNL A   1      42.810  28.323  33.919  1.00  0.00     0.148 A 
ATOM     95  C   UNL A   1      41.939  26.117  35.383  1.00  0.00     0.002 A 
ATOM     96  C   UNL A   1      43.737  27.490  34.592  1.00  0.00     0.091 A 
ATOM     97  F   UNL A   1      43.233  29.426  33.286  1.00  0.00    -0.205 F 
ATOM     98  C   UNL A   1      43.301  26.387  35.334  1.00  0.00     0.022 A 
BRANCH  96  99
ATOM     99  S   UNL A   1      45.538  27.709  34.476  1.00  0.00     0.127 S 
ATOM    100  O   UNL A   1      45.762  28.950  35.218  1.00  0.00    -0.237 OA
ATOM    101  O   UNL A   1      46.058  26.518  35.144  1.00  0.00    -0.237 OA
ATOM    102  O   UNL A   1      45.832  27.794  33.052  1.00  0.00    -0.744 OA
ENDBRANCH  96  99
ENDBRANCH  69  92
ENDBRANCH  43  44
ENDBRANCH  36  38
ENDBRANCH  35  36
ENDBRANCH  34  35
ENDBRANCH   1  34
TORSDOF 21
ENDMDL
