MODEL 1
REMARK VINA RESULT:     -11.0      0.000      0.000
REMARK SMILES COC(=O)[C@H]1Sc2nnc(CCC(=O)OCCOC(=O)c3ccc(-c4c5nc(c(-c6cccc(S(=O)(=O)[O-])c6F)c6ccc([nH]6)c(-c6cccc(S(=O)(=O)[O-])c6F)c6nc(c(-c7cccc(S(=O)(=O)[O-])c7F)c7ccc4[nH]7)C=C6)C=C5)cc3)c(=O)n2N=C1C
REMARK SMILES IDX 16 1 15 2 13 3 14 4 12 5 11 6 10 7 5 8 6 9 88 10 7 11 87 12
REMARK SMILES IDX 89 13 8 14 86 15 9 16 84 17 85 18 3 19 4 20 2 21 1 22 17 23
REMARK SMILES IDX 18 24 19 25 20 26 21 27 22 28 83 29 23 30 82 31 24 32 25 33
REMARK SMILES IDX 26 34 76 35 27 36 81 37 75 38 77 39 28 40 80 41 74 42 73 43
REMARK SMILES IDX 29 45 61 46 41 47 60 48 42 49 45 50 59 51 78 52 43 53 44 54
REMARK SMILES IDX 58 56 79 57 46 58 30 59 31 60 39 61 32 62 34 63 40 64 33 65
REMARK SMILES IDX 35 66 36 67 37 68 38 69 62 70 63 71 71 72 64 73 66 74 72 75
REMARK SMILES IDX 65 76 67 77 68 78 69 79 70 80 47 81 48 82 56 83 49 84 51 85
REMARK SMILES IDX 57 86 50 87 52 88 53 89 54 90 55 91
REMARK H PARENT 77 44 45 55
REMARK Flexibility Score: inf
ROOT
ATOM      1  C   UNL A   1      31.640  29.853  25.447  1.00  0.00     0.274 C 
ENDROOT
BRANCH   1   2
ATOM      2  O   UNL A   1      32.767  29.224  24.805  1.00  0.00    -0.462 OA
BRANCH   2   3
ATOM      3  C   UNL A   1      32.545  28.661  23.590  1.00  0.00     0.306 C 
ATOM      4  O   UNL A   1      33.253  28.816  22.606  1.00  0.00    -0.252 OA
BRANCH   3   5
ATOM      5  C   UNL A   1      31.249  27.882  23.558  1.00  0.00     0.129 C 
BRANCH   5   6
ATOM      6  C   UNL A   1      31.011  27.096  22.270  1.00  0.00     0.076 C 
BRANCH   6   7
ATOM      7  C   UNL A   1      31.356  25.640  22.470  1.00  0.00     0.131 A 
ATOM      8  C   UNL A   1      34.342  21.889  24.220  1.00  0.00     0.210 C 
ATOM      9  S   UNL A   1      32.671  21.601  23.640  1.00  0.00    -0.063 SA
ATOM     10  C   UNL A   1      35.066  22.911  23.398  1.00  0.00     0.061 C 
ATOM     11  C   UNL A   1      32.207  23.232  23.243  1.00  0.00     0.214 A 
ATOM     12  N   UNL A   1      34.524  23.874  22.724  1.00  0.00    -0.171 NA
ATOM     13  C   UNL A   1      36.578  22.895  23.442  1.00  0.00     0.065 C 
ATOM     14  N   UNL A   1      30.953  23.536  23.357  1.00  0.00    -0.123 NA
ATOM     15  N   UNL A   1      33.164  24.077  22.740  1.00  0.00    -0.169 N 
ATOM     16  N   UNL A   1      30.537  24.851  23.097  1.00  0.00    -0.147 NA
ATOM     17  C   UNL A   1      32.715  25.167  22.028  1.00  0.00     0.296 A 
ATOM     18  O   UNL A   1      33.287  25.725  21.104  1.00  0.00    -0.265 OA
BRANCH   8  19
ATOM     19  C   UNL A   1      34.453  22.161  25.698  1.00  0.00     0.325 C 
ATOM     20  O   UNL A   1      35.198  21.510  26.427  1.00  0.00    -0.250 OA
BRANCH  19  21
ATOM     21  O   UNL A   1      33.723  23.229  26.112  1.00  0.00    -0.468 OA
ATOM     22  C   UNL A   1      32.815  22.943  27.179  1.00  0.00     0.282 C 
ENDBRANCH  19  21
ENDBRANCH   8  19
ENDBRANCH   6   7
ENDBRANCH   5   6
ENDBRANCH   3   5
ENDBRANCH   2   3
ENDBRANCH   1   2
BRANCH   1  23
ATOM     23  C   UNL A   1      32.072  30.677  26.662  1.00  0.00     0.275 C 
BRANCH  23  24
ATOM     24  O   UNL A   1      33.494  30.599  26.852  1.00  0.00    -0.458 OA
BRANCH  24  25
ATOM     25  C   UNL A   1      34.072  31.712  27.356  1.00  0.00     0.338 C 
ATOM     26  O   UNL A   1      33.642  32.850  27.343  1.00  0.00    -0.246 OA
BRANCH  25  27
ATOM     27  C   UNL A   1      35.303  31.356  28.063  1.00  0.00     0.060 A 
ATOM     28  C   UNL A   1      35.405  30.072  28.605  1.00  0.00     0.016 A 
ATOM     29  C   UNL A   1      36.288  32.316  28.289  1.00  0.00     0.016 A 
ATOM     30  C   UNL A   1      36.501  29.743  29.393  1.00  0.00     0.010 A 
ATOM     31  C   UNL A   1      37.393  31.981  29.071  1.00  0.00     0.010 A 
ATOM     32  C   UNL A   1      37.495  30.699  29.639  1.00  0.00    -0.014 A 
BRANCH  32  33
ATOM     33  C   UNL A   1      38.637  30.365  30.518  1.00  0.00     0.031 A 
ATOM     34  C   UNL A   1      39.666  29.375  30.061  1.00  0.00     0.074 A 
ATOM     35  C   UNL A   1      38.733  30.954  31.723  1.00  0.00     0.049 A 
ATOM     36  N   UNL A   1      40.703  28.910  30.705  1.00  0.00    -0.248 NA
ATOM     37  C   UNL A   1      39.510  28.836  28.699  1.00  0.00     0.031 C 
ATOM     38  C   UNL A   1      37.791  31.941  32.253  1.00  0.00     0.029 A 
ATOM     39  N   UNL A   1      39.655  30.797  32.724  1.00  0.00    -0.354 N 
ATOM     40  C   UNL A   1      41.312  28.008  29.842  1.00  0.00     0.074 A 
ATOM     41  C   UNL A   1      40.522  27.981  28.630  1.00  0.00     0.031 C 
ATOM     42  C   UNL A   1      38.181  32.298  33.486  1.00  0.00     0.029 A 
ATOM     43  C   UNL A   1      39.375  31.539  33.848  1.00  0.00     0.049 A 
ATOM     44  H   UNL A   1      40.443  30.210  32.647  1.00  0.00     0.167 HD
ATOM     45  C   UNL A   1      42.439  27.284  30.039  1.00  0.00     0.034 A 
ATOM     46  C   UNL A   1      40.003  31.586  35.039  1.00  0.00     0.034 A 
ATOM     47  C   UNL A   1      43.226  27.339  31.241  1.00  0.00     0.049 A 
ATOM     48  C   UNL A   1      41.233  30.744  35.243  1.00  0.00     0.074 A 
ATOM     49  C   UNL A   1      44.399  26.663  31.532  1.00  0.00     0.029 A 
ATOM     50  N   UNL A   1      42.924  28.113  32.352  1.00  0.00    -0.354 N 
ATOM     51  N   UNL A   1      41.844  29.958  34.389  1.00  0.00    -0.248 NA
ATOM     52  C   UNL A   1      41.871  30.807  36.565  1.00  0.00     0.031 C 
ATOM     53  C   UNL A   1      44.795  27.017  32.825  1.00  0.00     0.029 A 
ATOM     54  C   UNL A   1      43.880  27.925  33.335  1.00  0.00     0.049 A 
ATOM     55  H   UNL A   1      42.144  28.708  32.430  1.00  0.00     0.167 HD
ATOM     56  C   UNL A   1      42.947  29.445  35.062  1.00  0.00     0.074 A 
ATOM     57  C   UNL A   1      42.935  30.034  36.386  1.00  0.00     0.031 C 
ATOM     58  C   UNL A   1      43.873  28.553  34.633  1.00  0.00     0.034 A 
BRANCH  45  59
ATOM     59  C   UNL A   1      42.915  26.405  28.914  1.00  0.00     0.023 A 
ATOM     60  C   UNL A   1      42.362  25.117  28.765  1.00  0.00     0.012 A 
ATOM     61  C   UNL A   1      43.848  26.872  27.967  1.00  0.00     0.148 A 
ATOM     62  C   UNL A   1      42.745  24.300  27.702  1.00  0.00     0.002 A 
ATOM     63  C   UNL A   1      44.197  26.065  26.890  1.00  0.00     0.091 A 
ATOM     64  F   UNL A   1      44.379  28.091  28.140  1.00  0.00    -0.205 F 
ATOM     65  C   UNL A   1      43.652  24.776  26.760  1.00  0.00     0.022 A 
BRANCH  63  66
ATOM     66  S   UNL A   1      45.304  26.612  25.585  1.00  0.00     0.127 S 
ATOM     67  O   UNL A   1      44.586  27.769  25.055  1.00  0.00    -0.237 OA
ATOM     68  O   UNL A   1      46.522  26.938  26.330  1.00  0.00    -0.237 OA
ATOM     69  O   UNL A   1      45.436  25.487  24.671  1.00  0.00    -0.744 OA
ENDBRANCH  63  66
ENDBRANCH  45  59
BRANCH  46  70
ATOM     70  C   UNL A   1      39.503  32.507  36.098  1.00  0.00     0.023 A 
ATOM     71  C   UNL A   1      38.661  32.000  37.107  1.00  0.00     0.012 A 
ATOM     72  C   UNL A   1      39.907  33.856  36.155  1.00  0.00     0.148 A 
ATOM     73  C   UNL A   1      38.220  32.822  38.144  1.00  0.00     0.002 A 
ATOM     74  C   UNL A   1      39.510  34.654  37.222  1.00  0.00     0.091 A 
ATOM     75  F   UNL A   1      40.692  34.326  35.175  1.00  0.00    -0.205 F 
ATOM     76  C   UNL A   1      38.656  34.142  38.211  1.00  0.00     0.022 A 
BRANCH  74  77
ATOM     77  S   UNL A   1      40.136  36.322  37.462  1.00  0.00     0.127 S 
ATOM     78  O   UNL A   1      39.979  36.896  36.129  1.00  0.00    -0.237 OA
ATOM     79  O   UNL A   1      39.217  36.848  38.472  1.00  0.00    -0.237 OA
ATOM     80  O   UNL A   1      41.508  36.163  37.927  1.00  0.00    -0.744 OA
ENDBRANCH  74  77
ENDBRANCH  46  70
BRANCH  58  81
ATOM     81  C   UNL A   1      44.952  28.144  35.600  1.00  0.00     0.023 A 
ATOM     82  C   UNL A   1      46.210  28.774  35.535  1.00  0.00     0.012 A 
ATOM     83  C   UNL A   1      44.691  27.220  36.632  1.00  0.00     0.148 A 
ATOM     84  C   UNL A   1      47.200  28.477  36.471  1.00  0.00     0.002 A 
ATOM     85  C   UNL A   1      45.668  26.963  37.587  1.00  0.00     0.091 A 
ATOM     86  F   UNL A   1      43.494  26.617  36.663  1.00  0.00    -0.205 F 
ATOM     87  C   UNL A   1      46.925  27.584  37.503  1.00  0.00     0.022 A 
BRANCH  85  88
ATOM     88  S   UNL A   1      45.367  25.904  39.007  1.00  0.00     0.127 S 
ATOM     89  O   UNL A   1      45.204  24.596  38.374  1.00  0.00    -0.237 OA
ATOM     90  O   UNL A   1      46.600  26.058  39.779  1.00  0.00    -0.237 OA
ATOM     91  O   UNL A   1      44.178  26.438  39.658  1.00  0.00    -0.744 OA
ENDBRANCH  85  88
ENDBRANCH  58  81
ENDBRANCH  32  33
ENDBRANCH  25  27
ENDBRANCH  24  25
ENDBRANCH  23  24
ENDBRANCH   1  23
TORSDOF 18
ENDMDL
MODEL 2
REMARK VINA RESULT:     -10.9      2.797      8.039
REMARK SMILES COC(=O)[C@H]1Sc2nnc(CCC(=O)OCCOC(=O)c3ccc(-c4c5nc(c(-c6cccc(S(=O)(=O)[O-])c6F)c6ccc([nH]6)c(-c6cccc(S(=O)(=O)[O-])c6F)c6nc(c(-c7cccc(S(=O)(=O)[O-])c7F)c7ccc4[nH]7)C=C6)C=C5)cc3)c(=O)n2N=C1C
REMARK SMILES IDX 16 1 15 2 13 3 14 4 12 5 11 6 10 7 5 8 6 9 88 10 7 11 87 12
REMARK SMILES IDX 89 13 8 14 86 15 9 16 84 17 85 18 3 19 4 20 2 21 1 22 17 23
REMARK SMILES IDX 18 24 19 25 20 26 21 27 22 28 83 29 23 30 82 31 24 32 25 33
REMARK SMILES IDX 26 34 76 35 27 36 81 37 75 38 77 39 28 40 80 41 74 42 73 43
REMARK SMILES IDX 29 45 61 46 41 47 60 48 42 49 45 50 59 51 78 52 43 53 44 54
REMARK SMILES IDX 58 56 79 57 46 58 30 59 31 60 39 61 32 62 34 63 40 64 33 65
REMARK SMILES IDX 35 66 36 67 37 68 38 69 62 70 63 71 71 72 64 73 66 74 72 75
REMARK SMILES IDX 65 76 67 77 68 78 69 79 70 80 47 81 48 82 56 83 49 84 51 85
REMARK SMILES IDX 57 86 50 87 52 88 53 89 54 90 55 91
REMARK H PARENT 77 44 45 55
REMARK Flexibility Score: inf
ROOT
ATOM      1  C   UNL A   1      32.998  29.232  25.285  1.00  0.00     0.274 C 
ENDROOT
BRANCH   1   2
ATOM      2  O   UNL A   1      32.343  29.580  24.048  1.00  0.00    -0.462 OA
BRANCH   2   3
ATOM      3  C   UNL A   1      31.034  29.240  23.932  1.00  0.00     0.306 C 
ATOM      4  O   UNL A   1      30.101  30.030  23.946  1.00  0.00    -0.252 OA
BRANCH   3   5
ATOM      5  C   UNL A   1      30.843  27.740  23.876  1.00  0.00     0.129 C 
BRANCH   5   6
ATOM      6  C   UNL A   1      31.039  27.126  22.491  1.00  0.00     0.076 C 
BRANCH   6   7
ATOM      7  C   UNL A   1      31.404  25.666  22.609  1.00  0.00     0.131 A 
ATOM      8  C   UNL A   1      34.455  21.868  24.128  1.00  0.00     0.210 C 
ATOM      9  S   UNL A   1      32.783  21.589  23.548  1.00  0.00    -0.063 SA
ATOM     10  C   UNL A   1      35.158  22.942  23.356  1.00  0.00     0.061 C 
ATOM     11  C   UNL A   1      32.294  23.232  23.244  1.00  0.00     0.214 A 
ATOM     12  N   UNL A   1      34.598  23.933  22.740  1.00  0.00    -0.171 NA
ATOM     13  C   UNL A   1      36.670  22.944  23.386  1.00  0.00     0.065 C 
ATOM     14  N   UNL A   1      31.037  23.513  23.385  1.00  0.00    -0.123 NA
ATOM     15  N   UNL A   1      33.235  24.116  22.778  1.00  0.00    -0.169 N 
ATOM     16  N   UNL A   1      30.602  24.834  23.200  1.00  0.00    -0.147 NA
ATOM     17  C   UNL A   1      32.765  25.236  22.131  1.00  0.00     0.296 A 
ATOM     18  O   UNL A   1      33.321  25.851  21.233  1.00  0.00    -0.265 OA
BRANCH   8  19
ATOM     19  C   UNL A   1      34.576  22.061  25.618  1.00  0.00     0.325 C 
ATOM     20  O   UNL A   1      34.882  21.141  26.372  1.00  0.00    -0.250 OA
BRANCH  19  21
ATOM     21  O   UNL A   1      34.399  23.347  26.016  1.00  0.00    -0.468 OA
ATOM     22  C   UNL A   1      33.238  23.557  26.825  1.00  0.00     0.282 C 
ENDBRANCH  19  21
ENDBRANCH   8  19
ENDBRANCH   6   7
ENDBRANCH   5   6
ENDBRANCH   3   5
ENDBRANCH   2   3
ENDBRANCH   1   2
BRANCH   1  23
ATOM     23  C   UNL A   1      32.814  30.322  26.344  1.00  0.00     0.275 C 
BRANCH  23  24
ATOM     24  O   UNL A   1      33.674  30.088  27.471  1.00  0.00    -0.458 OA
BRANCH  24  25
ATOM     25  C   UNL A   1      34.677  30.980  27.627  1.00  0.00     0.338 C 
ATOM     26  O   UNL A   1      34.623  32.192  27.542  1.00  0.00    -0.246 OA
BRANCH  25  27
ATOM     27  C   UNL A   1      35.896  30.286  28.047  1.00  0.00     0.060 A 
ATOM     28  C   UNL A   1      35.900  29.654  29.293  1.00  0.00     0.016 A 
ATOM     29  C   UNL A   1      37.053  30.364  27.272  1.00  0.00     0.016 A 
ATOM     30  C   UNL A   1      37.078  29.099  29.779  1.00  0.00     0.010 A 
ATOM     31  C   UNL A   1      38.230  29.797  27.757  1.00  0.00     0.010 A 
ATOM     32  C   UNL A   1      38.251  29.178  29.019  1.00  0.00    -0.014 A 
BRANCH  32  33
ATOM     33  C   UNL A   1      39.515  28.631  29.557  1.00  0.00     0.031 A 
ATOM     34  C   UNL A   1      40.138  29.248  30.774  1.00  0.00     0.074 A 
ATOM     35  C   UNL A   1      40.093  27.584  28.942  1.00  0.00     0.049 A 
ATOM     36  N   UNL A   1      41.267  28.950  31.360  1.00  0.00    -0.248 NA
ATOM     37  C   UNL A   1      39.395  30.346  31.415  1.00  0.00     0.031 C 
ATOM     38  C   UNL A   1      39.558  26.903  27.761  1.00  0.00     0.029 A 
ATOM     39  N   UNL A   1      41.262  26.921  29.211  1.00  0.00    -0.354 N 
ATOM     40  C   UNL A   1      41.385  29.834  32.426  1.00  0.00     0.074 A 
ATOM     41  C   UNL A   1      40.218  30.689  32.398  1.00  0.00     0.031 C 
ATOM     42  C   UNL A   1      40.400  25.922  27.405  1.00  0.00     0.029 A 
ATOM     43  C   UNL A   1      41.550  25.928  28.305  1.00  0.00     0.049 A 
ATOM     44  H   UNL A   1      41.839  27.134  29.980  1.00  0.00     0.167 HD
ATOM     45  C   UNL A   1      42.369  29.910  33.352  1.00  0.00     0.034 A 
ATOM     46  C   UNL A   1      42.628  25.127  28.204  1.00  0.00     0.034 A 
ATOM     47  C   UNL A   1      43.512  29.037  33.379  1.00  0.00     0.049 A 
ATOM     48  C   UNL A   1      43.725  25.257  29.226  1.00  0.00     0.074 A 
ATOM     49  C   UNL A   1      44.555  29.015  34.289  1.00  0.00     0.029 A 
ATOM     50  N   UNL A   1      43.764  28.032  32.457  1.00  0.00    -0.354 N 
ATOM     51  N   UNL A   1      43.785  26.042  30.275  1.00  0.00    -0.248 NA
ATOM     52  C   UNL A   1      44.894  24.381  29.063  1.00  0.00     0.031 C 
ATOM     53  C   UNL A   1      45.445  28.007  33.906  1.00  0.00     0.029 A 
ATOM     54  C   UNL A   1      44.950  27.390  32.768  1.00  0.00     0.049 A 
ATOM     55  H   UNL A   1      43.185  27.809  31.693  1.00  0.00     0.167 HD
ATOM     56  C   UNL A   1      44.986  25.745  30.908  1.00  0.00     0.074 A 
ATOM     57  C   UNL A   1      45.609  24.686  30.139  1.00  0.00     0.031 C 
ATOM     58  C   UNL A   1      45.534  26.310  32.012  1.00  0.00     0.034 A 
BRANCH  45  59
ATOM     59  C   UNL A   1      42.233  30.940  34.439  1.00  0.00     0.023 A 
ATOM     60  C   UNL A   1      41.643  30.573  35.666  1.00  0.00     0.012 A 
ATOM     61  C   UNL A   1      42.749  32.242  34.281  1.00  0.00     0.148 A 
ATOM     62  C   UNL A   1      41.551  31.492  36.712  1.00  0.00     0.002 A 
ATOM     63  C   UNL A   1      42.685  33.140  35.341  1.00  0.00     0.091 A 
ATOM     64  F   UNL A   1      43.285  32.577  33.099  1.00  0.00    -0.205 F 
ATOM     65  C   UNL A   1      42.081  32.769  36.554  1.00  0.00     0.022 A 
BRANCH  63  66
ATOM     66  S   UNL A   1      43.400  34.787  35.262  1.00  0.00     0.127 S 
ATOM     67  O   UNL A   1      42.353  35.530  34.564  1.00  0.00    -0.237 OA
ATOM     68  O   UNL A   1      43.549  35.127  36.678  1.00  0.00    -0.237 OA
ATOM     69  O   UNL A   1      44.655  34.646  34.537  1.00  0.00    -0.744 OA
ENDBRANCH  63  66
ENDBRANCH  45  59
BRANCH  46  70
ATOM     70  C   UNL A   1      42.684  24.100  27.125  1.00  0.00     0.023 A 
ATOM     71  C   UNL A   1      43.430  24.367  25.962  1.00  0.00     0.012 A 
ATOM     72  C   UNL A   1      42.067  22.841  27.272  1.00  0.00     0.148 A 
ATOM     73  C   UNL A   1      43.549  23.406  24.958  1.00  0.00     0.002 A 
ATOM     74  C   UNL A   1      42.236  21.868  26.294  1.00  0.00     0.091 A 
ATOM     75  F   UNL A   1      41.344  22.613  28.378  1.00  0.00    -0.205 F 
ATOM     76  C   UNL A   1      42.967  22.153  25.129  1.00  0.00     0.022 A 
BRANCH  74  77
ATOM     77  S   UNL A   1      41.641  20.185  26.497  1.00  0.00     0.127 S 
ATOM     78  O   UNL A   1      40.194  20.367  26.416  1.00  0.00    -0.237 OA
ATOM     79  O   UNL A   1      42.242  19.510  25.346  1.00  0.00    -0.237 OA
ATOM     80  O   UNL A   1      42.154  19.740  27.786  1.00  0.00    -0.744 OA
ENDBRANCH  74  77
ENDBRANCH  46  70
BRANCH  58  81
ATOM     81  C   UNL A   1      46.882  25.808  32.459  1.00  0.00     0.023 A 
ATOM     82  C   UNL A   1      48.046  26.410  31.944  1.00  0.00     0.012 A 
ATOM     83  C   UNL A   1      46.995  24.820  33.458  1.00  0.00     0.148 A 
ATOM     84  C   UNL A   1      49.305  26.024  32.403  1.00  0.00     0.002 A 
ATOM     85  C   UNL A   1      48.251  24.474  33.942  1.00  0.00     0.091 A 
ATOM     86  F   UNL A   1      45.874  24.246  33.920  1.00  0.00    -0.205 F 
ATOM     87  C   UNL A   1      49.407  25.068  33.410  1.00  0.00     0.022 A 
BRANCH  85  88
ATOM     88  S   UNL A   1      48.470  23.325  35.306  1.00  0.00     0.127 S 
ATOM     89  O   UNL A   1      47.714  23.981  36.372  1.00  0.00    -0.237 OA
ATOM     90  O   UNL A   1      47.857  22.102  34.788  1.00  0.00    -0.237 OA
ATOM     91  O   UNL A   1      49.907  23.233  35.523  1.00  0.00    -0.744 OA
ENDBRANCH  85  88
ENDBRANCH  58  81
ENDBRANCH  32  33
ENDBRANCH  25  27
ENDBRANCH  24  25
ENDBRANCH  23  24
ENDBRANCH   1  23
TORSDOF 18
ENDMDL
MODEL 3
REMARK VINA RESULT:     -10.8      2.235      7.915
REMARK SMILES COC(=O)[C@H]1Sc2nnc(CCC(=O)OCCOC(=O)c3ccc(-c4c5nc(c(-c6cccc(S(=O)(=O)[O-])c6F)c6ccc([nH]6)c(-c6cccc(S(=O)(=O)[O-])c6F)c6nc(c(-c7cccc(S(=O)(=O)[O-])c7F)c7ccc4[nH]7)C=C6)C=C5)cc3)c(=O)n2N=C1C
REMARK SMILES IDX 16 1 15 2 13 3 14 4 12 5 11 6 10 7 5 8 6 9 88 10 7 11 87 12
REMARK SMILES IDX 89 13 8 14 86 15 9 16 84 17 85 18 3 19 4 20 2 21 1 22 17 23
REMARK SMILES IDX 18 24 19 25 20 26 21 27 22 28 83 29 23 30 82 31 24 32 25 33
REMARK SMILES IDX 26 34 76 35 27 36 81 37 75 38 77 39 28 40 80 41 74 42 73 43
REMARK SMILES IDX 29 45 61 46 41 47 60 48 42 49 45 50 59 51 78 52 43 53 44 54
REMARK SMILES IDX 58 56 79 57 46 58 30 59 31 60 39 61 32 62 34 63 40 64 33 65
REMARK SMILES IDX 35 66 36 67 37 68 38 69 62 70 63 71 71 72 64 73 66 74 72 75
REMARK SMILES IDX 65 76 67 77 68 78 69 79 70 80 47 81 48 82 56 83 49 84 51 85
REMARK SMILES IDX 57 86 50 87 52 88 53 89 54 90 55 91
REMARK H PARENT 77 44 45 55
REMARK Flexibility Score: inf
ROOT
ATOM      1  C   UNL A   1      32.079  31.173  26.738  1.00  0.00     0.274 C 
ENDROOT
BRANCH   1   2
ATOM      2  O   UNL A   1      31.486  30.619  25.547  1.00  0.00    -0.462 OA
BRANCH   2   3
ATOM      3  C   UNL A   1      32.100  29.538  25.003  1.00  0.00     0.306 C 
ATOM      4  O   UNL A   1      33.310  29.373  24.947  1.00  0.00    -0.252 OA
BRANCH   3   5
ATOM      5  C   UNL A   1      31.110  28.582  24.376  1.00  0.00     0.129 C 
BRANCH   5   6
ATOM      6  C   UNL A   1      31.426  28.194  22.933  1.00  0.00     0.076 C 
BRANCH   6   7
ATOM      7  C   UNL A   1      31.533  26.694  22.802  1.00  0.00     0.131 A 
ATOM      8  C   UNL A   1      33.772  22.210  23.759  1.00  0.00     0.210 C 
ATOM      9  S   UNL A   1      32.130  22.337  23.053  1.00  0.00    -0.063 SA
ATOM     10  C   UNL A   1      34.705  23.256  23.233  1.00  0.00     0.061 C 
ATOM     11  C   UNL A   1      31.949  24.068  23.028  1.00  0.00     0.214 A 
ATOM     12  N   UNL A   1      34.370  24.421  22.780  1.00  0.00    -0.171 NA
ATOM     13  C   UNL A   1      36.189  22.982  23.341  1.00  0.00     0.065 C 
ATOM     14  N   UNL A   1      30.749  24.541  23.153  1.00  0.00    -0.123 NA
ATOM     15  N   UNL A   1      33.059  24.836  22.780  1.00  0.00    -0.169 N 
ATOM     16  N   UNL A   1      30.556  25.930  23.189  1.00  0.00    -0.147 NA
ATOM     17  C   UNL A   1      32.837  26.116  22.324  1.00  0.00     0.296 A 
ATOM     18  O   UNL A   1      33.560  26.765  21.583  1.00  0.00    -0.265 OA
BRANCH   8  19
ATOM     19  C   UNL A   1      33.800  22.121  25.264  1.00  0.00     0.325 C 
ATOM     20  O   UNL A   1      33.414  23.042  25.979  1.00  0.00    -0.250 OA
BRANCH  19  21
ATOM     21  O   UNL A   1      34.209  20.913  25.730  1.00  0.00    -0.468 OA
ATOM     22  C   UNL A   1      33.403  19.813  25.297  1.00  0.00     0.282 C 
ENDBRANCH  19  21
ENDBRANCH   8  19
ENDBRANCH   6   7
ENDBRANCH   5   6
ENDBRANCH   3   5
ENDBRANCH   2   3
ENDBRANCH   1   2
BRANCH   1  23
ATOM     23  C   UNL A   1      31.929  32.696  26.785  1.00  0.00     0.275 C 
BRANCH  23  24
ATOM     24  O   UNL A   1      32.567  33.236  27.954  1.00  0.00    -0.458 OA
BRANCH  24  25
ATOM     25  C   UNL A   1      33.754  33.843  27.736  1.00  0.00     0.338 C 
ATOM     26  O   UNL A   1      33.979  34.827  27.057  1.00  0.00    -0.246 OA
BRANCH  25  27
ATOM     27  C   UNL A   1      34.792  33.208  28.550  1.00  0.00     0.060 A 
ATOM     28  C   UNL A   1      36.094  33.708  28.467  1.00  0.00     0.016 A 
ATOM     29  C   UNL A   1      34.504  32.061  29.289  1.00  0.00     0.016 A 
ATOM     30  C   UNL A   1      37.127  33.050  29.123  1.00  0.00     0.010 A 
ATOM     31  C   UNL A   1      35.540  31.408  29.955  1.00  0.00     0.010 A 
ATOM     32  C   UNL A   1      36.857  31.890  29.861  1.00  0.00    -0.014 A 
BRANCH  32  33
ATOM     33  C   UNL A   1      37.964  31.162  30.519  1.00  0.00     0.031 A 
ATOM     34  C   UNL A   1      38.282  31.429  31.959  1.00  0.00     0.074 A 
ATOM     35  C   UNL A   1      38.675  30.268  29.809  1.00  0.00     0.049 A 
ATOM     36  N   UNL A   1      39.244  30.938  32.693  1.00  0.00    -0.248 NA
ATOM     37  C   UNL A   1      37.404  32.375  32.668  1.00  0.00     0.031 C 
ATOM     38  C   UNL A   1      38.433  29.925  28.406  1.00  0.00     0.029 A 
ATOM     39  N   UNL A   1      39.752  29.498  30.163  1.00  0.00    -0.354 N 
ATOM     40  C   UNL A   1      39.106  31.527  33.943  1.00  0.00     0.074 A 
ATOM     41  C   UNL A   1      37.973  32.424  33.866  1.00  0.00     0.031 C 
ATOM     42  C   UNL A   1      39.340  29.017  28.016  1.00  0.00     0.029 A 
ATOM     43  C   UNL A   1      40.249  28.743  29.127  1.00  0.00     0.049 A 
ATOM     44  H   UNL A   1      40.133  29.487  31.071  1.00  0.00     0.167 HD
ATOM     45  C   UNL A   1      39.847  31.323  35.058  1.00  0.00     0.034 A 
ATOM     46  C   UNL A   1      41.326  27.934  29.077  1.00  0.00     0.034 A 
ATOM     47  C   UNL A   1      40.957  30.411  35.125  1.00  0.00     0.049 A 
ATOM     48  C   UNL A   1      42.153  27.753  30.320  1.00  0.00     0.074 A 
ATOM     49  C   UNL A   1      41.759  30.112  36.213  1.00  0.00     0.029 A 
ATOM     50  N   UNL A   1      41.423  29.649  34.063  1.00  0.00    -0.354 N 
ATOM     51  N   UNL A   1      41.962  28.253  31.518  1.00  0.00    -0.248 NA
ATOM     52  C   UNL A   1      43.333  26.883  30.214  1.00  0.00     0.031 C 
ATOM     53  C   UNL A   1      42.719  29.182  35.803  1.00  0.00     0.029 A 
ATOM     54  C   UNL A   1      42.507  28.888  34.465  1.00  0.00     0.049 A 
ATOM     55  H   UNL A   1      41.039  29.650  33.157  1.00  0.00     0.167 HD
ATOM     56  C   UNL A   1      42.984  27.748  32.312  1.00  0.00     0.074 A 
ATOM     57  C   UNL A   1      43.775  26.877  31.465  1.00  0.00     0.031 C 
ATOM     58  C   UNL A   1      43.257  27.996  33.616  1.00  0.00     0.034 A 
BRANCH  45  59
ATOM     59  C   UNL A   1      39.455  32.062  36.308  1.00  0.00     0.023 A 
ATOM     60  C   UNL A   1      40.104  33.273  36.624  1.00  0.00     0.012 A 
ATOM     61  C   UNL A   1      38.404  31.606  37.128  1.00  0.00     0.148 A 
ATOM     62  C   UNL A   1      39.727  34.008  37.748  1.00  0.00     0.002 A 
ATOM     63  C   UNL A   1      38.010  32.363  38.226  1.00  0.00     0.091 A 
ATOM     64  F   UNL A   1      37.815  30.441  36.823  1.00  0.00    -0.205 F 
ATOM     65  C   UNL A   1      38.675  33.560  38.541  1.00  0.00     0.022 A 
BRANCH  63  66
ATOM     66  S   UNL A   1      36.621  31.908  39.271  1.00  0.00     0.127 S 
ATOM     67  O   UNL A   1      36.442  30.498  38.926  1.00  0.00    -0.237 OA
ATOM     68  O   UNL A   1      37.155  32.144  40.614  1.00  0.00    -0.237 OA
ATOM     69  O   UNL A   1      35.526  32.787  38.890  1.00  0.00    -0.744 OA
ENDBRANCH  63  66
ENDBRANCH  45  59
BRANCH  46  70
ATOM     70  C   UNL A   1      41.637  27.200  27.818  1.00  0.00     0.023 A 
ATOM     71  C   UNL A   1      42.186  27.905  26.730  1.00  0.00     0.012 A 
ATOM     72  C   UNL A   1      41.460  25.806  27.714  1.00  0.00     0.148 A 
ATOM     73  C   UNL A   1      42.541  27.239  25.557  1.00  0.00     0.002 A 
ATOM     74  C   UNL A   1      41.868  25.140  26.564  1.00  0.00     0.091 A 
ATOM     75  F   UNL A   1      40.916  25.155  28.752  1.00  0.00    -0.205 F 
ATOM     76  C   UNL A   1      42.397  25.856  25.479  1.00  0.00     0.022 A 
BRANCH  74  77
ATOM     77  S   UNL A   1      41.849  23.347  26.431  1.00  0.00     0.127 S 
ATOM     78  O   UNL A   1      42.494  23.136  25.138  1.00  0.00    -0.237 OA
ATOM     79  O   UNL A   1      42.649  22.949  27.590  1.00  0.00    -0.237 OA
ATOM     80  O   UNL A   1      40.447  22.963  26.512  1.00  0.00    -0.744 OA
ENDBRANCH  74  77
ENDBRANCH  46  70
BRANCH  58  81
ATOM     81  C   UNL A   1      44.466  27.330  34.218  1.00  0.00     0.023 A 
ATOM     82  C   UNL A   1      45.716  27.975  34.145  1.00  0.00     0.012 A 
ATOM     83  C   UNL A   1      44.348  26.125  34.940  1.00  0.00     0.148 A 
ATOM     84  C   UNL A   1      46.834  27.423  34.767  1.00  0.00     0.002 A 
ATOM     85  C   UNL A   1      45.458  25.605  35.594  1.00  0.00     0.091 A 
ATOM     86  F   UNL A   1      43.153  25.517  34.980  1.00  0.00    -0.205 F 
ATOM     87  C   UNL A   1      46.704  26.248  35.501  1.00  0.00     0.022 A 
BRANCH  85  88
ATOM     88  S   UNL A   1      45.360  24.151  36.645  1.00  0.00     0.127 S 
ATOM     89  O   UNL A   1      44.474  24.614  37.712  1.00  0.00    -0.237 OA
ATOM     90  O   UNL A   1      44.768  23.157  35.749  1.00  0.00    -0.237 OA
ATOM     91  O   UNL A   1      46.728  23.857  37.049  1.00  0.00    -0.744 OA
ENDBRANCH  85  88
ENDBRANCH  58  81
ENDBRANCH  32  33
ENDBRANCH  25  27
ENDBRANCH  24  25
ENDBRANCH  23  24
ENDBRANCH   1  23
TORSDOF 18
ENDMDL
