MODEL 1
REMARK VINA RESULT:     -10.6      0.000      0.000
REMARK SMILES CCC(CC)(CC(=O)NNC(=O)c1cc(C)oc1C)C(=O)OCCOC(=O)c1ccc(-c2c3nc(c(-c4cccc(S(=O)(=O)[O-])c4F)c4ccc([nH]4)c(-c4cccc(S(=O)(=O)[O-])c4F)c4nc(c(-c5cccc(S(=O)(=O)[O-])c5F)c5ccc2[nH]5)C=C4)C=C3)cc1
REMARK SMILES IDX 23 1 22 2 20 3 21 4 3 5 2 6 1 7 4 8 5 9 6 10 7 11 8 12 9 13
REMARK SMILES IDX 10 15 11 16 12 18 13 19 14 20 18 21 15 22 17 23 19 24 16 25
REMARK SMILES IDX 24 26 25 27 26 28 27 29 28 30 29 31 90 32 30 33 89 34 31 35
REMARK SMILES IDX 32 36 33 37 83 38 34 39 88 40 82 41 84 42 35 43 87 44 81 45
REMARK SMILES IDX 80 46 36 48 68 49 48 50 67 51 49 52 52 53 66 54 85 55 50 56
REMARK SMILES IDX 51 57 65 59 86 60 53 61 37 62 38 63 46 64 39 65 41 66 47 67
REMARK SMILES IDX 40 68 42 69 43 70 44 71 45 72 69 73 70 74 78 75 71 76 73 77
REMARK SMILES IDX 79 78 72 79 74 80 75 81 76 82 77 83 54 84 55 85 63 86 56 87
REMARK SMILES IDX 58 88 64 89 57 90 59 91 60 92 61 93 62 94
REMARK H PARENT 9 14 10 17 84 47 52 58
REMARK Flexibility Score: inf
ROOT
ATOM      1  C   UNL A   1      31.402  31.556  26.433  1.00  0.00     0.274 C 
ENDROOT
BRANCH   1   2
ATOM      2  O   UNL A   1      32.380  30.506  26.281  1.00  0.00    -0.462 OA
BRANCH   2   3
ATOM      3  C   UNL A   1      31.929  29.239  26.482  1.00  0.00     0.312 C 
ATOM      4  O   UNL A   1      31.413  28.865  27.528  1.00  0.00    -0.252 OA
BRANCH   3   5
ATOM      5  C   UNL A   1      32.260  28.295  25.307  1.00  0.00     0.076 C 
BRANCH   5   6
ATOM      6  C   UNL A   1      33.285  28.955  24.334  1.00  0.00     0.016 C 
ATOM      7  C   UNL A   1      33.775  28.138  23.141  1.00  0.00     0.005 C 
ENDBRANCH   5   6
BRANCH   5   8
ATOM      8  C   UNL A   1      30.893  28.041  24.605  1.00  0.00     0.016 C 
ATOM      9  C   UNL A   1      30.327  29.213  23.811  1.00  0.00     0.005 C 
ENDBRANCH   5   8
BRANCH   5  10
ATOM     10  C   UNL A   1      32.843  26.935  25.807  1.00  0.00     0.120 C 
BRANCH  10  11
ATOM     11  C   UNL A   1      31.851  25.781  25.928  1.00  0.00     0.239 C 
ATOM     12  O   UNL A   1      31.057  25.722  26.869  1.00  0.00    -0.273 OA
ATOM     13  N   UNL A   1      31.805  24.801  24.970  1.00  0.00    -0.267 N 
ATOM     14  H   UNL A   1      31.231  24.021  25.143  1.00  0.00     0.191 HD
BRANCH  13  15
ATOM     15  N   UNL A   1      32.512  24.830  23.773  1.00  0.00    -0.263 N 
ATOM     16  C   UNL A   1      33.564  23.999  23.436  1.00  0.00     0.273 C 
ATOM     17  H   UNL A   1      32.240  25.502  23.107  1.00  0.00     0.191 HD
ATOM     18  O   UNL A   1      34.314  24.378  22.538  1.00  0.00    -0.267 OA
BRANCH  16  19
ATOM     19  C   UNL A   1      33.724  22.719  24.102  1.00  0.00     0.082 A 
ATOM     20  C   UNL A   1      33.185  21.434  23.781  1.00  0.00     0.059 A 
ATOM     21  C   UNL A   1      34.582  22.494  25.169  1.00  0.00     0.113 A 
ATOM     22  C   UNL A   1      33.726  20.536  24.674  1.00  0.00     0.101 A 
ATOM     23  O   UNL A   1      34.567  21.180  25.520  1.00  0.00    -0.466 OA
ATOM     24  C   UNL A   1      35.476  23.359  25.972  1.00  0.00     0.088 C 
ATOM     25  C   UNL A   1      33.605  19.076  24.867  1.00  0.00     0.087 C 
ENDBRANCH  16  19
ENDBRANCH  13  15
ENDBRANCH  10  11
ENDBRANCH   5  10
ENDBRANCH   3   5
ENDBRANCH   2   3
ENDBRANCH   1   2
BRANCH   1  26
ATOM     26  C   UNL A   1      32.056  32.874  26.853  1.00  0.00     0.275 C 
BRANCH  26  27
ATOM     27  O   UNL A   1      33.082  32.617  27.823  1.00  0.00    -0.458 OA
BRANCH  27  28
ATOM     28  C   UNL A   1      34.123  33.483  27.824  1.00  0.00     0.338 C 
ATOM     29  O   UNL A   1      34.161  34.587  27.309  1.00  0.00    -0.246 OA
BRANCH  28  30
ATOM     30  C   UNL A   1      35.264  32.882  28.549  1.00  0.00     0.060 A 
ATOM     31  C   UNL A   1      36.563  33.333  28.327  1.00  0.00     0.016 A 
ATOM     32  C   UNL A   1      35.047  31.808  29.412  1.00  0.00     0.016 A 
ATOM     33  C   UNL A   1      37.648  32.665  28.894  1.00  0.00     0.010 A 
ATOM     34  C   UNL A   1      36.131  31.202  30.060  1.00  0.00     0.010 A 
ATOM     35  C   UNL A   1      37.451  31.593  29.780  1.00  0.00    -0.014 A 
BRANCH  35  36
ATOM     36  C   UNL A   1      38.626  30.896  30.385  1.00  0.00     0.031 A 
ATOM     37  C   UNL A   1      39.136  31.268  31.757  1.00  0.00     0.074 A 
ATOM     38  C   UNL A   1      39.207  29.863  29.738  1.00  0.00     0.049 A 
ATOM     39  N   UNL A   1      40.048  30.666  32.482  1.00  0.00    -0.248 NA
ATOM     40  C   UNL A   1      38.520  32.425  32.425  1.00  0.00     0.031 C 
ATOM     41  C   UNL A   1      38.829  29.374  28.412  1.00  0.00     0.029 A 
ATOM     42  N   UNL A   1      40.250  29.045  30.108  1.00  0.00    -0.354 N 
ATOM     43  C   UNL A   1      40.058  31.323  33.706  1.00  0.00     0.074 A 
ATOM     44  C   UNL A   1      39.120  32.417  33.606  1.00  0.00     0.031 C 
ATOM     45  C   UNL A   1      39.630  28.351  28.076  1.00  0.00     0.029 A 
ATOM     46  C   UNL A   1      40.621  28.153  29.130  1.00  0.00     0.049 A 
ATOM     47  H   UNL A   1      40.688  29.095  30.988  1.00  0.00     0.167 HD
ATOM     48  C   UNL A   1      40.735  31.009  34.835  1.00  0.00     0.034 A 
ATOM     49  C   UNL A   1      41.670  27.307  29.055  1.00  0.00     0.034 A 
ATOM     50  C   UNL A   1      41.718  29.968  34.940  1.00  0.00     0.049 A 
ATOM     51  C   UNL A   1      42.611  27.193  30.220  1.00  0.00     0.074 A 
ATOM     52  C   UNL A   1      42.444  29.577  36.051  1.00  0.00     0.029 A 
ATOM     53  N   UNL A   1      42.158  29.194  33.881  1.00  0.00    -0.354 N 
ATOM     54  N   UNL A   1      42.494  27.696  31.423  1.00  0.00    -0.248 NA
ATOM     55  C   UNL A   1      43.826  26.387  30.022  1.00  0.00     0.031 C 
ATOM     56  C   UNL A   1      43.368  28.604  35.648  1.00  0.00     0.029 A 
ATOM     57  C   UNL A   1      43.200  28.380  34.292  1.00  0.00     0.049 A 
ATOM     58  H   UNL A   1      41.785  29.218  32.971  1.00  0.00     0.167 HD
ATOM     59  C   UNL A   1      43.607  27.256  32.131  1.00  0.00     0.074 A 
ATOM     60  C   UNL A   1      44.376  26.425  31.229  1.00  0.00     0.031 C 
ATOM     61  C   UNL A   1      43.961  27.534  33.411  1.00  0.00     0.034 A 
BRANCH  48  62
ATOM     62  C   UNL A   1      40.389  31.771  36.082  1.00  0.00     0.023 A 
ATOM     63  C   UNL A   1      41.318  32.708  36.578  1.00  0.00     0.012 A 
ATOM     64  C   UNL A   1      39.143  31.624  36.714  1.00  0.00     0.148 A 
ATOM     65  C   UNL A   1      41.010  33.493  37.687  1.00  0.00     0.002 A 
ATOM     66  C   UNL A   1      38.837  32.418  37.814  1.00  0.00     0.091 A 
ATOM     67  F   UNL A   1      38.289  30.709  36.234  1.00  0.00    -0.205 F 
ATOM     68  C   UNL A   1      39.767  33.354  38.299  1.00  0.00     0.022 A 
BRANCH  66  69
ATOM     69  S   UNL A   1      37.263  32.326  38.673  1.00  0.00     0.127 S 
ATOM     70  O   UNL A   1      37.582  32.984  39.941  1.00  0.00    -0.237 OA
ATOM     71  O   UNL A   1      36.386  33.094  37.790  1.00  0.00    -0.237 OA
ATOM     72  O   UNL A   1      36.941  30.910  38.777  1.00  0.00    -0.744 OA
ENDBRANCH  66  69
ENDBRANCH  48  62
BRANCH  49  73
ATOM     73  C   UNL A   1      41.911  26.542  27.799  1.00  0.00     0.023 A 
ATOM     74  C   UNL A   1      42.514  27.165  26.690  1.00  0.00     0.012 A 
ATOM     75  C   UNL A   1      41.558  25.181  27.711  1.00  0.00     0.148 A 
ATOM     76  C   UNL A   1      42.751  26.443  25.516  1.00  0.00     0.002 A 
ATOM     77  C   UNL A   1      41.861  24.453  26.568  1.00  0.00     0.091 A 
ATOM     78  F   UNL A   1      40.935  24.614  28.755  1.00  0.00    -0.205 F 
ATOM     79  C   UNL A   1      42.444  25.086  25.462  1.00  0.00     0.022 A 
BRANCH  77  80
ATOM     80  S   UNL A   1      41.632  22.673  26.513  1.00  0.00     0.127 S 
ATOM     81  O   UNL A   1      42.295  22.244  27.740  1.00  0.00    -0.237 OA
ATOM     82  O   UNL A   1      40.174  22.543  26.523  1.00  0.00    -0.237 OA
ATOM     83  O   UNL A   1      42.253  22.252  25.262  1.00  0.00    -0.744 OA
ENDBRANCH  77  80
ENDBRANCH  49  73
BRANCH  61  84
ATOM     84  C   UNL A   1      45.252  26.954  33.924  1.00  0.00     0.023 A 
ATOM     85  C   UNL A   1      46.418  27.744  33.900  1.00  0.00     0.012 A 
ATOM     86  C   UNL A   1      45.303  25.667  34.492  1.00  0.00     0.148 A 
ATOM     87  C   UNL A   1      47.620  27.253  34.410  1.00  0.00     0.002 A 
ATOM     88  C   UNL A   1      46.492  25.201  35.042  1.00  0.00     0.091 A 
ATOM     89  F   UNL A   1      44.190  24.917  34.483  1.00  0.00    -0.205 F 
ATOM     90  C   UNL A   1      47.654  25.988  34.993  1.00  0.00     0.022 A 
BRANCH  88  91
ATOM     91  S   UNL A   1      46.594  23.626  35.899  1.00  0.00     0.127 S 
ATOM     92  O   UNL A   1      47.986  23.618  36.346  1.00  0.00    -0.237 OA
ATOM     93  O   UNL A   1      45.611  23.785  36.973  1.00  0.00    -0.237 OA
ATOM     94  O   UNL A   1      46.242  22.615  34.911  1.00  0.00    -0.744 OA
ENDBRANCH  88  91
ENDBRANCH  61  84
ENDBRANCH  35  36
ENDBRANCH  28  30
ENDBRANCH  27  28
ENDBRANCH  26  27
ENDBRANCH   1  26
TORSDOF 20
ENDMDL
MODEL 2
REMARK VINA RESULT:     -10.3      1.750      2.456
REMARK SMILES CCC(CC)(CC(=O)NNC(=O)c1cc(C)oc1C)C(=O)OCCOC(=O)c1ccc(-c2c3nc(c(-c4cccc(S(=O)(=O)[O-])c4F)c4ccc([nH]4)c(-c4cccc(S(=O)(=O)[O-])c4F)c4nc(c(-c5cccc(S(=O)(=O)[O-])c5F)c5ccc2[nH]5)C=C4)C=C3)cc1
REMARK SMILES IDX 23 1 22 2 20 3 21 4 3 5 2 6 1 7 4 8 5 9 6 10 7 11 8 12 9 13
REMARK SMILES IDX 10 15 11 16 12 18 13 19 14 20 18 21 15 22 17 23 19 24 16 25
REMARK SMILES IDX 24 26 25 27 26 28 27 29 28 30 29 31 90 32 30 33 89 34 31 35
REMARK SMILES IDX 32 36 33 37 83 38 34 39 88 40 82 41 84 42 35 43 87 44 81 45
REMARK SMILES IDX 80 46 36 48 68 49 48 50 67 51 49 52 52 53 66 54 85 55 50 56
REMARK SMILES IDX 51 57 65 59 86 60 53 61 37 62 38 63 46 64 39 65 41 66 47 67
REMARK SMILES IDX 40 68 42 69 43 70 44 71 45 72 69 73 70 74 78 75 71 76 73 77
REMARK SMILES IDX 79 78 72 79 74 80 75 81 76 82 77 83 54 84 55 85 63 86 56 87
REMARK SMILES IDX 58 88 64 89 57 90 59 91 60 92 61 93 62 94
REMARK H PARENT 9 14 10 17 84 47 52 58
REMARK Flexibility Score: inf
ROOT
ATOM      1  C   UNL A   1      30.844  31.537  26.113  1.00  0.00     0.274 C 
ENDROOT
BRANCH   1   2
ATOM      2  O   UNL A   1      31.652  30.486  25.543  1.00  0.00    -0.462 OA
BRANCH   2   3
ATOM      3  C   UNL A   1      31.035  29.690  24.629  1.00  0.00     0.312 C 
ATOM      4  O   UNL A   1      30.172  30.091  23.860  1.00  0.00    -0.252 OA
BRANCH   3   5
ATOM      5  C   UNL A   1      31.440  28.207  24.761  1.00  0.00     0.076 C 
BRANCH   5   6
ATOM      6  C   UNL A   1      32.128  27.937  26.135  1.00  0.00     0.016 C 
ATOM      7  C   UNL A   1      31.260  27.449  27.292  1.00  0.00     0.005 C 
ENDBRANCH   5   6
BRANCH   5   8
ATOM      8  C   UNL A   1      32.421  27.957  23.577  1.00  0.00     0.016 C 
ATOM      9  C   UNL A   1      33.834  27.538  23.963  1.00  0.00     0.005 C 
ENDBRANCH   5   8
BRANCH   5  10
ATOM     10  C   UNL A   1      30.208  27.258  24.619  1.00  0.00     0.120 C 
BRANCH  10  11
ATOM     11  C   UNL A   1      30.405  26.027  23.737  1.00  0.00     0.239 C 
ATOM     12  O   UNL A   1      30.712  26.140  22.549  1.00  0.00    -0.273 OA
ATOM     13  N   UNL A   1      30.273  24.768  24.262  1.00  0.00    -0.267 N 
ATOM     14  H   UNL A   1      30.298  24.008  23.638  1.00  0.00     0.191 HD
BRANCH  13  15
ATOM     15  N   UNL A   1      30.104  24.487  25.613  1.00  0.00    -0.263 N 
ATOM     16  C   UNL A   1      30.963  23.738  26.396  1.00  0.00     0.273 C 
ATOM     17  H   UNL A   1      29.303  24.854  26.051  1.00  0.00     0.191 HD
ATOM     18  O   UNL A   1      30.508  23.268  27.438  1.00  0.00    -0.267 OA
BRANCH  16  19
ATOM     19  C   UNL A   1      32.350  23.569  26.001  1.00  0.00     0.082 A 
ATOM     20  C   UNL A   1      33.479  24.424  26.195  1.00  0.00     0.059 A 
ATOM     21  C   UNL A   1      32.865  22.415  25.430  1.00  0.00     0.113 A 
ATOM     22  C   UNL A   1      34.581  23.751  25.717  1.00  0.00     0.101 A 
ATOM     23  O   UNL A   1      34.207  22.535  25.246  1.00  0.00    -0.466 OA
ATOM     24  C   UNL A   1      32.275  21.127  24.997  1.00  0.00     0.088 C 
ATOM     25  C   UNL A   1      36.025  24.057  25.646  1.00  0.00     0.087 C 
ENDBRANCH  16  19
ENDBRANCH  13  15
ENDBRANCH  10  11
ENDBRANCH   5  10
ENDBRANCH   3   5
ENDBRANCH   2   3
ENDBRANCH   1   2
BRANCH   1  26
ATOM     26  C   UNL A   1      31.706  32.699  26.612  1.00  0.00     0.275 C 
BRANCH  26  27
ATOM     27  O   UNL A   1      32.900  32.187  27.222  1.00  0.00    -0.458 OA
BRANCH  27  28
ATOM     28  C   UNL A   1      33.691  33.103  27.829  1.00  0.00     0.338 C 
ATOM     29  O   UNL A   1      33.458  34.289  27.984  1.00  0.00    -0.246 OA
BRANCH  28  30
ATOM     30  C   UNL A   1      34.939  32.452  28.286  1.00  0.00     0.060 A 
ATOM     31  C   UNL A   1      34.910  31.178  28.848  1.00  0.00     0.016 A 
ATOM     32  C   UNL A   1      36.146  33.147  28.218  1.00  0.00     0.016 A 
ATOM     33  C   UNL A   1      36.061  30.632  29.416  1.00  0.00     0.010 A 
ATOM     34  C   UNL A   1      37.322  32.555  28.697  1.00  0.00     0.010 A 
ATOM     35  C   UNL A   1      37.291  31.306  29.341  1.00  0.00    -0.014 A 
BRANCH  35  36
ATOM     36  C   UNL A   1      38.515  30.700  29.947  1.00  0.00     0.031 A 
ATOM     37  C   UNL A   1      39.027  31.150  31.294  1.00  0.00     0.074 A 
ATOM     38  C   UNL A   1      39.144  29.680  29.325  1.00  0.00     0.049 A 
ATOM     39  N   UNL A   1      39.985  30.627  32.022  1.00  0.00    -0.248 NA
ATOM     40  C   UNL A   1      38.357  32.293  31.933  1.00  0.00     0.031 C 
ATOM     41  C   UNL A   1      38.772  29.122  28.025  1.00  0.00     0.029 A 
ATOM     42  N   UNL A   1      40.239  28.937  29.702  1.00  0.00    -0.354 N 
ATOM     43  C   UNL A   1      39.979  31.328  33.222  1.00  0.00     0.074 A 
ATOM     44  C   UNL A   1      38.977  32.362  33.103  1.00  0.00     0.031 C 
ATOM     45  C   UNL A   1      39.624  28.135  27.709  1.00  0.00     0.029 A 
ATOM     46  C   UNL A   1      40.644  28.032  28.749  1.00  0.00     0.049 A 
ATOM     47  H   UNL A   1      40.689  29.043  30.571  1.00  0.00     0.167 HD
ATOM     48  C   UNL A   1      40.692  31.094  34.347  1.00  0.00     0.034 A 
ATOM     49  C   UNL A   1      41.738  27.247  28.684  1.00  0.00     0.034 A 
ATOM     50  C   UNL A   1      41.737  30.116  34.469  1.00  0.00     0.049 A 
ATOM     51  C   UNL A   1      42.705  27.228  29.833  1.00  0.00     0.074 A 
ATOM     52  C   UNL A   1      42.504  29.808  35.579  1.00  0.00     0.029 A 
ATOM     53  N   UNL A   1      42.201  29.331  33.429  1.00  0.00    -0.354 N 
ATOM     54  N   UNL A   1      42.580  27.768  31.020  1.00  0.00    -0.248 NA
ATOM     55  C   UNL A   1      43.961  26.488  29.639  1.00  0.00     0.031 C 
ATOM     56  C   UNL A   1      43.475  28.876  35.192  1.00  0.00     0.029 A 
ATOM     57  C   UNL A   1      43.296  28.594  33.848  1.00  0.00     0.049 A 
ATOM     58  H   UNL A   1      41.812  29.301  32.527  1.00  0.00     0.167 HD
ATOM     59  C   UNL A   1      43.730  27.418  31.721  1.00  0.00     0.074 A 
ATOM     60  C   UNL A   1      44.530  26.600  30.833  1.00  0.00     0.031 C 
ATOM     61  C   UNL A   1      44.090  27.761  32.982  1.00  0.00     0.034 A 
BRANCH  48  62
ATOM     62  C   UNL A   1      40.325  31.880  35.573  1.00  0.00     0.023 A 
ATOM     63  C   UNL A   1      41.068  33.040  35.878  1.00  0.00     0.012 A 
ATOM     64  C   UNL A   1      39.224  31.529  36.372  1.00  0.00     0.148 A 
ATOM     65  C   UNL A   1      40.716  33.841  36.961  1.00  0.00     0.002 A 
ATOM     66  C   UNL A   1      38.871  32.339  37.446  1.00  0.00     0.091 A 
ATOM     67  F   UNL A   1      38.551  30.409  36.072  1.00  0.00    -0.205 F 
ATOM     68  C   UNL A   1      39.614  33.496  37.739  1.00  0.00     0.022 A 
BRANCH  66  69
ATOM     69  S   UNL A   1      37.465  31.992  38.507  1.00  0.00     0.127 S 
ATOM     70  O   UNL A   1      38.045  32.192  39.836  1.00  0.00    -0.237 OA
ATOM     71  O   UNL A   1      36.510  33.020  38.097  1.00  0.00    -0.237 OA
ATOM     72  O   UNL A   1      37.062  30.625  38.209  1.00  0.00    -0.744 OA
ENDBRANCH  66  69
ENDBRANCH  48  62
BRANCH  49  73
ATOM     73  C   UNL A   1      42.001  26.452  27.450  1.00  0.00     0.023 A 
ATOM     74  C   UNL A   1      42.539  27.069  26.305  1.00  0.00     0.012 A 
ATOM     75  C   UNL A   1      41.735  25.068  27.420  1.00  0.00     0.148 A 
ATOM     76  C   UNL A   1      42.797  26.321  25.154  1.00  0.00     0.002 A 
ATOM     77  C   UNL A   1      42.060  24.318  26.297  1.00  0.00     0.091 A 
ATOM     78  F   UNL A   1      41.171  24.502  28.498  1.00  0.00    -0.205 F 
ATOM     79  C   UNL A   1      42.576  24.946  25.155  1.00  0.00     0.022 A 
BRANCH  77  80
ATOM     80  S   UNL A   1      41.944  22.527  26.311  1.00  0.00     0.127 S 
ATOM     81  O   UNL A   1      42.934  22.152  25.306  1.00  0.00    -0.237 OA
ATOM     82  O   UNL A   1      42.312  22.199  27.690  1.00  0.00    -0.237 OA
ATOM     83  O   UNL A   1      40.553  22.237  25.987  1.00  0.00    -0.744 OA
ENDBRANCH  77  80
ENDBRANCH  49  73
BRANCH  61  84
ATOM     84  C   UNL A   1      45.420  27.276  33.490  1.00  0.00     0.023 A 
ATOM     85  C   UNL A   1      45.556  25.931  33.888  1.00  0.00     0.012 A 
ATOM     86  C   UNL A   1      46.549  28.117  33.509  1.00  0.00     0.148 A 
ATOM     87  C   UNL A   1      46.788  25.438  34.319  1.00  0.00     0.002 A 
ATOM     88  C   UNL A   1      47.784  27.608  33.896  1.00  0.00     0.091 A 
ATOM     89  F   UNL A   1      46.397  29.402  33.153  1.00  0.00    -0.205 F 
ATOM     90  C   UNL A   1      47.903  26.272  34.311  1.00  0.00     0.022 A 
BRANCH  88  91
ATOM     91  S   UNL A   1      49.287  28.588  33.818  1.00  0.00     0.127 S 
ATOM     92  O   UNL A   1      48.956  29.714  34.690  1.00  0.00    -0.237 OA
ATOM     93  O   UNL A   1      50.292  27.672  34.360  1.00  0.00    -0.237 OA
ATOM     94  O   UNL A   1      49.473  28.914  32.410  1.00  0.00    -0.744 OA
ENDBRANCH  88  91
ENDBRANCH  61  84
ENDBRANCH  35  36
ENDBRANCH  28  30
ENDBRANCH  27  28
ENDBRANCH  26  27
ENDBRANCH   1  26
TORSDOF 20
ENDMDL
MODEL 3
REMARK VINA RESULT:     -10.2      4.675      8.648
REMARK SMILES CCC(CC)(CC(=O)NNC(=O)c1cc(C)oc1C)C(=O)OCCOC(=O)c1ccc(-c2c3nc(c(-c4cccc(S(=O)(=O)[O-])c4F)c4ccc([nH]4)c(-c4cccc(S(=O)(=O)[O-])c4F)c4nc(c(-c5cccc(S(=O)(=O)[O-])c5F)c5ccc2[nH]5)C=C4)C=C3)cc1
REMARK SMILES IDX 23 1 22 2 20 3 21 4 3 5 2 6 1 7 4 8 5 9 6 10 7 11 8 12 9 13
REMARK SMILES IDX 10 15 11 16 12 18 13 19 14 20 18 21 15 22 17 23 19 24 16 25
REMARK SMILES IDX 24 26 25 27 26 28 27 29 28 30 29 31 90 32 30 33 89 34 31 35
REMARK SMILES IDX 32 36 33 37 83 38 34 39 88 40 82 41 84 42 35 43 87 44 81 45
REMARK SMILES IDX 80 46 36 48 68 49 48 50 67 51 49 52 52 53 66 54 85 55 50 56
REMARK SMILES IDX 51 57 65 59 86 60 53 61 37 62 38 63 46 64 39 65 41 66 47 67
REMARK SMILES IDX 40 68 42 69 43 70 44 71 45 72 69 73 70 74 78 75 71 76 73 77
REMARK SMILES IDX 79 78 72 79 74 80 75 81 76 82 77 83 54 84 55 85 63 86 56 87
REMARK SMILES IDX 58 88 64 89 57 90 59 91 60 92 61 93 62 94
REMARK H PARENT 9 14 10 17 84 47 52 58
REMARK Flexibility Score: inf
ROOT
ATOM      1  C   UNL A   1      36.190  22.590  24.169  1.00  0.00     0.274 C 
ENDROOT
BRANCH   1   2
ATOM      2  O   UNL A   1      35.150  22.086  25.033  1.00  0.00    -0.462 OA
BRANCH   2   3
ATOM      3  C   UNL A   1      34.168  22.970  25.360  1.00  0.00     0.312 C 
ATOM      4  O   UNL A   1      34.315  23.867  26.179  1.00  0.00    -0.252 OA
BRANCH   3   5
ATOM      5  C   UNL A   1      32.819  22.634  24.691  1.00  0.00     0.076 C 
BRANCH   5   6
ATOM      6  C   UNL A   1      31.842  21.971  25.709  1.00  0.00     0.016 C 
ATOM      7  C   UNL A   1      30.703  22.818  26.272  1.00  0.00     0.005 C 
ENDBRANCH   5   6
BRANCH   5   8
ATOM      8  C   UNL A   1      33.183  21.655  23.535  1.00  0.00     0.016 C 
ATOM      9  C   UNL A   1      32.077  21.386  22.520  1.00  0.00     0.005 C 
ENDBRANCH   5   8
BRANCH   5  10
ATOM     10  C   UNL A   1      32.139  23.906  24.094  1.00  0.00     0.120 C 
BRANCH  10  11
ATOM     11  C   UNL A   1      33.079  24.985  23.561  1.00  0.00     0.239 C 
ATOM     12  O   UNL A   1      33.553  24.909  22.426  1.00  0.00    -0.273 OA
ATOM     13  N   UNL A   1      33.387  26.078  24.328  1.00  0.00    -0.267 N 
ATOM     14  H   UNL A   1      34.080  26.691  23.992  1.00  0.00     0.191 HD
BRANCH  13  15
ATOM     15  N   UNL A   1      32.793  26.383  25.547  1.00  0.00    -0.263 N 
ATOM     16  C   UNL A   1      31.874  27.393  25.768  1.00  0.00     0.273 C 
ATOM     17  H   UNL A   1      33.049  25.833  26.322  1.00  0.00     0.191 HD
ATOM     18  O   UNL A   1      31.730  27.779  26.927  1.00  0.00    -0.267 OA
BRANCH  16  19
ATOM     19  C   UNL A   1      31.094  27.922  24.664  1.00  0.00     0.082 A 
ATOM     20  C   UNL A   1      31.292  29.094  23.867  1.00  0.00     0.059 A 
ATOM     21  C   UNL A   1      30.016  27.270  24.084  1.00  0.00     0.113 A 
ATOM     22  C   UNL A   1      30.323  29.083  22.888  1.00  0.00     0.101 A 
ATOM     23  O   UNL A   1      29.545  27.981  23.025  1.00  0.00    -0.466 OA
ATOM     24  C   UNL A   1      29.301  26.004  24.371  1.00  0.00     0.088 C 
ATOM     25  C   UNL A   1      29.996  29.972  21.754  1.00  0.00     0.087 C 
ENDBRANCH  16  19
ENDBRANCH  13  15
ENDBRANCH  10  11
ENDBRANCH   5  10
ENDBRANCH   3   5
ENDBRANCH   2   3
ENDBRANCH   1   2
BRANCH   1  26
ATOM     26  C   UNL A   1      37.222  23.406  24.950  1.00  0.00     0.275 C 
BRANCH  26  27
ATOM     27  O   UNL A   1      37.699  22.639  26.066  1.00  0.00    -0.458 OA
BRANCH  27  28
ATOM     28  C   UNL A   1      39.031  22.708  26.302  1.00  0.00     0.338 C 
ATOM     29  O   UNL A   1      39.847  21.810  26.183  1.00  0.00    -0.246 OA
BRANCH  28  30
ATOM     30  C   UNL A   1      39.381  24.071  26.758  1.00  0.00     0.060 A 
ATOM     31  C   UNL A   1      40.024  24.963  25.903  1.00  0.00     0.016 A 
ATOM     32  C   UNL A   1      39.127  24.445  28.078  1.00  0.00     0.016 A 
ATOM     33  C   UNL A   1      40.489  26.189  26.382  1.00  0.00     0.010 A 
ATOM     34  C   UNL A   1      39.504  25.717  28.529  1.00  0.00     0.010 A 
ATOM     35  C   UNL A   1      40.227  26.592  27.701  1.00  0.00    -0.014 A 
BRANCH  35  36
ATOM     36  C   UNL A   1      40.724  27.913  28.193  1.00  0.00     0.031 A 
ATOM     37  C   UNL A   1      39.768  29.019  28.568  1.00  0.00     0.074 A 
ATOM     38  C   UNL A   1      42.047  28.111  28.380  1.00  0.00     0.049 A 
ATOM     39  N   UNL A   1      40.031  30.166  29.146  1.00  0.00    -0.248 NA
ATOM     40  C   UNL A   1      38.336  28.800  28.313  1.00  0.00     0.031 C 
ATOM     41  C   UNL A   1      43.100  27.142  28.075  1.00  0.00     0.029 A 
ATOM     42  N   UNL A   1      42.731  29.202  28.863  1.00  0.00    -0.354 N 
ATOM     43  C   UNL A   1      38.800  30.764  29.386  1.00  0.00     0.074 A 
ATOM     44  C   UNL A   1      37.792  29.895  28.826  1.00  0.00     0.031 C 
ATOM     45  C   UNL A   1      44.293  27.682  28.369  1.00  0.00     0.029 A 
ATOM     46  C   UNL A   1      44.098  29.057  28.820  1.00  0.00     0.049 A 
ATOM     47  H   UNL A   1      42.285  30.009  29.208  1.00  0.00     0.167 HD
ATOM     48  C   UNL A   1      38.523  31.899  30.068  1.00  0.00     0.034 A 
ATOM     49  C   UNL A   1      45.089  29.940  29.057  1.00  0.00     0.034 A 
ATOM     50  C   UNL A   1      39.508  32.811  30.578  1.00  0.00     0.049 A 
ATOM     51  C   UNL A   1      44.749  31.325  29.528  1.00  0.00     0.074 A 
ATOM     52  C   UNL A   1      39.313  33.982  31.290  1.00  0.00     0.029 A 
ATOM     53  N   UNL A   1      40.871  32.688  30.376  1.00  0.00    -0.354 N 
ATOM     54  N   UNL A   1      43.590  31.801  29.910  1.00  0.00    -0.248 NA
ATOM     55  C   UNL A   1      45.852  32.295  29.609  1.00  0.00     0.031 C 
ATOM     56  C   UNL A   1      40.558  34.598  31.467  1.00  0.00     0.029 A 
ATOM     57  C   UNL A   1      41.526  33.798  30.881  1.00  0.00     0.049 A 
ATOM     58  H   UNL A   1      41.311  31.924  29.939  1.00  0.00     0.167 HD
ATOM     59  C   UNL A   1      43.825  33.117  30.294  1.00  0.00     0.074 A 
ATOM     60  C   UNL A   1      45.242  33.357  30.120  1.00  0.00     0.031 C 
ATOM     61  C   UNL A   1      42.937  34.042  30.734  1.00  0.00     0.034 A 
BRANCH  48  62
ATOM     62  C   UNL A   1      37.080  32.196  30.360  1.00  0.00     0.023 A 
ATOM     63  C   UNL A   1      36.545  31.785  31.598  1.00  0.00     0.012 A 
ATOM     64  C   UNL A   1      36.283  32.929  29.465  1.00  0.00     0.148 A 
ATOM     65  C   UNL A   1      35.234  32.105  31.943  1.00  0.00     0.002 A 
ATOM     66  C   UNL A   1      34.978  33.254  29.820  1.00  0.00     0.091 A 
ATOM     67  F   UNL A   1      36.811  33.286  28.286  1.00  0.00    -0.205 F 
ATOM     68  C   UNL A   1      34.454  32.845  31.059  1.00  0.00     0.022 A 
BRANCH  66  69
ATOM     69  S   UNL A   1      33.890  34.211  28.760  1.00  0.00     0.127 S 
ATOM     70  O   UNL A   1      33.497  33.212  27.766  1.00  0.00    -0.237 OA
ATOM     71  O   UNL A   1      32.828  34.605  29.684  1.00  0.00    -0.237 OA
ATOM     72  O   UNL A   1      34.694  35.311  28.244  1.00  0.00    -0.744 OA
ENDBRANCH  66  69
ENDBRANCH  48  62
BRANCH  49  73
ATOM     73  C   UNL A   1      46.504  29.547  28.796  1.00  0.00     0.023 A 
ATOM     74  C   UNL A   1      47.078  29.754  27.528  1.00  0.00     0.012 A 
ATOM     75  C   UNL A   1      47.291  28.984  29.820  1.00  0.00     0.148 A 
ATOM     76  C   UNL A   1      48.408  29.397  27.287  1.00  0.00     0.002 A 
ATOM     77  C   UNL A   1      48.631  28.697  29.594  1.00  0.00     0.091 A 
ATOM     78  F   UNL A   1      46.716  28.741  31.007  1.00  0.00    -0.205 F 
ATOM     79  C   UNL A   1      49.188  28.888  28.323  1.00  0.00     0.022 A 
BRANCH  77  80
ATOM     80  S   UNL A   1      49.712  28.194  30.935  1.00  0.00     0.127 S 
ATOM     81  O   UNL A   1      50.978  27.983  30.241  1.00  0.00    -0.237 OA
ATOM     82  O   UNL A   1      49.681  29.361  31.819  1.00  0.00    -0.237 OA
ATOM     83  O   UNL A   1      49.081  27.009  31.503  1.00  0.00    -0.744 OA
ENDBRANCH  77  80
ENDBRANCH  49  73
BRANCH  61  84
ATOM     84  C   UNL A   1      43.455  35.420  31.047  1.00  0.00     0.023 A 
ATOM     85  C   UNL A   1      44.018  35.672  32.314  1.00  0.00     0.012 A 
ATOM     86  C   UNL A   1      43.453  36.442  30.078  1.00  0.00     0.148 A 
ATOM     87  C   UNL A   1      44.549  36.926  32.619  1.00  0.00     0.002 A 
ATOM     88  C   UNL A   1      44.026  37.674  30.373  1.00  0.00     0.091 A 
ATOM     89  F   UNL A   1      42.888  36.194  28.886  1.00  0.00    -0.205 F 
ATOM     90  C   UNL A   1      44.564  37.921  31.645  1.00  0.00     0.022 A 
BRANCH  88  91
ATOM     91  S   UNL A   1      44.175  38.974  29.142  1.00  0.00     0.127 S 
ATOM     92  O   UNL A   1      42.777  39.340  28.921  1.00  0.00    -0.237 OA
ATOM     93  O   UNL A   1      44.965  39.987  29.846  1.00  0.00    -0.237 OA
ATOM     94  O   UNL A   1      44.857  38.367  28.007  1.00  0.00    -0.744 OA
ENDBRANCH  88  91
ENDBRANCH  61  84
ENDBRANCH  35  36
ENDBRANCH  28  30
ENDBRANCH  27  28
ENDBRANCH  26  27
ENDBRANCH   1  26
TORSDOF 20
ENDMDL
