MODEL 1
REMARK VINA RESULT:     -15.0      0.000      0.000
REMARK SMILES O=C(OCCOC(=O)c1ccccc1C(=O)Nc1ccc(Cl)cn1)c1ccc(-c2c3nc(c(-c4cccc(S(=O)(=O)[O-])c4F)c4ccc([nH]4)c(-c4cccc(S(=O)(=O)[O-])c4F)c4nc(c(-c5cccc(S(=O)(=O)[O-])c5F)c5ccc2[nH]5)C=C4)C=C3)cc1
REMARK SMILES IDX 4 1 3 2 2 3 1 4 25 5 26 6 87 7 27 8 86 9 28 10 29 11 30 12
REMARK SMILES IDX 80 13 31 14 85 15 79 16 81 17 32 18 84 19 78 20 77 21 33 23
REMARK SMILES IDX 65 24 45 25 64 26 46 27 49 28 63 29 82 30 47 31 48 32 62 34
REMARK SMILES IDX 83 35 50 36 34 37 35 38 43 39 36 40 38 41 44 42 37 43 39 44
REMARK SMILES IDX 40 45 41 46 42 47 66 48 67 49 75 50 68 51 70 52 76 53 69 54
REMARK SMILES IDX 71 55 72 56 73 57 74 58 51 59 52 60 60 61 53 62 55 63 61 64
REMARK SMILES IDX 54 65 56 66 57 67 58 68 59 69 5 70 6 71 7 72 8 73 9 74 10 75
REMARK SMILES IDX 14 76 11 77 13 78 12 79 15 80 16 81 17 82 18 84 19 85 24 86
REMARK SMILES IDX 20 87 23 88 21 89 22 90
REMARK H PARENT 81 22 49 33 17 83
REMARK Flexibility Score: inf
ROOT
ATOM      1  C   UNL A   1      31.080  31.859  26.402  1.00  0.00     0.275 C 
ENDROOT
BRANCH   1   2
ATOM      2  O   UNL A   1      31.851  33.305  27.182  1.00  0.00    -0.458 OA
BRANCH   2   3
ATOM      3  C   UNL A   1      32.892  33.856  28.127  1.00  0.00     0.338 C 
ATOM      4  O   UNL A   1      32.560  34.936  28.642  1.00  0.00    -0.246 OA
BRANCH   3   5
ATOM      5  C   UNL A   1      34.462  33.388  28.617  1.00  0.00     0.060 A 
ATOM      6  C   UNL A   1      34.830  32.457  29.603  1.00  0.00     0.016 A 
ATOM      7  C   UNL A   1      35.651  33.978  28.115  1.00  0.00     0.016 A 
ATOM      8  C   UNL A   1      36.091  31.907  29.882  1.00  0.00     0.010 A 
ATOM      9  C   UNL A   1      37.015  33.528  28.501  1.00  0.00     0.010 A 
ATOM     10  C   UNL A   1      37.242  32.418  29.346  1.00  0.00    -0.014 A 
BRANCH  10  11
ATOM     11  C   UNL A   1      38.482  31.801  29.976  1.00  0.00     0.031 A 
ATOM     12  C   UNL A   1      38.762  32.070  31.436  1.00  0.00     0.074 A 
ATOM     13  C   UNL A   1      39.056  30.659  29.504  1.00  0.00     0.049 A 
ATOM     14  N   UNL A   1      39.608  31.479  32.243  1.00  0.00    -0.248 NA
ATOM     15  C   UNL A   1      37.888  33.052  32.094  1.00  0.00     0.031 C 
ATOM     16  C   UNL A   1      38.608  29.957  28.315  1.00  0.00     0.029 A 
ATOM     17  N   UNL A   1      40.058  29.826  29.973  1.00  0.00    -0.354 N 
ATOM     18  C   UNL A   1      39.377  32.018  33.499  1.00  0.00     0.074 A 
ATOM     19  C   UNL A   1      38.293  32.969  33.352  1.00  0.00     0.031 C 
ATOM     20  C   UNL A   1      39.364  28.874  28.080  1.00  0.00     0.029 A 
ATOM     21  C   UNL A   1      40.372  28.780  29.119  1.00  0.00     0.049 A 
ATOM     22  H   UNL A   1      40.509  29.965  30.837  1.00  0.00     0.167 HD
ATOM     23  C   UNL A   1      40.003  31.756  34.671  1.00  0.00     0.034 A 
ATOM     24  C   UNL A   1      41.347  27.844  29.141  1.00  0.00     0.034 A 
ATOM     25  C   UNL A   1      41.084  30.825  34.843  1.00  0.00     0.049 A 
ATOM     26  C   UNL A   1      42.211  27.750  30.367  1.00  0.00     0.074 A 
ATOM     27  C   UNL A   1      41.882  30.633  35.959  1.00  0.00     0.029 A 
ATOM     28  N   UNL A   1      41.526  29.931  33.882  1.00  0.00    -0.354 N 
ATOM     29  N   UNL A   1      42.052  28.353  31.518  1.00  0.00    -0.248 NA
ATOM     30  C   UNL A   1      43.351  26.821  30.328  1.00  0.00     0.031 C 
ATOM     31  C   UNL A   1      42.834  29.653  35.657  1.00  0.00     0.029 A 
ATOM     32  C   UNL A   1      42.601  29.203  34.368  1.00  0.00     0.049 A 
ATOM     33  H   UNL A   1      41.134  29.826  32.985  1.00  0.00     0.167 HD
ATOM     34  C   UNL A   1      43.041  27.851  32.349  1.00  0.00     0.074 A 
ATOM     35  C   UNL A   1      43.781  26.872  31.582  1.00  0.00     0.031 C 
ATOM     36  C   UNL A   1      43.314  28.191  33.631  1.00  0.00     0.034 A 
BRANCH  23  37
ATOM     37  C   UNL A   1      39.589  32.597  35.844  1.00  0.00     0.023 A 
ATOM     38  C   UNL A   1      40.151  33.870  36.054  1.00  0.00     0.012 A 
ATOM     39  C   UNL A   1      38.652  32.084  36.762  1.00  0.00     0.148 A 
ATOM     40  C   UNL A   1      39.814  34.607  37.190  1.00  0.00     0.002 A 
ATOM     41  C   UNL A   1      38.294  32.838  37.869  1.00  0.00     0.091 A 
ATOM     42  F   UNL A   1      38.153  30.860  36.545  1.00  0.00    -0.205 F 
ATOM     43  C   UNL A   1      38.884  34.093  38.093  1.00  0.00     0.022 A 
BRANCH  41  44
ATOM     44  S   UNL A   1      37.076  32.278  39.061  1.00  0.00     0.127 S 
ATOM     45  O   UNL A   1      35.828  32.704  38.429  1.00  0.00    -0.237 OA
ATOM     46  O   UNL A   1      37.299  30.833  39.064  1.00  0.00    -0.237 OA
ATOM     47  O   UNL A   1      37.393  32.951  40.314  1.00  0.00    -0.744 OA
ENDBRANCH  41  44
ENDBRANCH  23  37
BRANCH  24  48
ATOM     48  C   UNL A   1      41.619  26.947  27.965  1.00  0.00     0.023 A 
ATOM     49  C   UNL A   1      42.224  27.448  26.794  1.00  0.00     0.012 A 
ATOM     50  C   UNL A   1      41.154  25.613  27.963  1.00  0.00     0.148 A 
ATOM     51  C   UNL A   1      42.308  26.663  25.637  1.00  0.00     0.002 A 
ATOM     52  C   UNL A   1      41.280  24.824  26.823  1.00  0.00     0.091 A 
ATOM     53  F   UNL A   1      40.550  25.149  29.067  1.00  0.00    -0.205 F 
ATOM     54  C   UNL A   1      41.838  25.353  25.651  1.00  0.00     0.022 A 
BRANCH  52  55
ATOM     55  S   UNL A   1      40.758  23.104  26.788  1.00  0.00     0.127 S 
ATOM     56  O   UNL A   1      41.493  22.590  25.636  1.00  0.00    -0.237 OA
ATOM     57  O   UNL A   1      41.224  22.612  28.085  1.00  0.00    -0.237 OA
ATOM     58  O   UNL A   1      39.307  23.143  26.652  1.00  0.00    -0.744 OA
ENDBRANCH  52  55
ENDBRANCH  24  48
BRANCH  36  59
ATOM     59  C   UNL A   1      44.454  27.484  34.314  1.00  0.00     0.023 A 
ATOM     60  C   UNL A   1      45.762  27.995  34.209  1.00  0.00     0.012 A 
ATOM     61  C   UNL A   1      44.216  26.350  35.116  1.00  0.00     0.148 A 
ATOM     62  C   UNL A   1      46.822  27.372  34.865  1.00  0.00     0.002 A 
ATOM     63  C   UNL A   1      45.269  25.767  35.810  1.00  0.00     0.091 A 
ATOM     64  F   UNL A   1      42.970  25.863  35.183  1.00  0.00    -0.205 F 
ATOM     65  C   UNL A   1      46.574  26.267  35.675  1.00  0.00     0.022 A 
BRANCH  63  66
ATOM     66  S   UNL A   1      45.025  24.406  36.958  1.00  0.00     0.127 S 
ATOM     67  O   UNL A   1      44.516  23.358  36.075  1.00  0.00    -0.237 OA
ATOM     68  O   UNL A   1      46.381  24.178  37.459  1.00  0.00    -0.237 OA
ATOM     69  O   UNL A   1      44.086  24.891  37.960  1.00  0.00    -0.744 OA
ENDBRANCH  63  66
ENDBRANCH  36  59
ENDBRANCH  10  11
ENDBRANCH   3   5
ENDBRANCH   2   3
ENDBRANCH   1   2
BRANCH   1  70
ATOM     70  C   UNL A   1      31.922  30.114  26.535  1.00  0.00     0.275 C 
BRANCH  70  71
ATOM     71  O   UNL A   1      32.580  29.329  24.739  1.00  0.00    -0.458 OA
BRANCH  71  72
ATOM     72  C   UNL A   1      32.108  28.907  23.389  1.00  0.00     0.339 C 
ATOM     73  O   UNL A   1      32.774  28.917  22.334  1.00  0.00    -0.246 OA
BRANCH  72  74
ATOM     74  C   UNL A   1      30.753  28.636  23.058  1.00  0.00     0.072 A 
ATOM     75  C   UNL A   1      30.193  29.710  22.284  1.00  0.00     0.016 A 
ATOM     76  C   UNL A   1      29.972  27.690  23.679  1.00  0.00     0.054 A 
ATOM     77  C   UNL A   1      28.845  29.825  22.040  1.00  0.00     0.001 A 
ATOM     78  C   UNL A   1      28.587  27.805  23.372  1.00  0.00     0.015 A 
ATOM     79  C   UNL A   1      28.037  28.844  22.571  1.00  0.00     0.001 A 
BRANCH  76  80
ATOM     80  C   UNL A   1      30.402  26.593  24.617  1.00  0.00     0.257 C 
ATOM     81  O   UNL A   1      29.489  26.074  25.276  1.00  0.00    -0.269 OA
ATOM     82  N   UNL A   1      31.691  26.115  24.928  1.00  0.00    -0.307 N 
ATOM     83  H   UNL A   1      31.890  25.986  25.884  1.00  0.00     0.171 HD
BRANCH  82  84
ATOM     84  C   UNL A   1      32.743  25.800  24.018  1.00  0.00     0.132 A 
ATOM     85  C   UNL A   1      32.335  24.789  22.621  1.00  0.00     0.049 A 
ATOM     86  N   UNL A   1      34.156  25.629  24.936  1.00  0.00    -0.238 NA
ATOM     87  C   UNL A   1      33.423  23.353  22.309  1.00  0.00     0.026 A 
ATOM     88  C   UNL A   1      35.181  24.331  24.725  1.00  0.00     0.134 A 
ATOM     89  C   UNL A   1      34.941  23.154  23.455  1.00  0.00     0.059 A 
ATOM     90  Cl  UNL A   1      36.805  22.613  23.078  1.00  0.00    -0.083 Cl
ENDBRANCH  82  84
ENDBRANCH  76  80
ENDBRANCH  72  74
ENDBRANCH  71  72
ENDBRANCH  70  71
ENDBRANCH   1  70
TORSDOF 16
ENDMDL
MODEL 2
REMARK VINA RESULT:     -14.9      5.541     10.673
REMARK SMILES O=C(OCCOC(=O)c1ccccc1C(=O)Nc1ccc(Cl)cn1)c1ccc(-c2c3nc(c(-c4cccc(S(=O)(=O)[O-])c4F)c4ccc([nH]4)c(-c4cccc(S(=O)(=O)[O-])c4F)c4nc(c(-c5cccc(S(=O)(=O)[O-])c5F)c5ccc2[nH]5)C=C4)C=C3)cc1
REMARK SMILES IDX 4 1 3 2 2 3 1 4 25 5 26 6 87 7 27 8 86 9 28 10 29 11 30 12
REMARK SMILES IDX 80 13 31 14 85 15 79 16 81 17 32 18 84 19 78 20 77 21 33 23
REMARK SMILES IDX 65 24 45 25 64 26 46 27 49 28 63 29 82 30 47 31 48 32 62 34
REMARK SMILES IDX 83 35 50 36 34 37 35 38 43 39 36 40 38 41 44 42 37 43 39 44
REMARK SMILES IDX 40 45 41 46 42 47 66 48 67 49 75 50 68 51 70 52 76 53 69 54
REMARK SMILES IDX 71 55 72 56 73 57 74 58 51 59 52 60 60 61 53 62 55 63 61 64
REMARK SMILES IDX 54 65 56 66 57 67 58 68 59 69 5 70 6 71 7 72 8 73 9 74 10 75
REMARK SMILES IDX 14 76 11 77 13 78 12 79 15 80 16 81 17 82 18 84 19 85 24 86
REMARK SMILES IDX 20 87 23 88 21 89 22 90
REMARK H PARENT 81 22 49 33 17 83
REMARK Flexibility Score: inf
ROOT
ATOM      1  C   UNL A   1      36.184  20.766  24.788  1.00  0.00     0.275 C 
ENDROOT
BRANCH   1   2
ATOM      2  O   UNL A   1      37.807  20.095  25.246  1.00  0.00    -0.458 OA
BRANCH   2   3
ATOM      3  C   UNL A   1      39.197  20.341  25.781  1.00  0.00     0.338 C 
ATOM      4  O   UNL A   1      39.923  19.335  25.735  1.00  0.00    -0.246 OA
BRANCH   3   5
ATOM      5  C   UNL A   1      40.008  21.661  26.506  1.00  0.00     0.060 A 
ATOM      6  C   UNL A   1      40.020  23.008  26.105  1.00  0.00     0.016 A 
ATOM      7  C   UNL A   1      40.881  21.534  27.617  1.00  0.00     0.016 A 
ATOM      8  C   UNL A   1      40.501  24.136  26.789  1.00  0.00     0.010 A 
ATOM      9  C   UNL A   1      41.538  22.691  28.281  1.00  0.00     0.010 A 
ATOM     10  C   UNL A   1      41.284  24.030  27.906  1.00  0.00    -0.014 A 
BRANCH  10  11
ATOM     11  C   UNL A   1      41.862  25.375  28.322  1.00  0.00     0.031 A 
ATOM     12  C   UNL A   1      43.198  25.795  27.755  1.00  0.00     0.074 A 
ATOM     13  C   UNL A   1      41.083  26.416  28.729  1.00  0.00     0.049 A 
ATOM     14  N   UNL A   1      43.777  26.969  27.772  1.00  0.00    -0.248 NA
ATOM     15  C   UNL A   1      43.914  24.782  26.966  1.00  0.00     0.031 C 
ATOM     16  C   UNL A   1      39.642  26.337  28.892  1.00  0.00     0.029 A 
ATOM     17  N   UNL A   1      41.333  27.751  28.999  1.00  0.00    -0.354 N 
ATOM     18  C   UNL A   1      44.925  26.841  27.006  1.00  0.00     0.074 A 
ATOM     19  C   UNL A   1      44.950  25.476  26.518  1.00  0.00     0.031 C 
ATOM     20  C   UNL A   1      39.139  27.505  29.317  1.00  0.00     0.029 A 
ATOM     21  C   UNL A   1      40.229  28.454  29.456  1.00  0.00     0.049 A 
ATOM     22  H   UNL A   1      42.218  28.166  28.876  1.00  0.00     0.167 HD
ATOM     23  C   UNL A   1      45.877  27.763  26.730  1.00  0.00     0.034 A 
ATOM     24  C   UNL A   1      40.080  29.708  29.938  1.00  0.00     0.034 A 
ATOM     25  C   UNL A   1      45.881  29.119  27.207  1.00  0.00     0.049 A 
ATOM     26  C   UNL A   1      41.254  30.642  29.858  1.00  0.00     0.074 A 
ATOM     27  C   UNL A   1      46.895  30.058  27.115  1.00  0.00     0.029 A 
ATOM     28  N   UNL A   1      44.830  29.734  27.866  1.00  0.00    -0.354 N 
ATOM     29  N   UNL A   1      42.386  30.466  29.226  1.00  0.00    -0.248 NA
ATOM     30  C   UNL A   1      41.124  31.957  30.504  1.00  0.00     0.031 C 
ATOM     31  C   UNL A   1      46.472  31.228  27.757  1.00  0.00     0.029 A 
ATOM     32  C   UNL A   1      45.178  31.032  28.210  1.00  0.00     0.049 A 
ATOM     33  H   UNL A   1      43.962  29.314  28.062  1.00  0.00     0.167 HD
ATOM     34  C   UNL A   1      43.086  31.655  29.363  1.00  0.00     0.074 A 
ATOM     35  C   UNL A   1      42.240  32.558  30.114  1.00  0.00     0.031 C 
ATOM     36  C   UNL A   1      44.327  31.956  28.915  1.00  0.00     0.034 A 
BRANCH  23  37
ATOM     37  C   UNL A   1      47.066  27.274  25.954  1.00  0.00     0.023 A 
ATOM     38  C   UNL A   1      48.085  26.535  26.584  1.00  0.00     0.012 A 
ATOM     39  C   UNL A   1      47.175  27.593  24.587  1.00  0.00     0.148 A 
ATOM     40  C   UNL A   1      49.220  26.154  25.867  1.00  0.00     0.002 A 
ATOM     41  C   UNL A   1      48.288  27.179  23.873  1.00  0.00     0.091 A 
ATOM     42  F   UNL A   1      46.198  28.317  24.024  1.00  0.00    -0.205 F 
ATOM     43  C   UNL A   1      49.319  26.472  24.513  1.00  0.00     0.022 A 
BRANCH  41  44
ATOM     44  S   UNL A   1      48.482  27.505  22.119  1.00  0.00     0.127 S 
ATOM     45  O   UNL A   1      49.688  28.332  22.105  1.00  0.00    -0.237 OA
ATOM     46  O   UNL A   1      48.658  26.157  21.579  1.00  0.00    -0.237 OA
ATOM     47  O   UNL A   1      47.265  28.183  21.694  1.00  0.00    -0.744 OA
ENDBRANCH  41  44
ENDBRANCH  23  37
BRANCH  24  48
ATOM     48  C   UNL A   1      38.805  30.165  30.592  1.00  0.00     0.023 A 
ATOM     49  C   UNL A   1      38.474  29.760  31.902  1.00  0.00     0.012 A 
ATOM     50  C   UNL A   1      37.852  30.905  29.857  1.00  0.00     0.148 A 
ATOM     51  C   UNL A   1      37.209  30.030  32.439  1.00  0.00     0.002 A 
ATOM     52  C   UNL A   1      36.613  31.209  30.415  1.00  0.00     0.091 A 
ATOM     53  F   UNL A   1      38.156  31.262  28.601  1.00  0.00    -0.205 F 
ATOM     54  C   UNL A   1      36.280  30.754  31.698  1.00  0.00     0.022 A 
BRANCH  52  55
ATOM     55  S   UNL A   1      35.389  32.196  29.543  1.00  0.00     0.127 S 
ATOM     56  O   UNL A   1      34.945  31.275  28.501  1.00  0.00    -0.237 OA
ATOM     57  O   UNL A   1      34.402  32.461  30.590  1.00  0.00    -0.237 OA
ATOM     58  O   UNL A   1      36.103  33.382  29.083  1.00  0.00    -0.744 OA
ENDBRANCH  52  55
ENDBRANCH  24  48
BRANCH  36  59
ATOM     59  C   UNL A   1      44.857  33.337  29.198  1.00  0.00     0.023 A 
ATOM     60  C   UNL A   1      45.586  33.581  30.378  1.00  0.00     0.012 A 
ATOM     61  C   UNL A   1      44.690  34.374  28.260  1.00  0.00     0.148 A 
ATOM     62  C   UNL A   1      46.113  34.844  30.637  1.00  0.00     0.002 A 
ATOM     63  C   UNL A   1      45.264  35.616  28.500  1.00  0.00     0.091 A 
ATOM     64  F   UNL A   1      43.971  34.130  27.156  1.00  0.00    -0.205 F 
ATOM     65  C   UNL A   1      45.964  35.857  29.694  1.00  0.00     0.022 A 
BRANCH  63  66
ATOM     66  S   UNL A   1      45.213  36.947  27.294  1.00  0.00     0.127 S 
ATOM     67  O   UNL A   1      46.114  36.447  26.258  1.00  0.00    -0.237 OA
ATOM     68  O   UNL A   1      43.798  36.966  26.916  1.00  0.00    -0.237 OA
ATOM     69  O   UNL A   1      45.665  38.142  27.995  1.00  0.00    -0.744 OA
ENDBRANCH  63  66
ENDBRANCH  36  59
ENDBRANCH  10  11
ENDBRANCH   3   5
ENDBRANCH   2   3
ENDBRANCH   1   2
BRANCH   1  70
ATOM     70  C   UNL A   1      36.011  22.626  24.257  1.00  0.00     0.275 C 
BRANCH  70  71
ATOM     71  O   UNL A   1      34.318  23.577  24.965  1.00  0.00    -0.458 OA
BRANCH  71  72
ATOM     72  C   UNL A   1      33.850  24.844  25.597  1.00  0.00     0.339 C 
ATOM     73  O   UNL A   1      33.179  24.947  26.644  1.00  0.00    -0.246 OA
BRANCH  72  74
ATOM     74  C   UNL A   1      33.911  26.122  24.979  1.00  0.00     0.072 A 
ATOM     75  C   UNL A   1      34.152  27.150  25.956  1.00  0.00     0.016 A 
ATOM     76  C   UNL A   1      33.448  26.401  23.715  1.00  0.00     0.054 A 
ATOM     77  C   UNL A   1      34.014  28.488  25.675  1.00  0.00     0.001 A 
ATOM     78  C   UNL A   1      33.359  27.794  23.436  1.00  0.00     0.015 A 
ATOM     79  C   UNL A   1      33.637  28.812  24.391  1.00  0.00     0.001 A 
BRANCH  76  80
ATOM     80  C   UNL A   1      33.033  25.434  22.637  1.00  0.00     0.257 C 
ATOM     81  O   UNL A   1      33.962  24.972  21.959  1.00  0.00    -0.269 OA
ATOM     82  N   UNL A   1      31.748  25.032  22.221  1.00  0.00    -0.307 N 
ATOM     83  H   UNL A   1      31.588  25.022  21.249  1.00  0.00     0.171 HD
BRANCH  82  84
ATOM     84  C   UNL A   1      30.652  24.641  23.044  1.00  0.00     0.132 A 
ATOM     85  C   UNL A   1      29.838  25.912  23.974  1.00  0.00     0.049 A 
ATOM     86  N   UNL A   1      31.012  23.101  23.650  1.00  0.00    -0.238 NA
ATOM     87  C   UNL A   1      29.575  25.578  25.752  1.00  0.00     0.026 A 
ATOM     88  C   UNL A   1      30.824  22.734  25.265  1.00  0.00     0.134 A 
ATOM     89  C   UNL A   1      30.109  23.858  26.397  1.00  0.00     0.059 A 
ATOM     90  Cl  UNL A   1      29.260  22.620  27.683  1.00  0.00    -0.083 Cl
ENDBRANCH  82  84
ENDBRANCH  76  80
ENDBRANCH  72  74
ENDBRANCH  71  72
ENDBRANCH  70  71
ENDBRANCH   1  70
TORSDOF 16
ENDMDL
MODEL 3
REMARK VINA RESULT:     -14.8      1.275      1.928
REMARK SMILES O=C(OCCOC(=O)c1ccccc1C(=O)Nc1ccc(Cl)cn1)c1ccc(-c2c3nc(c(-c4cccc(S(=O)(=O)[O-])c4F)c4ccc([nH]4)c(-c4cccc(S(=O)(=O)[O-])c4F)c4nc(c(-c5cccc(S(=O)(=O)[O-])c5F)c5ccc2[nH]5)C=C4)C=C3)cc1
REMARK SMILES IDX 4 1 3 2 2 3 1 4 25 5 26 6 87 7 27 8 86 9 28 10 29 11 30 12
REMARK SMILES IDX 80 13 31 14 85 15 79 16 81 17 32 18 84 19 78 20 77 21 33 23
REMARK SMILES IDX 65 24 45 25 64 26 46 27 49 28 63 29 82 30 47 31 48 32 62 34
REMARK SMILES IDX 83 35 50 36 34 37 35 38 43 39 36 40 38 41 44 42 37 43 39 44
REMARK SMILES IDX 40 45 41 46 42 47 66 48 67 49 75 50 68 51 70 52 76 53 69 54
REMARK SMILES IDX 71 55 72 56 73 57 74 58 51 59 52 60 60 61 53 62 55 63 61 64
REMARK SMILES IDX 54 65 56 66 57 67 58 68 59 69 5 70 6 71 7 72 8 73 9 74 10 75
REMARK SMILES IDX 14 76 11 77 13 78 12 79 15 80 16 81 17 82 18 84 19 85 24 86
REMARK SMILES IDX 20 87 23 88 21 89 22 90
REMARK H PARENT 81 22 49 33 17 83
REMARK Flexibility Score: inf
ROOT
ATOM      1  C   UNL A   1      31.207  31.489  26.131  1.00  0.00     0.275 C 
ENDROOT
BRANCH   1   2
ATOM      2  O   UNL A   1      31.745  32.902  27.135  1.00  0.00    -0.458 OA
BRANCH   2   3
ATOM      3  C   UNL A   1      32.805  33.534  28.005  1.00  0.00     0.338 C 
ATOM      4  O   UNL A   1      32.488  34.661  28.419  1.00  0.00    -0.246 OA
BRANCH   3   5
ATOM      5  C   UNL A   1      34.381  33.105  28.512  1.00  0.00     0.060 A 
ATOM      6  C   UNL A   1      34.761  32.159  29.479  1.00  0.00     0.016 A 
ATOM      7  C   UNL A   1      35.558  33.747  28.050  1.00  0.00     0.016 A 
ATOM      8  C   UNL A   1      36.035  31.643  29.766  1.00  0.00     0.010 A 
ATOM      9  C   UNL A   1      36.929  33.332  28.449  1.00  0.00     0.010 A 
ATOM     10  C   UNL A   1      37.177  32.207  29.268  1.00  0.00    -0.014 A 
BRANCH  10  11
ATOM     11  C   UNL A   1      38.426  31.614  29.904  1.00  0.00     0.031 A 
ATOM     12  C   UNL A   1      38.676  31.860  31.374  1.00  0.00     0.074 A 
ATOM     13  C   UNL A   1      39.040  30.498  29.418  1.00  0.00     0.049 A 
ATOM     14  N   UNL A   1      39.527  31.278  32.181  1.00  0.00    -0.248 NA
ATOM     15  C   UNL A   1      37.763  32.802  32.037  1.00  0.00     0.031 C 
ATOM     16  C   UNL A   1      38.631  29.808  28.208  1.00  0.00     0.029 A 
ATOM     17  N   UNL A   1      40.060  29.686  29.885  1.00  0.00    -0.354 N 
ATOM     18  C   UNL A   1      39.261  31.783  33.444  1.00  0.00     0.074 A 
ATOM     19  C   UNL A   1      38.152  32.705  33.300  1.00  0.00     0.031 C 
ATOM     20  C   UNL A   1      39.422  28.754  27.962  1.00  0.00     0.029 A 
ATOM     21  C   UNL A   1      40.416  28.667  29.015  1.00  0.00     0.049 A 
ATOM     22  H   UNL A   1      40.493  29.820  30.759  1.00  0.00     0.167 HD
ATOM     23  C   UNL A   1      39.877  31.514  34.620  1.00  0.00     0.034 A 
ATOM     24  C   UNL A   1      41.418  27.760  29.033  1.00  0.00     0.034 A 
ATOM     25  C   UNL A   1      40.983  30.612  34.789  1.00  0.00     0.049 A 
ATOM     26  C   UNL A   1      42.267  27.666  30.270  1.00  0.00     0.074 A 
ATOM     27  C   UNL A   1      41.770  30.421  35.914  1.00  0.00     0.029 A 
ATOM     28  N   UNL A   1      41.465  29.751  33.818  1.00  0.00    -0.354 N 
ATOM     29  N   UNL A   1      42.072  28.240  31.430  1.00  0.00    -0.248 NA
ATOM     30  C   UNL A   1      43.434  26.771  30.229  1.00  0.00     0.031 C 
ATOM     31  C   UNL A   1      42.755  29.475  35.606  1.00  0.00     0.029 A 
ATOM     32  C   UNL A   1      42.554  29.045  34.305  1.00  0.00     0.049 A 
ATOM     33  H   UNL A   1      41.090  29.654  32.913  1.00  0.00     0.167 HD
ATOM     34  C   UNL A   1      43.064  27.750  32.266  1.00  0.00     0.074 A 
ATOM     35  C   UNL A   1      43.844  26.808  31.490  1.00  0.00     0.031 C 
ATOM     36  C   UNL A   1      43.308  28.071  33.558  1.00  0.00     0.034 A 
BRANCH  23  37
ATOM     37  C   UNL A   1      39.421  32.319  35.804  1.00  0.00     0.023 A 
ATOM     38  C   UNL A   1      39.917  33.616  36.029  1.00  0.00     0.012 A 
ATOM     39  C   UNL A   1      38.513  31.747  36.715  1.00  0.00     0.148 A 
ATOM     40  C   UNL A   1      39.543  34.320  37.175  1.00  0.00     0.002 A 
ATOM     41  C   UNL A   1      38.117  32.468  37.831  1.00  0.00     0.091 A 
ATOM     42  F   UNL A   1      38.077  30.501  36.482  1.00  0.00    -0.205 F 
ATOM     43  C   UNL A   1      38.642  33.748  38.071  1.00  0.00     0.022 A 
BRANCH  41  44
ATOM     44  S   UNL A   1      36.930  31.831  39.016  1.00  0.00     0.127 S 
ATOM     45  O   UNL A   1      37.590  32.135  40.286  1.00  0.00    -0.237 OA
ATOM     46  O   UNL A   1      35.750  32.646  38.730  1.00  0.00    -0.237 OA
ATOM     47  O   UNL A   1      36.783  30.412  38.722  1.00  0.00    -0.744 OA
ENDBRANCH  41  44
ENDBRANCH  23  37
BRANCH  24  48
ATOM     48  C   UNL A   1      41.734  26.896  27.843  1.00  0.00     0.023 A 
ATOM     49  C   UNL A   1      42.272  27.452  26.664  1.00  0.00     0.012 A 
ATOM     50  C   UNL A   1      41.376  25.529  27.839  1.00  0.00     0.148 A 
ATOM     51  C   UNL A   1      42.391  26.685  25.498  1.00  0.00     0.002 A 
ATOM     52  C   UNL A   1      41.539  24.761  26.690  1.00  0.00     0.091 A 
ATOM     53  F   UNL A   1      40.835  25.011  28.952  1.00  0.00    -0.205 F 
ATOM     54  C   UNL A   1      42.027  25.341  25.510  1.00  0.00     0.022 A 
BRANCH  52  55
ATOM     55  S   UNL A   1      41.153  23.006  26.650  1.00  0.00     0.127 S 
ATOM     56  O   UNL A   1      41.948  22.549  25.514  1.00  0.00    -0.237 OA
ATOM     57  O   UNL A   1      41.632  22.554  27.957  1.00  0.00    -0.237 OA
ATOM     58  O   UNL A   1      39.706  22.930  26.487  1.00  0.00    -0.744 OA
ENDBRANCH  52  55
ENDBRANCH  24  48
BRANCH  36  59
ATOM     59  C   UNL A   1      44.457  27.383  34.245  1.00  0.00     0.023 A 
ATOM     60  C   UNL A   1      45.733  27.981  34.249  1.00  0.00     0.012 A 
ATOM     61  C   UNL A   1      44.257  26.176  34.944  1.00  0.00     0.148 A 
ATOM     62  C   UNL A   1      46.799  27.374  34.910  1.00  0.00     0.002 A 
ATOM     63  C   UNL A   1      45.311  25.605  35.646  1.00  0.00     0.091 A 
ATOM     64  F   UNL A   1      43.043  25.609  34.907  1.00  0.00    -0.205 F 
ATOM     65  C   UNL A   1      46.585  26.195  35.619  1.00  0.00     0.022 A 
BRANCH  63  66
ATOM     66  S   UNL A   1      45.102  24.145  36.671  1.00  0.00     0.127 S 
ATOM     67  O   UNL A   1      44.123  24.607  37.653  1.00  0.00    -0.237 OA
ATOM     68  O   UNL A   1      44.590  23.165  35.711  1.00  0.00    -0.237 OA
ATOM     69  O   UNL A   1      46.423  23.835  37.201  1.00  0.00    -0.744 OA
ENDBRANCH  63  66
ENDBRANCH  36  59
ENDBRANCH  10  11
ENDBRANCH   3   5
ENDBRANCH   2   3
ENDBRANCH   1   2
BRANCH   1  70
ATOM     70  C   UNL A   1      32.225  29.835  26.152  1.00  0.00     0.275 C 
BRANCH  70  71
ATOM     71  O   UNL A   1      32.336  28.862  24.331  1.00  0.00    -0.458 OA
BRANCH  71  72
ATOM     72  C   UNL A   1      32.057  27.555  23.669  1.00  0.00     0.339 C 
ATOM     73  O   UNL A   1      31.992  27.344  22.441  1.00  0.00    -0.246 OA
BRANCH  72  74
ATOM     74  C   UNL A   1      31.602  26.392  24.345  1.00  0.00     0.072 A 
ATOM     75  C   UNL A   1      30.203  26.498  24.659  1.00  0.00     0.016 A 
ATOM     76  C   UNL A   1      32.424  25.466  24.946  1.00  0.00     0.054 A 
ATOM     77  C   UNL A   1      29.567  25.633  25.518  1.00  0.00     0.001 A 
ATOM     78  C   UNL A   1      31.732  24.557  25.793  1.00  0.00     0.015 A 
ATOM     79  C   UNL A   1      30.339  24.636  26.071  1.00  0.00     0.001 A 
BRANCH  76  80
ATOM     80  C   UNL A   1      33.917  25.319  24.815  1.00  0.00     0.257 C 
ATOM     81  O   UNL A   1      34.583  25.924  25.668  1.00  0.00    -0.269 OA
ATOM     82  N   UNL A   1      34.684  24.670  23.827  1.00  0.00    -0.307 N 
ATOM     83  H   UNL A   1      35.455  25.172  23.475  1.00  0.00     0.171 HD
BRANCH  82  84
ATOM     84  C   UNL A   1      34.472  23.372  23.277  1.00  0.00     0.132 A 
ATOM     85  C   UNL A   1      33.088  23.166  22.189  1.00  0.00     0.049 A 
ATOM     86  N   UNL A   1      34.926  22.251  24.462  1.00  0.00    -0.238 NA
ATOM     87  C   UNL A   1      31.986  21.749  22.535  1.00  0.00     0.026 A 
ATOM     88  C   UNL A   1      33.957  20.952  24.851  1.00  0.00     0.134 A 
ATOM     89  C   UNL A   1      32.496  20.584  23.963  1.00  0.00     0.059 A 
ATOM     90  Cl  UNL A   1      32.428  18.616  24.136  1.00  0.00    -0.083 Cl
ENDBRANCH  82  84
ENDBRANCH  76  80
ENDBRANCH  72  74
ENDBRANCH  71  72
ENDBRANCH  70  71
ENDBRANCH   1  70
TORSDOF 16
ENDMDL
