MODEL 1
REMARK VINA RESULT:     -12.5      0.000      0.000
REMARK SMILES NS(=O)(=O)c1ccc(-n2ccnc2-c2ccc(O)c(C(=O)OCCOC(=O)c3ccc(-c4c5nc(c(-c6cccc(S(=O)(=O)[O-])c6F)c6ccc([nH]6)c(-c6cccc(S(=O)(=O)[O-])c6F)c6nc(c(-c7cccc(S(=O)(=O)[O-])c7F)c7ccc4[nH]7)C=C6)C=C5)cc3)c2)cc1
REMARK SMILES IDX 23 1 22 2 20 3 21 4 19 5 14 6 15 7 91 8 16 9 17 10 13 11
REMARK SMILES IDX 9 12 10 13 11 14 12 15 8 16 5 17 6 18 93 19 7 20 92 21 2 22
REMARK SMILES IDX 3 23 4 24 1 25 18 28 24 30 25 31 26 32 27 33 28 34 29 35
REMARK SMILES IDX 90 36 30 37 89 38 31 39 32 40 33 41 83 42 34 43 88 44 82 45
REMARK SMILES IDX 84 46 35 47 87 48 81 49 80 50 36 52 68 53 48 54 67 55 49 56
REMARK SMILES IDX 52 57 66 58 85 59 50 60 51 61 65 63 86 64 53 65 37 66 38 67
REMARK SMILES IDX 46 68 39 69 41 70 47 71 40 72 42 73 43 74 44 75 45 76 69 77
REMARK SMILES IDX 70 78 78 79 71 80 73 81 79 82 72 83 74 84 75 85 76 86 77 87
REMARK SMILES IDX 54 88 55 89 63 90 56 91 58 92 64 93 57 94 59 95 60 96 61 97
REMARK SMILES IDX 62 98
REMARK H PARENT 1 26 1 27 18 29 84 51 52 62
REMARK Flexibility Score: inf
ROOT
ATOM      1  C   UNL A   1      32.372  31.070  26.752  1.00  0.00     0.275 C 
ENDROOT
BRANCH   1   2
ATOM      2  O   UNL A   1      32.440  29.678  27.113  1.00  0.00    -0.458 OA
BRANCH   2   3
ATOM      3  C   UNL A   1      33.002  28.849  26.197  1.00  0.00     0.342 C 
ATOM      4  O   UNL A   1      34.193  28.758  25.930  1.00  0.00    -0.246 OA
BRANCH   3   5
ATOM      5  C   UNL A   1      31.994  27.946  25.590  1.00  0.00     0.102 A 
ATOM      6  C   UNL A   1      30.770  25.835  25.579  1.00  0.00     0.019 A 
ATOM      7  C   UNL A   1      30.089  26.242  24.429  1.00  0.00     0.016 A 
ATOM      8  C   UNL A   1      31.757  26.674  26.123  1.00  0.00     0.031 A 
ATOM      9  C   UNL A   1      30.340  27.498  23.871  1.00  0.00     0.048 A 
ATOM     10  C   UNL A   1      31.273  28.352  24.460  1.00  0.00     0.130 A 
BRANCH   6  11
ATOM     11  C   UNL A   1      30.439  24.570  26.241  1.00  0.00     0.144 A 
ATOM     12  N   UNL A   1      31.178  23.395  26.105  1.00  0.00    -0.300 N 
ATOM     13  C   UNL A   1      30.394  22.379  26.604  1.00  0.00     0.113 A 
ATOM     14  C   UNL A   1      29.310  23.000  27.175  1.00  0.00     0.132 A 
ATOM     15  N   UNL A   1      29.359  24.351  26.971  1.00  0.00    -0.236 NA
BRANCH  12  16
ATOM     16  C   UNL A   1      32.489  23.244  25.580  1.00  0.00     0.047 A 
ATOM     17  C   UNL A   1      35.055  22.892  24.555  1.00  0.00     0.082 A 
ATOM     18  C   UNL A   1      33.951  22.687  23.727  1.00  0.00     0.024 A 
ATOM     19  C   UNL A   1      34.885  23.271  25.893  1.00  0.00     0.024 A 
ATOM     20  C   UNL A   1      32.665  22.855  24.244  1.00  0.00     0.028 A 
ATOM     21  C   UNL A   1      33.599  23.472  26.402  1.00  0.00     0.028 A 
BRANCH  17  22
ATOM     22  S   UNL A   1      36.702  22.656  23.956  1.00  0.00     0.238 S 
ATOM     23  O   UNL A   1      36.771  23.164  22.601  1.00  0.00    -0.207 OA
ATOM     24  O   UNL A   1      37.123  21.327  24.310  1.00  0.00    -0.207 OA
BRANCH  22  25
ATOM     25  N   UNL A   1      37.643  23.703  24.871  1.00  0.00    -0.225 NA
ATOM     26  H   UNL A   1      37.039  24.282  25.455  1.00  0.00     0.137 HD
ATOM     27  H   UNL A   1      38.190  24.299  24.251  1.00  0.00     0.137 HD
ENDBRANCH  22  25
ENDBRANCH  17  22
ENDBRANCH  12  16
ENDBRANCH   6  11
BRANCH  10  28
ATOM     28  O   UNL A   1      31.429  29.575  23.865  1.00  0.00    -0.507 OA
ATOM     29  H   UNL A   1      30.706  29.980  23.429  1.00  0.00     0.293 HD
ENDBRANCH  10  28
ENDBRANCH   3   5
ENDBRANCH   2   3
ENDBRANCH   1   2
BRANCH   1  30
ATOM     30  C   UNL A   1      33.127  31.936  27.750  1.00  0.00     0.275 C 
BRANCH  30  31
ATOM     31  O   UNL A   1      34.535  31.749  27.629  1.00  0.00    -0.458 OA
BRANCH  31  32
ATOM     32  C   UNL A   1      35.214  31.715  28.798  1.00  0.00     0.338 C 
ATOM     33  O   UNL A   1      34.833  32.134  29.877  1.00  0.00    -0.246 OA
BRANCH  32  34
ATOM     34  C   UNL A   1      36.593  31.295  28.530  1.00  0.00     0.060 A 
ATOM     35  C   UNL A   1      36.773  30.051  27.921  1.00  0.00     0.016 A 
ATOM     36  C   UNL A   1      37.657  31.991  29.125  1.00  0.00     0.016 A 
ATOM     37  C   UNL A   1      37.989  29.420  28.071  1.00  0.00     0.010 A 
ATOM     38  C   UNL A   1      38.861  31.351  29.292  1.00  0.00     0.010 A 
ATOM     39  C   UNL A   1      38.987  30.047  28.825  1.00  0.00    -0.014 A 
BRANCH  39  40
ATOM     40  C   UNL A   1      40.259  29.372  28.969  1.00  0.00     0.031 A 
ATOM     41  C   UNL A   1      40.622  29.202  30.394  1.00  0.00     0.074 A 
ATOM     42  C   UNL A   1      40.944  28.874  27.921  1.00  0.00     0.049 A 
ATOM     43  N   UNL A   1      41.543  29.831  31.043  1.00  0.00    -0.248 NA
ATOM     44  C   UNL A   1      39.709  28.426  31.250  1.00  0.00     0.031 C 
ATOM     45  C   UNL A   1      40.503  28.762  26.529  1.00  0.00     0.029 A 
ATOM     46  N   UNL A   1      42.143  28.230  27.912  1.00  0.00    -0.354 N 
ATOM     47  C   UNL A   1      41.498  29.300  32.328  1.00  0.00     0.074 A 
ATOM     48  C   UNL A   1      40.214  28.672  32.460  1.00  0.00     0.031 C 
ATOM     49  C   UNL A   1      41.295  27.873  25.883  1.00  0.00     0.029 A 
ATOM     50  C   UNL A   1      42.361  27.452  26.777  1.00  0.00     0.049 A 
ATOM     51  H   UNL A   1      42.799  28.308  28.641  1.00  0.00     0.167 HD
ATOM     52  C   UNL A   1      42.646  29.119  33.035  1.00  0.00     0.034 A 
ATOM     53  C   UNL A   1      43.292  26.473  26.637  1.00  0.00     0.034 A 
ATOM     54  C   UNL A   1      43.717  29.923  32.494  1.00  0.00     0.049 A 
ATOM     55  C   UNL A   1      44.320  26.690  27.682  1.00  0.00     0.074 A 
ATOM     56  C   UNL A   1      43.902  31.268  32.240  1.00  0.00     0.029 A 
ATOM     57  N   UNL A   1      44.661  29.265  31.744  1.00  0.00    -0.354 N 
ATOM     58  N   UNL A   1      45.123  27.713  27.693  1.00  0.00    -0.248 NA
ATOM     59  C   UNL A   1      44.138  26.018  28.959  1.00  0.00     0.031 C 
ATOM     60  C   UNL A   1      44.621  31.316  31.008  1.00  0.00     0.029 A 
ATOM     61  C   UNL A   1      44.906  30.006  30.620  1.00  0.00     0.049 A 
ATOM     62  H   UNL A   1      45.089  28.408  31.974  1.00  0.00     0.167 HD
ATOM     63  C   UNL A   1      45.147  28.110  29.024  1.00  0.00     0.074 A 
ATOM     64  C   UNL A   1      44.611  26.970  29.769  1.00  0.00     0.031 C 
ATOM     65  C   UNL A   1      45.305  29.425  29.359  1.00  0.00     0.034 A 
BRANCH  52  66
ATOM     66  C   UNL A   1      42.929  27.896  33.889  1.00  0.00     0.023 A 
ATOM     67  C   UNL A   1      43.583  26.819  33.250  1.00  0.00     0.012 A 
ATOM     68  C   UNL A   1      42.342  27.625  35.148  1.00  0.00     0.148 A 
ATOM     69  C   UNL A   1      43.569  25.528  33.789  1.00  0.00     0.002 A 
ATOM     70  C   UNL A   1      42.395  26.358  35.715  1.00  0.00     0.091 A 
ATOM     71  F   UNL A   1      41.606  28.547  35.769  1.00  0.00    -0.205 F 
ATOM     72  C   UNL A   1      42.975  25.296  35.022  1.00  0.00     0.022 A 
BRANCH  70  73
ATOM     73  S   UNL A   1      41.673  26.013  37.327  1.00  0.00     0.127 S 
ATOM     74  O   UNL A   1      42.780  26.344  38.218  1.00  0.00    -0.237 OA
ATOM     75  O   UNL A   1      40.551  26.950  37.352  1.00  0.00    -0.237 OA
ATOM     76  O   UNL A   1      41.278  24.610  37.294  1.00  0.00    -0.744 OA
ENDBRANCH  70  73
ENDBRANCH  52  66
BRANCH  53  77
ATOM     77  C   UNL A   1      43.229  25.191  25.889  1.00  0.00     0.023 A 
ATOM     78  C   UNL A   1      44.247  24.869  24.965  1.00  0.00     0.012 A 
ATOM     79  C   UNL A   1      42.357  24.157  26.296  1.00  0.00     0.148 A 
ATOM     80  C   UNL A   1      44.417  23.560  24.496  1.00  0.00     0.002 A 
ATOM     81  C   UNL A   1      42.526  22.857  25.824  1.00  0.00     0.091 A 
ATOM     82  F   UNL A   1      41.425  24.425  27.218  1.00  0.00    -0.205 F 
ATOM     83  C   UNL A   1      43.563  22.551  24.935  1.00  0.00     0.022 A 
BRANCH  81  84
ATOM     84  S   UNL A   1      41.483  21.499  26.374  1.00  0.00     0.127 S 
ATOM     85  O   UNL A   1      40.160  21.934  25.925  1.00  0.00    -0.237 OA
ATOM     86  O   UNL A   1      42.039  20.370  25.635  1.00  0.00    -0.237 OA
ATOM     87  O   UNL A   1      41.633  21.442  27.823  1.00  0.00    -0.744 OA
ENDBRANCH  81  84
ENDBRANCH  53  77
BRANCH  65  88
ATOM     88  C   UNL A   1      45.729  30.381  28.274  1.00  0.00     0.023 A 
ATOM     89  C   UNL A   1      44.813  31.146  27.520  1.00  0.00     0.012 A 
ATOM     90  C   UNL A   1      47.104  30.607  28.102  1.00  0.00     0.148 A 
ATOM     91  C   UNL A   1      45.264  32.088  26.589  1.00  0.00     0.002 A 
ATOM     92  C   UNL A   1      47.547  31.573  27.209  1.00  0.00     0.091 A 
ATOM     93  F   UNL A   1      47.961  29.876  28.830  1.00  0.00    -0.205 F 
ATOM     94  C   UNL A   1      46.631  32.308  26.440  1.00  0.00     0.022 A 
BRANCH  92  95
ATOM     95  S   UNL A   1      49.288  31.968  27.060  1.00  0.00     0.127 S 
ATOM     96  O   UNL A   1      49.839  30.725  26.527  1.00  0.00    -0.237 OA
ATOM     97  O   UNL A   1      49.280  33.088  26.117  1.00  0.00    -0.237 OA
ATOM     98  O   UNL A   1      49.732  32.329  28.402  1.00  0.00    -0.744 OA
ENDBRANCH  92  95
ENDBRANCH  65  88
ENDBRANCH  39  40
ENDBRANCH  32  34
ENDBRANCH  31  32
ENDBRANCH  30  31
ENDBRANCH   1  30
TORSDOF 19
ENDMDL
MODEL 2
REMARK VINA RESULT:     -12.5      2.737      7.419
REMARK SMILES NS(=O)(=O)c1ccc(-n2ccnc2-c2ccc(O)c(C(=O)OCCOC(=O)c3ccc(-c4c5nc(c(-c6cccc(S(=O)(=O)[O-])c6F)c6ccc([nH]6)c(-c6cccc(S(=O)(=O)[O-])c6F)c6nc(c(-c7cccc(S(=O)(=O)[O-])c7F)c7ccc4[nH]7)C=C6)C=C5)cc3)c2)cc1
REMARK SMILES IDX 23 1 22 2 20 3 21 4 19 5 14 6 15 7 91 8 16 9 17 10 13 11
REMARK SMILES IDX 9 12 10 13 11 14 12 15 8 16 5 17 6 18 93 19 7 20 92 21 2 22
REMARK SMILES IDX 3 23 4 24 1 25 18 28 24 30 25 31 26 32 27 33 28 34 29 35
REMARK SMILES IDX 90 36 30 37 89 38 31 39 32 40 33 41 83 42 34 43 88 44 82 45
REMARK SMILES IDX 84 46 35 47 87 48 81 49 80 50 36 52 68 53 48 54 67 55 49 56
REMARK SMILES IDX 52 57 66 58 85 59 50 60 51 61 65 63 86 64 53 65 37 66 38 67
REMARK SMILES IDX 46 68 39 69 41 70 47 71 40 72 42 73 43 74 44 75 45 76 69 77
REMARK SMILES IDX 70 78 78 79 71 80 73 81 79 82 72 83 74 84 75 85 76 86 77 87
REMARK SMILES IDX 54 88 55 89 63 90 56 91 58 92 64 93 57 94 59 95 60 96 61 97
REMARK SMILES IDX 62 98
REMARK H PARENT 1 26 1 27 18 29 84 51 52 62
REMARK Flexibility Score: inf
ROOT
ATOM      1  C   UNL A   1      37.992  20.808  25.036  1.00  0.00     0.275 C 
ENDROOT
BRANCH   1   2
ATOM      2  O   UNL A   1      36.907  21.376  25.793  1.00  0.00    -0.458 OA
BRANCH   2   3
ATOM      3  C   UNL A   1      36.603  22.671  25.523  1.00  0.00     0.342 C 
ATOM      4  O   UNL A   1      37.295  23.649  25.776  1.00  0.00    -0.246 OA
BRANCH   3   5
ATOM      5  C   UNL A   1      35.334  22.786  24.764  1.00  0.00     0.102 A 
ATOM      6  C   UNL A   1      32.896  22.814  24.700  1.00  0.00     0.019 A 
ATOM      7  C   UNL A   1      32.939  22.998  23.316  1.00  0.00     0.016 A 
ATOM      8  C   UNL A   1      34.099  22.660  25.409  1.00  0.00     0.031 A 
ATOM      9  C   UNL A   1      34.168  23.096  22.658  1.00  0.00     0.048 A 
ATOM     10  C   UNL A   1      35.358  23.011  23.382  1.00  0.00     0.130 A 
BRANCH   6  11
ATOM     11  C   UNL A   1      31.619  22.822  25.420  1.00  0.00     0.144 A 
ATOM     12  N   UNL A   1      31.086  23.939  26.064  1.00  0.00    -0.300 N 
ATOM     13  C   UNL A   1      30.068  23.478  26.868  1.00  0.00     0.113 A 
ATOM     14  C   UNL A   1      29.915  22.153  26.543  1.00  0.00     0.132 A 
ATOM     15  N   UNL A   1      30.856  21.763  25.630  1.00  0.00    -0.236 NA
BRANCH  12  16
ATOM     16  C   UNL A   1      31.478  25.297  25.924  1.00  0.00     0.047 A 
ATOM     17  C   UNL A   1      32.265  27.948  25.596  1.00  0.00     0.082 A 
ATOM     18  C   UNL A   1      31.078  27.507  25.010  1.00  0.00     0.024 A 
ATOM     19  C   UNL A   1      33.062  27.072  26.343  1.00  0.00     0.024 A 
ATOM     20  C   UNL A   1      30.689  26.176  25.167  1.00  0.00     0.028 A 
ATOM     21  C   UNL A   1      32.656  25.748  26.530  1.00  0.00     0.028 A 
BRANCH  17  22
ATOM     22  S   UNL A   1      32.818  29.615  25.393  1.00  0.00     0.238 S 
ATOM     23  O   UNL A   1      33.897  29.855  26.330  1.00  0.00    -0.207 OA
ATOM     24  O   UNL A   1      31.661  30.466  25.306  1.00  0.00    -0.207 OA
BRANCH  22  25
ATOM     25  N   UNL A   1      33.534  29.646  23.875  1.00  0.00    -0.225 NA
ATOM     26  H   UNL A   1      33.506  30.596  23.505  1.00  0.00     0.137 HD
ATOM     27  H   UNL A   1      33.028  29.022  23.247  1.00  0.00     0.137 HD
ENDBRANCH  22  25
ENDBRANCH  17  22
ENDBRANCH  12  16
ENDBRANCH   6  11
BRANCH  10  28
ATOM     28  O   UNL A   1      36.513  23.150  22.659  1.00  0.00    -0.507 OA
ATOM     29  H   UNL A   1      36.796  22.462  22.090  1.00  0.00     0.293 HD
ENDBRANCH  10  28
ENDBRANCH   3   5
ENDBRANCH   2   3
ENDBRANCH   1   2
BRANCH   1  30
ATOM     30  C   UNL A   1      39.326  21.028  25.736  1.00  0.00     0.275 C 
BRANCH  30  31
ATOM     31  O   UNL A   1      39.943  19.786  26.066  1.00  0.00    -0.458 OA
BRANCH  31  32
ATOM     32  C   UNL A   1      41.284  19.747  25.894  1.00  0.00     0.338 C 
ATOM     33  O   UNL A   1      41.929  18.850  25.379  1.00  0.00    -0.246 OA
BRANCH  32  34
ATOM     34  C   UNL A   1      41.887  20.859  26.635  1.00  0.00     0.060 A 
ATOM     35  C   UNL A   1      41.601  20.944  28.000  1.00  0.00     0.016 A 
ATOM     36  C   UNL A   1      42.474  21.923  25.932  1.00  0.00     0.016 A 
ATOM     37  C   UNL A   1      41.737  22.167  28.621  1.00  0.00     0.010 A 
ATOM     38  C   UNL A   1      42.587  23.145  26.547  1.00  0.00     0.010 A 
ATOM     39  C   UNL A   1      42.150  23.268  27.862  1.00  0.00    -0.014 A 
BRANCH  39  40
ATOM     40  C   UNL A   1      42.290  24.543  28.531  1.00  0.00     0.031 A 
ATOM     41  C   UNL A   1      41.141  25.432  28.244  1.00  0.00     0.074 A 
ATOM     42  C   UNL A   1      43.294  24.812  29.388  1.00  0.00     0.049 A 
ATOM     43  N   UNL A   1      41.138  26.483  27.496  1.00  0.00    -0.248 NA
ATOM     44  C   UNL A   1      39.798  24.970  28.636  1.00  0.00     0.031 C 
ATOM     45  C   UNL A   1      44.293  23.884  29.924  1.00  0.00     0.029 A 
ATOM     46  N   UNL A   1      43.548  25.960  30.073  1.00  0.00    -0.354 N 
ATOM     47  C   UNL A   1      39.836  26.968  27.570  1.00  0.00     0.074 A 
ATOM     48  C   UNL A   1      39.026  25.878  28.038  1.00  0.00     0.031 C 
ATOM     49  C   UNL A   1      44.861  24.432  31.024  1.00  0.00     0.029 A 
ATOM     50  C   UNL A   1      44.358  25.785  31.194  1.00  0.00     0.049 A 
ATOM     51  H   UNL A   1      43.194  26.837  29.801  1.00  0.00     0.167 HD
ATOM     52  C   UNL A   1      39.604  28.308  27.581  1.00  0.00     0.034 A 
ATOM     53  C   UNL A   1      44.513  26.660  32.221  1.00  0.00     0.034 A 
ATOM     54  C   UNL A   1      40.743  29.033  27.069  1.00  0.00     0.049 A 
ATOM     55  C   UNL A   1      44.073  27.990  31.737  1.00  0.00     0.074 A 
ATOM     56  C   UNL A   1      41.474  29.011  25.897  1.00  0.00     0.029 A 
ATOM     57  N   UNL A   1      41.537  29.666  27.995  1.00  0.00    -0.354 N 
ATOM     58  N   UNL A   1      44.706  28.662  30.820  1.00  0.00    -0.248 NA
ATOM     59  C   UNL A   1      42.680  28.355  31.938  1.00  0.00     0.031 C 
ATOM     60  C   UNL A   1      42.829  29.202  26.303  1.00  0.00     0.029 A 
ATOM     61  C   UNL A   1      42.844  29.411  27.682  1.00  0.00     0.049 A 
ATOM     62  H   UNL A   1      41.220  30.208  28.753  1.00  0.00     0.167 HD
ATOM     63  C   UNL A   1      43.694  29.161  30.010  1.00  0.00     0.074 A 
ATOM     64  C   UNL A   1      42.472  29.031  30.804  1.00  0.00     0.031 C 
ATOM     65  C   UNL A   1      43.895  29.341  28.671  1.00  0.00     0.034 A 
BRANCH  52  66
ATOM     66  C   UNL A   1      38.573  28.981  28.470  1.00  0.00     0.023 A 
ATOM     67  C   UNL A   1      37.772  29.974  27.864  1.00  0.00     0.012 A 
ATOM     68  C   UNL A   1      38.551  28.923  29.884  1.00  0.00     0.148 A 
ATOM     69  C   UNL A   1      37.065  30.913  28.625  1.00  0.00     0.002 A 
ATOM     70  C   UNL A   1      37.789  29.809  30.635  1.00  0.00     0.091 A 
ATOM     71  F   UNL A   1      39.362  28.097  30.544  1.00  0.00    -0.205 F 
ATOM     72  C   UNL A   1      37.073  30.831  30.011  1.00  0.00     0.022 A 
BRANCH  70  73
ATOM     73  S   UNL A   1      37.736  29.724  32.431  1.00  0.00     0.127 S 
ATOM     74  O   UNL A   1      39.095  30.123  32.780  1.00  0.00    -0.237 OA
ATOM     75  O   UNL A   1      36.698  30.707  32.741  1.00  0.00    -0.237 OA
ATOM     76  O   UNL A   1      37.372  28.349  32.754  1.00  0.00    -0.744 OA
ENDBRANCH  70  73
ENDBRANCH  52  66
BRANCH  53  77
ATOM     77  C   UNL A   1      44.716  26.408  33.671  1.00  0.00     0.023 A 
ATOM     78  C   UNL A   1      45.977  26.657  34.255  1.00  0.00     0.012 A 
ATOM     79  C   UNL A   1      43.614  26.226  34.536  1.00  0.00     0.148 A 
ATOM     80  C   UNL A   1      46.128  26.761  35.644  1.00  0.00     0.002 A 
ATOM     81  C   UNL A   1      43.768  26.326  35.916  1.00  0.00     0.091 A 
ATOM     82  F   UNL A   1      42.398  26.052  34.003  1.00  0.00    -0.205 F 
ATOM     83  C   UNL A   1      45.021  26.607  36.474  1.00  0.00     0.022 A 
BRANCH  81  84
ATOM     84  S   UNL A   1      42.377  26.172  37.046  1.00  0.00     0.127 S 
ATOM     85  O   UNL A   1      41.931  24.803  36.790  1.00  0.00    -0.237 OA
ATOM     86  O   UNL A   1      43.016  26.375  38.343  1.00  0.00    -0.237 OA
ATOM     87  O   UNL A   1      41.422  27.198  36.644  1.00  0.00    -0.744 OA
ENDBRANCH  81  84
ENDBRANCH  53  77
BRANCH  65  88
ATOM     88  C   UNL A   1      45.308  29.251  28.154  1.00  0.00     0.023 A 
ATOM     89  C   UNL A   1      46.220  30.328  28.209  1.00  0.00     0.012 A 
ATOM     90  C   UNL A   1      45.766  27.998  27.715  1.00  0.00     0.148 A 
ATOM     91  C   UNL A   1      47.548  30.163  27.800  1.00  0.00     0.002 A 
ATOM     92  C   UNL A   1      47.095  27.828  27.352  1.00  0.00     0.091 A 
ATOM     93  F   UNL A   1      44.889  26.984  27.674  1.00  0.00    -0.205 F 
ATOM     94  C   UNL A   1      47.988  28.910  27.381  1.00  0.00     0.022 A 
BRANCH  92  95
ATOM     95  S   UNL A   1      47.734  26.213  26.909  1.00  0.00     0.127 S 
ATOM     96  O   UNL A   1      46.891  25.853  25.771  1.00  0.00    -0.237 OA
ATOM     97  O   UNL A   1      49.127  26.506  26.569  1.00  0.00    -0.237 OA
ATOM     98  O   UNL A   1      47.577  25.381  28.097  1.00  0.00    -0.744 OA
ENDBRANCH  92  95
ENDBRANCH  65  88
ENDBRANCH  39  40
ENDBRANCH  32  34
ENDBRANCH  31  32
ENDBRANCH  30  31
ENDBRANCH   1  30
TORSDOF 19
ENDMDL
MODEL 3
REMARK VINA RESULT:     -12.4      3.414      8.983
REMARK SMILES NS(=O)(=O)c1ccc(-n2ccnc2-c2ccc(O)c(C(=O)OCCOC(=O)c3ccc(-c4c5nc(c(-c6cccc(S(=O)(=O)[O-])c6F)c6ccc([nH]6)c(-c6cccc(S(=O)(=O)[O-])c6F)c6nc(c(-c7cccc(S(=O)(=O)[O-])c7F)c7ccc4[nH]7)C=C6)C=C5)cc3)c2)cc1
REMARK SMILES IDX 23 1 22 2 20 3 21 4 19 5 14 6 15 7 91 8 16 9 17 10 13 11
REMARK SMILES IDX 9 12 10 13 11 14 12 15 8 16 5 17 6 18 93 19 7 20 92 21 2 22
REMARK SMILES IDX 3 23 4 24 1 25 18 28 24 30 25 31 26 32 27 33 28 34 29 35
REMARK SMILES IDX 90 36 30 37 89 38 31 39 32 40 33 41 83 42 34 43 88 44 82 45
REMARK SMILES IDX 84 46 35 47 87 48 81 49 80 50 36 52 68 53 48 54 67 55 49 56
REMARK SMILES IDX 52 57 66 58 85 59 50 60 51 61 65 63 86 64 53 65 37 66 38 67
REMARK SMILES IDX 46 68 39 69 41 70 47 71 40 72 42 73 43 74 44 75 45 76 69 77
REMARK SMILES IDX 70 78 78 79 71 80 73 81 79 82 72 83 74 84 75 85 76 86 77 87
REMARK SMILES IDX 54 88 55 89 63 90 56 91 58 92 64 93 57 94 59 95 60 96 61 97
REMARK SMILES IDX 62 98
REMARK H PARENT 1 26 1 27 18 29 84 51 52 62
REMARK Flexibility Score: inf
ROOT
ATOM      1  C   UNL A   1      37.852  22.446  25.759  1.00  0.00     0.275 C 
ENDROOT
BRANCH   1   2
ATOM      2  O   UNL A   1      37.146  22.096  24.554  1.00  0.00    -0.458 OA
BRANCH   2   3
ATOM      3  C   UNL A   1      36.164  21.168  24.684  1.00  0.00     0.342 C 
ATOM      4  O   UNL A   1      36.305  19.999  25.019  1.00  0.00    -0.246 OA
BRANCH   3   5
ATOM      5  C   UNL A   1      34.822  21.763  24.469  1.00  0.00     0.102 A 
ATOM      6  C   UNL A   1      33.344  23.280  23.259  1.00  0.00     0.019 A 
ATOM      7  C   UNL A   1      32.280  22.887  24.076  1.00  0.00     0.016 A 
ATOM      8  C   UNL A   1      34.623  22.749  23.497  1.00  0.00     0.031 A 
ATOM      9  C   UNL A   1      32.476  21.924  25.069  1.00  0.00     0.048 A 
ATOM     10  C   UNL A   1      33.735  21.351  25.251  1.00  0.00     0.130 A 
BRANCH   6  11
ATOM     11  C   UNL A   1      33.131  24.204  22.141  1.00  0.00     0.144 A 
ATOM     12  N   UNL A   1      32.624  25.496  22.275  1.00  0.00    -0.300 N 
ATOM     13  C   UNL A   1      32.281  25.915  21.009  1.00  0.00     0.113 A 
ATOM     14  C   UNL A   1      32.756  24.945  20.161  1.00  0.00     0.132 A 
ATOM     15  N   UNL A   1      33.303  23.908  20.864  1.00  0.00    -0.236 NA
BRANCH  12  16
ATOM     16  C   UNL A   1      32.493  26.264  23.463  1.00  0.00     0.047 A 
ATOM     17  C   UNL A   1      32.216  27.812  25.761  1.00  0.00     0.082 A 
ATOM     18  C   UNL A   1      31.090  27.207  25.201  1.00  0.00     0.024 A 
ATOM     19  C   UNL A   1      33.479  27.649  25.179  1.00  0.00     0.024 A 
ATOM     20  C   UNL A   1      31.228  26.439  24.044  1.00  0.00     0.028 A 
ATOM     21  C   UNL A   1      33.624  26.852  24.040  1.00  0.00     0.028 A 
BRANCH  17  22
ATOM     22  S   UNL A   1      32.085  28.825  27.204  1.00  0.00     0.238 S 
ATOM     23  O   UNL A   1      31.338  28.094  28.207  1.00  0.00    -0.207 OA
ATOM     24  O   UNL A   1      31.733  30.157  26.790  1.00  0.00    -0.207 OA
BRANCH  22  25
ATOM     25  N   UNL A   1      33.651  28.922  27.801  1.00  0.00    -0.225 NA
ATOM     26  H   UNL A   1      34.070  29.807  27.515  1.00  0.00     0.137 HD
ATOM     27  H   UNL A   1      34.204  28.149  27.432  1.00  0.00     0.137 HD
ENDBRANCH  22  25
ENDBRANCH  17  22
ENDBRANCH  12  16
ENDBRANCH   6  11
BRANCH  10  28
ATOM     28  O   UNL A   1      33.826  20.394  26.225  1.00  0.00    -0.507 OA
ATOM     29  H   UNL A   1      33.403  20.524  27.051  1.00  0.00     0.293 HD
ENDBRANCH  10  28
ENDBRANCH   3   5
ENDBRANCH   2   3
ENDBRANCH   1   2
BRANCH   1  30
ATOM     30  C   UNL A   1      39.187  21.719  25.847  1.00  0.00     0.275 C 
BRANCH  30  31
ATOM     31  O   UNL A   1      39.910  22.115  27.010  1.00  0.00    -0.458 OA
BRANCH  31  32
ATOM     32  C   UNL A   1      40.931  22.973  26.788  1.00  0.00     0.338 C 
ATOM     33  O   UNL A   1      41.892  22.794  26.059  1.00  0.00    -0.246 OA
BRANCH  32  34
ATOM     34  C   UNL A   1      40.832  24.082  27.742  1.00  0.00     0.060 A 
ATOM     35  C   UNL A   1      39.660  24.842  27.714  1.00  0.00     0.016 A 
ATOM     36  C   UNL A   1      41.978  24.511  28.428  1.00  0.00     0.016 A 
ATOM     37  C   UNL A   1      39.698  26.121  28.225  1.00  0.00     0.010 A 
ATOM     38  C   UNL A   1      42.021  25.794  28.916  1.00  0.00     0.010 A 
ATOM     39  C   UNL A   1      40.905  26.605  28.744  1.00  0.00    -0.014 A 
BRANCH  39  40
ATOM     40  C   UNL A   1      40.926  27.950  29.278  1.00  0.00     0.031 A 
ATOM     41  C   UNL A   1      41.887  28.806  28.547  1.00  0.00     0.074 A 
ATOM     42  C   UNL A   1      40.084  28.365  30.244  1.00  0.00     0.049 A 
ATOM     43  N   UNL A   1      43.024  29.242  28.975  1.00  0.00    -0.248 NA
ATOM     44  C   UNL A   1      41.675  29.001  27.103  1.00  0.00     0.031 C 
ATOM     45  C   UNL A   1      38.933  27.652  30.803  1.00  0.00     0.029 A 
ATOM     46  N   UNL A   1      40.001  29.586  30.839  1.00  0.00    -0.354 N 
ATOM     47  C   UNL A   1      43.526  30.011  27.930  1.00  0.00     0.074 A 
ATOM     48  C   UNL A   1      42.812  29.606  26.752  1.00  0.00     0.031 C 
ATOM     49  C   UNL A   1      38.133  28.536  31.445  1.00  0.00     0.029 A 
ATOM     50  C   UNL A   1      38.773  29.841  31.446  1.00  0.00     0.049 A 
ATOM     51  H   UNL A   1      40.744  30.233  30.842  1.00  0.00     0.167 HD
ATOM     52  C   UNL A   1      44.224  31.149  28.191  1.00  0.00     0.034 A 
ATOM     53  C   UNL A   1      38.297  31.055  31.826  1.00  0.00     0.034 A 
ATOM     54  C   UNL A   1      44.715  31.153  29.549  1.00  0.00     0.049 A 
ATOM     55  C   UNL A   1      39.458  31.971  31.926  1.00  0.00     0.074 A 
ATOM     56  C   UNL A   1      45.501  30.309  30.310  1.00  0.00     0.029 A 
ATOM     57  N   UNL A   1      44.045  31.951  30.444  1.00  0.00    -0.354 N 
ATOM     58  N   UNL A   1      40.391  31.846  32.824  1.00  0.00    -0.248 NA
ATOM     59  C   UNL A   1      39.819  32.737  30.744  1.00  0.00     0.031 C 
ATOM     60  C   UNL A   1      44.912  30.326  31.609  1.00  0.00     0.029 A 
ATOM     61  C   UNL A   1      43.853  31.236  31.594  1.00  0.00     0.049 A 
ATOM     62  H   UNL A   1      43.753  32.878  30.285  1.00  0.00     0.167 HD
ATOM     63  C   UNL A   1      41.567  32.072  32.121  1.00  0.00     0.074 A 
ATOM     64  C   UNL A   1      41.148  32.719  30.877  1.00  0.00     0.031 C 
ATOM     65  C   UNL A   1      42.725  31.439  32.474  1.00  0.00     0.034 A 
BRANCH  52  66
ATOM     66  C   UNL A   1      44.066  32.438  27.404  1.00  0.00     0.023 A 
ATOM     67  C   UNL A   1      44.793  32.532  26.197  1.00  0.00     0.012 A 
ATOM     68  C   UNL A   1      43.514  33.640  27.908  1.00  0.00     0.148 A 
ATOM     69  C   UNL A   1      45.036  33.764  25.579  1.00  0.00     0.002 A 
ATOM     70  C   UNL A   1      43.694  34.851  27.251  1.00  0.00     0.091 A 
ATOM     71  F   UNL A   1      42.914  33.668  29.097  1.00  0.00    -0.205 F 
ATOM     72  C   UNL A   1      44.486  34.925  26.106  1.00  0.00     0.022 A 
BRANCH  70  73
ATOM     73  S   UNL A   1      42.973  36.379  27.872  1.00  0.00     0.127 S 
ATOM     74  O   UNL A   1      41.547  36.087  27.774  1.00  0.00    -0.237 OA
ATOM     75  O   UNL A   1      43.509  36.424  29.232  1.00  0.00    -0.237 OA
ATOM     76  O   UNL A   1      43.469  37.436  26.999  1.00  0.00    -0.744 OA
ENDBRANCH  70  73
ENDBRANCH  52  66
BRANCH  53  77
ATOM     77  C   UNL A   1      36.909  31.585  31.815  1.00  0.00     0.023 A 
ATOM     78  C   UNL A   1      36.307  31.993  33.025  1.00  0.00     0.012 A 
ATOM     79  C   UNL A   1      36.294  31.980  30.607  1.00  0.00     0.148 A 
ATOM     80  C   UNL A   1      35.160  32.797  33.033  1.00  0.00     0.002 A 
ATOM     81  C   UNL A   1      35.151  32.776  30.618  1.00  0.00     0.091 A 
ATOM     82  F   UNL A   1      36.882  31.659  29.448  1.00  0.00    -0.205 F 
ATOM     83  C   UNL A   1      34.588  33.198  31.828  1.00  0.00     0.022 A 
BRANCH  81  84
ATOM     84  S   UNL A   1      34.379  33.360  29.101  1.00  0.00     0.127 S 
ATOM     85  O   UNL A   1      35.482  34.074  28.458  1.00  0.00    -0.237 OA
ATOM     86  O   UNL A   1      34.000  32.108  28.453  1.00  0.00    -0.237 OA
ATOM     87  O   UNL A   1      33.276  34.216  29.519  1.00  0.00    -0.744 OA
ENDBRANCH  81  84
ENDBRANCH  53  77
BRANCH  65  88
ATOM     88  C   UNL A   1      42.758  30.717  33.796  1.00  0.00     0.023 A 
ATOM     89  C   UNL A   1      43.019  31.365  35.023  1.00  0.00     0.012 A 
ATOM     90  C   UNL A   1      42.384  29.363  33.812  1.00  0.00     0.148 A 
ATOM     91  C   UNL A   1      42.945  30.665  36.232  1.00  0.00     0.002 A 
ATOM     92  C   UNL A   1      42.269  28.684  35.017  1.00  0.00     0.091 A 
ATOM     93  F   UNL A   1      42.133  28.763  32.639  1.00  0.00    -0.205 F 
ATOM     94  C   UNL A   1      42.560  29.327  36.230  1.00  0.00     0.022 A 
BRANCH  92  95
ATOM     95  S   UNL A   1      41.674  26.994  35.074  1.00  0.00     0.127 S 
ATOM     96  O   UNL A   1      42.865  26.239  34.692  1.00  0.00    -0.237 OA
ATOM     97  O   UNL A   1      41.279  26.845  36.476  1.00  0.00    -0.237 OA
ATOM     98  O   UNL A   1      40.560  26.930  34.135  1.00  0.00    -0.744 OA
ENDBRANCH  92  95
ENDBRANCH  65  88
ENDBRANCH  39  40
ENDBRANCH  32  34
ENDBRANCH  31  32
ENDBRANCH  30  31
ENDBRANCH   1  30
TORSDOF 19
ENDMDL
