MODEL 1
REMARK VINA RESULT:     -11.2      0.000      0.000
REMARK SMILES C[C@H]1SCCC[C@@]1(C(=O)OCCOC(=O)c1ccc(-c2c3nc(c(-c4cccc(S(=O)(=O)[O-])c4F)c4ccc([nH]4)c(-c4cccc(S(=O)(=O)[O-])c4F)c4nc(c(-c5cccc(S(=O)(=O)[O-])c5F)c5ccc2[nH]5)C=C4)C=C3)cc1)[NH+]1CCCC1
REMARK SMILES IDX 12 1 11 2 10 3 8 4 9 5 7 6 1 7 2 8 3 9 4 10 6 11 5 12 79 13
REMARK SMILES IDX 80 14 83 15 81 17 82 18 13 19 14 20 15 21 16 22 17 23 78 24
REMARK SMILES IDX 18 25 77 26 19 27 20 28 21 29 71 30 22 31 76 32 70 33 72 34
REMARK SMILES IDX 23 35 75 36 69 37 68 38 24 40 56 41 36 42 55 43 37 44 40 45
REMARK SMILES IDX 54 46 73 47 38 48 39 49 53 51 74 52 41 53 25 54 26 55 34 56
REMARK SMILES IDX 27 57 29 58 35 59 28 60 30 61 31 62 32 63 33 64 57 65 58 66
REMARK SMILES IDX 66 67 59 68 61 69 67 70 60 71 62 72 63 73 64 74 65 75 42 76
REMARK SMILES IDX 43 77 51 78 44 79 46 80 52 81 45 82 47 83 48 84 49 85 50 86
REMARK H PARENT 79 16 72 39 40 50
REMARK Flexibility Score: inf
ROOT
ATOM      1  C   UNL A   1      36.587  21.299  24.450  1.00  0.00     0.275 C 
ENDROOT
BRANCH   1   2
ATOM      2  C   UNL A   1      36.576  22.498  23.508  1.00  0.00     0.274 C 
BRANCH   2   3
ATOM      3  O   UNL A   1      35.720  23.544  24.015  1.00  0.00    -0.457 OA
BRANCH   3   4
ATOM      4  C   UNL A   1      34.594  23.774  23.268  1.00  0.00     0.369 C 
ATOM      5  O   UNL A   1      34.442  23.306  22.146  1.00  0.00    -0.245 OA
BRANCH   4   6
ATOM      6  C   UNL A   1      33.563  24.728  23.990  1.00  0.00     0.207 C 
ATOM      7  C   UNL A   1      32.576  25.619  21.695  1.00  0.00     0.027 C 
ATOM      8  C   UNL A   1      33.383  25.941  22.968  1.00  0.00     0.117 C 
ATOM      9  S   UNL A   1      32.683  27.519  23.639  1.00  0.00    -0.152 SA
ATOM     10  C   UNL A   1      33.678  27.698  25.132  1.00  0.00     0.070 C 
ATOM     11  C   UNL A   1      34.295  25.254  25.266  1.00  0.00     0.083 C 
ATOM     12  C   UNL A   1      33.661  26.440  25.979  1.00  0.00     0.018 C 
BRANCH   6  13
ATOM     13  N   UNL A   1      32.325  23.947  24.296  1.00  0.00    -0.320 N 
ATOM     14  C   UNL A   1      31.161  24.597  24.897  1.00  0.00     0.263 C 
ATOM     15  C   UNL A   1      32.461  22.604  24.876  1.00  0.00     0.263 C 
ATOM     16  H   UNL A   1      32.119  23.860  23.300  1.00  0.00     0.349 HD
ATOM     17  C   UNL A   1      30.789  23.750  26.103  1.00  0.00     0.067 C 
ATOM     18  C   UNL A   1      31.185  22.360  25.669  1.00  0.00     0.067 C 
ENDBRANCH   6  13
ENDBRANCH   4   6
ENDBRANCH   3   4
ENDBRANCH   2   3
ENDBRANCH   1   2
BRANCH   1  19
ATOM     19  O   UNL A   1      37.099  21.692  25.730  1.00  0.00    -0.458 OA
BRANCH  19  20
ATOM     20  C   UNL A   1      38.425  21.497  25.899  1.00  0.00     0.338 C 
ATOM     21  O   UNL A   1      39.045  20.472  25.620  1.00  0.00    -0.246 OA
BRANCH  20  22
ATOM     22  C   UNL A   1      39.066  22.706  26.455  1.00  0.00     0.060 A 
ATOM     23  C   UNL A   1      38.605  23.990  26.143  1.00  0.00     0.016 A 
ATOM     24  C   UNL A   1      40.213  22.554  27.235  1.00  0.00     0.016 A 
ATOM     25  C   UNL A   1      39.323  25.116  26.548  1.00  0.00     0.010 A 
ATOM     26  C   UNL A   1      40.891  23.682  27.702  1.00  0.00     0.010 A 
ATOM     27  C   UNL A   1      40.472  24.972  27.337  1.00  0.00    -0.014 A 
BRANCH  27  28
ATOM     28  C   UNL A   1      41.267  26.149  27.773  1.00  0.00     0.031 A 
ATOM     29  C   UNL A   1      40.612  27.234  28.582  1.00  0.00     0.074 A 
ATOM     30  C   UNL A   1      42.552  26.278  27.389  1.00  0.00     0.049 A 
ATOM     31  N   UNL A   1      41.054  28.429  28.878  1.00  0.00    -0.248 NA
ATOM     32  C   UNL A   1      39.274  26.939  29.124  1.00  0.00     0.031 C 
ATOM     33  C   UNL A   1      43.310  25.291  26.622  1.00  0.00     0.029 A 
ATOM     34  N   UNL A   1      43.436  27.314  27.567  1.00  0.00    -0.354 N 
ATOM     35  C   UNL A   1      40.031  29.048  29.587  1.00  0.00     0.074 A 
ATOM     36  C   UNL A   1      38.947  28.094  29.686  1.00  0.00     0.031 C 
ATOM     37  C   UNL A   1      44.540  25.771  26.380  1.00  0.00     0.029 A 
ATOM     38  C   UNL A   1      44.636  27.123  26.922  1.00  0.00     0.049 A 
ATOM     39  H   UNL A   1      43.232  28.114  28.103  1.00  0.00     0.167 HD
ATOM     40  C   UNL A   1      40.002  30.294  30.117  1.00  0.00     0.034 A 
ATOM     41  C   UNL A   1      45.681  27.957  26.747  1.00  0.00     0.034 A 
ATOM     42  C   UNL A   1      41.102  31.221  30.061  1.00  0.00     0.049 A 
ATOM     43  C   UNL A   1      45.617  29.342  27.330  1.00  0.00     0.074 A 
ATOM     44  C   UNL A   1      41.179  32.498  30.590  1.00  0.00     0.029 A 
ATOM     45  N   UNL A   1      42.319  30.968  29.448  1.00  0.00    -0.354 N 
ATOM     46  N   UNL A   1      44.666  29.894  28.046  1.00  0.00    -0.248 NA
ATOM     47  C   UNL A   1      46.774  30.216  27.095  1.00  0.00     0.031 C 
ATOM     48  C   UNL A   1      42.444  33.017  30.294  1.00  0.00     0.029 A 
ATOM     49  C   UNL A   1      43.155  32.062  29.584  1.00  0.00     0.049 A 
ATOM     50  H   UNL A   1      42.554  30.131  28.984  1.00  0.00     0.167 HD
ATOM     51  C   UNL A   1      45.120  31.169  28.364  1.00  0.00     0.074 A 
ATOM     52  C   UNL A   1      46.441  31.299  27.784  1.00  0.00     0.031 C 
ATOM     53  C   UNL A   1      44.490  32.152  29.052  1.00  0.00     0.034 A 
BRANCH  40  54
ATOM     54  C   UNL A   1      38.751  30.719  30.836  1.00  0.00     0.023 A 
ATOM     55  C   UNL A   1      38.653  30.519  32.228  1.00  0.00     0.012 A 
ATOM     56  C   UNL A   1      37.700  31.360  30.152  1.00  0.00     0.148 A 
ATOM     57  C   UNL A   1      37.518  30.932  32.924  1.00  0.00     0.002 A 
ATOM     58  C   UNL A   1      36.586  31.798  30.860  1.00  0.00     0.091 A 
ATOM     59  F   UNL A   1      37.801  31.516  28.824  1.00  0.00    -0.205 F 
ATOM     60  C   UNL A   1      36.490  31.579  32.243  1.00  0.00     0.022 A 
BRANCH  58  61
ATOM     61  S   UNL A   1      35.242  32.697  30.074  1.00  0.00     0.127 S 
ATOM     62  O   UNL A   1      35.948  33.844  29.505  1.00  0.00    -0.237 OA
ATOM     63  O   UNL A   1      34.753  31.732  29.089  1.00  0.00    -0.237 OA
ATOM     64  O   UNL A   1      34.296  33.003  31.138  1.00  0.00    -0.744 OA
ENDBRANCH  58  61
ENDBRANCH  40  54
BRANCH  41  65
ATOM     65  C   UNL A   1      46.884  27.491  26.004  1.00  0.00     0.023 A 
ATOM     66  C   UNL A   1      46.993  27.768  24.628  1.00  0.00     0.012 A 
ATOM     67  C   UNL A   1      47.936  26.814  26.651  1.00  0.00     0.148 A 
ATOM     68  C   UNL A   1      48.119  27.366  23.908  1.00  0.00     0.002 A 
ATOM     69  C   UNL A   1      49.079  26.466  25.941  1.00  0.00     0.091 A 
ATOM     70  F   UNL A   1      47.805  26.531  27.956  1.00  0.00    -0.205 F 
ATOM     71  C   UNL A   1      49.168  26.729  24.566  1.00  0.00     0.022 A 
BRANCH  69  72
ATOM     72  S   UNL A   1      50.523  25.768  26.752  1.00  0.00     0.127 S 
ATOM     73  O   UNL A   1      51.458  25.635  25.639  1.00  0.00    -0.237 OA
ATOM     74  O   UNL A   1      50.867  26.809  27.723  1.00  0.00    -0.237 OA
ATOM     75  O   UNL A   1      50.061  24.525  27.354  1.00  0.00    -0.744 OA
ENDBRANCH  69  72
ENDBRANCH  41  65
BRANCH  53  76
ATOM     76  C   UNL A   1      45.226  33.452  29.237  1.00  0.00     0.023 A 
ATOM     77  C   UNL A   1      46.028  33.635  30.379  1.00  0.00     0.012 A 
ATOM     78  C   UNL A   1      45.184  34.455  28.249  1.00  0.00     0.148 A 
ATOM     79  C   UNL A   1      46.760  34.809  30.549  1.00  0.00     0.002 A 
ATOM     80  C   UNL A   1      45.948  35.607  28.406  1.00  0.00     0.091 A 
ATOM     81  F   UNL A   1      44.397  34.270  27.179  1.00  0.00    -0.205 F 
ATOM     82  C   UNL A   1      46.730  35.788  29.558  1.00  0.00     0.022 A 
BRANCH  80  83
ATOM     83  S   UNL A   1      46.029  36.876  27.137  1.00  0.00     0.127 S 
ATOM     84  O   UNL A   1      44.641  37.328  27.078  1.00  0.00    -0.237 OA
ATOM     85  O   UNL A   1      46.962  37.843  27.717  1.00  0.00    -0.237 OA
ATOM     86  O   UNL A   1      46.527  36.208  25.942  1.00  0.00    -0.744 OA
ENDBRANCH  80  83
ENDBRANCH  53  76
ENDBRANCH  27  28
ENDBRANCH  20  22
ENDBRANCH  19  20
ENDBRANCH   1  19
TORSDOF 15
ENDMDL
MODEL 2
REMARK VINA RESULT:     -11.1      5.058      9.919
REMARK SMILES C[C@H]1SCCC[C@@]1(C(=O)OCCOC(=O)c1ccc(-c2c3nc(c(-c4cccc(S(=O)(=O)[O-])c4F)c4ccc([nH]4)c(-c4cccc(S(=O)(=O)[O-])c4F)c4nc(c(-c5cccc(S(=O)(=O)[O-])c5F)c5ccc2[nH]5)C=C4)C=C3)cc1)[NH+]1CCCC1
REMARK SMILES IDX 12 1 11 2 10 3 8 4 9 5 7 6 1 7 2 8 3 9 4 10 6 11 5 12 79 13
REMARK SMILES IDX 80 14 83 15 81 17 82 18 13 19 14 20 15 21 16 22 17 23 78 24
REMARK SMILES IDX 18 25 77 26 19 27 20 28 21 29 71 30 22 31 76 32 70 33 72 34
REMARK SMILES IDX 23 35 75 36 69 37 68 38 24 40 56 41 36 42 55 43 37 44 40 45
REMARK SMILES IDX 54 46 73 47 38 48 39 49 53 51 74 52 41 53 25 54 26 55 34 56
REMARK SMILES IDX 27 57 29 58 35 59 28 60 30 61 31 62 32 63 33 64 57 65 58 66
REMARK SMILES IDX 66 67 59 68 61 69 67 70 60 71 62 72 63 73 64 74 65 75 42 76
REMARK SMILES IDX 43 77 51 78 44 79 46 80 52 81 45 82 47 83 48 84 49 85 50 86
REMARK H PARENT 79 16 72 39 40 50
REMARK Flexibility Score: inf
ROOT
ATOM      1  C   UNL A   1      31.866  29.130  25.689  1.00  0.00     0.275 C 
ENDROOT
BRANCH   1   2
ATOM      2  C   UNL A   1      31.521  28.332  26.943  1.00  0.00     0.274 C 
BRANCH   2   3
ATOM      3  O   UNL A   1      32.170  27.043  26.928  1.00  0.00    -0.457 OA
BRANCH   3   4
ATOM      4  C   UNL A   1      31.442  26.043  26.337  1.00  0.00     0.369 C 
ATOM      5  O   UNL A   1      30.224  25.971  26.434  1.00  0.00    -0.245 OA
BRANCH   4   6
ATOM      6  C   UNL A   1      32.346  24.996  25.573  1.00  0.00     0.207 C 
ATOM      7  C   UNL A   1      30.807  22.954  26.278  1.00  0.00     0.027 C 
ATOM      8  C   UNL A   1      32.173  23.652  26.418  1.00  0.00     0.117 C 
ATOM      9  S   UNL A   1      33.454  22.336  26.188  1.00  0.00    -0.152 SA
ATOM     10  C   UNL A   1      34.955  23.327  26.311  1.00  0.00     0.070 C 
ATOM     11  C   UNL A   1      33.814  25.504  25.737  1.00  0.00     0.083 C 
ATOM     12  C   UNL A   1      34.922  24.524  25.380  1.00  0.00     0.018 C 
BRANCH   6  13
ATOM     13  N   UNL A   1      31.896  24.929  24.148  1.00  0.00    -0.320 N 
ATOM     14  C   UNL A   1      32.360  23.857  23.268  1.00  0.00     0.263 C 
ATOM     15  C   UNL A   1      31.825  26.173  23.370  1.00  0.00     0.263 C 
ATOM     16  H   UNL A   1      30.955  24.667  24.444  1.00  0.00     0.349 HD
ATOM     17  C   UNL A   1      32.892  24.544  22.021  1.00  0.00     0.067 C 
ATOM     18  C   UNL A   1      32.017  25.768  21.915  1.00  0.00     0.067 C 
ENDBRANCH   6  13
ENDBRANCH   4   6
ENDBRANCH   3   4
ENDBRANCH   2   3
ENDBRANCH   1   2
BRANCH   1  19
ATOM     19  O   UNL A   1      33.167  29.715  25.830  1.00  0.00    -0.458 OA
BRANCH  19  20
ATOM     20  C   UNL A   1      33.232  30.768  26.672  1.00  0.00     0.338 C 
ATOM     21  O   UNL A   1      32.411  31.680  26.752  1.00  0.00    -0.246 OA
BRANCH  20  22
ATOM     22  C   UNL A   1      34.432  30.680  27.530  1.00  0.00     0.060 A 
ATOM     23  C   UNL A   1      35.341  31.739  27.629  1.00  0.00     0.016 A 
ATOM     24  C   UNL A   1      34.700  29.474  28.179  1.00  0.00     0.016 A 
ATOM     25  C   UNL A   1      36.545  31.573  28.315  1.00  0.00     0.010 A 
ATOM     26  C   UNL A   1      35.871  29.333  28.927  1.00  0.00     0.010 A 
ATOM     27  C   UNL A   1      36.819  30.368  28.976  1.00  0.00    -0.014 A 
BRANCH  27  28
ATOM     28  C   UNL A   1      38.098  30.154  29.703  1.00  0.00     0.031 A 
ATOM     29  C   UNL A   1      39.147  29.250  29.117  1.00  0.00     0.074 A 
ATOM     30  C   UNL A   1      38.291  30.715  30.912  1.00  0.00     0.049 A 
ATOM     31  N   UNL A   1      40.224  28.761  29.673  1.00  0.00    -0.248 NA
ATOM     32  C   UNL A   1      38.951  28.830  27.718  1.00  0.00     0.031 C 
ATOM     33  C   UNL A   1      37.364  31.626  31.582  1.00  0.00     0.029 A 
ATOM     34  N   UNL A   1      39.323  30.570  31.808  1.00  0.00    -0.354 N 
ATOM     35  C   UNL A   1      40.804  27.933  28.719  1.00  0.00     0.074 A 
ATOM     36  C   UNL A   1      39.963  27.991  27.542  1.00  0.00     0.031 C 
ATOM     37  C   UNL A   1      37.858  31.949  32.787  1.00  0.00     0.029 A 
ATOM     38  C   UNL A   1      39.105  31.221  33.000  1.00  0.00     0.049 A 
ATOM     39  H   UNL A   1      40.138  30.052  31.615  1.00  0.00     0.167 HD
ATOM     40  C   UNL A   1      41.939  27.200  28.811  1.00  0.00     0.034 A 
ATOM     41  C   UNL A   1      39.805  31.199  34.152  1.00  0.00     0.034 A 
ATOM     42  C   UNL A   1      42.799  27.186  29.964  1.00  0.00     0.049 A 
ATOM     43  C   UNL A   1      41.053  30.363  34.234  1.00  0.00     0.074 A 
ATOM     44  C   UNL A   1      43.985  26.495  30.145  1.00  0.00     0.029 A 
ATOM     45  N   UNL A   1      42.572  27.902  31.129  1.00  0.00    -0.354 N 
ATOM     46  N   UNL A   1      41.619  29.629  33.305  1.00  0.00    -0.248 NA
ATOM     47  C   UNL A   1      41.768  30.361  35.518  1.00  0.00     0.031 C 
ATOM     48  C   UNL A   1      44.474  26.793  31.422  1.00  0.00     0.029 A 
ATOM     49  C   UNL A   1      43.594  27.672  32.034  1.00  0.00     0.049 A 
ATOM     50  H   UNL A   1      41.798  28.489  31.289  1.00  0.00     0.167 HD
ATOM     51  C   UNL A   1      42.764  29.098  33.885  1.00  0.00     0.074 A 
ATOM     52  C   UNL A   1      42.827  29.613  35.237  1.00  0.00     0.031 C 
ATOM     53  C   UNL A   1      43.671  28.241  33.354  1.00  0.00     0.034 A 
BRANCH  40  54
ATOM     54  C   UNL A   1      42.338  26.377  27.617  1.00  0.00     0.023 A 
ATOM     55  C   UNL A   1      43.147  26.954  26.619  1.00  0.00     0.012 A 
ATOM     56  C   UNL A   1      41.960  25.024  27.507  1.00  0.00     0.148 A 
ATOM     57  C   UNL A   1      43.557  26.204  25.518  1.00  0.00     0.002 A 
ATOM     58  C   UNL A   1      42.400  24.274  26.422  1.00  0.00     0.091 A 
ATOM     59  F   UNL A   1      41.166  24.501  28.453  1.00  0.00    -0.205 F 
ATOM     60  C   UNL A   1      43.193  24.863  25.424  1.00  0.00     0.022 A 
BRANCH  58  61
ATOM     61  S   UNL A   1      42.031  22.523  26.253  1.00  0.00     0.127 S 
ATOM     62  O   UNL A   1      42.631  21.976  27.469  1.00  0.00    -0.237 OA
ATOM     63  O   UNL A   1      40.568  22.511  26.237  1.00  0.00    -0.237 OA
ATOM     64  O   UNL A   1      42.650  22.107  25.002  1.00  0.00    -0.744 OA
ENDBRANCH  58  61
ENDBRANCH  40  54
BRANCH  41  65
ATOM     65  C   UNL A   1      39.349  32.015  35.311  1.00  0.00     0.023 A 
ATOM     66  C   UNL A   1      38.482  31.440  36.260  1.00  0.00     0.012 A 
ATOM     67  C   UNL A   1      39.795  33.337  35.504  1.00  0.00     0.148 A 
ATOM     68  C   UNL A   1      38.055  32.171  37.369  1.00  0.00     0.002 A 
ATOM     69  C   UNL A   1      39.412  34.040  36.641  1.00  0.00     0.091 A 
ATOM     70  F   UNL A   1      40.597  33.882  34.577  1.00  0.00    -0.205 F 
ATOM     71  C   UNL A   1      38.531  33.464  37.568  1.00  0.00     0.022 A 
BRANCH  69  72
ATOM     72  S   UNL A   1      40.094  35.656  37.030  1.00  0.00     0.127 S 
ATOM     73  O   UNL A   1      39.652  36.453  35.890  1.00  0.00    -0.237 OA
ATOM     74  O   UNL A   1      39.433  35.975  38.298  1.00  0.00    -0.237 OA
ATOM     75  O   UNL A   1      41.531  35.447  37.148  1.00  0.00    -0.744 OA
ENDBRANCH  69  72
ENDBRANCH  41  65
BRANCH  53  76
ATOM     76  C   UNL A   1      44.821  27.819  34.228  1.00  0.00     0.023 A 
ATOM     77  C   UNL A   1      45.989  28.605  34.260  1.00  0.00     0.012 A 
ATOM     78  C   UNL A   1      44.719  26.693  35.068  1.00  0.00     0.148 A 
ATOM     79  C   UNL A   1      47.049  28.264  35.098  1.00  0.00     0.002 A 
ATOM     80  C   UNL A   1      45.765  26.381  35.930  1.00  0.00     0.091 A 
ATOM     81  F   UNL A   1      43.608  25.945  35.005  1.00  0.00    -0.205 F 
ATOM     82  C   UNL A   1      46.932  27.161  35.941  1.00  0.00     0.022 A 
BRANCH  80  83
ATOM     83  S   UNL A   1      45.657  25.027  37.107  1.00  0.00     0.127 S 
ATOM     84  O   UNL A   1      45.568  23.869  36.221  1.00  0.00    -0.237 OA
ATOM     85  O   UNL A   1      46.921  25.141  37.836  1.00  0.00    -0.237 OA
ATOM     86  O   UNL A   1      44.475  25.299  37.914  1.00  0.00    -0.744 OA
ENDBRANCH  80  83
ENDBRANCH  53  76
ENDBRANCH  27  28
ENDBRANCH  20  22
ENDBRANCH  19  20
ENDBRANCH   1  19
TORSDOF 15
ENDMDL
MODEL 3
REMARK VINA RESULT:     -11.1      1.394      1.773
REMARK SMILES C[C@H]1SCCC[C@@]1(C(=O)OCCOC(=O)c1ccc(-c2c3nc(c(-c4cccc(S(=O)(=O)[O-])c4F)c4ccc([nH]4)c(-c4cccc(S(=O)(=O)[O-])c4F)c4nc(c(-c5cccc(S(=O)(=O)[O-])c5F)c5ccc2[nH]5)C=C4)C=C3)cc1)[NH+]1CCCC1
REMARK SMILES IDX 12 1 11 2 10 3 8 4 9 5 7 6 1 7 2 8 3 9 4 10 6 11 5 12 79 13
REMARK SMILES IDX 80 14 83 15 81 17 82 18 13 19 14 20 15 21 16 22 17 23 78 24
REMARK SMILES IDX 18 25 77 26 19 27 20 28 21 29 71 30 22 31 76 32 70 33 72 34
REMARK SMILES IDX 23 35 75 36 69 37 68 38 24 40 56 41 36 42 55 43 37 44 40 45
REMARK SMILES IDX 54 46 73 47 38 48 39 49 53 51 74 52 41 53 25 54 26 55 34 56
REMARK SMILES IDX 27 57 29 58 35 59 28 60 30 61 31 62 32 63 33 64 57 65 58 66
REMARK SMILES IDX 66 67 59 68 61 69 67 70 60 71 62 72 63 73 64 74 65 75 42 76
REMARK SMILES IDX 43 77 51 78 44 79 46 80 52 81 45 82 47 83 48 84 49 85 50 86
REMARK H PARENT 79 16 72 39 40 50
REMARK Flexibility Score: inf
ROOT
ATOM      1  C   UNL A   1      35.829  21.361  24.958  1.00  0.00     0.275 C 
ENDROOT
BRANCH   1   2
ATOM      2  C   UNL A   1      35.955  22.367  23.818  1.00  0.00     0.274 C 
BRANCH   2   3
ATOM      3  O   UNL A   1      35.323  23.618  24.163  1.00  0.00    -0.457 OA
BRANCH   3   4
ATOM      4  C   UNL A   1      34.300  23.992  23.330  1.00  0.00     0.369 C 
ATOM      5  O   UNL A   1      34.184  23.551  22.194  1.00  0.00    -0.245 OA
BRANCH   4   6
ATOM      6  C   UNL A   1      33.343  25.067  23.979  1.00  0.00     0.207 C 
ATOM      7  C   UNL A   1      32.457  25.897  21.621  1.00  0.00     0.027 C 
ATOM      8  C   UNL A   1      33.272  26.228  22.886  1.00  0.00     0.117 C 
ATOM      9  S   UNL A   1      32.695  27.893  23.454  1.00  0.00    -0.152 SA
ATOM     10  C   UNL A   1      33.684  28.080  24.949  1.00  0.00     0.070 C 
ATOM     11  C   UNL A   1      34.100  25.606  25.234  1.00  0.00     0.083 C 
ATOM     12  C   UNL A   1      33.556  26.880  25.867  1.00  0.00     0.018 C 
BRANCH   6  13
ATOM     13  N   UNL A   1      32.041  24.406  24.310  1.00  0.00    -0.320 N 
ATOM     14  C   UNL A   1      30.973  25.152  24.975  1.00  0.00     0.263 C 
ATOM     15  C   UNL A   1      32.058  23.039  24.845  1.00  0.00     0.263 C 
ATOM     16  H   UNL A   1      31.792  24.374  23.321  1.00  0.00     0.349 HD
ATOM     17  C   UNL A   1      30.558  24.308  26.168  1.00  0.00     0.067 C 
ATOM     18  C   UNL A   1      30.792  22.900  25.679  1.00  0.00     0.067 C 
ENDBRANCH   6  13
ENDBRANCH   4   6
ENDBRANCH   3   4
ENDBRANCH   2   3
ENDBRANCH   1   2
BRANCH   1  19
ATOM     19  O   UNL A   1      36.730  21.712  26.016  1.00  0.00    -0.458 OA
BRANCH  19  20
ATOM     20  C   UNL A   1      38.015  21.347  25.817  1.00  0.00     0.338 C 
ATOM     21  O   UNL A   1      38.397  20.269  25.367  1.00  0.00    -0.246 OA
BRANCH  20  22
ATOM     22  C   UNL A   1      38.935  22.440  26.193  1.00  0.00     0.060 A 
ATOM     23  C   UNL A   1      40.045  22.213  27.015  1.00  0.00     0.016 A 
ATOM     24  C   UNL A   1      38.627  23.739  25.789  1.00  0.00     0.016 A 
ATOM     25  C   UNL A   1      40.804  23.285  27.487  1.00  0.00     0.010 A 
ATOM     26  C   UNL A   1      39.430  24.805  26.201  1.00  0.00     0.010 A 
ATOM     27  C   UNL A   1      40.506  24.592  27.079  1.00  0.00    -0.014 A 
BRANCH  27  28
ATOM     28  C   UNL A   1      41.286  25.756  27.575  1.00  0.00     0.031 A 
ATOM     29  C   UNL A   1      40.610  26.802  28.419  1.00  0.00     0.074 A 
ATOM     30  C   UNL A   1      42.575  25.911  27.216  1.00  0.00     0.049 A 
ATOM     31  N   UNL A   1      41.038  27.986  28.771  1.00  0.00    -0.248 NA
ATOM     32  C   UNL A   1      39.267  26.474  28.928  1.00  0.00     0.031 C 
ATOM     33  C   UNL A   1      43.352  24.962  26.420  1.00  0.00     0.029 A 
ATOM     34  N   UNL A   1      43.449  26.945  27.450  1.00  0.00    -0.354 N 
ATOM     35  C   UNL A   1      40.000  28.568  29.490  1.00  0.00     0.074 A 
ATOM     36  C   UNL A   1      38.922  27.603  29.533  1.00  0.00     0.031 C 
ATOM     37  C   UNL A   1      44.581  25.461  26.217  1.00  0.00     0.029 A 
ATOM     38  C   UNL A   1      44.659  26.790  26.816  1.00  0.00     0.049 A 
ATOM     39  H   UNL A   1      43.230  27.721  28.016  1.00  0.00     0.167 HD
ATOM     40  C   UNL A   1      39.954  29.790  30.071  1.00  0.00     0.034 A 
ATOM     41  C   UNL A   1      45.699  27.639  26.692  1.00  0.00     0.034 A 
ATOM     42  C   UNL A   1      41.046  30.727  30.070  1.00  0.00     0.049 A 
ATOM     43  C   UNL A   1      45.616  28.997  27.331  1.00  0.00     0.074 A 
ATOM     44  C   UNL A   1      41.105  31.981  30.653  1.00  0.00     0.029 A 
ATOM     45  N   UNL A   1      42.274  30.508  29.466  1.00  0.00    -0.354 N 
ATOM     46  N   UNL A   1      44.650  29.512  28.055  1.00  0.00    -0.248 NA
ATOM     47  C   UNL A   1      46.770  29.889  27.150  1.00  0.00     0.031 C 
ATOM     48  C   UNL A   1      42.370  32.522  30.398  1.00  0.00     0.029 A 
ATOM     49  C   UNL A   1      43.099  31.602  29.660  1.00  0.00     0.049 A 
ATOM     50  H   UNL A   1      42.522  29.694  28.971  1.00  0.00     0.167 HD
ATOM     51  C   UNL A   1      45.089  30.775  28.432  1.00  0.00     0.074 A 
ATOM     52  C   UNL A   1      46.417  30.940  27.879  1.00  0.00     0.031 C 
ATOM     53  C   UNL A   1      44.441  31.725  29.152  1.00  0.00     0.034 A 
BRANCH  40  54
ATOM     54  C   UNL A   1      38.689  30.175  30.789  1.00  0.00     0.023 A 
ATOM     55  C   UNL A   1      38.517  29.799  32.136  1.00  0.00     0.012 A 
ATOM     56  C   UNL A   1      37.698  30.949  30.154  1.00  0.00     0.148 A 
ATOM     57  C   UNL A   1      37.369  30.170  32.834  1.00  0.00     0.002 A 
ATOM     58  C   UNL A   1      36.571  31.342  30.867  1.00  0.00     0.091 A 
ATOM     59  F   UNL A   1      37.867  31.273  28.864  1.00  0.00    -0.205 F 
ATOM     60  C   UNL A   1      36.402  30.949  32.204  1.00  0.00     0.022 A 
BRANCH  58  61
ATOM     61  S   UNL A   1      35.304  32.399  30.154  1.00  0.00     0.127 S 
ATOM     62  O   UNL A   1      34.403  32.587  31.290  1.00  0.00    -0.237 OA
ATOM     63  O   UNL A   1      36.065  33.591  29.778  1.00  0.00    -0.237 OA
ATOM     64  O   UNL A   1      34.754  31.656  29.030  1.00  0.00    -0.744 OA
ENDBRANCH  58  61
ENDBRANCH  40  54
BRANCH  41  65
ATOM     65  C   UNL A   1      46.917  27.213  25.948  1.00  0.00     0.023 A 
ATOM     66  C   UNL A   1      47.838  26.350  26.572  1.00  0.00     0.012 A 
ATOM     67  C   UNL A   1      47.151  27.619  24.620  1.00  0.00     0.148 A 
ATOM     68  C   UNL A   1      48.977  25.913  25.893  1.00  0.00     0.002 A 
ATOM     69  C   UNL A   1      48.257  27.136  23.930  1.00  0.00     0.091 A 
ATOM     70  F   UNL A   1      46.280  28.465  24.048  1.00  0.00    -0.205 F 
ATOM     71  C   UNL A   1      49.179  26.293  24.569  1.00  0.00     0.022 A 
BRANCH  69  72
ATOM     72  S   UNL A   1      48.506  27.473  22.183  1.00  0.00     0.127 S 
ATOM     73  O   UNL A   1      47.273  28.170  21.832  1.00  0.00    -0.237 OA
ATOM     74  O   UNL A   1      49.706  28.313  22.196  1.00  0.00    -0.237 OA
ATOM     75  O   UNL A   1      48.704  26.168  21.565  1.00  0.00    -0.744 OA
ENDBRANCH  69  72
ENDBRANCH  41  65
BRANCH  53  76
ATOM     76  C   UNL A   1      45.164  33.021  29.401  1.00  0.00     0.023 A 
ATOM     77  C   UNL A   1      45.990  33.144  30.535  1.00  0.00     0.012 A 
ATOM     78  C   UNL A   1      45.086  34.083  28.480  1.00  0.00     0.148 A 
ATOM     79  C   UNL A   1      46.709  34.316  30.762  1.00  0.00     0.002 A 
ATOM     80  C   UNL A   1      45.837  35.234  28.693  1.00  0.00     0.091 A 
ATOM     81  F   UNL A   1      44.276  33.954  27.419  1.00  0.00    -0.205 F 
ATOM     82  C   UNL A   1      46.643  35.354  29.836  1.00  0.00     0.022 A 
BRANCH  80  83
ATOM     83  S   UNL A   1      45.871  36.582  27.504  1.00  0.00     0.127 S 
ATOM     84  O   UNL A   1      46.799  37.515  28.138  1.00  0.00    -0.237 OA
ATOM     85  O   UNL A   1      46.390  35.928  26.301  1.00  0.00    -0.237 OA
ATOM     86  O   UNL A   1      44.493  37.040  27.388  1.00  0.00    -0.744 OA
ENDBRANCH  80  83
ENDBRANCH  53  76
ENDBRANCH  27  28
ENDBRANCH  20  22
ENDBRANCH  19  20
ENDBRANCH   1  19
TORSDOF 15
ENDMDL
