MODEL 1
REMARK VINA RESULT:     -11.7      0.000      0.000
REMARK SMILES COc1ccc(C(=O)c2ccccc2)cc1[C@@H](C)C(=O)OCCOC(=O)c1ccc(-c2c3nc(c(-c4cccc(S(=O)(=O)[O-])c4F)c4ccc([nH]4)c(-c4cccc(S(=O)(=O)[O-])c4F)c4nc(c(-c5cccc(S(=O)(=O)[O-])c5F)c5ccc2[nH]5)C=C4)C=C3)cc1
REMARK SMILES IDX 22 1 21 2 19 3 20 4 17 5 18 6 16 7 3 8 4 9 5 10 15 11 6 12
REMARK SMILES IDX 2 13 1 14 7 15 8 16 9 17 10 18 14 19 11 20 13 21 12 22 23 23
REMARK SMILES IDX 24 24 25 25 26 26 27 27 28 28 89 29 29 30 88 31 30 32 31 33
REMARK SMILES IDX 32 34 82 35 33 36 87 37 81 38 83 39 34 40 86 41 80 42 79 43
REMARK SMILES IDX 35 45 67 46 47 47 66 48 48 49 51 50 65 51 84 52 49 53 50 54
REMARK SMILES IDX 64 56 85 57 52 58 36 59 37 60 45 61 38 62 40 63 46 64 39 65
REMARK SMILES IDX 41 66 42 67 43 68 44 69 68 70 69 71 77 72 70 73 72 74 78 75
REMARK SMILES IDX 71 76 73 77 74 78 75 79 76 80 53 81 54 82 62 83 55 84 57 85
REMARK SMILES IDX 63 86 56 87 58 88 59 89 60 90 61 91
REMARK H PARENT 83 44 51 55
REMARK Flexibility Score: inf
ROOT
ATOM      1  C   UNL A   1      31.808  29.895  25.467  1.00  0.00     0.274 C 
ENDROOT
BRANCH   1   2
ATOM      2  O   UNL A   1      32.970  29.588  24.673  1.00  0.00    -0.462 OA
BRANCH   2   3
ATOM      3  C   UNL A   1      32.781  28.941  23.496  1.00  0.00     0.313 C 
ATOM      4  O   UNL A   1      32.905  29.473  22.397  1.00  0.00    -0.252 OA
BRANCH   3   5
ATOM      5  C   UNL A   1      32.379  27.473  23.643  1.00  0.00     0.130 C 
ATOM      6  C   UNL A   1      32.973  26.669  22.487  1.00  0.00     0.025 C 
BRANCH   5   7
ATOM      7  C   UNL A   1      30.896  27.151  23.795  1.00  0.00     0.009 A 
ATOM      8  C   UNL A   1      30.465  25.887  24.224  1.00  0.00     0.122 A 
ATOM      9  C   UNL A   1      29.104  25.585  24.334  1.00  0.00     0.047 A 
ATOM     10  C   UNL A   1      28.144  26.545  24.001  1.00  0.00     0.016 A 
ATOM     11  C   UNL A   1      29.913  28.090  23.443  1.00  0.00     0.020 A 
ATOM     12  C   UNL A   1      28.545  27.799  23.533  1.00  0.00     0.023 A 
BRANCH   8  13
ATOM     13  O   UNL A   1      31.399  24.903  24.411  1.00  0.00    -0.496 OA
ATOM     14  C   UNL A   1      31.735  24.729  25.786  1.00  0.00     0.278 C 
ENDBRANCH   8  13
BRANCH  12  15
ATOM     15  C   UNL A   1      27.509  28.807  23.149  1.00  0.00     0.193 C 
ATOM     16  O   UNL A   1      26.312  28.555  23.251  1.00  0.00    -0.289 OA
BRANCH  15  17
ATOM     17  C   UNL A   1      27.910  30.147  22.664  1.00  0.00     0.022 A 
ATOM     18  C   UNL A   1      27.993  30.364  21.286  1.00  0.00     0.012 A 
ATOM     19  C   UNL A   1      28.158  31.194  23.562  1.00  0.00     0.012 A 
ATOM     20  C   UNL A   1      28.268  31.645  20.806  1.00  0.00     0.001 A 
ATOM     21  C   UNL A   1      28.422  32.474  23.075  1.00  0.00     0.001 A 
ATOM     22  C   UNL A   1      28.469  32.700  21.698  1.00  0.00     0.000 A 
ENDBRANCH  15  17
ENDBRANCH  12  15
ENDBRANCH   5   7
ENDBRANCH   3   5
ENDBRANCH   2   3
ENDBRANCH   1   2
BRANCH   1  23
ATOM     23  C   UNL A   1      32.245  30.539  26.780  1.00  0.00     0.275 C 
BRANCH  23  24
ATOM     24  O   UNL A   1      33.602  30.993  26.662  1.00  0.00    -0.458 OA
BRANCH  24  25
ATOM     25  C   UNL A   1      33.973  31.956  27.537  1.00  0.00     0.338 C 
ATOM     26  O   UNL A   1      33.402  33.001  27.792  1.00  0.00    -0.246 OA
BRANCH  25  27
ATOM     27  C   UNL A   1      35.180  31.502  28.234  1.00  0.00     0.060 A 
ATOM     28  C   UNL A   1      36.272  32.365  28.312  1.00  0.00     0.016 A 
ATOM     29  C   UNL A   1      35.256  30.208  28.747  1.00  0.00     0.016 A 
ATOM     30  C   UNL A   1      37.467  31.922  28.868  1.00  0.00     0.010 A 
ATOM     31  C   UNL A   1      36.438  29.788  29.361  1.00  0.00     0.010 A 
ATOM     32  C   UNL A   1      37.560  30.634  29.415  1.00  0.00    -0.014 A 
BRANCH  32  33
ATOM     33  C   UNL A   1      38.818  30.187  30.070  1.00  0.00     0.031 A 
ATOM     34  C   UNL A   1      39.717  29.184  29.403  1.00  0.00     0.074 A 
ATOM     35  C   UNL A   1      39.133  30.665  31.290  1.00  0.00     0.049 A 
ATOM     36  N   UNL A   1      40.772  28.577  29.881  1.00  0.00    -0.248 NA
ATOM     37  C   UNL A   1      39.385  28.806  28.019  1.00  0.00     0.031 C 
ATOM     38  C   UNL A   1      38.345  31.644  32.042  1.00  0.00     0.029 A 
ATOM     39  N   UNL A   1      40.188  30.381  32.121  1.00  0.00    -0.354 N 
ATOM     40  C   UNL A   1      41.196  27.706  28.887  1.00  0.00     0.074 A 
ATOM     41  C   UNL A   1      40.291  27.870  27.768  1.00  0.00     0.031 C 
ATOM     42  C   UNL A   1      38.944  31.884  33.216  1.00  0.00     0.029 A 
ATOM     43  C   UNL A   1      40.118  31.027  33.334  1.00  0.00     0.049 A 
ATOM     44  H   UNL A   1      40.923  29.775  31.873  1.00  0.00     0.167 HD
ATOM     45  C   UNL A   1      42.251  26.857  28.900  1.00  0.00     0.034 A 
ATOM     46  C   UNL A   1      40.883  30.912  34.438  1.00  0.00     0.034 A 
ATOM     47  C   UNL A   1      43.185  26.742  29.989  1.00  0.00     0.049 A 
ATOM     48  C   UNL A   1      42.032  29.948  34.433  1.00  0.00     0.074 A 
ATOM     49  C   UNL A   1      44.328  25.965  30.062  1.00  0.00     0.029 A 
ATOM     50  N   UNL A   1      43.086  27.423  31.192  1.00  0.00    -0.354 N 
ATOM     51  N   UNL A   1      42.469  29.194  33.453  1.00  0.00    -0.248 NA
ATOM     52  C   UNL A   1      42.797  29.818  35.681  1.00  0.00     0.031 C 
ATOM     53  C   UNL A   1      44.913  26.164  31.318  1.00  0.00     0.029 A 
ATOM     54  C   UNL A   1      44.135  27.069  32.024  1.00  0.00     0.049 A 
ATOM     55  H   UNL A   1      42.373  28.062  31.423  1.00  0.00     0.167 HD
ATOM     56  C   UNL A   1      43.556  28.498  33.966  1.00  0.00     0.074 A 
ATOM     57  C   UNL A   1      43.737  28.950  35.331  1.00  0.00     0.031 C 
ATOM     58  C   UNL A   1      44.318  27.548  33.368  1.00  0.00     0.034 A 
BRANCH  45  59
ATOM     59  C   UNL A   1      42.481  26.002  27.683  1.00  0.00     0.023 A 
ATOM     60  C   UNL A   1      43.244  26.509  26.613  1.00  0.00     0.012 A 
ATOM     61  C   UNL A   1      42.005  24.677  27.629  1.00  0.00     0.148 A 
ATOM     62  C   UNL A   1      43.517  25.715  25.500  1.00  0.00     0.002 A 
ATOM     63  C   UNL A   1      42.308  23.881  26.530  1.00  0.00     0.091 A 
ATOM     64  F   UNL A   1      41.256  24.223  28.645  1.00  0.00    -0.205 F 
ATOM     65  C   UNL A   1      43.060  24.400  25.463  1.00  0.00     0.022 A 
BRANCH  63  66
ATOM     66  S   UNL A   1      41.814  22.156  26.428  1.00  0.00     0.127 S 
ATOM     67  O   UNL A   1      42.291  21.638  27.709  1.00  0.00    -0.237 OA
ATOM     68  O   UNL A   1      40.358  22.253  26.316  1.00  0.00    -0.237 OA
ATOM     69  O   UNL A   1      42.476  21.625  25.245  1.00  0.00    -0.744 OA
ENDBRANCH  63  66
ENDBRANCH  45  59
BRANCH  46  70
ATOM     70  C   UNL A   1      40.572  31.745  35.634  1.00  0.00     0.023 A 
ATOM     71  C   UNL A   1      41.411  32.827  35.958  1.00  0.00     0.012 A 
ATOM     72  C   UNL A   1      39.412  31.521  36.401  1.00  0.00     0.148 A 
ATOM     73  C   UNL A   1      41.102  33.667  37.028  1.00  0.00     0.002 A 
ATOM     74  C   UNL A   1      39.078  32.398  37.426  1.00  0.00     0.091 A 
ATOM     75  F   UNL A   1      38.641  30.466  36.098  1.00  0.00    -0.205 F 
ATOM     76  C   UNL A   1      39.928  33.465  37.750  1.00  0.00     0.022 A 
BRANCH  74  77
ATOM     77  S   UNL A   1      37.501  32.288  38.281  1.00  0.00     0.127 S 
ATOM     78  O   UNL A   1      36.620  33.029  37.385  1.00  0.00    -0.237 OA
ATOM     79  O   UNL A   1      37.267  30.844  38.322  1.00  0.00    -0.237 OA
ATOM     80  O   UNL A   1      37.738  32.885  39.590  1.00  0.00    -0.744 OA
ENDBRANCH  74  77
ENDBRANCH  46  70
BRANCH  58  81
ATOM     81  C   UNL A   1      45.404  26.915  34.195  1.00  0.00     0.023 A 
ATOM     82  C   UNL A   1      46.669  27.534  34.250  1.00  0.00     0.012 A 
ATOM     83  C   UNL A   1      45.161  25.761  34.963  1.00  0.00     0.148 A 
ATOM     84  C   UNL A   1      47.684  27.001  35.042  1.00  0.00     0.002 A 
ATOM     85  C   UNL A   1      46.167  25.257  35.779  1.00  0.00     0.091 A 
ATOM     86  F   UNL A   1      43.957  25.178  34.879  1.00  0.00    -0.205 F 
ATOM     87  C   UNL A   1      47.430  25.870  35.814  1.00  0.00     0.022 A 
BRANCH  85  88
ATOM     88  S   UNL A   1      45.908  23.848  36.864  1.00  0.00     0.127 S 
ATOM     89  O   UNL A   1      47.266  23.580  37.335  1.00  0.00    -0.237 OA
ATOM     90  O   UNL A   1      45.008  24.397  37.880  1.00  0.00    -0.237 OA
ATOM     91  O   UNL A   1      45.316  22.809  36.033  1.00  0.00    -0.744 OA
ENDBRANCH  85  88
ENDBRANCH  58  81
ENDBRANCH  32  33
ENDBRANCH  25  27
ENDBRANCH  24  25
ENDBRANCH  23  24
ENDBRANCH   1  23
TORSDOF 18
ENDMDL
MODEL 2
REMARK VINA RESULT:     -11.6      2.536      4.539
REMARK SMILES COc1ccc(C(=O)c2ccccc2)cc1[C@@H](C)C(=O)OCCOC(=O)c1ccc(-c2c3nc(c(-c4cccc(S(=O)(=O)[O-])c4F)c4ccc([nH]4)c(-c4cccc(S(=O)(=O)[O-])c4F)c4nc(c(-c5cccc(S(=O)(=O)[O-])c5F)c5ccc2[nH]5)C=C4)C=C3)cc1
REMARK SMILES IDX 22 1 21 2 19 3 20 4 17 5 18 6 16 7 3 8 4 9 5 10 15 11 6 12
REMARK SMILES IDX 2 13 1 14 7 15 8 16 9 17 10 18 14 19 11 20 13 21 12 22 23 23
REMARK SMILES IDX 24 24 25 25 26 26 27 27 28 28 89 29 29 30 88 31 30 32 31 33
REMARK SMILES IDX 32 34 82 35 33 36 87 37 81 38 83 39 34 40 86 41 80 42 79 43
REMARK SMILES IDX 35 45 67 46 47 47 66 48 48 49 51 50 65 51 84 52 49 53 50 54
REMARK SMILES IDX 64 56 85 57 52 58 36 59 37 60 45 61 38 62 40 63 46 64 39 65
REMARK SMILES IDX 41 66 42 67 43 68 44 69 68 70 69 71 77 72 70 73 72 74 78 75
REMARK SMILES IDX 71 76 73 77 74 78 75 79 76 80 53 81 54 82 62 83 55 84 57 85
REMARK SMILES IDX 63 86 56 87 58 88 59 89 60 90 61 91
REMARK H PARENT 83 44 51 55
REMARK Flexibility Score: inf
ROOT
ATOM      1  C   UNL A   1      31.058  28.729  25.391  1.00  0.00     0.274 C 
ENDROOT
BRANCH   1   2
ATOM      2  O   UNL A   1      31.233  27.379  24.919  1.00  0.00    -0.462 OA
BRANCH   2   3
ATOM      3  C   UNL A   1      31.501  27.198  23.601  1.00  0.00     0.313 C 
ATOM      4  O   UNL A   1      32.136  27.996  22.919  1.00  0.00    -0.252 OA
BRANCH   3   5
ATOM      5  C   UNL A   1      30.931  25.905  23.016  1.00  0.00     0.130 C 
ATOM      6  C   UNL A   1      29.637  25.549  23.747  1.00  0.00     0.025 C 
BRANCH   5   7
ATOM      7  C   UNL A   1      31.846  24.687  22.953  1.00  0.00     0.009 A 
ATOM      8  C   UNL A   1      32.924  24.632  22.057  1.00  0.00     0.122 A 
ATOM      9  C   UNL A   1      33.745  23.503  21.979  1.00  0.00     0.047 A 
ATOM     10  C   UNL A   1      33.491  22.396  22.793  1.00  0.00     0.016 A 
ATOM     11  C   UNL A   1      31.597  23.553  23.742  1.00  0.00     0.020 A 
ATOM     12  C   UNL A   1      32.400  22.407  23.666  1.00  0.00     0.023 A 
BRANCH   8  13
ATOM     13  O   UNL A   1      33.085  25.655  21.160  1.00  0.00    -0.496 OA
ATOM     14  C   UNL A   1      32.561  25.334  19.872  1.00  0.00     0.278 C 
ENDBRANCH   8  13
BRANCH  12  15
ATOM     15  C   UNL A   1      32.119  21.204  24.508  1.00  0.00     0.193 C 
ATOM     16  O   UNL A   1      31.439  21.287  25.526  1.00  0.00    -0.289 OA
BRANCH  15  17
ATOM     17  C   UNL A   1      32.634  19.873  24.109  1.00  0.00     0.022 A 
ATOM     18  C   UNL A   1      32.074  19.245  22.994  1.00  0.00     0.012 A 
ATOM     19  C   UNL A   1      33.692  19.272  24.804  1.00  0.00     0.012 A 
ATOM     20  C   UNL A   1      32.612  18.040  22.539  1.00  0.00     0.001 A 
ATOM     21  C   UNL A   1      34.232  18.074  24.337  1.00  0.00     0.001 A 
ATOM     22  C   UNL A   1      33.697  17.463  23.202  1.00  0.00     0.000 A 
ENDBRANCH  15  17
ENDBRANCH  12  15
ENDBRANCH   5   7
ENDBRANCH   3   5
ENDBRANCH   2   3
ENDBRANCH   1   2
BRANCH   1  23
ATOM     23  C   UNL A   1      32.103  29.033  26.461  1.00  0.00     0.275 C 
BRANCH  23  24
ATOM     24  O   UNL A   1      32.992  30.055  25.985  1.00  0.00    -0.458 OA
BRANCH  24  25
ATOM     25  C   UNL A   1      33.195  31.091  26.831  1.00  0.00     0.338 C 
ATOM     26  O   UNL A   1      32.437  32.008  27.093  1.00  0.00    -0.246 OA
BRANCH  25  27
ATOM     27  C   UNL A   1      34.491  30.900  27.489  1.00  0.00     0.060 A 
ATOM     28  C   UNL A   1      34.855  29.614  27.884  1.00  0.00     0.016 A 
ATOM     29  C   UNL A   1      35.308  31.993  27.774  1.00  0.00     0.016 A 
ATOM     30  C   UNL A   1      36.026  29.419  28.610  1.00  0.00     0.010 A 
ATOM     31  C   UNL A   1      36.514  31.783  28.448  1.00  0.00     0.010 A 
ATOM     32  C   UNL A   1      36.879  30.497  28.886  1.00  0.00    -0.014 A 
BRANCH  32  33
ATOM     33  C   UNL A   1      38.163  30.275  29.601  1.00  0.00     0.031 A 
ATOM     34  C   UNL A   1      39.242  29.421  28.994  1.00  0.00     0.074 A 
ATOM     35  C   UNL A   1      38.343  30.822  30.820  1.00  0.00     0.049 A 
ATOM     36  N   UNL A   1      40.360  29.006  29.529  1.00  0.00    -0.248 NA
ATOM     37  C   UNL A   1      39.035  28.968  27.608  1.00  0.00     0.031 C 
ATOM     38  C   UNL A   1      37.374  31.671  31.515  1.00  0.00     0.029 A 
ATOM     39  N   UNL A   1      39.394  30.730  31.698  1.00  0.00    -0.354 N 
ATOM     40  C   UNL A   1      40.964  28.198  28.574  1.00  0.00     0.074 A 
ATOM     41  C   UNL A   1      40.093  28.190  27.418  1.00  0.00     0.031 C 
ATOM     42  C   UNL A   1      37.875  32.028  32.705  1.00  0.00     0.029 A 
ATOM     43  C   UNL A   1      39.167  31.378  32.891  1.00  0.00     0.049 A 
ATOM     44  H   UNL A   1      40.228  30.249  31.495  1.00  0.00     0.167 HD
ATOM     45  C   UNL A   1      42.141  27.534  28.650  1.00  0.00     0.034 A 
ATOM     46  C   UNL A   1      39.893  31.411  34.026  1.00  0.00     0.034 A 
ATOM     47  C   UNL A   1      43.034  27.595  29.778  1.00  0.00     0.049 A 
ATOM     48  C   UNL A   1      41.184  30.650  34.090  1.00  0.00     0.074 A 
ATOM     49  C   UNL A   1      44.285  27.018  29.915  1.00  0.00     0.029 A 
ATOM     50  N   UNL A   1      42.773  28.272  30.959  1.00  0.00    -0.354 N 
ATOM     51  N   UNL A   1      41.779  29.959  33.148  1.00  0.00    -0.248 NA
ATOM     52  C   UNL A   1      41.905  30.670  35.371  1.00  0.00     0.031 C 
ATOM     53  C   UNL A   1      44.775  27.334  31.188  1.00  0.00     0.029 A 
ATOM     54  C   UNL A   1      43.830  28.111  31.839  1.00  0.00     0.049 A 
ATOM     55  H   UNL A   1      41.957  28.789  31.145  1.00  0.00     0.167 HD
ATOM     56  C   UNL A   1      42.943  29.461  33.721  1.00  0.00     0.074 A 
ATOM     57  C   UNL A   1      42.989  29.962  35.079  1.00  0.00     0.031 C 
ATOM     58  C   UNL A   1      43.875  28.639  33.178  1.00  0.00     0.034 A 
BRANCH  45  59
ATOM     59  C   UNL A   1      42.560  26.706  27.466  1.00  0.00     0.023 A 
ATOM     60  C   UNL A   1      43.356  27.288  26.459  1.00  0.00     0.012 A 
ATOM     61  C   UNL A   1      42.229  25.339  27.385  1.00  0.00     0.148 A 
ATOM     62  C   UNL A   1      43.802  26.525  25.381  1.00  0.00     0.002 A 
ATOM     63  C   UNL A   1      42.704  24.578  26.323  1.00  0.00     0.091 A 
ATOM     64  F   UNL A   1      41.447  24.812  28.338  1.00  0.00    -0.205 F 
ATOM     65  C   UNL A   1      43.487  25.170  25.318  1.00  0.00     0.022 A 
BRANCH  63  66
ATOM     66  S   UNL A   1      42.399  22.811  26.196  1.00  0.00     0.127 S 
ATOM     67  O   UNL A   1      43.089  22.308  27.383  1.00  0.00    -0.237 OA
ATOM     68  O   UNL A   1      40.939  22.739  26.265  1.00  0.00    -0.237 OA
ATOM     69  O   UNL A   1      42.963  22.403  24.917  1.00  0.00    -0.744 OA
ENDBRANCH  63  66
ENDBRANCH  45  59
BRANCH  46  70
ATOM     70  C   UNL A   1      39.399  32.204  35.187  1.00  0.00     0.023 A 
ATOM     71  C   UNL A   1      38.578  31.584  36.147  1.00  0.00     0.012 A 
ATOM     72  C   UNL A   1      39.801  33.539  35.386  1.00  0.00     0.148 A 
ATOM     73  C   UNL A   1      38.164  32.281  37.282  1.00  0.00     0.002 A 
ATOM     74  C   UNL A   1      39.436  34.208  36.549  1.00  0.00     0.091 A 
ATOM     75  F   UNL A   1      40.556  34.125  34.446  1.00  0.00    -0.205 F 
ATOM     76  C   UNL A   1      38.607  33.585  37.493  1.00  0.00     0.022 A 
BRANCH  74  77
ATOM     77  S   UNL A   1      40.107  35.825  36.955  1.00  0.00     0.127 S 
ATOM     78  O   UNL A   1      39.661  36.629  35.822  1.00  0.00    -0.237 OA
ATOM     79  O   UNL A   1      39.446  36.127  38.225  1.00  0.00    -0.237 OA
ATOM     80  O   UNL A   1      41.546  35.620  37.071  1.00  0.00    -0.744 OA
ENDBRANCH  74  77
ENDBRANCH  46  70
BRANCH  58  81
ATOM     81  C   UNL A   1      45.013  28.209  34.062  1.00  0.00     0.023 A 
ATOM     82  C   UNL A   1      46.177  29.002  34.112  1.00  0.00     0.012 A 
ATOM     83  C   UNL A   1      44.911  27.072  34.885  1.00  0.00     0.148 A 
ATOM     84  C   UNL A   1      47.231  28.659  34.955  1.00  0.00     0.002 A 
ATOM     85  C   UNL A   1      45.953  26.757  35.751  1.00  0.00     0.091 A 
ATOM     86  F   UNL A   1      43.804  26.320  34.806  1.00  0.00    -0.205 F 
ATOM     87  C   UNL A   1      47.116  27.544  35.781  1.00  0.00     0.022 A 
BRANCH  85  88
ATOM     88  S   UNL A   1      45.861  25.383  36.905  1.00  0.00     0.127 S 
ATOM     89  O   UNL A   1      46.860  25.764  37.902  1.00  0.00    -0.237 OA
ATOM     90  O   UNL A   1      44.476  25.456  37.369  1.00  0.00    -0.237 OA
ATOM     91  O   UNL A   1      46.174  24.190  36.129  1.00  0.00    -0.744 OA
ENDBRANCH  85  88
ENDBRANCH  58  81
ENDBRANCH  32  33
ENDBRANCH  25  27
ENDBRANCH  24  25
ENDBRANCH  23  24
ENDBRANCH   1  23
TORSDOF 18
ENDMDL
MODEL 3
REMARK VINA RESULT:     -11.2      3.021      8.908
REMARK SMILES COc1ccc(C(=O)c2ccccc2)cc1[C@@H](C)C(=O)OCCOC(=O)c1ccc(-c2c3nc(c(-c4cccc(S(=O)(=O)[O-])c4F)c4ccc([nH]4)c(-c4cccc(S(=O)(=O)[O-])c4F)c4nc(c(-c5cccc(S(=O)(=O)[O-])c5F)c5ccc2[nH]5)C=C4)C=C3)cc1
REMARK SMILES IDX 22 1 21 2 19 3 20 4 17 5 18 6 16 7 3 8 4 9 5 10 15 11 6 12
REMARK SMILES IDX 2 13 1 14 7 15 8 16 9 17 10 18 14 19 11 20 13 21 12 22 23 23
REMARK SMILES IDX 24 24 25 25 26 26 27 27 28 28 89 29 29 30 88 31 30 32 31 33
REMARK SMILES IDX 32 34 82 35 33 36 87 37 81 38 83 39 34 40 86 41 80 42 79 43
REMARK SMILES IDX 35 45 67 46 47 47 66 48 48 49 51 50 65 51 84 52 49 53 50 54
REMARK SMILES IDX 64 56 85 57 52 58 36 59 37 60 45 61 38 62 40 63 46 64 39 65
REMARK SMILES IDX 41 66 42 67 43 68 44 69 68 70 69 71 77 72 70 73 72 74 78 75
REMARK SMILES IDX 71 76 73 77 74 78 75 79 76 80 53 81 54 82 62 83 55 84 57 85
REMARK SMILES IDX 63 86 56 87 58 88 59 89 60 90 61 91
REMARK H PARENT 83 44 51 55
REMARK Flexibility Score: inf
ROOT
ATOM      1  C   UNL A   1      32.032  29.073  25.895  1.00  0.00     0.274 C 
ENDROOT
BRANCH   1   2
ATOM      2  O   UNL A   1      32.693  27.800  25.761  1.00  0.00    -0.462 OA
BRANCH   2   3
ATOM      3  C   UNL A   1      31.935  26.679  25.858  1.00  0.00     0.313 C 
ATOM      4  O   UNL A   1      31.450  26.273  26.909  1.00  0.00    -0.252 OA
BRANCH   3   5
ATOM      5  C   UNL A   1      31.738  25.938  24.534  1.00  0.00     0.130 C 
ATOM      6  C   UNL A   1      30.294  25.447  24.442  1.00  0.00     0.025 C 
BRANCH   5   7
ATOM      7  C   UNL A   1      32.698  24.801  24.205  1.00  0.00     0.009 A 
ATOM      8  C   UNL A   1      33.606  24.899  23.140  1.00  0.00     0.122 A 
ATOM      9  C   UNL A   1      34.466  23.844  22.821  1.00  0.00     0.047 A 
ATOM     10  C   UNL A   1      34.421  22.657  23.558  1.00  0.00     0.016 A 
ATOM     11  C   UNL A   1      32.656  23.590  24.914  1.00  0.00     0.020 A 
ATOM     12  C   UNL A   1      33.499  22.516  24.598  1.00  0.00     0.023 A 
BRANCH   8  13
ATOM     13  O   UNL A   1      33.550  26.002  22.329  1.00  0.00    -0.496 OA
ATOM     14  C   UNL A   1      32.775  25.770  21.154  1.00  0.00     0.278 C 
ENDBRANCH   8  13
BRANCH  12  15
ATOM     15  C   UNL A   1      33.439  21.230  25.359  1.00  0.00     0.193 C 
ATOM     16  O   UNL A   1      33.405  21.220  26.585  1.00  0.00    -0.289 OA
BRANCH  15  17
ATOM     17  C   UNL A   1      33.388  19.936  24.640  1.00  0.00     0.022 A 
ATOM     18  C   UNL A   1      32.331  19.702  23.756  1.00  0.00     0.012 A 
ATOM     19  C   UNL A   1      34.400  18.980  24.802  1.00  0.00     0.012 A 
ATOM     20  C   UNL A   1      32.317  18.535  22.992  1.00  0.00     0.001 A 
ATOM     21  C   UNL A   1      34.386  17.821  24.027  1.00  0.00     0.001 A 
ATOM     22  C   UNL A   1      33.349  17.603  23.117  1.00  0.00     0.000 A 
ENDBRANCH  15  17
ENDBRANCH  12  15
ENDBRANCH   5   7
ENDBRANCH   3   5
ENDBRANCH   2   3
ENDBRANCH   1   2
BRANCH   1  23
ATOM     23  C   UNL A   1      32.541  29.782  27.146  1.00  0.00     0.275 C 
BRANCH  23  24
ATOM     24  O   UNL A   1      33.960  29.594  27.259  1.00  0.00    -0.458 OA
BRANCH  24  25
ATOM     25  C   UNL A   1      34.660  30.674  27.678  1.00  0.00     0.338 C 
ATOM     26  O   UNL A   1      34.295  31.835  27.724  1.00  0.00    -0.246 OA
BRANCH  25  27
ATOM     27  C   UNL A   1      35.959  30.213  28.176  1.00  0.00     0.060 A 
ATOM     28  C   UNL A   1      37.101  30.503  27.431  1.00  0.00     0.016 A 
ATOM     29  C   UNL A   1      36.040  29.441  29.334  1.00  0.00     0.016 A 
ATOM     30  C   UNL A   1      38.332  29.983  27.819  1.00  0.00     0.010 A 
ATOM     31  C   UNL A   1      37.288  28.974  29.755  1.00  0.00     0.010 A 
ATOM     32  C   UNL A   1      38.444  29.227  28.994  1.00  0.00    -0.014 A 
BRANCH  32  33
ATOM     33  C   UNL A   1      39.771  28.731  29.444  1.00  0.00     0.031 A 
ATOM     34  C   UNL A   1      40.522  29.433  30.542  1.00  0.00     0.074 A 
ATOM     35  C   UNL A   1      40.317  27.659  28.835  1.00  0.00     0.049 A 
ATOM     36  N   UNL A   1      41.742  29.229  30.965  1.00  0.00    -0.248 NA
ATOM     37  C   UNL A   1      39.812  30.509  31.253  1.00  0.00     0.031 C 
ATOM     38  C   UNL A   1      39.688  26.891  27.759  1.00  0.00     0.029 A 
ATOM     39  N   UNL A   1      41.529  27.042  29.019  1.00  0.00    -0.354 N 
ATOM     40  C   UNL A   1      41.970  30.183  31.948  1.00  0.00     0.074 A 
ATOM     41  C   UNL A   1      40.756  30.962  32.069  1.00  0.00     0.031 C 
ATOM     42  C   UNL A   1      40.513  25.903  27.384  1.00  0.00     0.029 A 
ATOM     43  C   UNL A   1      41.756  26.010  28.139  1.00  0.00     0.049 A 
ATOM     44  H   UNL A   1      42.173  27.312  29.714  1.00  0.00     0.167 HD
ATOM     45  C   UNL A   1      43.085  30.383  32.689  1.00  0.00     0.034 A 
ATOM     46  C   UNL A   1      42.855  25.259  27.928  1.00  0.00     0.034 A 
ATOM     47  C   UNL A   1      44.268  29.567  32.610  1.00  0.00     0.049 A 
ATOM     48  C   UNL A   1      44.084  25.516  28.749  1.00  0.00     0.074 A 
ATOM     49  C   UNL A   1      45.419  29.646  33.375  1.00  0.00     0.029 A 
ATOM     50  N   UNL A   1      44.452  28.524  31.716  1.00  0.00    -0.354 N 
ATOM     51  N   UNL A   1      44.254  26.367  29.731  1.00  0.00    -0.248 NA
ATOM     52  C   UNL A   1      45.273  24.710  28.437  1.00  0.00     0.031 C 
ATOM     53  C   UNL A   1      46.307  28.658  32.932  1.00  0.00     0.029 A 
ATOM     54  C   UNL A   1      45.706  27.963  31.895  1.00  0.00     0.049 A 
ATOM     55  H   UNL A   1      43.790  28.227  31.050  1.00  0.00     0.167 HD
ATOM     56  C   UNL A   1      45.567  26.203  30.153  1.00  0.00     0.074 A 
ATOM     57  C   UNL A   1      46.136  25.143  29.347  1.00  0.00     0.031 C 
ATOM     58  C   UNL A   1      46.248  26.890  31.104  1.00  0.00     0.034 A 
BRANCH  45  59
ATOM     59  C   UNL A   1      43.075  31.512  33.685  1.00  0.00     0.023 A 
ATOM     60  C   UNL A   1      43.542  32.783  33.297  1.00  0.00     0.012 A 
ATOM     61  C   UNL A   1      42.539  31.334  34.975  1.00  0.00     0.148 A 
ATOM     62  C   UNL A   1      43.490  33.857  34.184  1.00  0.00     0.002 A 
ATOM     63  C   UNL A   1      42.462  32.417  35.843  1.00  0.00     0.091 A 
ATOM     64  F   UNL A   1      42.126  30.110  35.334  1.00  0.00    -0.205 F 
ATOM     65  C   UNL A   1      42.941  33.678  35.451  1.00  0.00     0.022 A 
BRANCH  63  66
ATOM     66  S   UNL A   1      41.711  32.291  37.471  1.00  0.00     0.127 S 
ATOM     67  O   UNL A   1      41.997  33.612  38.030  1.00  0.00    -0.237 OA
ATOM     68  O   UNL A   1      40.303  32.059  37.150  1.00  0.00    -0.237 OA
ATOM     69  O   UNL A   1      42.373  31.172  38.126  1.00  0.00    -0.744 OA
ENDBRANCH  63  66
ENDBRANCH  45  59
BRANCH  46  70
ATOM     70  C   UNL A   1      42.824  24.192  26.888  1.00  0.00     0.023 A 
ATOM     71  C   UNL A   1      43.549  24.369  25.695  1.00  0.00     0.012 A 
ATOM     72  C   UNL A   1      42.148  22.976  27.107  1.00  0.00     0.148 A 
ATOM     73  C   UNL A   1      43.598  23.355  24.738  1.00  0.00     0.002 A 
ATOM     74  C   UNL A   1      42.252  21.947  26.178  1.00  0.00     0.091 A 
ATOM     75  F   UNL A   1      41.435  22.835  28.234  1.00  0.00    -0.205 F 
ATOM     76  C   UNL A   1      42.966  22.139  24.986  1.00  0.00     0.022 A 
BRANCH  74  77
ATOM     77  S   UNL A   1      41.601  20.306  26.513  1.00  0.00     0.127 S 
ATOM     78  O   UNL A   1      42.058  19.556  25.348  1.00  0.00    -0.237 OA
ATOM     79  O   UNL A   1      42.263  19.958  27.771  1.00  0.00    -0.237 OA
ATOM     80  O   UNL A   1      40.159  20.488  26.636  1.00  0.00    -0.744 OA
ENDBRANCH  74  77
ENDBRANCH  46  70
BRANCH  58  81
ATOM     81  C   UNL A   1      47.695  26.532  31.309  1.00  0.00     0.023 A 
ATOM     82  C   UNL A   1      48.683  27.271  30.629  1.00  0.00     0.012 A 
ATOM     83  C   UNL A   1      48.079  25.524  32.212  1.00  0.00     0.148 A 
ATOM     84  C   UNL A   1      50.035  26.998  30.831  1.00  0.00     0.002 A 
ATOM     85  C   UNL A   1      49.430  25.282  32.436  1.00  0.00     0.091 A 
ATOM     86  F   UNL A   1      47.121  24.820  32.832  1.00  0.00    -0.205 F 
ATOM     87  C   UNL A   1      50.408  26.012  31.740  1.00  0.00     0.022 A 
BRANCH  85  88
ATOM     88  S   UNL A   1      50.005  24.083  33.644  1.00  0.00     0.127 S 
ATOM     89  O   UNL A   1      50.828  24.915  34.521  1.00  0.00    -0.237 OA
ATOM     90  O   UNL A   1      48.753  23.619  34.244  1.00  0.00    -0.237 OA
ATOM     91  O   UNL A   1      50.724  23.067  32.887  1.00  0.00    -0.744 OA
ENDBRANCH  85  88
ENDBRANCH  58  81
ENDBRANCH  32  33
ENDBRANCH  25  27
ENDBRANCH  24  25
ENDBRANCH  23  24
ENDBRANCH   1  23
TORSDOF 18
ENDMDL
