MODEL 1
REMARK VINA RESULT:     -12.8      0.000      0.000
REMARK SMILES O=C(Cn1c(=O)c2c3c(sc2n(Cc2ccc(Cl)cc2Cl)c1=O)CCCC3)OCCOC(=O)c1ccc(-c2c3nc(c(-c4cccc(S(=O)(=O)[O-])c4F)c4ccc([nH]4)c(-c4cccc(S(=O)(=O)[O-])c4F)c4nc(c(-c5cccc(S(=O)(=O)[O-])c5F)c5ccc2[nH]5)C=C4)C=C3)cc1
REMARK SMILES IDX 29 1 28 2 2 3 1 4 3 5 4 6 5 7 22 8 6 9 7 10 12 11 23 12 8 13
REMARK SMILES IDX 11 14 9 15 27 16 10 17 24 18 26 19 25 20 13 21 14 22 15 23
REMARK SMILES IDX 20 24 16 25 19 26 21 27 17 28 18 29 30 30 31 31 32 32 33 33
REMARK SMILES IDX 34 34 35 35 96 36 36 37 95 38 37 39 38 40 39 41 89 42 40 43
REMARK SMILES IDX 94 44 88 45 90 46 41 47 93 48 87 49 86 50 42 52 74 53 54 54
REMARK SMILES IDX 73 55 55 56 58 57 72 58 91 59 56 60 57 61 71 63 92 64 59 65
REMARK SMILES IDX 43 66 44 67 52 68 45 69 47 70 53 71 46 72 48 73 49 74 50 75
REMARK SMILES IDX 51 76 75 77 76 78 84 79 77 80 79 81 85 82 78 83 80 84 81 85
REMARK SMILES IDX 82 86 83 87 60 88 61 89 69 90 62 91 64 92 70 93 63 94 65 95
REMARK SMILES IDX 66 96 67 97 68 98
REMARK H PARENT 90 51 58 62
REMARK Flexibility Score: inf
ROOT
ATOM      1  C   UNL A   1      38.164  21.127  25.662  1.00  0.00     0.274 C 
ENDROOT
BRANCH   1   2
ATOM      2  O   UNL A   1      37.505  22.184  24.933  1.00  0.00    -0.461 OA
BRANCH   2   3
ATOM      3  C   UNL A   1      37.124  23.348  25.516  1.00  0.00     0.326 C 
ATOM      4  O   UNL A   1      37.909  24.293  25.576  1.00  0.00    -0.250 OA
BRANCH   3   5
ATOM      5  C   UNL A   1      35.741  23.414  26.157  1.00  0.00     0.253 C 
BRANCH   5   6
ATOM      6  N   UNL A   1      34.727  22.965  25.214  1.00  0.00    -0.248 N 
ATOM      7  C   UNL A   1      34.067  21.802  25.563  1.00  0.00     0.265 A 
ATOM      8  C   UNL A   1      34.337  23.788  24.152  1.00  0.00     0.332 A 
ATOM      9  O   UNL A   1      33.992  21.347  26.702  1.00  0.00    -0.268 OA
ATOM     10  C   UNL A   1      33.434  21.154  24.460  1.00  0.00     0.079 A 
ATOM     11  N   UNL A   1      33.364  23.278  23.262  1.00  0.00    -0.280 N 
ATOM     12  O   UNL A   1      34.793  24.927  24.027  1.00  0.00    -0.247 OA
ATOM     13  C   UNL A   1      33.210  19.764  24.223  1.00  0.00    -0.019 A 
ATOM     14  C   UNL A   1      33.037  21.935  23.412  1.00  0.00     0.113 A 
ATOM     15  C   UNL A   1      32.511  19.588  23.045  1.00  0.00     0.011 A 
ATOM     16  C   UNL A   1      33.734  18.607  25.021  1.00  0.00     0.037 C 
ATOM     17  S   UNL A   1      32.090  21.064  22.324  1.00  0.00    -0.122 S 
ATOM     18  C   UNL A   1      32.140  18.273  22.447  1.00  0.00     0.047 C 
ATOM     19  C   UNL A   1      33.085  17.281  24.592  1.00  0.00     0.005 C 
ATOM     20  C   UNL A   1      32.994  17.154  23.062  1.00  0.00     0.006 C 
BRANCH  11  21
ATOM     21  C   UNL A   1      32.851  24.163  22.198  1.00  0.00     0.165 C 
BRANCH  21  22
ATOM     22  C   UNL A   1      32.155  25.395  22.748  1.00  0.00    -0.009 A 
ATOM     23  C   UNL A   1      32.640  26.661  22.369  1.00  0.00     0.008 A 
ATOM     24  C   UNL A   1      31.006  25.350  23.553  1.00  0.00     0.047 A 
ATOM     25  C   UNL A   1      31.932  27.825  22.673  1.00  0.00     0.021 A 
ATOM     26  C   UNL A   1      30.253  26.503  23.787  1.00  0.00     0.041 A 
ATOM     27  Cl  UNL A   1      30.508  23.927  24.403  1.00  0.00    -0.084 Cl
ATOM     28  C   UNL A   1      30.714  27.734  23.333  1.00  0.00     0.042 A 
ATOM     29  Cl  UNL A   1      29.784  29.151  23.622  1.00  0.00    -0.084 Cl
ENDBRANCH  21  22
ENDBRANCH  11  21
ENDBRANCH   5   6
ENDBRANCH   3   5
ENDBRANCH   2   3
ENDBRANCH   1   2
BRANCH   1  30
ATOM     30  C   UNL A   1      39.619  21.388  26.089  1.00  0.00     0.275 C 
BRANCH  30  31
ATOM     31  O   UNL A   1      39.772  21.941  27.397  1.00  0.00    -0.458 OA
BRANCH  31  32
ATOM     32  C   UNL A   1      41.066  22.059  27.781  1.00  0.00     0.338 C 
ATOM     33  O   UNL A   1      41.919  21.190  27.737  1.00  0.00    -0.246 OA
BRANCH  32  34
ATOM     34  C   UNL A   1      41.362  23.455  28.123  1.00  0.00     0.060 A 
ATOM     35  C   UNL A   1      40.309  24.371  28.067  1.00  0.00     0.016 A 
ATOM     36  C   UNL A   1      42.675  23.874  28.339  1.00  0.00     0.016 A 
ATOM     37  C   UNL A   1      40.584  25.730  28.138  1.00  0.00     0.010 A 
ATOM     38  C   UNL A   1      42.947  25.239  28.387  1.00  0.00     0.010 A 
ATOM     39  C   UNL A   1      41.911  26.175  28.246  1.00  0.00    -0.014 A 
BRANCH  39  40
ATOM     40  C   UNL A   1      42.164  27.629  28.123  1.00  0.00     0.031 A 
ATOM     41  C   UNL A   1      40.965  28.485  27.858  1.00  0.00     0.074 A 
ATOM     42  C   UNL A   1      43.213  28.160  28.798  1.00  0.00     0.049 A 
ATOM     43  N   UNL A   1      40.102  28.778  28.786  1.00  0.00    -0.248 NA
ATOM     44  C   UNL A   1      40.519  28.848  26.514  1.00  0.00     0.031 C 
ATOM     45  C   UNL A   1      43.717  27.592  30.063  1.00  0.00     0.029 A 
ATOM     46  N   UNL A   1      43.881  29.360  28.683  1.00  0.00    -0.354 N 
ATOM     47  C   UNL A   1      38.981  29.306  28.171  1.00  0.00     0.074 A 
ATOM     48  C   UNL A   1      39.294  29.347  26.759  1.00  0.00     0.031 C 
ATOM     49  C   UNL A   1      44.477  28.513  30.685  1.00  0.00     0.029 A 
ATOM     50  C   UNL A   1      44.633  29.678  29.819  1.00  0.00     0.049 A 
ATOM     51  H   UNL A   1      43.833  29.933  27.884  1.00  0.00     0.167 HD
ATOM     52  C   UNL A   1      37.874  29.678  28.874  1.00  0.00     0.034 A 
ATOM     53  C   UNL A   1      44.855  30.943  30.276  1.00  0.00     0.034 A 
ATOM     54  C   UNL A   1      37.971  29.489  30.296  1.00  0.00     0.049 A 
ATOM     55  C   UNL A   1      43.480  31.295  30.795  1.00  0.00     0.074 A 
ATOM     56  C   UNL A   1      37.552  28.571  31.234  1.00  0.00     0.029 A 
ATOM     57  N   UNL A   1      38.712  30.396  31.016  1.00  0.00    -0.354 N 
ATOM     58  N   UNL A   1      42.955  30.868  31.915  1.00  0.00    -0.248 NA
ATOM     59  C   UNL A   1      42.515  31.811  29.825  1.00  0.00     0.031 C 
ATOM     60  C   UNL A   1      38.436  28.730  32.350  1.00  0.00     0.029 A 
ATOM     61  C   UNL A   1      39.366  29.711  32.007  1.00  0.00     0.049 A 
ATOM     62  H   UNL A   1      38.764  31.365  30.848  1.00  0.00     0.167 HD
ATOM     63  C   UNL A   1      41.582  30.767  31.662  1.00  0.00     0.074 A 
ATOM     64  C   UNL A   1      41.384  31.374  30.361  1.00  0.00     0.031 C 
ATOM     65  C   UNL A   1      40.707  30.055  32.436  1.00  0.00     0.034 A 
BRANCH  52  66
ATOM     66  C   UNL A   1      36.720  30.440  28.335  1.00  0.00     0.023 A 
ATOM     67  C   UNL A   1      36.664  31.799  28.711  1.00  0.00     0.012 A 
ATOM     68  C   UNL A   1      35.608  29.855  27.704  1.00  0.00     0.148 A 
ATOM     69  C   UNL A   1      35.507  32.550  28.533  1.00  0.00     0.002 A 
ATOM     70  C   UNL A   1      34.456  30.622  27.510  1.00  0.00     0.091 A 
ATOM     71  F   UNL A   1      35.669  28.561  27.361  1.00  0.00    -0.205 F 
ATOM     72  C   UNL A   1      34.400  31.959  27.942  1.00  0.00     0.022 A 
BRANCH  70  73
ATOM     73  S   UNL A   1      32.961  29.986  26.740  1.00  0.00     0.127 S 
ATOM     74  O   UNL A   1      32.639  28.842  27.591  1.00  0.00    -0.237 OA
ATOM     75  O   UNL A   1      32.045  31.121  26.872  1.00  0.00    -0.237 OA
ATOM     76  O   UNL A   1      33.326  29.666  25.366  1.00  0.00    -0.744 OA
ENDBRANCH  70  73
ENDBRANCH  52  66
BRANCH  53  77
ATOM     77  C   UNL A   1      45.663  31.817  29.360  1.00  0.00     0.023 A 
ATOM     78  C   UNL A   1      47.055  31.889  29.614  1.00  0.00     0.012 A 
ATOM     79  C   UNL A   1      45.168  32.554  28.270  1.00  0.00     0.148 A 
ATOM     80  C   UNL A   1      47.930  32.555  28.752  1.00  0.00     0.002 A 
ATOM     81  C   UNL A   1      46.049  33.154  27.370  1.00  0.00     0.091 A 
ATOM     82  F   UNL A   1      43.846  32.672  28.109  1.00  0.00    -0.205 F 
ATOM     83  C   UNL A   1      47.429  33.155  27.606  1.00  0.00     0.022 A 
BRANCH  81  84
ATOM     84  S   UNL A   1      45.502  33.855  25.807  1.00  0.00     0.127 S 
ATOM     85  O   UNL A   1      46.735  34.441  25.287  1.00  0.00    -0.237 OA
ATOM     86  O   UNL A   1      45.040  32.660  25.102  1.00  0.00    -0.237 OA
ATOM     87  O   UNL A   1      44.457  34.811  26.146  1.00  0.00    -0.744 OA
ENDBRANCH  81  84
ENDBRANCH  53  77
BRANCH  65  88
ATOM     88  C   UNL A   1      41.245  29.483  33.717  1.00  0.00     0.023 A 
ATOM     89  C   UNL A   1      41.130  30.248  34.894  1.00  0.00     0.012 A 
ATOM     90  C   UNL A   1      41.776  28.179  33.802  1.00  0.00     0.148 A 
ATOM     91  C   UNL A   1      41.508  29.724  36.130  1.00  0.00     0.002 A 
ATOM     92  C   UNL A   1      42.104  27.643  35.043  1.00  0.00     0.091 A 
ATOM     93  F   UNL A   1      41.940  27.471  32.674  1.00  0.00    -0.205 F 
ATOM     94  C   UNL A   1      41.977  28.416  36.207  1.00  0.00     0.022 A 
BRANCH  92  95
ATOM     95  S   UNL A   1      42.631  25.938  35.266  1.00  0.00     0.127 S 
ATOM     96  O   UNL A   1      43.380  26.009  36.521  1.00  0.00    -0.237 OA
ATOM     97  O   UNL A   1      41.349  25.238  35.365  1.00  0.00    -0.237 OA
ATOM     98  O   UNL A   1      43.426  25.594  34.095  1.00  0.00    -0.744 OA
ENDBRANCH  92  95
ENDBRANCH  65  88
ENDBRANCH  39  40
ENDBRANCH  32  34
ENDBRANCH  31  32
ENDBRANCH  30  31
ENDBRANCH   1  30
TORSDOF 17
ENDMDL
MODEL 2
REMARK VINA RESULT:     -12.7      1.632      2.003
REMARK SMILES O=C(Cn1c(=O)c2c3c(sc2n(Cc2ccc(Cl)cc2Cl)c1=O)CCCC3)OCCOC(=O)c1ccc(-c2c3nc(c(-c4cccc(S(=O)(=O)[O-])c4F)c4ccc([nH]4)c(-c4cccc(S(=O)(=O)[O-])c4F)c4nc(c(-c5cccc(S(=O)(=O)[O-])c5F)c5ccc2[nH]5)C=C4)C=C3)cc1
REMARK SMILES IDX 29 1 28 2 2 3 1 4 3 5 4 6 5 7 22 8 6 9 7 10 12 11 23 12 8 13
REMARK SMILES IDX 11 14 9 15 27 16 10 17 24 18 26 19 25 20 13 21 14 22 15 23
REMARK SMILES IDX 20 24 16 25 19 26 21 27 17 28 18 29 30 30 31 31 32 32 33 33
REMARK SMILES IDX 34 34 35 35 96 36 36 37 95 38 37 39 38 40 39 41 89 42 40 43
REMARK SMILES IDX 94 44 88 45 90 46 41 47 93 48 87 49 86 50 42 52 74 53 54 54
REMARK SMILES IDX 73 55 55 56 58 57 72 58 91 59 56 60 57 61 71 63 92 64 59 65
REMARK SMILES IDX 43 66 44 67 52 68 45 69 47 70 53 71 46 72 48 73 49 74 50 75
REMARK SMILES IDX 51 76 75 77 76 78 84 79 77 80 79 81 85 82 78 83 80 84 81 85
REMARK SMILES IDX 82 86 83 87 60 88 61 89 69 90 62 91 64 92 70 93 63 94 65 95
REMARK SMILES IDX 66 96 67 97 68 98
REMARK H PARENT 90 51 58 62
REMARK Flexibility Score: inf
ROOT
ATOM      1  C   UNL A   1      39.078  21.976  26.395  1.00  0.00     0.274 C 
ENDROOT
BRANCH   1   2
ATOM      2  O   UNL A   1      38.699  23.297  25.952  1.00  0.00    -0.461 OA
BRANCH   2   3
ATOM      3  C   UNL A   1      37.489  23.565  25.404  1.00  0.00     0.326 C 
ATOM      4  O   UNL A   1      36.669  24.245  26.021  1.00  0.00    -0.250 OA
BRANCH   3   5
ATOM      5  C   UNL A   1      37.153  22.937  24.055  1.00  0.00     0.253 C 
BRANCH   5   6
ATOM      6  N   UNL A   1      35.812  22.371  24.083  1.00  0.00    -0.248 N 
ATOM      7  C   UNL A   1      35.676  21.203  24.810  1.00  0.00     0.265 A 
ATOM      8  C   UNL A   1      34.729  23.096  23.574  1.00  0.00     0.332 A 
ATOM      9  O   UNL A   1      36.446  20.827  25.691  1.00  0.00    -0.268 OA
ATOM     10  C   UNL A   1      34.517  20.447  24.462  1.00  0.00     0.079 A 
ATOM     11  N   UNL A   1      33.459  22.475  23.613  1.00  0.00    -0.280 N 
ATOM     12  O   UNL A   1      34.874  24.245  23.150  1.00  0.00    -0.247 OA
ATOM     13  C   UNL A   1      34.311  19.035  24.468  1.00  0.00    -0.019 A 
ATOM     14  C   UNL A   1      33.442  21.131  23.969  1.00  0.00     0.113 A 
ATOM     15  C   UNL A   1      33.012  18.740  24.105  1.00  0.00     0.011 A 
ATOM     16  C   UNL A   1      35.337  17.965  24.699  1.00  0.00     0.037 C 
ATOM     17  S   UNL A   1      32.085  20.139  23.852  1.00  0.00    -0.122 S 
ATOM     18  C   UNL A   1      32.445  17.369  23.950  1.00  0.00     0.047 C 
ATOM     19  C   UNL A   1      34.688  16.581  24.859  1.00  0.00     0.005 C 
ATOM     20  C   UNL A   1      33.580  16.342  23.820  1.00  0.00     0.006 C 
BRANCH  11  21
ATOM     21  C   UNL A   1      32.280  23.256  23.187  1.00  0.00     0.165 C 
BRANCH  21  22
ATOM     22  C   UNL A   1      31.935  24.370  24.158  1.00  0.00    -0.009 A 
ATOM     23  C   UNL A   1      31.812  24.052  25.524  1.00  0.00     0.008 A 
ATOM     24  C   UNL A   1      31.804  25.718  23.787  1.00  0.00     0.047 A 
ATOM     25  C   UNL A   1      31.696  25.053  26.490  1.00  0.00     0.021 A 
ATOM     26  C   UNL A   1      31.772  26.725  24.756  1.00  0.00     0.041 A 
ATOM     27  Cl  UNL A   1      31.555  26.224  22.151  1.00  0.00    -0.084 Cl
ATOM     28  C   UNL A   1      31.732  26.386  26.103  1.00  0.00     0.042 A 
ATOM     29  Cl  UNL A   1      31.693  27.628  27.293  1.00  0.00    -0.084 Cl
ENDBRANCH  21  22
ENDBRANCH  11  21
ENDBRANCH   5   6
ENDBRANCH   3   5
ENDBRANCH   2   3
ENDBRANCH   1   2
BRANCH   1  30
ATOM     30  C   UNL A   1      40.387  21.406  25.821  1.00  0.00     0.275 C 
BRANCH  30  31
ATOM     31  O   UNL A   1      41.533  22.243  25.991  1.00  0.00    -0.458 OA
BRANCH  31  32
ATOM     32  C   UNL A   1      41.939  22.340  27.280  1.00  0.00     0.338 C 
ATOM     33  O   UNL A   1      42.109  21.419  28.059  1.00  0.00    -0.246 OA
BRANCH  32  34
ATOM     34  C   UNL A   1      42.312  23.726  27.584  1.00  0.00     0.060 A 
ATOM     35  C   UNL A   1      41.515  24.424  28.495  1.00  0.00     0.016 A 
ATOM     36  C   UNL A   1      43.326  24.365  26.871  1.00  0.00     0.016 A 
ATOM     37  C   UNL A   1      41.675  25.797  28.628  1.00  0.00     0.010 A 
ATOM     38  C   UNL A   1      43.467  25.746  26.991  1.00  0.00     0.010 A 
ATOM     39  C   UNL A   1      42.617  26.475  27.837  1.00  0.00    -0.014 A 
BRANCH  39  40
ATOM     40  C   UNL A   1      42.613  27.955  27.876  1.00  0.00     0.031 A 
ATOM     41  C   UNL A   1      41.268  28.611  27.839  1.00  0.00     0.074 A 
ATOM     42  C   UNL A   1      43.632  28.586  28.509  1.00  0.00     0.049 A 
ATOM     43  N   UNL A   1      40.483  28.645  28.875  1.00  0.00    -0.248 NA
ATOM     44  C   UNL A   1      40.615  29.034  26.601  1.00  0.00     0.031 C 
ATOM     45  C   UNL A   1      44.366  27.982  29.638  1.00  0.00     0.029 A 
ATOM     46  N   UNL A   1      44.078  29.890  28.484  1.00  0.00    -0.354 N 
ATOM     47  C   UNL A   1      39.226  29.031  28.443  1.00  0.00     0.074 A 
ATOM     48  C   UNL A   1      39.362  29.280  27.024  1.00  0.00     0.031 C 
ATOM     49  C   UNL A   1      45.033  28.948  30.296  1.00  0.00     0.029 A 
ATOM     50  C   UNL A   1      44.895  30.210  29.574  1.00  0.00     0.049 A 
ATOM     51  H   UNL A   1      43.845  30.530  27.774  1.00  0.00     0.167 HD
ATOM     52  C   UNL A   1      38.163  29.124  29.290  1.00  0.00     0.034 A 
ATOM     53  C   UNL A   1      44.959  31.437  30.165  1.00  0.00     0.034 A 
ATOM     54  C   UNL A   1      38.454  28.801  30.661  1.00  0.00     0.049 A 
ATOM     55  C   UNL A   1      43.615  31.482  30.854  1.00  0.00     0.074 A 
ATOM     56  C   UNL A   1      38.302  27.728  31.511  1.00  0.00     0.029 A 
ATOM     57  N   UNL A   1      39.116  29.741  31.415  1.00  0.00    -0.354 N 
ATOM     58  N   UNL A   1      43.300  30.850  31.956  1.00  0.00    -0.248 NA
ATOM     59  C   UNL A   1      42.472  31.924  30.055  1.00  0.00     0.031 C 
ATOM     60  C   UNL A   1      39.273  27.917  32.548  1.00  0.00     0.029 A 
ATOM     61  C   UNL A   1      39.983  29.078  32.244  1.00  0.00     0.049 A 
ATOM     62  H   UNL A   1      38.989  30.716  31.368  1.00  0.00     0.167 HD
ATOM     63  C   UNL A   1      41.943  30.538  31.825  1.00  0.00     0.074 A 
ATOM     64  C   UNL A   1      41.498  31.239  30.637  1.00  0.00     0.031 C 
ATOM     65  C   UNL A   1      41.291  29.603  32.583  1.00  0.00     0.034 A 
BRANCH  52  66
ATOM     66  C   UNL A   1      36.845  29.726  28.966  1.00  0.00     0.023 A 
ATOM     67  C   UNL A   1      36.098  29.050  27.978  1.00  0.00     0.012 A 
ATOM     68  C   UNL A   1      36.429  31.000  29.390  1.00  0.00     0.148 A 
ATOM     69  C   UNL A   1      35.001  29.648  27.367  1.00  0.00     0.002 A 
ATOM     70  C   UNL A   1      35.314  31.586  28.786  1.00  0.00     0.091 A 
ATOM     71  F   UNL A   1      37.153  31.637  30.322  1.00  0.00    -0.205 F 
ATOM     72  C   UNL A   1      34.615  30.919  27.764  1.00  0.00     0.022 A 
BRANCH  70  73
ATOM     73  S   UNL A   1      34.695  33.218  29.220  1.00  0.00     0.127 S 
ATOM     74  O   UNL A   1      34.298  33.034  30.615  1.00  0.00    -0.237 OA
ATOM     75  O   UNL A   1      35.883  34.053  29.029  1.00  0.00    -0.237 OA
ATOM     76  O   UNL A   1      33.610  33.493  28.288  1.00  0.00    -0.744 OA
ENDBRANCH  70  73
ENDBRANCH  52  66
BRANCH  53  77
ATOM     77  C   UNL A   1      45.502  32.534  29.294  1.00  0.00     0.023 A 
ATOM     78  C   UNL A   1      46.676  33.184  29.748  1.00  0.00     0.012 A 
ATOM     79  C   UNL A   1      44.961  32.961  28.069  1.00  0.00     0.148 A 
ATOM     80  C   UNL A   1      47.352  34.120  28.962  1.00  0.00     0.002 A 
ATOM     81  C   UNL A   1      45.675  33.840  27.254  1.00  0.00     0.091 A 
ATOM     82  F   UNL A   1      43.755  32.516  27.698  1.00  0.00    -0.205 F 
ATOM     83  C   UNL A   1      46.871  34.419  27.696  1.00  0.00     0.022 A 
BRANCH  81  84
ATOM     84  S   UNL A   1      45.189  34.197  25.560  1.00  0.00     0.127 S 
ATOM     85  O   UNL A   1      44.047  35.088  25.752  1.00  0.00    -0.237 OA
ATOM     86  O   UNL A   1      46.395  34.840  25.044  1.00  0.00    -0.237 OA
ATOM     87  O   UNL A   1      44.875  32.908  24.959  1.00  0.00    -0.744 OA
ENDBRANCH  81  84
ENDBRANCH  53  77
BRANCH  65  88
ATOM     88  C   UNL A   1      42.060  28.999  33.723  1.00  0.00     0.023 A 
ATOM     89  C   UNL A   1      41.981  29.614  34.987  1.00  0.00     0.012 A 
ATOM     90  C   UNL A   1      42.783  27.794  33.597  1.00  0.00     0.148 A 
ATOM     91  C   UNL A   1      42.580  29.036  36.106  1.00  0.00     0.002 A 
ATOM     92  C   UNL A   1      43.336  27.195  34.724  1.00  0.00     0.091 A 
ATOM     93  F   UNL A   1      42.909  27.238  32.382  1.00  0.00    -0.205 F 
ATOM     94  C   UNL A   1      43.241  27.818  35.978  1.00  0.00     0.022 A 
BRANCH  92  95
ATOM     95  S   UNL A   1      44.131  25.582  34.687  1.00  0.00     0.127 S 
ATOM     96  O   UNL A   1      45.099  25.741  33.602  1.00  0.00    -0.237 OA
ATOM     97  O   UNL A   1      44.726  25.510  36.023  1.00  0.00    -0.237 OA
ATOM     98  O   UNL A   1      43.078  24.609  34.435  1.00  0.00    -0.744 OA
ENDBRANCH  92  95
ENDBRANCH  65  88
ENDBRANCH  39  40
ENDBRANCH  32  34
ENDBRANCH  31  32
ENDBRANCH  30  31
ENDBRANCH   1  30
TORSDOF 17
ENDMDL
MODEL 3
REMARK VINA RESULT:     -12.2      2.051      2.513
REMARK SMILES O=C(Cn1c(=O)c2c3c(sc2n(Cc2ccc(Cl)cc2Cl)c1=O)CCCC3)OCCOC(=O)c1ccc(-c2c3nc(c(-c4cccc(S(=O)(=O)[O-])c4F)c4ccc([nH]4)c(-c4cccc(S(=O)(=O)[O-])c4F)c4nc(c(-c5cccc(S(=O)(=O)[O-])c5F)c5ccc2[nH]5)C=C4)C=C3)cc1
REMARK SMILES IDX 29 1 28 2 2 3 1 4 3 5 4 6 5 7 22 8 6 9 7 10 12 11 23 12 8 13
REMARK SMILES IDX 11 14 9 15 27 16 10 17 24 18 26 19 25 20 13 21 14 22 15 23
REMARK SMILES IDX 20 24 16 25 19 26 21 27 17 28 18 29 30 30 31 31 32 32 33 33
REMARK SMILES IDX 34 34 35 35 96 36 36 37 95 38 37 39 38 40 39 41 89 42 40 43
REMARK SMILES IDX 94 44 88 45 90 46 41 47 93 48 87 49 86 50 42 52 74 53 54 54
REMARK SMILES IDX 73 55 55 56 58 57 72 58 91 59 56 60 57 61 71 63 92 64 59 65
REMARK SMILES IDX 43 66 44 67 52 68 45 69 47 70 53 71 46 72 48 73 49 74 50 75
REMARK SMILES IDX 51 76 75 77 76 78 84 79 77 80 79 81 85 82 78 83 80 84 81 85
REMARK SMILES IDX 82 86 83 87 60 88 61 89 69 90 62 91 64 92 70 93 63 94 65 95
REMARK SMILES IDX 66 96 67 97 68 98
REMARK H PARENT 90 51 58 62
REMARK Flexibility Score: inf
ROOT
ATOM      1  C   UNL A   1      39.246  21.933  26.112  1.00  0.00     0.274 C 
ENDROOT
BRANCH   1   2
ATOM      2  O   UNL A   1      38.647  23.243  26.187  1.00  0.00    -0.461 OA
BRANCH   2   3
ATOM      3  C   UNL A   1      37.461  23.541  25.599  1.00  0.00     0.326 C 
ATOM      4  O   UNL A   1      36.625  24.212  26.202  1.00  0.00    -0.250 OA
BRANCH   3   5
ATOM      5  C   UNL A   1      37.173  22.954  24.220  1.00  0.00     0.253 C 
BRANCH   5   6
ATOM      6  N   UNL A   1      35.831  22.391  24.184  1.00  0.00    -0.248 N 
ATOM      7  C   UNL A   1      35.663  21.212  24.886  1.00  0.00     0.265 A 
ATOM      8  C   UNL A   1      34.772  23.126  23.641  1.00  0.00     0.332 A 
ATOM      9  O   UNL A   1      36.395  20.821  25.793  1.00  0.00    -0.268 OA
ATOM     10  C   UNL A   1      34.518  20.464  24.479  1.00  0.00     0.079 A 
ATOM     11  N   UNL A   1      33.501  22.507  23.617  1.00  0.00    -0.280 N 
ATOM     12  O   UNL A   1      34.936  24.281  23.241  1.00  0.00    -0.247 OA
ATOM     13  C   UNL A   1      34.310  19.052  24.454  1.00  0.00    -0.019 A 
ATOM     14  C   UNL A   1      33.466  21.158  23.951  1.00  0.00     0.113 A 
ATOM     15  C   UNL A   1      33.027  18.766  24.032  1.00  0.00     0.011 A 
ATOM     16  C   UNL A   1      35.324  17.977  24.711  1.00  0.00     0.037 C 
ATOM     17  S   UNL A   1      32.114  20.171  23.763  1.00  0.00    -0.122 S 
ATOM     18  C   UNL A   1      32.465  17.399  23.833  1.00  0.00     0.047 C 
ATOM     19  C   UNL A   1      34.667  16.592  24.823  1.00  0.00     0.005 C 
ATOM     20  C   UNL A   1      33.603  16.371  23.735  1.00  0.00     0.006 C 
BRANCH  11  21
ATOM     21  C   UNL A   1      32.342  23.297  23.154  1.00  0.00     0.165 C 
BRANCH  21  22
ATOM     22  C   UNL A   1      31.964  24.404  24.122  1.00  0.00    -0.009 A 
ATOM     23  C   UNL A   1      31.831  24.082  25.486  1.00  0.00     0.008 A 
ATOM     24  C   UNL A   1      31.813  25.749  23.750  1.00  0.00     0.047 A 
ATOM     25  C   UNL A   1      31.685  25.079  26.451  1.00  0.00     0.021 A 
ATOM     26  C   UNL A   1      31.750  26.754  24.719  1.00  0.00     0.041 A 
ATOM     27  Cl  UNL A   1      31.574  26.252  22.112  1.00  0.00    -0.084 Cl
ATOM     28  C   UNL A   1      31.701  26.413  26.066  1.00  0.00     0.042 A 
ATOM     29  Cl  UNL A   1      31.624  27.653  27.256  1.00  0.00    -0.084 Cl
ENDBRANCH  21  22
ENDBRANCH  11  21
ENDBRANCH   5   6
ENDBRANCH   3   5
ENDBRANCH   2   3
ENDBRANCH   1   2
BRANCH   1  30
ATOM     30  C   UNL A   1      40.437  21.664  27.047  1.00  0.00     0.275 C 
BRANCH  30  31
ATOM     31  O   UNL A   1      41.718  21.698  26.415  1.00  0.00    -0.458 OA
BRANCH  31  32
ATOM     32  C   UNL A   1      42.647  22.385  27.123  1.00  0.00     0.338 C 
ATOM     33  O   UNL A   1      43.726  21.966  27.504  1.00  0.00    -0.246 OA
BRANCH  32  34
ATOM     34  C   UNL A   1      42.246  23.790  27.244  1.00  0.00     0.060 A 
ATOM     35  C   UNL A   1      42.239  24.563  26.080  1.00  0.00     0.016 A 
ATOM     36  C   UNL A   1      42.034  24.367  28.496  1.00  0.00     0.016 A 
ATOM     37  C   UNL A   1      42.109  25.942  26.178  1.00  0.00     0.010 A 
ATOM     38  C   UNL A   1      41.927  25.753  28.591  1.00  0.00     0.010 A 
ATOM     39  C   UNL A   1      42.006  26.551  27.439  1.00  0.00    -0.014 A 
BRANCH  39  40
ATOM     40  C   UNL A   1      42.065  28.029  27.499  1.00  0.00     0.031 A 
ATOM     41  C   UNL A   1      40.748  28.739  27.554  1.00  0.00     0.074 A 
ATOM     42  C   UNL A   1      43.147  28.608  28.075  1.00  0.00     0.049 A 
ATOM     43  N   UNL A   1      40.030  28.787  28.638  1.00  0.00    -0.248 NA
ATOM     44  C   UNL A   1      40.037  29.207  26.366  1.00  0.00     0.031 C 
ATOM     45  C   UNL A   1      43.923  27.958  29.147  1.00  0.00     0.029 A 
ATOM     46  N   UNL A   1      43.642  29.894  28.040  1.00  0.00    -0.354 N 
ATOM     47  C   UNL A   1      38.767  29.230  28.291  1.00  0.00     0.074 A 
ATOM     48  C   UNL A   1      38.824  29.496  26.870  1.00  0.00     0.031 C 
ATOM     49  C   UNL A   1      44.668  28.887  29.775  1.00  0.00     0.029 A 
ATOM     50  C   UNL A   1      44.538  30.163  29.080  1.00  0.00     0.049 A 
ATOM     51  H   UNL A   1      43.392  30.554  27.354  1.00  0.00     0.167 HD
ATOM     52  C   UNL A   1      37.763  29.352  29.204  1.00  0.00     0.034 A 
ATOM     53  C   UNL A   1      44.689  31.377  29.683  1.00  0.00     0.034 A 
ATOM     54  C   UNL A   1      38.125  28.996  30.549  1.00  0.00     0.049 A 
ATOM     55  C   UNL A   1      43.393  31.466  30.455  1.00  0.00     0.074 A 
ATOM     56  C   UNL A   1      37.982  27.916  31.393  1.00  0.00     0.029 A 
ATOM     57  N   UNL A   1      38.870  29.896  31.273  1.00  0.00    -0.354 N 
ATOM     58  N   UNL A   1      43.121  30.830  31.566  1.00  0.00    -0.248 NA
ATOM     59  C   UNL A   1      42.222  31.965  29.735  1.00  0.00     0.031 C 
ATOM     60  C   UNL A   1      39.022  28.050  32.369  1.00  0.00     0.029 A 
ATOM     61  C   UNL A   1      39.759  29.186  32.037  1.00  0.00     0.049 A 
ATOM     62  H   UNL A   1      38.780  30.877  31.247  1.00  0.00     0.167 HD
ATOM     63  C   UNL A   1      41.747  30.573  31.516  1.00  0.00     0.074 A 
ATOM     64  C   UNL A   1      41.258  31.310  30.367  1.00  0.00     0.031 C 
ATOM     65  C   UNL A   1      41.106  29.653  32.300  1.00  0.00     0.034 A 
BRANCH  52  66
ATOM     66  C   UNL A   1      36.453  30.011  28.971  1.00  0.00     0.023 A 
ATOM     67  C   UNL A   1      35.589  29.341  28.079  1.00  0.00     0.012 A 
ATOM     68  C   UNL A   1      36.140  31.320  29.378  1.00  0.00     0.148 A 
ATOM     69  C   UNL A   1      34.473  29.974  27.542  1.00  0.00     0.002 A 
ATOM     70  C   UNL A   1      35.006  31.942  28.850  1.00  0.00     0.091 A 
ATOM     71  F   UNL A   1      36.974  31.950  30.217  1.00  0.00    -0.205 F 
ATOM     72  C   UNL A   1      34.187  31.278  27.920  1.00  0.00     0.022 A 
BRANCH  70  73
ATOM     73  S   UNL A   1      34.510  33.619  29.270  1.00  0.00     0.127 S 
ATOM     74  O   UNL A   1      35.707  34.387  28.931  1.00  0.00    -0.237 OA
ATOM     75  O   UNL A   1      33.373  33.833  28.372  1.00  0.00    -0.237 OA
ATOM     76  O   UNL A   1      34.162  33.588  30.685  1.00  0.00    -0.744 OA
ENDBRANCH  70  73
ENDBRANCH  52  66
BRANCH  53  77
ATOM     77  C   UNL A   1      45.221  32.466  28.794  1.00  0.00     0.023 A 
ATOM     78  C   UNL A   1      45.902  32.053  27.622  1.00  0.00     0.012 A 
ATOM     79  C   UNL A   1      45.091  33.849  29.011  1.00  0.00     0.148 A 
ATOM     80  C   UNL A   1      46.319  32.966  26.650  1.00  0.00     0.002 A 
ATOM     81  C   UNL A   1      45.440  34.753  28.008  1.00  0.00     0.091 A 
ATOM     82  F   UNL A   1      44.632  34.283  30.190  1.00  0.00    -0.205 F 
ATOM     83  C   UNL A   1      46.052  34.316  26.827  1.00  0.00     0.022 A 
BRANCH  81  84
ATOM     84  S   UNL A   1      45.031  36.502  28.101  1.00  0.00     0.127 S 
ATOM     85  O   UNL A   1      45.918  36.967  29.164  1.00  0.00    -0.237 OA
ATOM     86  O   UNL A   1      45.388  36.952  26.756  1.00  0.00    -0.237 OA
ATOM     87  O   UNL A   1      43.609  36.559  28.410  1.00  0.00    -0.744 OA
ENDBRANCH  81  84
ENDBRANCH  53  77
BRANCH  65  88
ATOM     88  C   UNL A   1      41.919  29.001  33.383  1.00  0.00     0.023 A 
ATOM     89  C   UNL A   1      42.453  27.721  33.142  1.00  0.00     0.012 A 
ATOM     90  C   UNL A   1      42.240  29.658  34.590  1.00  0.00     0.148 A 
ATOM     91  C   UNL A   1      43.307  27.115  34.063  1.00  0.00     0.002 A 
ATOM     92  C   UNL A   1      43.132  29.071  35.481  1.00  0.00     0.091 A 
ATOM     93  F   UNL A   1      41.686  30.852  34.846  1.00  0.00    -0.205 F 
ATOM     94  C   UNL A   1      43.662  27.797  35.223  1.00  0.00     0.022 A 
BRANCH  92  95
ATOM     95  S   UNL A   1      43.727  29.902  36.962  1.00  0.00     0.127 S 
ATOM     96  O   UNL A   1      44.325  28.799  37.714  1.00  0.00    -0.237 OA
ATOM     97  O   UNL A   1      44.695  30.850  36.406  1.00  0.00    -0.237 OA
ATOM     98  O   UNL A   1      42.564  30.513  37.588  1.00  0.00    -0.744 OA
ENDBRANCH  92  95
ENDBRANCH  65  88
ENDBRANCH  39  40
ENDBRANCH  32  34
ENDBRANCH  31  32
ENDBRANCH  30  31
ENDBRANCH   1  30
TORSDOF 17
ENDMDL
