MODEL 1
REMARK VINA RESULT:     -12.4      0.000      0.000
REMARK SMILES Cc1c(CCC(=O)N2CCC[C@H]2C(=O)OCCOC(=O)c2ccc(-c3c4nc(c(-c5cccc(S(=O)(=O)[O-])c5F)c5ccc([nH]5)c(-c5cccc(S(=O)(=O)[O-])c5F)c5nc(c(-c6cccc(S(=O)(=O)[O-])c6F)c6ccc3[nH]6)C=C5)C=C4)cc2)c(=O)oc2cc3oc4c(c3cc12)CCCC4
REMARK SMILES IDX 16 1 15 2 13 3 14 4 12 5 8 6 9 7 10 8 11 9 6 10 7 11 5 12
REMARK SMILES IDX 4 13 3 14 1 15 2 16 95 17 84 18 87 19 94 20 85 21 86 22
REMARK SMILES IDX 88 23 93 24 89 25 92 26 90 27 91 28 96 29 99 30 97 31 98 32
REMARK SMILES IDX 17 33 18 34 19 35 20 36 21 37 22 38 83 39 23 40 82 41 24 42
REMARK SMILES IDX 25 43 26 44 76 45 27 46 81 47 75 48 77 49 28 50 80 51 74 52
REMARK SMILES IDX 73 53 29 55 61 56 41 57 60 58 42 59 45 60 59 61 78 62 43 63
REMARK SMILES IDX 44 64 58 66 79 67 46 68 30 69 31 70 39 71 32 72 34 73 40 74
REMARK SMILES IDX 33 75 35 76 36 77 37 78 38 79 62 80 63 81 71 82 64 83 66 84
REMARK SMILES IDX 72 85 65 86 67 87 68 88 69 89 70 90 47 91 48 92 56 93 49 94
REMARK SMILES IDX 51 95 57 96 50 97 52 98 53 99 54 100 55 101
REMARK H PARENT 77 54 45 65
REMARK Flexibility Score: inf
ROOT
ATOM      1  C   UNL A   1      46.105  25.581  39.023  1.00  0.00     0.274 C 
ENDROOT
BRANCH   1   2
ATOM      2  O   UNL A   1      46.699  24.636  39.939  1.00  0.00    -0.461 OA
BRANCH   2   3
ATOM      3  C   UNL A   1      47.996  24.334  39.703  1.00  0.00     0.328 C 
ATOM      4  O   UNL A   1      48.919  24.978  40.194  1.00  0.00    -0.250 OA
BRANCH   3   5
ATOM      5  C   UNL A   1      48.232  23.005  38.947  1.00  0.00     0.195 C 
ATOM      6  N   UNL A   1      47.191  22.002  38.629  1.00  0.00    -0.329 N 
ATOM      7  C   UNL A   1      47.300  21.586  37.233  1.00  0.00     0.120 C 
ATOM      8  C   UNL A   1      48.581  22.184  36.693  1.00  0.00     0.024 C 
ATOM      9  C   UNL A   1      48.814  23.390  37.570  1.00  0.00     0.039 C 
BRANCH   6  10
ATOM     10  C   UNL A   1      46.480  21.322  39.604  1.00  0.00     0.223 C 
ATOM     11  O   UNL A   1      45.331  21.630  39.927  1.00  0.00    -0.275 OA
BRANCH  10  12
ATOM     12  C   UNL A   1      47.126  20.106  40.284  1.00  0.00     0.105 C 
BRANCH  12  13
ATOM     13  C   UNL A   1      47.465  18.939  39.339  1.00  0.00     0.053 C 
BRANCH  13  14
ATOM     14  C   UNL A   1      46.377  17.900  39.349  1.00  0.00     0.042 A 
ATOM     15  C   UNL A   1      47.408  16.581  41.252  1.00  0.00     0.046 C 
ATOM     16  C   UNL A   1      46.294  16.981  40.324  1.00  0.00    -0.030 A 
ATOM     17  C   UNL A   1      44.948  16.502  40.612  1.00  0.00     0.022 A 
ATOM     18  C   UNL A   1      45.314  18.001  38.306  1.00  0.00     0.339 A 
ATOM     19  C   UNL A   1      43.984  16.472  39.605  1.00  0.00     0.142 A 
ATOM     20  C   UNL A   1      44.581  16.201  41.920  1.00  0.00     0.024 A 
ATOM     21  O   UNL A   1      45.397  18.811  37.389  1.00  0.00    -0.246 OA
ATOM     22  O   UNL A   1      44.270  17.079  38.369  1.00  0.00    -0.422 OA
ATOM     23  C   UNL A   1      42.716  15.904  39.784  1.00  0.00     0.095 A 
ATOM     24  C   UNL A   1      43.304  15.697  42.154  1.00  0.00     0.025 A 
ATOM     25  C   UNL A   1      42.468  15.441  41.073  1.00  0.00     0.138 A 
ATOM     26  C   UNL A   1      42.682  15.164  43.295  1.00  0.00     0.001 A 
ATOM     27  O   UNL A   1      41.491  14.561  41.459  1.00  0.00    -0.461 OA
ATOM     28  C   UNL A   1      41.763  14.286  42.765  1.00  0.00     0.108 A 
ATOM     29  C   UNL A   1      43.230  14.932  44.654  1.00  0.00     0.040 C 
ATOM     30  C   UNL A   1      41.657  12.901  43.304  1.00  0.00     0.076 C 
ATOM     31  C   UNL A   1      43.817  13.508  44.683  1.00  0.00     0.005 C 
ATOM     32  C   UNL A   1      43.117  12.508  43.710  1.00  0.00     0.008 C 
ENDBRANCH  13  14
ENDBRANCH  12  13
ENDBRANCH  10  12
ENDBRANCH   6  10
ENDBRANCH   3   5
ENDBRANCH   2   3
ENDBRANCH   1   2
BRANCH   1  33
ATOM     33  C   UNL A   1      45.147  24.873  38.059  1.00  0.00     0.275 C 
BRANCH  33  34
ATOM     34  O   UNL A   1      45.719  24.766  36.746  1.00  0.00    -0.458 OA
BRANCH  34  35
ATOM     35  C   UNL A   1      44.987  24.105  35.816  1.00  0.00     0.338 C 
ATOM     36  O   UNL A   1      44.327  23.100  35.952  1.00  0.00    -0.246 OA
BRANCH  35  37
ATOM     37  C   UNL A   1      45.032  24.906  34.588  1.00  0.00     0.060 A 
ATOM     38  C   UNL A   1      44.218  24.595  33.502  1.00  0.00     0.016 A 
ATOM     39  C   UNL A   1      45.956  25.945  34.511  1.00  0.00     0.016 A 
ATOM     40  C   UNL A   1      44.370  25.319  32.322  1.00  0.00     0.010 A 
ATOM     41  C   UNL A   1      46.139  26.637  33.327  1.00  0.00     0.010 A 
ATOM     42  C   UNL A   1      45.348  26.330  32.224  1.00  0.00    -0.014 A 
BRANCH  42  43
ATOM     43  C   UNL A   1      45.522  27.051  30.950  1.00  0.00     0.031 A 
ATOM     44  C   UNL A   1      45.551  26.204  29.708  1.00  0.00     0.074 A 
ATOM     45  C   UNL A   1      45.084  28.325  30.864  1.00  0.00     0.049 A 
ATOM     46  N   UNL A   1      44.483  25.791  29.085  1.00  0.00    -0.248 NA
ATOM     47  C   UNL A   1      46.781  25.552  29.255  1.00  0.00     0.031 C 
ATOM     48  C   UNL A   1      43.908  28.824  31.593  1.00  0.00     0.029 A 
ATOM     49  N   UNL A   1      45.401  29.339  29.993  1.00  0.00    -0.354 N 
ATOM     50  C   UNL A   1      44.878  24.808  28.190  1.00  0.00     0.074 A 
ATOM     51  C   UNL A   1      46.315  24.708  28.321  1.00  0.00     0.031 C 
ATOM     52  C   UNL A   1      43.497  29.972  31.017  1.00  0.00     0.029 A 
ATOM     53  C   UNL A   1      44.455  30.365  29.989  1.00  0.00     0.049 A 
ATOM     54  H   UNL A   1      46.209  29.342  29.430  1.00  0.00     0.167 HD
ATOM     55  C   UNL A   1      44.017  24.120  27.389  1.00  0.00     0.034 A 
ATOM     56  C   UNL A   1      44.161  31.142  28.912  1.00  0.00     0.034 A 
ATOM     57  C   UNL A   1      42.628  24.449  27.529  1.00  0.00     0.049 A 
ATOM     58  C   UNL A   1      43.429  30.149  28.040  1.00  0.00     0.074 A 
ATOM     59  C   UNL A   1      41.524  23.939  28.178  1.00  0.00     0.029 A 
ATOM     60  N   UNL A   1      42.165  25.594  26.927  1.00  0.00    -0.354 N 
ATOM     61  N   UNL A   1      42.185  29.773  28.179  1.00  0.00    -0.248 NA
ATOM     62  C   UNL A   1      44.247  29.260  27.212  1.00  0.00     0.031 C 
ATOM     63  C   UNL A   1      40.613  25.035  28.313  1.00  0.00     0.029 A 
ATOM     64  C   UNL A   1      41.238  26.155  27.770  1.00  0.00     0.049 A 
ATOM     65  H   UNL A   1      42.446  25.948  26.053  1.00  0.00     0.167 HD
ATOM     66  C   UNL A   1      42.142  28.457  27.712  1.00  0.00     0.074 A 
ATOM     67  C   UNL A   1      43.444  28.210  27.124  1.00  0.00     0.031 C 
ATOM     68  C   UNL A   1      41.119  27.585  27.964  1.00  0.00     0.034 A 
BRANCH  55  69
ATOM     69  C   UNL A   1      44.451  23.239  26.275  1.00  0.00     0.023 A 
ATOM     70  C   UNL A   1      45.076  23.880  25.186  1.00  0.00     0.012 A 
ATOM     71  C   UNL A   1      44.120  21.877  26.179  1.00  0.00     0.148 A 
ATOM     72  C   UNL A   1      45.329  23.195  24.001  1.00  0.00     0.002 A 
ATOM     73  C   UNL A   1      44.387  21.193  24.991  1.00  0.00     0.091 A 
ATOM     74  F   UNL A   1      43.517  21.286  27.220  1.00  0.00    -0.205 F 
ATOM     75  C   UNL A   1      44.979  21.855  23.901  1.00  0.00     0.022 A 
BRANCH  73  76
ATOM     76  S   UNL A   1      43.995  19.457  24.741  1.00  0.00     0.127 S 
ATOM     77  O   UNL A   1      44.338  19.266  23.334  1.00  0.00    -0.237 OA
ATOM     78  O   UNL A   1      44.903  18.802  25.684  1.00  0.00    -0.237 OA
ATOM     79  O   UNL A   1      42.582  19.316  25.068  1.00  0.00    -0.744 OA
ENDBRANCH  73  76
ENDBRANCH  55  69
BRANCH  56  80
ATOM     80  C   UNL A   1      45.297  31.997  28.425  1.00  0.00     0.023 A 
ATOM     81  C   UNL A   1      46.602  31.636  28.843  1.00  0.00     0.012 A 
ATOM     82  C   UNL A   1      45.173  33.117  27.586  1.00  0.00     0.148 A 
ATOM     83  C   UNL A   1      47.739  32.287  28.357  1.00  0.00     0.002 A 
ATOM     84  C   UNL A   1      46.308  33.719  27.047  1.00  0.00     0.091 A 
ATOM     85  F   UNL A   1      43.953  33.598  27.317  1.00  0.00    -0.205 F 
ATOM     86  C   UNL A   1      47.593  33.308  27.430  1.00  0.00     0.022 A 
BRANCH  84  87
ATOM     87  S   UNL A   1      46.215  34.962  25.752  1.00  0.00     0.127 S 
ATOM     88  O   UNL A   1      45.455  34.264  24.717  1.00  0.00    -0.237 OA
ATOM     89  O   UNL A   1      45.490  36.036  26.432  1.00  0.00    -0.237 OA
ATOM     90  O   UNL A   1      47.594  35.280  25.409  1.00  0.00    -0.744 OA
ENDBRANCH  84  87
ENDBRANCH  56  80
BRANCH  68  91
ATOM     91  C   UNL A   1      39.904  28.158  28.633  1.00  0.00     0.023 A 
ATOM     92  C   UNL A   1      38.855  28.625  27.817  1.00  0.00     0.012 A 
ATOM     93  C   UNL A   1      39.745  28.196  30.034  1.00  0.00     0.148 A 
ATOM     94  C   UNL A   1      37.673  29.108  28.375  1.00  0.00     0.002 A 
ATOM     95  C   UNL A   1      38.550  28.652  30.586  1.00  0.00     0.091 A 
ATOM     96  F   UNL A   1      40.743  27.759  30.819  1.00  0.00    -0.205 F 
ATOM     97  C   UNL A   1      37.515  29.113  29.758  1.00  0.00     0.022 A 
BRANCH  95  98
ATOM     98  S   UNL A   1      38.272  28.672  32.363  1.00  0.00     0.127 S 
ATOM     99  O   UNL A   1      36.939  29.268  32.481  1.00  0.00    -0.237 OA
ATOM    100  O   UNL A   1      38.323  27.252  32.705  1.00  0.00    -0.237 OA
ATOM    101  O   UNL A   1      39.334  29.501  32.918  1.00  0.00    -0.744 OA
ENDBRANCH  95  98
ENDBRANCH  68  91
ENDBRANCH  42  43
ENDBRANCH  35  37
ENDBRANCH  34  35
ENDBRANCH  33  34
ENDBRANCH   1  33
TORSDOF 18
ENDMDL
MODEL 2
REMARK VINA RESULT:     -12.1      1.436      2.274
REMARK SMILES Cc1c(CCC(=O)N2CCC[C@H]2C(=O)OCCOC(=O)c2ccc(-c3c4nc(c(-c5cccc(S(=O)(=O)[O-])c5F)c5ccc([nH]5)c(-c5cccc(S(=O)(=O)[O-])c5F)c5nc(c(-c6cccc(S(=O)(=O)[O-])c6F)c6ccc3[nH]6)C=C5)C=C4)cc2)c(=O)oc2cc3oc4c(c3cc12)CCCC4
REMARK SMILES IDX 16 1 15 2 13 3 14 4 12 5 8 6 9 7 10 8 11 9 6 10 7 11 5 12
REMARK SMILES IDX 4 13 3 14 1 15 2 16 95 17 84 18 87 19 94 20 85 21 86 22
REMARK SMILES IDX 88 23 93 24 89 25 92 26 90 27 91 28 96 29 99 30 97 31 98 32
REMARK SMILES IDX 17 33 18 34 19 35 20 36 21 37 22 38 83 39 23 40 82 41 24 42
REMARK SMILES IDX 25 43 26 44 76 45 27 46 81 47 75 48 77 49 28 50 80 51 74 52
REMARK SMILES IDX 73 53 29 55 61 56 41 57 60 58 42 59 45 60 59 61 78 62 43 63
REMARK SMILES IDX 44 64 58 66 79 67 46 68 30 69 31 70 39 71 32 72 34 73 40 74
REMARK SMILES IDX 33 75 35 76 36 77 37 78 38 79 62 80 63 81 71 82 64 83 66 84
REMARK SMILES IDX 72 85 65 86 67 87 68 88 69 89 70 90 47 91 48 92 56 93 49 94
REMARK SMILES IDX 51 95 57 96 50 97 52 98 53 99 54 100 55 101
REMARK H PARENT 77 54 45 65
REMARK Flexibility Score: inf
ROOT
ATOM      1  C   UNL A   1      45.828  21.436  37.025  1.00  0.00     0.274 C 
ENDROOT
BRANCH   1   2
ATOM      2  O   UNL A   1      46.372  20.104  36.905  1.00  0.00    -0.461 OA
BRANCH   2   3
ATOM      3  C   UNL A   1      46.596  19.459  38.073  1.00  0.00     0.328 C 
ATOM      4  O   UNL A   1      45.859  18.565  38.479  1.00  0.00    -0.250 OA
BRANCH   3   5
ATOM      5  C   UNL A   1      47.949  19.781  38.750  1.00  0.00     0.195 C 
ATOM      6  N   UNL A   1      48.722  18.855  39.609  1.00  0.00    -0.329 N 
ATOM      7  C   UNL A   1      50.127  18.854  39.213  1.00  0.00     0.120 C 
ATOM      8  C   UNL A   1      50.303  19.969  38.206  1.00  0.00     0.024 C 
ATOM      9  C   UNL A   1      48.926  20.138  37.611  1.00  0.00     0.039 C 
BRANCH   6  10
ATOM     10  C   UNL A   1      48.236  18.363  40.809  1.00  0.00     0.223 C 
ATOM     11  O   UNL A   1      48.643  17.314  41.312  1.00  0.00    -0.275 OA
BRANCH  10  12
ATOM     12  C   UNL A   1      47.180  19.175  41.573  1.00  0.00     0.105 C 
BRANCH  12  13
ATOM     13  C   UNL A   1      46.552  18.452  42.778  1.00  0.00     0.053 C 
BRANCH  13  14
ATOM     14  C   UNL A   1      45.525  17.447  42.333  1.00  0.00     0.042 A 
ATOM     15  C   UNL A   1      46.897  15.450  43.076  1.00  0.00     0.046 C 
ATOM     16  C   UNL A   1      45.636  16.147  42.646  1.00  0.00    -0.030 A 
ATOM     17  C   UNL A   1      44.373  15.428  42.766  1.00  0.00     0.022 A 
ATOM     18  C   UNL A   1      44.308  17.962  41.639  1.00  0.00     0.339 A 
ATOM     19  C   UNL A   1      43.266  15.826  42.019  1.00  0.00     0.142 A 
ATOM     20  C   UNL A   1      44.229  14.430  43.725  1.00  0.00     0.024 A 
ATOM     21  O   UNL A   1      44.211  19.141  41.314  1.00  0.00    -0.246 OA
ATOM     22  O   UNL A   1      43.328  17.032  41.297  1.00  0.00    -0.422 OA
ATOM     23  C   UNL A   1      42.066  15.102  41.993  1.00  0.00     0.095 A 
ATOM     24  C   UNL A   1      43.028  13.728  43.780  1.00  0.00     0.025 A 
ATOM     25  C   UNL A   1      42.044  13.993  42.834  1.00  0.00     0.138 A 
ATOM     26  C   UNL A   1      42.615  12.596  44.501  1.00  0.00     0.001 A 
ATOM     27  O   UNL A   1      41.178  12.932  42.775  1.00  0.00    -0.461 OA
ATOM     28  C   UNL A   1      41.664  12.035  43.678  1.00  0.00     0.108 A 
ATOM     29  C   UNL A   1      43.379  11.738  45.441  1.00  0.00     0.040 C 
ATOM     30  C   UNL A   1      41.703  10.576  43.376  1.00  0.00     0.076 C 
ATOM     31  C   UNL A   1      44.024  10.606  44.621  1.00  0.00     0.005 C 
ATOM     32  C   UNL A   1      43.224  10.208  43.340  1.00  0.00     0.008 C 
ENDBRANCH  13  14
ENDBRANCH  12  13
ENDBRANCH  10  12
ENDBRANCH   6  10
ENDBRANCH   3   5
ENDBRANCH   2   3
ENDBRANCH   1   2
BRANCH   1  33
ATOM     33  C   UNL A   1      45.571  22.044  35.643  1.00  0.00     0.275 C 
BRANCH  33  34
ATOM     34  O   UNL A   1      44.356  22.809  35.632  1.00  0.00    -0.458 OA
BRANCH  34  35
ATOM     35  C   UNL A   1      44.473  24.138  35.878  1.00  0.00     0.338 C 
ATOM     36  O   UNL A   1      44.425  24.714  36.941  1.00  0.00    -0.246 OA
BRANCH  35  37
ATOM     37  C   UNL A   1      44.796  24.782  34.600  1.00  0.00     0.060 A 
ATOM     38  C   UNL A   1      45.800  25.744  34.520  1.00  0.00     0.016 A 
ATOM     39  C   UNL A   1      44.031  24.454  33.483  1.00  0.00     0.016 A 
ATOM     40  C   UNL A   1      46.000  26.402  33.308  1.00  0.00     0.010 A 
ATOM     41  C   UNL A   1      44.200  25.136  32.292  1.00  0.00     0.010 A 
ATOM     42  C   UNL A   1      45.185  26.115  32.195  1.00  0.00    -0.014 A 
BRANCH  42  43
ATOM     43  C   UNL A   1      45.386  26.857  30.937  1.00  0.00     0.031 A 
ATOM     44  C   UNL A   1      45.402  26.035  29.678  1.00  0.00     0.074 A 
ATOM     45  C   UNL A   1      44.983  28.144  30.874  1.00  0.00     0.049 A 
ATOM     46  N   UNL A   1      44.328  25.662  29.041  1.00  0.00    -0.248 NA
ATOM     47  C   UNL A   1      46.617  25.359  29.220  1.00  0.00     0.031 C 
ATOM     48  C   UNL A   1      43.815  28.659  31.606  1.00  0.00     0.029 A 
ATOM     49  N   UNL A   1      45.332  29.166  30.025  1.00  0.00    -0.354 N 
ATOM     50  C   UNL A   1      44.702  24.687  28.129  1.00  0.00     0.074 A 
ATOM     51  C   UNL A   1      46.136  24.547  28.266  1.00  0.00     0.031 C 
ATOM     52  C   UNL A   1      43.439  29.828  31.051  1.00  0.00     0.029 A 
ATOM     53  C   UNL A   1      44.413  30.216  30.037  1.00  0.00     0.049 A 
ATOM     54  H   UNL A   1      46.143  29.158  29.467  1.00  0.00     0.167 HD
ATOM     55  C   UNL A   1      43.828  24.038  27.309  1.00  0.00     0.034 A 
ATOM     56  C   UNL A   1      44.147  31.023  28.973  1.00  0.00     0.034 A 
ATOM     57  C   UNL A   1      42.448  24.400  27.448  1.00  0.00     0.049 A 
ATOM     58  C   UNL A   1      43.395  30.066  28.077  1.00  0.00     0.074 A 
ATOM     59  C   UNL A   1      41.327  23.907  28.080  1.00  0.00     0.029 A 
ATOM     60  N   UNL A   1      42.019  25.570  26.866  1.00  0.00    -0.354 N 
ATOM     61  N   UNL A   1      42.140  29.721  28.202  1.00  0.00    -0.248 NA
ATOM     62  C   UNL A   1      44.194  29.173  27.236  1.00  0.00     0.031 C 
ATOM     63  C   UNL A   1      40.444  25.024  28.231  1.00  0.00     0.029 A 
ATOM     64  C   UNL A   1      41.101  26.138  27.714  1.00  0.00     0.049 A 
ATOM     65  H   UNL A   1      42.314  25.933  26.001  1.00  0.00     0.167 HD
ATOM     66  C   UNL A   1      42.066  28.415  27.708  1.00  0.00     0.074 A 
ATOM     67  C   UNL A   1      43.364  28.146  27.123  1.00  0.00     0.031 C 
ATOM     68  C   UNL A   1      41.018  27.566  27.936  1.00  0.00     0.034 A 
BRANCH  55  69
ATOM     69  C   UNL A   1      44.246  23.169  26.181  1.00  0.00     0.023 A 
ATOM     70  C   UNL A   1      44.728  23.831  25.032  1.00  0.00     0.012 A 
ATOM     71  C   UNL A   1      44.025  21.781  26.136  1.00  0.00     0.148 A 
ATOM     72  C   UNL A   1      44.944  23.140  23.844  1.00  0.00     0.002 A 
ATOM     73  C   UNL A   1      44.255  21.093  24.944  1.00  0.00     0.091 A 
ATOM     74  F   UNL A   1      43.557  21.169  27.233  1.00  0.00    -0.205 F 
ATOM     75  C   UNL A   1      44.701  21.774  23.797  1.00  0.00     0.022 A 
BRANCH  73  76
ATOM     76  S   UNL A   1      43.993  19.324  24.758  1.00  0.00     0.127 S 
ATOM     77  O   UNL A   1      44.845  18.776  25.810  1.00  0.00    -0.237 OA
ATOM     78  O   UNL A   1      42.556  19.202  25.011  1.00  0.00    -0.237 OA
ATOM     79  O   UNL A   1      44.394  19.002  23.394  1.00  0.00    -0.744 OA
ENDBRANCH  73  76
ENDBRANCH  55  69
BRANCH  56  80
ATOM     80  C   UNL A   1      45.307  31.857  28.510  1.00  0.00     0.023 A 
ATOM     81  C   UNL A   1      46.585  31.529  29.028  1.00  0.00     0.012 A 
ATOM     82  C   UNL A   1      45.232  32.927  27.604  1.00  0.00     0.148 A 
ATOM     83  C   UNL A   1      47.748  32.159  28.578  1.00  0.00     0.002 A 
ATOM     84  C   UNL A   1      46.397  33.506  27.103  1.00  0.00     0.091 A 
ATOM     85  F   UNL A   1      44.029  33.383  27.234  1.00  0.00    -0.205 F 
ATOM     86  C   UNL A   1      47.656  33.126  27.587  1.00  0.00     0.022 A 
BRANCH  84  87
ATOM     87  S   UNL A   1      46.379  34.674  25.737  1.00  0.00     0.127 S 
ATOM     88  O   UNL A   1      46.050  35.927  26.415  1.00  0.00    -0.237 OA
ATOM     89  O   UNL A   1      47.757  34.577  25.254  1.00  0.00    -0.237 OA
ATOM     90  O   UNL A   1      45.373  34.181  24.808  1.00  0.00    -0.744 OA
ENDBRANCH  84  87
ENDBRANCH  56  80
BRANCH  68  91
ATOM     91  C   UNL A   1      39.814  28.157  28.610  1.00  0.00     0.023 A 
ATOM     92  C   UNL A   1      38.793  28.686  27.798  1.00  0.00     0.012 A 
ATOM     93  C   UNL A   1      39.639  28.154  30.010  1.00  0.00     0.148 A 
ATOM     94  C   UNL A   1      37.620  29.190  28.357  1.00  0.00     0.002 A 
ATOM     95  C   UNL A   1      38.453  28.633  30.562  1.00  0.00     0.091 A 
ATOM     96  F   UNL A   1      40.612  27.660  30.791  1.00  0.00    -0.205 F 
ATOM     97  C   UNL A   1      37.445  29.154  29.738  1.00  0.00     0.022 A 
BRANCH  95  98
ATOM     98  S   UNL A   1      38.153  28.604  32.335  1.00  0.00     0.127 S 
ATOM     99  O   UNL A   1      39.280  29.370  32.872  1.00  0.00    -0.237 OA
ATOM    100  O   UNL A   1      36.863  29.281  32.447  1.00  0.00    -0.237 OA
ATOM    101  O   UNL A   1      38.170  27.197  32.714  1.00  0.00    -0.744 OA
ENDBRANCH  95  98
ENDBRANCH  68  91
ENDBRANCH  42  43
ENDBRANCH  35  37
ENDBRANCH  34  35
ENDBRANCH  33  34
ENDBRANCH   1  33
TORSDOF 18
ENDMDL
MODEL 3
REMARK VINA RESULT:     -11.9      7.399     13.868
REMARK SMILES Cc1c(CCC(=O)N2CCC[C@H]2C(=O)OCCOC(=O)c2ccc(-c3c4nc(c(-c5cccc(S(=O)(=O)[O-])c5F)c5ccc([nH]5)c(-c5cccc(S(=O)(=O)[O-])c5F)c5nc(c(-c6cccc(S(=O)(=O)[O-])c6F)c6ccc3[nH]6)C=C5)C=C4)cc2)c(=O)oc2cc3oc4c(c3cc12)CCCC4
REMARK SMILES IDX 16 1 15 2 13 3 14 4 12 5 8 6 9 7 10 8 11 9 6 10 7 11 5 12
REMARK SMILES IDX 4 13 3 14 1 15 2 16 95 17 84 18 87 19 94 20 85 21 86 22
REMARK SMILES IDX 88 23 93 24 89 25 92 26 90 27 91 28 96 29 99 30 97 31 98 32
REMARK SMILES IDX 17 33 18 34 19 35 20 36 21 37 22 38 83 39 23 40 82 41 24 42
REMARK SMILES IDX 25 43 26 44 76 45 27 46 81 47 75 48 77 49 28 50 80 51 74 52
REMARK SMILES IDX 73 53 29 55 61 56 41 57 60 58 42 59 45 60 59 61 78 62 43 63
REMARK SMILES IDX 44 64 58 66 79 67 46 68 30 69 31 70 39 71 32 72 34 73 40 74
REMARK SMILES IDX 33 75 35 76 36 77 37 78 38 79 62 80 63 81 71 82 64 83 66 84
REMARK SMILES IDX 72 85 65 86 67 87 68 88 69 89 70 90 47 91 48 92 56 93 49 94
REMARK SMILES IDX 51 95 57 96 50 97 52 98 53 99 54 100 55 101
REMARK H PARENT 77 54 45 65
REMARK Flexibility Score: inf
ROOT
ATOM      1  C   UNL A   1      31.754  29.220  26.757  1.00  0.00     0.274 C 
ENDROOT
BRANCH   1   2
ATOM      2  O   UNL A   1      31.831  28.150  25.791  1.00  0.00    -0.461 OA
BRANCH   2   3
ATOM      3  C   UNL A   1      31.489  26.925  26.251  1.00  0.00     0.328 C 
ATOM      4  O   UNL A   1      30.844  26.769  27.283  1.00  0.00    -0.250 OA
BRANCH   3   5
ATOM      5  C   UNL A   1      31.788  25.755  25.283  1.00  0.00     0.195 C 
ATOM      6  N   UNL A   1      31.325  24.359  25.454  1.00  0.00    -0.329 N 
ATOM      7  C   UNL A   1      30.767  23.856  24.202  1.00  0.00     0.120 C 
ATOM      8  C   UNL A   1      31.070  24.887  23.137  1.00  0.00     0.024 C 
ATOM      9  C   UNL A   1      31.217  26.174  23.912  1.00  0.00     0.039 C 
BRANCH   6  10
ATOM     10  C   UNL A   1      31.703  23.569  26.527  1.00  0.00     0.223 C 
ATOM     11  O   UNL A   1      30.928  23.268  27.437  1.00  0.00    -0.275 OA
BRANCH  10  12
ATOM     12  C   UNL A   1      33.131  23.005  26.569  1.00  0.00     0.105 C 
BRANCH  12  13
ATOM     13  C   UNL A   1      33.573  22.264  25.294  1.00  0.00     0.053 C 
BRANCH  13  14
ATOM     14  C   UNL A   1      35.072  22.227  25.180  1.00  0.00     0.042 A 
ATOM     15  C   UNL A   1      35.305  24.747  25.061  1.00  0.00     0.046 C 
ATOM     16  C   UNL A   1      35.809  23.345  25.262  1.00  0.00    -0.030 A 
ATOM     17  C   UNL A   1      37.155  23.164  25.791  1.00  0.00     0.022 A 
ATOM     18  C   UNL A   1      35.727  20.887  25.102  1.00  0.00     0.339 A 
ATOM     19  C   UNL A   1      37.824  21.955  25.606  1.00  0.00     0.142 A 
ATOM     20  C   UNL A   1      37.725  24.144  26.598  1.00  0.00     0.024 A 
ATOM     21  O   UNL A   1      35.065  19.860  24.989  1.00  0.00    -0.246 OA
ATOM     22  O   UNL A   1      37.120  20.860  25.072  1.00  0.00    -0.422 OA
ATOM     23  C   UNL A   1      39.163  21.762  25.976  1.00  0.00     0.095 A 
ATOM     24  C   UNL A   1      39.031  23.963  27.045  1.00  0.00     0.025 A 
ATOM     25  C   UNL A   1      39.747  22.852  26.614  1.00  0.00     0.138 A 
ATOM     26  C   UNL A   1      39.931  24.797  27.727  1.00  0.00     0.001 A 
ATOM     27  O   UNL A   1      41.087  23.088  26.779  1.00  0.00    -0.461 OA
ATOM     28  C   UNL A   1      41.159  24.348  27.295  1.00  0.00     0.108 A 
ATOM     29  C   UNL A   1      39.772  26.206  28.170  1.00  0.00     0.040 C 
ATOM     30  C   UNL A   1      42.188  25.319  26.828  1.00  0.00     0.076 C 
ATOM     31  C   UNL A   1      40.269  27.112  27.029  1.00  0.00     0.005 C 
ATOM     32  C   UNL A   1      41.381  26.470  26.139  1.00  0.00     0.008 C 
ENDBRANCH  13  14
ENDBRANCH  12  13
ENDBRANCH  10  12
ENDBRANCH   6  10
ENDBRANCH   3   5
ENDBRANCH   2   3
ENDBRANCH   1   2
BRANCH   1  33
ATOM     33  C   UNL A   1      32.518  30.453  26.264  1.00  0.00     0.275 C 
BRANCH  33  34
ATOM     34  O   UNL A   1      33.668  30.712  27.084  1.00  0.00    -0.458 OA
BRANCH  34  35
ATOM     35  C   UNL A   1      34.691  29.826  26.994  1.00  0.00     0.338 C 
ATOM     36  O   UNL A   1      34.855  28.946  26.179  1.00  0.00    -0.246 OA
BRANCH  35  37
ATOM     37  C   UNL A   1      35.671  30.197  28.020  1.00  0.00     0.060 A 
ATOM     38  C   UNL A   1      36.928  29.600  28.056  1.00  0.00     0.016 A 
ATOM     39  C   UNL A   1      35.288  31.113  28.997  1.00  0.00     0.016 A 
ATOM     40  C   UNL A   1      37.786  29.908  29.110  1.00  0.00     0.010 A 
ATOM     41  C   UNL A   1      36.121  31.388  30.067  1.00  0.00     0.010 A 
ATOM     42  C   UNL A   1      37.376  30.788  30.131  1.00  0.00    -0.014 A 
BRANCH  42  43
ATOM     43  C   UNL A   1      38.283  31.063  31.261  1.00  0.00     0.031 A 
ATOM     44  C   UNL A   1      39.425  30.103  31.441  1.00  0.00     0.074 A 
ATOM     45  C   UNL A   1      38.427  32.339  31.678  1.00  0.00     0.049 A 
ATOM     46  N   UNL A   1      40.552  30.183  30.791  1.00  0.00    -0.248 NA
ATOM     47  C   UNL A   1      39.258  28.842  32.166  1.00  0.00     0.031 C 
ATOM     48  C   UNL A   1      38.350  33.496  30.773  1.00  0.00     0.029 A 
ATOM     49  N   UNL A   1      38.883  32.863  32.863  1.00  0.00    -0.354 N 
ATOM     50  C   UNL A   1      41.229  28.988  30.980  1.00  0.00     0.074 A 
ATOM     51  C   UNL A   1      40.393  28.195  31.856  1.00  0.00     0.031 C 
ATOM     52  C   UNL A   1      38.911  34.560  31.382  1.00  0.00     0.029 A 
ATOM     53  C   UNL A   1      39.248  34.205  32.757  1.00  0.00     0.049 A 
ATOM     54  H   UNL A   1      38.947  32.345  33.699  1.00  0.00     0.167 HD
ATOM     55  C   UNL A   1      42.434  28.700  30.414  1.00  0.00     0.034 A 
ATOM     56  C   UNL A   1      40.221  34.803  33.497  1.00  0.00     0.034 A 
ATOM     57  C   UNL A   1      42.987  29.711  29.561  1.00  0.00     0.049 A 
ATOM     58  C   UNL A   1      41.457  34.179  32.892  1.00  0.00     0.074 A 
ATOM     59  C   UNL A   1      43.062  29.970  28.210  1.00  0.00     0.029 A 
ATOM     60  N   UNL A   1      43.599  30.795  30.146  1.00  0.00    -0.354 N 
ATOM     61  N   UNL A   1      42.021  34.526  31.765  1.00  0.00    -0.248 NA
ATOM     62  C   UNL A   1      41.849  32.859  33.390  1.00  0.00     0.031 C 
ATOM     63  C   UNL A   1      43.283  31.381  28.096  1.00  0.00     0.029 A 
ATOM     64  C   UNL A   1      43.290  31.898  29.390  1.00  0.00     0.049 A 
ATOM     65  H   UNL A   1      44.155  30.782  30.957  1.00  0.00     0.167 HD
ATOM     66  C   UNL A   1      42.599  33.355  31.265  1.00  0.00     0.074 A 
ATOM     67  C   UNL A   1      42.461  32.372  32.322  1.00  0.00     0.031 C 
ATOM     68  C   UNL A   1      43.014  33.195  29.972  1.00  0.00     0.034 A 
BRANCH  55  69
ATOM     69  C   UNL A   1      43.264  27.529  30.793  1.00  0.00     0.023 A 
ATOM     70  C   UNL A   1      43.248  26.440  29.897  1.00  0.00     0.012 A 
ATOM     71  C   UNL A   1      43.897  27.388  32.040  1.00  0.00     0.148 A 
ATOM     72  C   UNL A   1      43.809  25.215  30.246  1.00  0.00     0.002 A 
ATOM     73  C   UNL A   1      44.469  26.160  32.379  1.00  0.00     0.091 A 
ATOM     74  F   UNL A   1      43.895  28.429  32.884  1.00  0.00    -0.205 F 
ATOM     75  C   UNL A   1      44.413  25.073  31.488  1.00  0.00     0.022 A 
BRANCH  73  76
ATOM     76  S   UNL A   1      45.291  25.853  33.948  1.00  0.00     0.127 S 
ATOM     77  O   UNL A   1      44.186  25.964  34.898  1.00  0.00    -0.237 OA
ATOM     78  O   UNL A   1      45.801  24.493  33.762  1.00  0.00    -0.237 OA
ATOM     79  O   UNL A   1      46.324  26.874  34.064  1.00  0.00    -0.744 OA
ENDBRANCH  73  76
ENDBRANCH  55  69
BRANCH  56  80
ATOM     80  C   UNL A   1      39.950  34.848  34.973  1.00  0.00     0.023 A 
ATOM     81  C   UNL A   1      40.364  36.010  35.671  1.00  0.00     0.012 A 
ATOM     82  C   UNL A   1      39.316  33.839  35.717  1.00  0.00     0.148 A 
ATOM     83  C   UNL A   1      40.059  36.210  37.019  1.00  0.00     0.002 A 
ATOM     84  C   UNL A   1      38.950  34.069  37.042  1.00  0.00     0.091 A 
ATOM     85  F   UNL A   1      39.075  32.657  35.137  1.00  0.00    -0.205 F 
ATOM     86  C   UNL A   1      39.319  35.252  37.697  1.00  0.00     0.022 A 
BRANCH  84  87
ATOM     87  S   UNL A   1      37.891  32.940  37.957  1.00  0.00     0.127 S 
ATOM     88  O   UNL A   1      37.932  33.510  39.302  1.00  0.00    -0.237 OA
ATOM     89  O   UNL A   1      36.617  33.104  37.255  1.00  0.00    -0.237 OA
ATOM     90  O   UNL A   1      38.499  31.625  37.815  1.00  0.00    -0.744 OA
ENDBRANCH  84  87
ENDBRANCH  56  80
BRANCH  68  91
ATOM     91  C   UNL A   1      42.998  34.422  29.109  1.00  0.00     0.023 A 
ATOM     92  C   UNL A   1      41.752  34.903  28.663  1.00  0.00     0.012 A 
ATOM     93  C   UNL A   1      44.165  35.141  28.775  1.00  0.00     0.148 A 
ATOM     94  C   UNL A   1      41.662  36.075  27.913  1.00  0.00     0.002 A 
ATOM     95  C   UNL A   1      44.067  36.327  28.051  1.00  0.00     0.091 A 
ATOM     96  F   UNL A   1      45.357  34.685  29.190  1.00  0.00    -0.205 F 
ATOM     97  C   UNL A   1      42.817  36.793  27.615  1.00  0.00     0.022 A 
BRANCH  95  98
ATOM     98  S   UNL A   1      45.515  37.313  27.644  1.00  0.00     0.127 S 
ATOM     99  O   UNL A   1      46.024  37.710  28.959  1.00  0.00    -0.237 OA
ATOM    100  O   UNL A   1      46.363  36.351  26.942  1.00  0.00    -0.237 OA
ATOM    101  O   UNL A   1      45.022  38.429  26.848  1.00  0.00    -0.744 OA
ENDBRANCH  95  98
ENDBRANCH  68  91
ENDBRANCH  42  43
ENDBRANCH  35  37
ENDBRANCH  34  35
ENDBRANCH  33  34
ENDBRANCH   1  33
TORSDOF 18
ENDMDL
