MODEL 1
REMARK VINA RESULT:     -11.9      0.000      0.000
REMARK SMILES Cc1nccn1CCC[NH+]1CCC2(CC1)[C@@H](C(=O)OCCOC(=O)c1ccc(-c3c4nc(c(-c5cccc(S(=O)(=O)[O-])c5F)c5ccc([nH]5)c(-c5cccc(S(=O)(=O)[O-])c5F)c5nc(c(-c6cccc(S(=O)(=O)[O-])c6F)c6ccc3[nH]6)C=C5)C=C4)cc1)CC(=O)N2C
REMARK SMILES IDX 20 1 19 2 17 3 18 4 16 5 10 6 11 7 15 8 12 10 14 11 13 12
REMARK SMILES IDX 91 13 88 14 89 15 92 16 90 17 9 18 8 19 7 20 6 21 1 22 2 23
REMARK SMILES IDX 3 24 4 25 5 26 21 27 22 28 23 29 24 30 25 31 26 32 87 33
REMARK SMILES IDX 27 34 86 35 28 36 29 37 30 38 80 39 31 40 85 41 79 42 81 43
REMARK SMILES IDX 32 44 84 45 78 46 77 47 33 49 65 50 45 51 64 52 46 53 49 54
REMARK SMILES IDX 63 55 82 56 47 57 48 58 62 60 83 61 50 62 34 63 35 64 43 65
REMARK SMILES IDX 36 66 38 67 44 68 37 69 39 70 40 71 41 72 42 73 66 74 67 75
REMARK SMILES IDX 75 76 68 77 70 78 76 79 69 80 71 81 72 82 73 83 74 84 51 85
REMARK SMILES IDX 52 86 60 87 53 88 55 89 61 90 54 91 56 92 57 93 58 94 59 95
REMARK H PARENT 10 9 81 48 49 59
REMARK Flexibility Score: inf
ROOT
ATOM      1  C   UNL A   1      31.797  29.327  27.165  1.00  0.00     0.274 C 
ENDROOT
BRANCH   1   2
ATOM      2  O   UNL A   1      32.028  28.383  26.094  1.00  0.00    -0.462 OA
BRANCH   2   3
ATOM      3  C   UNL A   1      31.377  27.191  26.178  1.00  0.00     0.311 C 
ATOM      4  O   UNL A   1      31.393  26.452  27.156  1.00  0.00    -0.252 OA
BRANCH   3   5
ATOM      5  C   UNL A   1      30.643  26.808  24.909  1.00  0.00     0.134 C 
ATOM      6  N   UNL A   1      32.765  23.093  24.003  1.00  0.00    -0.335 N 
ATOM      7  C   UNL A   1      31.421  23.284  23.413  1.00  0.00     0.264 C 
ATOM      8  C   UNL A   1      33.533  24.330  23.853  1.00  0.00     0.264 C 
ATOM      9  H   UNL A   1      33.312  22.387  23.511  1.00  0.00     0.348 HD
ATOM     10  C   UNL A   1      30.644  24.472  23.992  1.00  0.00     0.091 C 
ATOM     11  C   UNL A   1      32.878  25.582  24.435  1.00  0.00     0.091 C 
ATOM     12  C   UNL A   1      31.417  25.817  23.985  1.00  0.00     0.067 C 
ATOM     13  N   UNL A   1      31.314  26.478  22.667  1.00  0.00    -0.339 N 
ATOM     14  C   UNL A   1      30.186  27.990  24.058  1.00  0.00     0.118 C 
ATOM     15  C   UNL A   1      30.589  27.658  22.667  1.00  0.00     0.223 C 
ATOM     16  C   UNL A   1      32.043  26.122  21.470  1.00  0.00     0.147 C 
ATOM     17  O   UNL A   1      30.362  28.361  21.692  1.00  0.00    -0.275 OA
BRANCH   6  18
ATOM     18  C   UNL A   1      32.633  22.555  25.367  1.00  0.00     0.264 C 
BRANCH  18  19
ATOM     19  C   UNL A   1      32.651  21.036  25.597  1.00  0.00     0.083 C 
BRANCH  19  20
ATOM     20  C   UNL A   1      32.331  20.051  24.468  1.00  0.00     0.129 C 
BRANCH  20  21
ATOM     21  N   UNL A   1      32.583  18.630  24.623  1.00  0.00    -0.335 N 
ATOM     22  C   UNL A   1      32.489  18.022  22.142  1.00  0.00     0.087 C 
ATOM     23  C   UNL A   1      32.740  17.733  23.576  1.00  0.00     0.105 A 
ATOM     24  N   UNL A   1      33.147  16.559  24.021  1.00  0.00    -0.242 NA
ATOM     25  C   UNL A   1      33.174  16.666  25.378  1.00  0.00     0.131 A 
ATOM     26  C   UNL A   1      32.783  17.923  25.769  1.00  0.00     0.107 A 
ENDBRANCH  20  21
ENDBRANCH  19  20
ENDBRANCH  18  19
ENDBRANCH   6  18
ENDBRANCH   3   5
ENDBRANCH   2   3
ENDBRANCH   1   2
BRANCH   1  27
ATOM     27  C   UNL A   1      31.753  30.777  26.680  1.00  0.00     0.275 C 
BRANCH  27  28
ATOM     28  O   UNL A   1      32.978  31.450  26.973  1.00  0.00    -0.458 OA
BRANCH  28  29
ATOM     29  C   UNL A   1      32.778  32.680  27.485  1.00  0.00     0.338 C 
ATOM     30  O   UNL A   1      31.834  33.424  27.264  1.00  0.00    -0.246 OA
BRANCH  29  31
ATOM     31  C   UNL A   1      33.888  33.115  28.314  1.00  0.00     0.060 A 
ATOM     32  C   UNL A   1      34.932  33.765  27.645  1.00  0.00     0.016 A 
ATOM     33  C   UNL A   1      34.055  32.447  29.529  1.00  0.00     0.016 A 
ATOM     34  C   UNL A   1      36.215  33.531  28.072  1.00  0.00     0.010 A 
ATOM     35  C   UNL A   1      35.339  32.200  29.940  1.00  0.00     0.010 A 
ATOM     36  C   UNL A   1      36.394  32.665  29.152  1.00  0.00    -0.014 A 
BRANCH  36  37
ATOM     37  C   UNL A   1      37.742  32.250  29.454  1.00  0.00     0.031 A 
ATOM     38  C   UNL A   1      38.014  30.839  29.132  1.00  0.00     0.074 A 
ATOM     39  C   UNL A   1      38.679  33.126  29.857  1.00  0.00     0.049 A 
ATOM     40  N   UNL A   1      38.322  29.886  29.948  1.00  0.00    -0.248 NA
ATOM     41  C   UNL A   1      37.764  30.406  27.750  1.00  0.00     0.031 C 
ATOM     42  C   UNL A   1      38.581  34.589  29.901  1.00  0.00     0.029 A 
ATOM     43  N   UNL A   1      39.986  32.890  30.142  1.00  0.00    -0.354 N 
ATOM     44  C   UNL A   1      38.528  28.777  29.136  1.00  0.00     0.074 A 
ATOM     45  C   UNL A   1      37.973  29.095  27.846  1.00  0.00     0.031 C 
ATOM     46  C   UNL A   1      39.829  35.106  29.924  1.00  0.00     0.029 A 
ATOM     47  C   UNL A   1      40.787  34.016  30.009  1.00  0.00     0.049 A 
ATOM     48  H   UNL A   1      40.330  32.009  30.416  1.00  0.00     0.167 HD
ATOM     49  C   UNL A   1      39.377  27.780  29.491  1.00  0.00     0.034 A 
ATOM     50  C   UNL A   1      42.134  34.018  29.858  1.00  0.00     0.034 A 
ATOM     51  C   UNL A   1      39.707  27.810  30.889  1.00  0.00     0.049 A 
ATOM     52  C   UNL A   1      42.635  32.696  30.315  1.00  0.00     0.074 A 
ATOM     53  C   UNL A   1      38.976  27.778  32.061  1.00  0.00     0.029 A 
ATOM     54  N   UNL A   1      40.956  28.269  31.234  1.00  0.00    -0.354 N 
ATOM     55  N   UNL A   1      42.613  32.299  31.556  1.00  0.00    -0.248 NA
ATOM     56  C   UNL A   1      42.792  31.639  29.326  1.00  0.00     0.031 C 
ATOM     57  C   UNL A   1      39.664  28.656  32.947  1.00  0.00     0.029 A 
ATOM     58  C   UNL A   1      40.789  29.140  32.279  1.00  0.00     0.049 A 
ATOM     59  H   UNL A   1      41.809  28.020  30.810  1.00  0.00     0.167 HD
ATOM     60  C   UNL A   1      42.303  30.947  31.486  1.00  0.00     0.074 A 
ATOM     61  C   UNL A   1      42.550  30.574  30.095  1.00  0.00     0.031 C 
ATOM     62  C   UNL A   1      41.591  30.329  32.477  1.00  0.00     0.034 A 
BRANCH  49  63
ATOM     63  C   UNL A   1      40.173  26.985  28.494  1.00  0.00     0.023 A 
ATOM     64  C   UNL A   1      40.103  25.580  28.565  1.00  0.00     0.012 A 
ATOM     65  C   UNL A   1      41.160  27.542  27.649  1.00  0.00     0.148 A 
ATOM     66  C   UNL A   1      40.979  24.771  27.834  1.00  0.00     0.002 A 
ATOM     67  C   UNL A   1      41.955  26.736  26.847  1.00  0.00     0.091 A 
ATOM     68  F   UNL A   1      41.442  28.849  27.715  1.00  0.00    -0.205 F 
ATOM     69  C   UNL A   1      41.890  25.348  26.956  1.00  0.00     0.022 A 
BRANCH  67  70
ATOM     70  S   UNL A   1      43.065  27.459  25.635  1.00  0.00     0.127 S 
ATOM     71  O   UNL A   1      42.156  28.298  24.863  1.00  0.00    -0.237 OA
ATOM     72  O   UNL A   1      44.012  28.183  26.482  1.00  0.00    -0.237 OA
ATOM     73  O   UNL A   1      43.650  26.319  24.937  1.00  0.00    -0.744 OA
ENDBRANCH  67  70
ENDBRANCH  49  63
BRANCH  50  74
ATOM     74  C   UNL A   1      42.995  34.970  29.119  1.00  0.00     0.023 A 
ATOM     75  C   UNL A   1      42.942  34.994  27.711  1.00  0.00     0.012 A 
ATOM     76  C   UNL A   1      43.674  36.022  29.775  1.00  0.00     0.148 A 
ATOM     77  C   UNL A   1      43.517  36.043  26.984  1.00  0.00     0.002 A 
ATOM     78  C   UNL A   1      44.261  37.053  29.046  1.00  0.00     0.091 A 
ATOM     79  F   UNL A   1      43.663  36.071  31.113  1.00  0.00    -0.205 F 
ATOM     80  C   UNL A   1      44.173  37.073  27.650  1.00  0.00     0.022 A 
BRANCH  78  81
ATOM     81  S   UNL A   1      45.117  38.415  29.852  1.00  0.00     0.127 S 
ATOM     82  O   UNL A   1      46.215  37.729  30.535  1.00  0.00    -0.237 OA
ATOM     83  O   UNL A   1      45.522  39.234  28.713  1.00  0.00    -0.237 OA
ATOM     84  O   UNL A   1      44.140  39.013  30.753  1.00  0.00    -0.744 OA
ENDBRANCH  78  81
ENDBRANCH  50  74
BRANCH  62  85
ATOM     85  C   UNL A   1      41.354  31.081  33.766  1.00  0.00     0.023 A 
ATOM     86  C   UNL A   1      42.296  31.067  34.818  1.00  0.00     0.012 A 
ATOM     87  C   UNL A   1      40.270  31.972  33.845  1.00  0.00     0.148 A 
ATOM     88  C   UNL A   1      42.146  31.896  35.931  1.00  0.00     0.002 A 
ATOM     89  C   UNL A   1      40.151  32.833  34.931  1.00  0.00     0.091 A 
ATOM     90  F   UNL A   1      39.383  31.986  32.839  1.00  0.00    -0.205 F 
ATOM     91  C   UNL A   1      41.081  32.791  35.981  1.00  0.00     0.022 A 
BRANCH  89  92
ATOM     92  S   UNL A   1      38.886  34.105  34.984  1.00  0.00     0.127 S 
ATOM     93  O   UNL A   1      39.464  35.075  35.911  1.00  0.00    -0.237 OA
ATOM     94  O   UNL A   1      38.824  34.553  33.591  1.00  0.00    -0.237 OA
ATOM     95  O   UNL A   1      37.673  33.438  35.444  1.00  0.00    -0.744 OA
ENDBRANCH  89  92
ENDBRANCH  62  85
ENDBRANCH  36  37
ENDBRANCH  29  31
ENDBRANCH  28  29
ENDBRANCH  27  28
ENDBRANCH   1  27
TORSDOF 18
ENDMDL
MODEL 2
REMARK VINA RESULT:     -11.9      4.675      9.298
REMARK SMILES Cc1nccn1CCC[NH+]1CCC2(CC1)[C@@H](C(=O)OCCOC(=O)c1ccc(-c3c4nc(c(-c5cccc(S(=O)(=O)[O-])c5F)c5ccc([nH]5)c(-c5cccc(S(=O)(=O)[O-])c5F)c5nc(c(-c6cccc(S(=O)(=O)[O-])c6F)c6ccc3[nH]6)C=C5)C=C4)cc1)CC(=O)N2C
REMARK SMILES IDX 20 1 19 2 17 3 18 4 16 5 10 6 11 7 15 8 12 10 14 11 13 12
REMARK SMILES IDX 91 13 88 14 89 15 92 16 90 17 9 18 8 19 7 20 6 21 1 22 2 23
REMARK SMILES IDX 3 24 4 25 5 26 21 27 22 28 23 29 24 30 25 31 26 32 87 33
REMARK SMILES IDX 27 34 86 35 28 36 29 37 30 38 80 39 31 40 85 41 79 42 81 43
REMARK SMILES IDX 32 44 84 45 78 46 77 47 33 49 65 50 45 51 64 52 46 53 49 54
REMARK SMILES IDX 63 55 82 56 47 57 48 58 62 60 83 61 50 62 34 63 35 64 43 65
REMARK SMILES IDX 36 66 38 67 44 68 37 69 39 70 40 71 41 72 42 73 66 74 67 75
REMARK SMILES IDX 75 76 68 77 70 78 76 79 69 80 71 81 72 82 73 83 74 84 51 85
REMARK SMILES IDX 52 86 60 87 53 88 55 89 61 90 54 91 56 92 57 93 58 94 59 95
REMARK H PARENT 10 9 81 48 49 59
REMARK Flexibility Score: inf
ROOT
ATOM      1  C   UNL A   1      36.628  23.195  24.308  1.00  0.00     0.274 C 
ENDROOT
BRANCH   1   2
ATOM      2  O   UNL A   1      35.523  23.142  23.376  1.00  0.00    -0.462 OA
BRANCH   2   3
ATOM      3  C   UNL A   1      34.685  24.213  23.358  1.00  0.00     0.311 C 
ATOM      4  O   UNL A   1      34.228  24.727  22.343  1.00  0.00    -0.252 OA
BRANCH   3   5
ATOM      5  C   UNL A   1      34.384  24.775  24.732  1.00  0.00     0.134 C 
ATOM      6  N   UNL A   1      32.417  21.277  26.470  1.00  0.00    -0.335 N 
ATOM      7  C   UNL A   1      32.992  22.279  27.395  1.00  0.00     0.264 C 
ATOM      8  C   UNL A   1      31.684  21.971  25.409  1.00  0.00     0.264 C 
ATOM      9  H   UNL A   1      31.721  20.683  26.920  1.00  0.00     0.348 HD
ATOM     10  C   UNL A   1      33.889  23.320  26.716  1.00  0.00     0.091 C 
ATOM     11  C   UNL A   1      32.491  23.006  24.626  1.00  0.00     0.091 C 
ATOM     12  C   UNL A   1      33.244  24.036  25.501  1.00  0.00     0.067 C 
ATOM     13  N   UNL A   1      32.389  25.159  25.941  1.00  0.00    -0.339 N 
ATOM     14  C   UNL A   1      34.077  26.270  24.754  1.00  0.00     0.118 C 
ATOM     15  C   UNL A   1      32.857  26.414  25.589  1.00  0.00     0.223 C 
ATOM     16  C   UNL A   1      31.063  25.055  26.508  1.00  0.00     0.147 C 
ATOM     17  O   UNL A   1      32.324  27.481  25.861  1.00  0.00    -0.275 OA
BRANCH   6  18
ATOM     18  C   UNL A   1      33.468  20.337  26.046  1.00  0.00     0.264 C 
BRANCH  18  19
ATOM     19  C   UNL A   1      33.422  19.719  24.640  1.00  0.00     0.083 C 
BRANCH  19  20
ATOM     20  C   UNL A   1      32.430  18.605  24.287  1.00  0.00     0.129 C 
BRANCH  20  21
ATOM     21  N   UNL A   1      32.678  17.231  24.681  1.00  0.00    -0.335 N 
ATOM     22  C   UNL A   1      34.308  16.654  22.798  1.00  0.00     0.087 C 
ATOM     23  C   UNL A   1      33.585  16.380  24.065  1.00  0.00     0.105 A 
ATOM     24  N   UNL A   1      33.731  15.268  24.759  1.00  0.00    -0.242 NA
ATOM     25  C   UNL A   1      32.846  15.356  25.790  1.00  0.00     0.131 A 
ATOM     26  C   UNL A   1      32.154  16.540  25.731  1.00  0.00     0.107 A 
ENDBRANCH  20  21
ENDBRANCH  19  20
ENDBRANCH  18  19
ENDBRANCH   6  18
ENDBRANCH   3   5
ENDBRANCH   2   3
ENDBRANCH   1   2
BRANCH   1  27
ATOM     27  C   UNL A   1      37.301  21.835  24.511  1.00  0.00     0.275 C 
BRANCH  27  28
ATOM     28  O   UNL A   1      38.090  21.831  25.700  1.00  0.00    -0.458 OA
BRANCH  28  29
ATOM     29  C   UNL A   1      39.050  20.885  25.675  1.00  0.00     0.338 C 
ATOM     30  O   UNL A   1      38.927  19.722  25.323  1.00  0.00    -0.246 OA
BRANCH  29  31
ATOM     31  C   UNL A   1      40.309  21.370  26.213  1.00  0.00     0.060 A 
ATOM     32  C   UNL A   1      40.523  21.132  27.576  1.00  0.00     0.016 A 
ATOM     33  C   UNL A   1      40.928  22.404  25.509  1.00  0.00     0.016 A 
ATOM     34  C   UNL A   1      41.173  22.098  28.303  1.00  0.00     0.010 A 
ATOM     35  C   UNL A   1      41.559  23.376  26.243  1.00  0.00     0.010 A 
ATOM     36  C   UNL A   1      41.585  23.250  27.634  1.00  0.00    -0.014 A 
BRANCH  36  37
ATOM     37  C   UNL A   1      42.065  24.349  28.435  1.00  0.00     0.031 A 
ATOM     38  C   UNL A   1      41.200  25.541  28.385  1.00  0.00     0.074 A 
ATOM     39  C   UNL A   1      43.125  24.220  29.252  1.00  0.00     0.049 A 
ATOM     40  N   UNL A   1      41.492  26.712  27.925  1.00  0.00    -0.248 NA
ATOM     41  C   UNL A   1      39.790  25.362  28.756  1.00  0.00     0.031 C 
ATOM     42  C   UNL A   1      43.846  22.992  29.600  1.00  0.00     0.029 A 
ATOM     43  N   UNL A   1      43.664  25.148  30.085  1.00  0.00    -0.354 N 
ATOM     44  C   UNL A   1      40.359  27.479  28.163  1.00  0.00     0.074 A 
ATOM     45  C   UNL A   1      39.291  26.564  28.472  1.00  0.00     0.031 C 
ATOM     46  C   UNL A   1      44.524  23.198  30.751  1.00  0.00     0.029 A 
ATOM     47  C   UNL A   1      44.370  24.589  31.143  1.00  0.00     0.049 A 
ATOM     48  H   UNL A   1      43.566  26.118  29.952  1.00  0.00     0.167 HD
ATOM     49  C   UNL A   1      40.433  28.821  28.360  1.00  0.00     0.034 A 
ATOM     50  C   UNL A   1      44.686  25.214  32.303  1.00  0.00     0.034 A 
ATOM     51  C   UNL A   1      41.686  29.371  27.921  1.00  0.00     0.049 A 
ATOM     52  C   UNL A   1      44.570  26.676  32.067  1.00  0.00     0.074 A 
ATOM     53  C   UNL A   1      42.380  29.379  26.727  1.00  0.00     0.029 A 
ATOM     54  N   UNL A   1      42.595  29.721  28.890  1.00  0.00    -0.354 N 
ATOM     55  N   UNL A   1      45.372  27.354  31.295  1.00  0.00    -0.248 NA
ATOM     56  C   UNL A   1      43.303  27.325  32.373  1.00  0.00     0.031 C 
ATOM     57  C   UNL A   1      43.751  29.267  27.098  1.00  0.00     0.029 A 
ATOM     58  C   UNL A   1      43.814  29.235  28.492  1.00  0.00     0.049 A 
ATOM     59  H   UNL A   1      42.408  30.224  29.715  1.00  0.00     0.167 HD
ATOM     60  C   UNL A   1      44.551  28.282  30.667  1.00  0.00     0.074 A 
ATOM     61  C   UNL A   1      43.324  28.300  31.460  1.00  0.00     0.031 C 
ATOM     62  C   UNL A   1      44.818  28.724  29.400  1.00  0.00     0.034 A 
BRANCH  49  63
ATOM     63  C   UNL A   1      39.496  29.572  29.263  1.00  0.00     0.023 A 
ATOM     64  C   UNL A   1      38.923  30.762  28.775  1.00  0.00     0.012 A 
ATOM     65  C   UNL A   1      39.335  29.293  30.639  1.00  0.00     0.148 A 
ATOM     66  C   UNL A   1      38.229  31.634  29.620  1.00  0.00     0.002 A 
ATOM     67  C   UNL A   1      38.558  30.107  31.450  1.00  0.00     0.091 A 
ATOM     68  F   UNL A   1      40.048  28.317  31.216  1.00  0.00    -0.205 F 
ATOM     69  C   UNL A   1      38.025  31.296  30.953  1.00  0.00     0.022 A 
BRANCH  67  70
ATOM     70  S   UNL A   1      38.198  29.639  33.145  1.00  0.00     0.127 S 
ATOM     71  O   UNL A   1      39.538  29.491  33.703  1.00  0.00    -0.237 OA
ATOM     72  O   UNL A   1      37.447  30.797  33.629  1.00  0.00    -0.237 OA
ATOM     73  O   UNL A   1      37.401  28.422  33.036  1.00  0.00    -0.744 OA
ENDBRANCH  67  70
ENDBRANCH  49  63
BRANCH  50  74
ATOM     74  C   UNL A   1      44.836  24.648  33.664  1.00  0.00     0.023 A 
ATOM     75  C   UNL A   1      43.689  24.212  34.356  1.00  0.00     0.012 A 
ATOM     76  C   UNL A   1      46.101  24.298  34.189  1.00  0.00     0.148 A 
ATOM     77  C   UNL A   1      43.796  23.429  35.512  1.00  0.00     0.002 A 
ATOM     78  C   UNL A   1      46.202  23.536  35.349  1.00  0.00     0.091 A 
ATOM     79  F   UNL A   1      47.203  24.624  33.504  1.00  0.00    -0.205 F 
ATOM     80  C   UNL A   1      45.051  23.088  36.006  1.00  0.00     0.022 A 
BRANCH  78  81
ATOM     81  S   UNL A   1      47.797  23.059  36.033  1.00  0.00     0.127 S 
ATOM     82  O   UNL A   1      48.532  24.325  36.014  1.00  0.00    -0.237 OA
ATOM     83  O   UNL A   1      47.426  22.586  37.363  1.00  0.00    -0.237 OA
ATOM     84  O   UNL A   1      48.327  22.052  35.123  1.00  0.00    -0.744 OA
ENDBRANCH  78  81
ENDBRANCH  50  74
BRANCH  62  85
ATOM     85  C   UNL A   1      46.152  28.372  28.784  1.00  0.00     0.023 A 
ATOM     86  C   UNL A   1      47.309  29.142  29.030  1.00  0.00     0.012 A 
ATOM     87  C   UNL A   1      46.289  27.144  28.113  1.00  0.00     0.148 A 
ATOM     88  C   UNL A   1      48.565  28.715  28.594  1.00  0.00     0.002 A 
ATOM     89  C   UNL A   1      47.549  26.697  27.726  1.00  0.00     0.091 A 
ATOM     90  F   UNL A   1      45.187  26.414  27.890  1.00  0.00    -0.205 F 
ATOM     91  C   UNL A   1      48.687  27.484  27.955  1.00  0.00     0.022 A 
BRANCH  89  92
ATOM     92  S   UNL A   1      47.788  25.060  27.029  1.00  0.00     0.127 S 
ATOM     93  O   UNL A   1      46.920  24.239  27.869  1.00  0.00    -0.237 OA
ATOM     94  O   UNL A   1      47.324  25.228  25.650  1.00  0.00    -0.237 OA
ATOM     95  O   UNL A   1      49.217  24.787  27.141  1.00  0.00    -0.744 OA
ENDBRANCH  89  92
ENDBRANCH  62  85
ENDBRANCH  36  37
ENDBRANCH  29  31
ENDBRANCH  28  29
ENDBRANCH  27  28
ENDBRANCH   1  27
TORSDOF 18
ENDMDL
MODEL 3
REMARK VINA RESULT:     -11.9      1.324      1.925
REMARK SMILES Cc1nccn1CCC[NH+]1CCC2(CC1)[C@@H](C(=O)OCCOC(=O)c1ccc(-c3c4nc(c(-c5cccc(S(=O)(=O)[O-])c5F)c5ccc([nH]5)c(-c5cccc(S(=O)(=O)[O-])c5F)c5nc(c(-c6cccc(S(=O)(=O)[O-])c6F)c6ccc3[nH]6)C=C5)C=C4)cc1)CC(=O)N2C
REMARK SMILES IDX 20 1 19 2 17 3 18 4 16 5 10 6 11 7 15 8 12 10 14 11 13 12
REMARK SMILES IDX 91 13 88 14 89 15 92 16 90 17 9 18 8 19 7 20 6 21 1 22 2 23
REMARK SMILES IDX 3 24 4 25 5 26 21 27 22 28 23 29 24 30 25 31 26 32 87 33
REMARK SMILES IDX 27 34 86 35 28 36 29 37 30 38 80 39 31 40 85 41 79 42 81 43
REMARK SMILES IDX 32 44 84 45 78 46 77 47 33 49 65 50 45 51 64 52 46 53 49 54
REMARK SMILES IDX 63 55 82 56 47 57 48 58 62 60 83 61 50 62 34 63 35 64 43 65
REMARK SMILES IDX 36 66 38 67 44 68 37 69 39 70 40 71 41 72 42 73 66 74 67 75
REMARK SMILES IDX 75 76 68 77 70 78 76 79 69 80 71 81 72 82 73 83 74 84 51 85
REMARK SMILES IDX 52 86 60 87 53 88 55 89 61 90 54 91 56 92 57 93 58 94 59 95
REMARK H PARENT 10 9 81 48 49 59
REMARK Flexibility Score: inf
ROOT
ATOM      1  C   UNL A   1      31.944  29.318  27.182  1.00  0.00     0.274 C 
ENDROOT
BRANCH   1   2
ATOM      2  O   UNL A   1      32.104  28.380  26.093  1.00  0.00    -0.462 OA
BRANCH   2   3
ATOM      3  C   UNL A   1      31.402  27.218  26.177  1.00  0.00     0.311 C 
ATOM      4  O   UNL A   1      31.421  26.457  27.138  1.00  0.00    -0.252 OA
BRANCH   3   5
ATOM      5  C   UNL A   1      30.601  26.898  24.931  1.00  0.00     0.134 C 
ATOM      6  N   UNL A   1      32.558  23.148  23.823  1.00  0.00    -0.335 N 
ATOM      7  C   UNL A   1      31.197  23.400  23.298  1.00  0.00     0.264 C 
ATOM      8  C   UNL A   1      33.360  24.363  23.675  1.00  0.00     0.264 C 
ATOM      9  H   UNL A   1      33.060  22.440  23.286  1.00  0.00     0.348 HD
ATOM     10  C   UNL A   1      30.486  24.593  23.945  1.00  0.00     0.091 C 
ATOM     11  C   UNL A   1      32.772  25.617  24.323  1.00  0.00     0.091 C 
ATOM     12  C   UNL A   1      31.302  25.913  23.944  1.00  0.00     0.067 C 
ATOM     13  N   UNL A   1      31.165  26.617  22.652  1.00  0.00    -0.339 N 
ATOM     14  C   UNL A   1      30.149  28.120  24.136  1.00  0.00     0.118 C 
ATOM     15  C   UNL A   1      30.480  27.819  22.720  1.00  0.00     0.223 C 
ATOM     16  C   UNL A   1      31.829  26.275  21.415  1.00  0.00     0.147 C 
ATOM     17  O   UNL A   1      30.235  28.559  21.777  1.00  0.00    -0.275 OA
BRANCH   6  18
ATOM     18  C   UNL A   1      32.467  22.572  25.175  1.00  0.00     0.264 C 
BRANCH  18  19
ATOM     19  C   UNL A   1      33.652  21.784  25.754  1.00  0.00     0.083 C 
BRANCH  19  20
ATOM     20  C   UNL A   1      34.923  21.531  24.936  1.00  0.00     0.129 C 
BRANCH  20  21
ATOM     21  N   UNL A   1      36.206  22.048  25.372  1.00  0.00    -0.335 N 
ATOM     22  C   UNL A   1      37.574  19.944  24.888  1.00  0.00     0.087 C 
ATOM     23  C   UNL A   1      37.412  21.369  25.272  1.00  0.00     0.105 A 
ATOM     24  N   UNL A   1      38.424  22.161  25.570  1.00  0.00    -0.242 NA
ATOM     25  C   UNL A   1      37.869  23.344  25.951  1.00  0.00     0.131 A 
ATOM     26  C   UNL A   1      36.499  23.277  25.881  1.00  0.00     0.107 A 
ENDBRANCH  20  21
ENDBRANCH  19  20
ENDBRANCH  18  19
ENDBRANCH   6  18
ENDBRANCH   3   5
ENDBRANCH   2   3
ENDBRANCH   1   2
BRANCH   1  27
ATOM     27  C   UNL A   1      31.801  30.765  26.706  1.00  0.00     0.275 C 
BRANCH  27  28
ATOM     28  O   UNL A   1      33.013  31.491  26.913  1.00  0.00    -0.458 OA
BRANCH  28  29
ATOM     29  C   UNL A   1      32.798  32.698  27.472  1.00  0.00     0.338 C 
ATOM     30  O   UNL A   1      31.838  33.432  27.291  1.00  0.00    -0.246 OA
BRANCH  29  31
ATOM     31  C   UNL A   1      33.913  33.124  28.299  1.00  0.00     0.060 A 
ATOM     32  C   UNL A   1      34.961  33.767  27.629  1.00  0.00     0.016 A 
ATOM     33  C   UNL A   1      34.077  32.454  29.513  1.00  0.00     0.016 A 
ATOM     34  C   UNL A   1      36.243  33.523  28.054  1.00  0.00     0.010 A 
ATOM     35  C   UNL A   1      35.360  32.196  29.922  1.00  0.00     0.010 A 
ATOM     36  C   UNL A   1      36.417  32.655  29.133  1.00  0.00    -0.014 A 
BRANCH  36  37
ATOM     37  C   UNL A   1      37.762  32.229  29.433  1.00  0.00     0.031 A 
ATOM     38  C   UNL A   1      38.022  30.815  29.113  1.00  0.00     0.074 A 
ATOM     39  C   UNL A   1      38.707  33.099  29.832  1.00  0.00     0.049 A 
ATOM     40  N   UNL A   1      38.325  29.862  29.930  1.00  0.00    -0.248 NA
ATOM     41  C   UNL A   1      37.765  30.382  27.733  1.00  0.00     0.031 C 
ATOM     42  C   UNL A   1      38.621  34.562  29.873  1.00  0.00     0.029 A 
ATOM     43  N   UNL A   1      40.013  32.852  30.114  1.00  0.00    -0.354 N 
ATOM     44  C   UNL A   1      38.519  28.750  29.120  1.00  0.00     0.074 A 
ATOM     45  C   UNL A   1      37.964  29.069  27.831  1.00  0.00     0.031 C 
ATOM     46  C   UNL A   1      39.874  35.069  29.891  1.00  0.00     0.029 A 
ATOM     47  C   UNL A   1      40.824  33.972  29.976  1.00  0.00     0.049 A 
ATOM     48  H   UNL A   1      40.351  31.969  30.389  1.00  0.00     0.167 HD
ATOM     49  C   UNL A   1      39.361  27.746  29.475  1.00  0.00     0.034 A 
ATOM     50  C   UNL A   1      42.170  33.962  29.822  1.00  0.00     0.034 A 
ATOM     51  C   UNL A   1      39.694  27.777  30.872  1.00  0.00     0.049 A 
ATOM     52  C   UNL A   1      42.661  32.637  30.281  1.00  0.00     0.074 A 
ATOM     53  C   UNL A   1      38.966  27.753  32.046  1.00  0.00     0.029 A 
ATOM     54  N   UNL A   1      40.948  28.226  31.213  1.00  0.00    -0.354 N 
ATOM     55  N   UNL A   1      42.639  32.243  31.523  1.00  0.00    -0.248 NA
ATOM     56  C   UNL A   1      42.807  31.577  29.294  1.00  0.00     0.031 C 
ATOM     57  C   UNL A   1      39.663  28.627  32.929  1.00  0.00     0.029 A 
ATOM     58  C   UNL A   1      40.791  29.101  32.257  1.00  0.00     0.049 A 
ATOM     59  H   UNL A   1      41.798  27.969  30.788  1.00  0.00     0.167 HD
ATOM     60  C   UNL A   1      42.317  30.893  31.456  1.00  0.00     0.074 A 
ATOM     61  C   UNL A   1      42.558  30.516  30.066  1.00  0.00     0.031 C 
ATOM     62  C   UNL A   1      41.603  30.283  32.450  1.00  0.00     0.034 A 
BRANCH  49  63
ATOM     63  C   UNL A   1      40.148  26.942  28.478  1.00  0.00     0.023 A 
ATOM     64  C   UNL A   1      40.055  25.538  28.543  1.00  0.00     0.012 A 
ATOM     65  C   UNL A   1      41.147  27.487  27.640  1.00  0.00     0.148 A 
ATOM     66  C   UNL A   1      40.921  24.718  27.812  1.00  0.00     0.002 A 
ATOM     67  C   UNL A   1      41.932  26.672  26.837  1.00  0.00     0.091 A 
ATOM     68  F   UNL A   1      41.451  28.789  27.712  1.00  0.00    -0.205 F 
ATOM     69  C   UNL A   1      41.845  25.284  26.940  1.00  0.00     0.022 A 
BRANCH  67  70
ATOM     70  S   UNL A   1      43.059  27.381  25.633  1.00  0.00     0.127 S 
ATOM     71  O   UNL A   1      44.019  28.066  26.492  1.00  0.00    -0.237 OA
ATOM     72  O   UNL A   1      43.571  26.190  24.955  1.00  0.00    -0.237 OA
ATOM     73  O   UNL A   1      42.221  28.226  24.789  1.00  0.00    -0.744 OA
ENDBRANCH  67  70
ENDBRANCH  49  63
BRANCH  50  74
ATOM     74  C   UNL A   1      43.037  34.906  29.079  1.00  0.00     0.023 A 
ATOM     75  C   UNL A   1      42.940  34.966  27.675  1.00  0.00     0.012 A 
ATOM     76  C   UNL A   1      43.769  35.920  29.738  1.00  0.00     0.148 A 
ATOM     77  C   UNL A   1      43.525  36.015  26.954  1.00  0.00     0.002 A 
ATOM     78  C   UNL A   1      44.364  36.950  29.016  1.00  0.00     0.091 A 
ATOM     79  F   UNL A   1      43.801  35.935  31.076  1.00  0.00    -0.205 F 
ATOM     80  C   UNL A   1      44.233  37.008  27.624  1.00  0.00     0.022 A 
BRANCH  78  81
ATOM     81  S   UNL A   1      45.288  38.264  29.826  1.00  0.00     0.127 S 
ATOM     82  O   UNL A   1      44.261  38.899  30.653  1.00  0.00    -0.237 OA
ATOM     83  O   UNL A   1      46.294  37.512  30.571  1.00  0.00    -0.237 OA
ATOM     84  O   UNL A   1      45.791  39.109  28.751  1.00  0.00    -0.744 OA
ENDBRANCH  78  81
ENDBRANCH  50  74
BRANCH  62  85
ATOM     85  C   UNL A   1      41.376  31.040  33.738  1.00  0.00     0.023 A 
ATOM     86  C   UNL A   1      42.333  31.045  34.776  1.00  0.00     0.012 A 
ATOM     87  C   UNL A   1      40.280  31.917  33.829  1.00  0.00     0.148 A 
ATOM     88  C   UNL A   1      42.189  31.879  35.886  1.00  0.00     0.002 A 
ATOM     89  C   UNL A   1      40.167  32.783  34.911  1.00  0.00     0.091 A 
ATOM     90  F   UNL A   1      39.379  31.914  32.835  1.00  0.00    -0.205 F 
ATOM     91  C   UNL A   1      41.113  32.760  35.947  1.00  0.00     0.022 A 
BRANCH  89  92
ATOM     92  S   UNL A   1      38.885  34.039  34.976  1.00  0.00     0.127 S 
ATOM     93  O   UNL A   1      37.677  33.235  35.145  1.00  0.00    -0.237 OA
ATOM     94  O   UNL A   1      39.266  34.824  36.151  1.00  0.00    -0.237 OA
ATOM     95  O   UNL A   1      38.985  34.772  33.719  1.00  0.00    -0.744 OA
ENDBRANCH  89  92
ENDBRANCH  62  85
ENDBRANCH  36  37
ENDBRANCH  29  31
ENDBRANCH  28  29
ENDBRANCH  27  28
ENDBRANCH   1  27
TORSDOF 18
ENDMDL
