MODEL 1
REMARK VINA RESULT:     -12.1      0.000      0.000
REMARK SMILES Cn1ncc(C(=O)OCCOC(=O)c2ccc(-c3c4nc(c(-c5cccc(S(=O)(=O)[O-])c5F)c5ccc([nH]5)c(-c5cccc(S(=O)(=O)[O-])c5F)c5nc(c(-c6cccc(S(=O)(=O)[O-])c6F)c6ccc3[nH]6)C=C5)C=C4)cc2)c1C(=O)Nc1ccccn1
REMARK SMILES IDX 10 1 9 2 8 3 6 4 7 5 5 6 1 7 2 8 3 9 77 10 4 11 78 12 79 13
REMARK SMILES IDX 80 14 81 16 82 17 86 18 83 19 85 20 84 21 11 22 12 23 13 24
REMARK SMILES IDX 14 25 15 26 76 27 16 28 75 29 17 30 18 31 19 32 69 33 20 34
REMARK SMILES IDX 74 35 68 36 70 37 21 38 73 39 67 40 66 41 22 43 54 44 34 45
REMARK SMILES IDX 53 46 35 47 38 48 52 49 71 50 36 51 37 52 51 54 72 55 39 56
REMARK SMILES IDX 23 57 24 58 32 59 25 60 27 61 33 62 26 63 28 64 29 65 30 66
REMARK SMILES IDX 31 67 55 68 56 69 64 70 57 71 59 72 65 73 58 74 60 75 61 76
REMARK SMILES IDX 62 77 63 78 40 79 41 80 49 81 42 82 44 83 50 84 43 85 45 86
REMARK SMILES IDX 46 87 47 88 48 89
REMARK H PARENT 80 15 70 42 38 53
REMARK Flexibility Score: inf
ROOT
ATOM      1  C   UNL A   1      37.513  20.127  25.031  1.00  0.00     0.275 C 
ENDROOT
BRANCH   1   2
ATOM      2  C   UNL A   1      36.023  20.449  24.927  1.00  0.00     0.275 C 
BRANCH   2   3
ATOM      3  O   UNL A   1      35.600  21.286  26.024  1.00  0.00    -0.458 OA
BRANCH   3   4
ATOM      4  C   UNL A   1      35.409  22.599  25.724  1.00  0.00     0.342 C 
ATOM      5  O   UNL A   1      35.908  23.531  26.352  1.00  0.00    -0.246 OA
BRANCH   4   6
ATOM      6  C   UNL A   1      34.640  22.843  24.517  1.00  0.00     0.111 A 
ATOM      7  C   UNL A   1      32.058  24.405  22.743  1.00  0.00     0.174 C 
ATOM      8  N   UNL A   1      33.093  23.471  23.127  1.00  0.00    -0.262 N 
ATOM      9  N   UNL A   1      34.219  23.566  22.404  1.00  0.00    -0.180 NA
ATOM     10  C   UNL A   1      33.256  22.758  24.305  1.00  0.00     0.140 A 
ATOM     11  C   UNL A   1      35.160  23.370  23.316  1.00  0.00     0.151 A 
BRANCH  10  12
ATOM     12  C   UNL A   1      32.265  22.291  25.256  1.00  0.00     0.275 C 
ATOM     13  O   UNL A   1      31.625  23.083  25.955  1.00  0.00    -0.267 OA
ATOM     14  N   UNL A   1      31.886  20.980  25.378  1.00  0.00    -0.305 N 
ATOM     15  H   UNL A   1      31.121  20.845  25.985  1.00  0.00     0.171 HD
BRANCH  14  16
ATOM     16  C   UNL A   1      32.364  19.806  24.823  1.00  0.00     0.132 A 
ATOM     17  C   UNL A   1      32.423  19.571  23.457  1.00  0.00     0.047 A 
ATOM     18  N   UNL A   1      32.682  18.875  25.747  1.00  0.00    -0.239 NA
ATOM     19  C   UNL A   1      32.736  18.279  23.029  1.00  0.00     0.005 A 
ATOM     20  C   UNL A   1      32.928  17.625  25.307  1.00  0.00     0.113 A 
ATOM     21  C   UNL A   1      32.954  17.277  23.970  1.00  0.00     0.020 A 
ENDBRANCH  14  16
ENDBRANCH  10  12
ENDBRANCH   4   6
ENDBRANCH   3   4
ENDBRANCH   2   3
ENDBRANCH   1   2
BRANCH   1  22
ATOM     22  O   UNL A   1      38.255  21.303  25.401  1.00  0.00    -0.458 OA
BRANCH  22  23
ATOM     23  C   UNL A   1      39.388  21.067  26.104  1.00  0.00     0.338 C 
ATOM     24  O   UNL A   1      40.039  20.039  26.136  1.00  0.00    -0.246 OA
BRANCH  23  25
ATOM     25  C   UNL A   1      39.822  22.297  26.781  1.00  0.00     0.060 A 
ATOM     26  C   UNL A   1      39.326  23.506  26.313  1.00  0.00     0.016 A 
ATOM     27  C   UNL A   1      40.843  22.284  27.726  1.00  0.00     0.016 A 
ATOM     28  C   UNL A   1      39.946  24.702  26.656  1.00  0.00     0.010 A 
ATOM     29  C   UNL A   1      41.367  23.501  28.184  1.00  0.00     0.010 A 
ATOM     30  C   UNL A   1      40.963  24.726  27.617  1.00  0.00    -0.014 A 
BRANCH  30  31
ATOM     31  C   UNL A   1      41.603  26.019  28.010  1.00  0.00     0.031 A 
ATOM     32  C   UNL A   1      40.818  27.063  28.771  1.00  0.00     0.074 A 
ATOM     33  C   UNL A   1      42.887  26.274  27.679  1.00  0.00     0.049 A 
ATOM     34  N   UNL A   1      41.133  28.306  29.033  1.00  0.00    -0.248 NA
ATOM     35  C   UNL A   1      39.500  26.662  29.289  1.00  0.00     0.031 C 
ATOM     36  C   UNL A   1      43.780  25.358  26.964  1.00  0.00     0.029 A 
ATOM     37  N   UNL A   1      43.666  27.389  27.888  1.00  0.00    -0.354 N 
ATOM     38  C   UNL A   1      40.024  28.857  29.668  1.00  0.00     0.074 A 
ATOM     39  C   UNL A   1      39.030  27.810  29.760  1.00  0.00     0.031 C 
ATOM     40  C   UNL A   1      44.981  25.933  26.814  1.00  0.00     0.029 A 
ATOM     41  C   UNL A   1      44.920  27.295  27.327  1.00  0.00     0.049 A 
ATOM     42  H   UNL A   1      43.357  28.178  28.388  1.00  0.00     0.167 HD
ATOM     43  C   UNL A   1      39.852  30.117  30.137  1.00  0.00     0.034 A 
ATOM     44  C   UNL A   1      45.898  28.210  27.184  1.00  0.00     0.034 A 
ATOM     45  C   UNL A   1      40.869  31.135  30.114  1.00  0.00     0.049 A 
ATOM     46  C   UNL A   1      45.677  29.601  27.707  1.00  0.00     0.074 A 
ATOM     47  C   UNL A   1      40.806  32.424  30.614  1.00  0.00     0.029 A 
ATOM     48  N   UNL A   1      42.135  30.980  29.570  1.00  0.00    -0.354 N 
ATOM     49  N   UNL A   1      44.642  30.088  28.345  1.00  0.00    -0.248 NA
ATOM     50  C   UNL A   1      46.767  30.566  27.502  1.00  0.00     0.031 C 
ATOM     51  C   UNL A   1      42.024  33.058  30.347  1.00  0.00     0.029 A 
ATOM     52  C   UNL A   1      42.858  32.153  29.711  1.00  0.00     0.049 A 
ATOM     53  H   UNL A   1      42.470  30.158  29.146  1.00  0.00     0.167 HD
ATOM     54  C   UNL A   1      44.962  31.407  28.639  1.00  0.00     0.074 A 
ATOM     55  C   UNL A   1      46.301  31.634  28.135  1.00  0.00     0.031 C 
ATOM     56  C   UNL A   1      44.208  32.352  29.252  1.00  0.00     0.034 A 
BRANCH  43  57
ATOM     57  C   UNL A   1      38.511  30.472  30.734  1.00  0.00     0.023 A 
ATOM     58  C   UNL A   1      38.232  30.168  32.081  1.00  0.00     0.012 A 
ATOM     59  C   UNL A   1      37.553  31.173  29.972  1.00  0.00     0.148 A 
ATOM     60  C   UNL A   1      37.009  30.522  32.650  1.00  0.00     0.002 A 
ATOM     61  C   UNL A   1      36.355  31.563  30.560  1.00  0.00     0.091 A 
ATOM     62  F   UNL A   1      37.828  31.441  28.688  1.00  0.00    -0.205 F 
ATOM     63  C   UNL A   1      36.076  31.227  31.894  1.00  0.00     0.022 A 
BRANCH  61  64
ATOM     64  S   UNL A   1      35.124  32.546  29.696  1.00  0.00     0.127 S 
ATOM     65  O   UNL A   1      34.613  31.586  28.717  1.00  0.00    -0.237 OA
ATOM     66  O   UNL A   1      34.186  32.877  30.769  1.00  0.00    -0.237 OA
ATOM     67  O   UNL A   1      35.836  33.686  29.138  1.00  0.00    -0.744 OA
ENDBRANCH  61  64
ENDBRANCH  43  57
BRANCH  44  68
ATOM     68  C   UNL A   1      47.172  27.840  26.504  1.00  0.00     0.023 A 
ATOM     69  C   UNL A   1      48.272  27.414  27.272  1.00  0.00     0.012 A 
ATOM     70  C   UNL A   1      47.292  27.883  25.099  1.00  0.00     0.148 A 
ATOM     71  C   UNL A   1      49.476  27.063  26.657  1.00  0.00     0.002 A 
ATOM     72  C   UNL A   1      48.471  27.470  24.491  1.00  0.00     0.091 A 
ATOM     73  F   UNL A   1      46.242  28.310  24.385  1.00  0.00    -0.205 F 
ATOM     74  C   UNL A   1      49.570  27.078  25.269  1.00  0.00     0.022 A 
BRANCH  72  75
ATOM     75  S   UNL A   1      48.631  27.321  22.708  1.00  0.00     0.127 S 
ATOM     76  O   UNL A   1      48.356  25.903  22.500  1.00  0.00    -0.237 OA
ATOM     77  O   UNL A   1      47.585  28.229  22.233  1.00  0.00    -0.237 OA
ATOM     78  O   UNL A   1      49.986  27.757  22.397  1.00  0.00    -0.744 OA
ENDBRANCH  72  75
ENDBRANCH  44  68
BRANCH  56  79
ATOM     79  C   UNL A   1      44.825  33.711  29.451  1.00  0.00     0.023 A 
ATOM     80  C   UNL A   1      45.557  33.986  30.623  1.00  0.00     0.012 A 
ATOM     81  C   UNL A   1      44.731  34.695  28.446  1.00  0.00     0.148 A 
ATOM     82  C   UNL A   1      46.156  35.232  30.807  1.00  0.00     0.002 A 
ATOM     83  C   UNL A   1      45.374  35.915  28.615  1.00  0.00     0.091 A 
ATOM     84  F   UNL A   1      44.014  34.420  27.347  1.00  0.00    -0.205 F 
ATOM     85  C   UNL A   1      46.075  36.190  29.801  1.00  0.00     0.022 A 
BRANCH  83  86
ATOM     86  S   UNL A   1      45.404  37.173  27.334  1.00  0.00     0.127 S 
ATOM     87  O   UNL A   1      46.171  38.238  27.979  1.00  0.00    -0.237 OA
ATOM     88  O   UNL A   1      46.105  36.490  26.246  1.00  0.00    -0.237 OA
ATOM     89  O   UNL A   1      44.012  37.493  27.050  1.00  0.00    -0.744 OA
ENDBRANCH  83  86
ENDBRANCH  56  79
ENDBRANCH  30  31
ENDBRANCH  23  25
ENDBRANCH  22  23
ENDBRANCH   1  22
TORSDOF 16
ENDMDL
MODEL 2
REMARK VINA RESULT:     -11.9      0.816      7.689
REMARK SMILES Cn1ncc(C(=O)OCCOC(=O)c2ccc(-c3c4nc(c(-c5cccc(S(=O)(=O)[O-])c5F)c5ccc([nH]5)c(-c5cccc(S(=O)(=O)[O-])c5F)c5nc(c(-c6cccc(S(=O)(=O)[O-])c6F)c6ccc3[nH]6)C=C5)C=C4)cc2)c1C(=O)Nc1ccccn1
REMARK SMILES IDX 10 1 9 2 8 3 6 4 7 5 5 6 1 7 2 8 3 9 77 10 4 11 78 12 79 13
REMARK SMILES IDX 80 14 81 16 82 17 86 18 83 19 85 20 84 21 11 22 12 23 13 24
REMARK SMILES IDX 14 25 15 26 76 27 16 28 75 29 17 30 18 31 19 32 69 33 20 34
REMARK SMILES IDX 74 35 68 36 70 37 21 38 73 39 67 40 66 41 22 43 54 44 34 45
REMARK SMILES IDX 53 46 35 47 38 48 52 49 71 50 36 51 37 52 51 54 72 55 39 56
REMARK SMILES IDX 23 57 24 58 32 59 25 60 27 61 33 62 26 63 28 64 29 65 30 66
REMARK SMILES IDX 31 67 55 68 56 69 64 70 57 71 59 72 65 73 58 74 60 75 61 76
REMARK SMILES IDX 62 77 63 78 40 79 41 80 49 81 42 82 44 83 50 84 43 85 45 86
REMARK SMILES IDX 46 87 47 88 48 89
REMARK H PARENT 80 15 70 42 38 53
REMARK Flexibility Score: inf
ROOT
ATOM      1  C   UNL A   1      38.826  19.411  25.473  1.00  0.00     0.275 C 
ENDROOT
BRANCH   1   2
ATOM      2  C   UNL A   1      37.451  19.843  24.964  1.00  0.00     0.275 C 
BRANCH   2   3
ATOM      3  O   UNL A   1      37.451  21.241  24.607  1.00  0.00    -0.458 OA
BRANCH   3   4
ATOM      4  C   UNL A   1      36.517  22.008  25.231  1.00  0.00     0.342 C 
ATOM      5  O   UNL A   1      36.718  22.636  26.267  1.00  0.00    -0.246 OA
BRANCH   4   6
ATOM      6  C   UNL A   1      35.255  22.128  24.521  1.00  0.00     0.111 A 
ATOM      7  C   UNL A   1      31.884  23.049  24.316  1.00  0.00     0.174 C 
ATOM      8  N   UNL A   1      33.154  22.413  24.047  1.00  0.00    -0.262 N 
ATOM      9  N   UNL A   1      33.785  22.881  22.959  1.00  0.00    -0.180 NA
ATOM     10  C   UNL A   1      33.977  21.677  24.885  1.00  0.00     0.140 A 
ATOM     11  C   UNL A   1      35.054  22.880  23.345  1.00  0.00     0.151 A 
BRANCH  10  12
ATOM     12  C   UNL A   1      33.645  20.871  26.045  1.00  0.00     0.275 C 
ATOM     13  O   UNL A   1      33.577  21.371  27.173  1.00  0.00    -0.267 OA
ATOM     14  N   UNL A   1      33.280  19.552  25.977  1.00  0.00    -0.305 N 
ATOM     15  H   UNL A   1      32.973  19.183  26.837  1.00  0.00     0.171 HD
BRANCH  14  16
ATOM     16  C   UNL A   1      33.259  18.634  24.943  1.00  0.00     0.132 A 
ATOM     17  C   UNL A   1      34.134  17.562  24.849  1.00  0.00     0.047 A 
ATOM     18  N   UNL A   1      32.359  18.939  23.984  1.00  0.00    -0.239 NA
ATOM     19  C   UNL A   1      34.142  16.826  23.662  1.00  0.00     0.005 A 
ATOM     20  C   UNL A   1      32.425  18.246  22.829  1.00  0.00     0.113 A 
ATOM     21  C   UNL A   1      33.301  17.198  22.617  1.00  0.00     0.020 A 
ENDBRANCH  14  16
ENDBRANCH  10  12
ENDBRANCH   4   6
ENDBRANCH   3   4
ENDBRANCH   2   3
ENDBRANCH   1   2
BRANCH   1  22
ATOM     22  O   UNL A   1      39.658  20.561  25.706  1.00  0.00    -0.458 OA
BRANCH  22  23
ATOM     23  C   UNL A   1      40.316  20.561  26.890  1.00  0.00     0.338 C 
ATOM     24  O   UNL A   1      40.757  19.599  27.492  1.00  0.00    -0.246 OA
BRANCH  23  25
ATOM     25  C   UNL A   1      40.541  21.943  27.337  1.00  0.00     0.060 A 
ATOM     26  C   UNL A   1      39.894  22.961  26.651  1.00  0.00     0.016 A 
ATOM     27  C   UNL A   1      41.515  22.251  28.281  1.00  0.00     0.016 A 
ATOM     28  C   UNL A   1      40.320  24.279  26.779  1.00  0.00     0.010 A 
ATOM     29  C   UNL A   1      41.839  23.594  28.518  1.00  0.00     0.010 A 
ATOM     30  C   UNL A   1      41.285  24.625  27.733  1.00  0.00    -0.014 A 
BRANCH  30  31
ATOM     31  C   UNL A   1      41.715  26.048  27.892  1.00  0.00     0.031 A 
ATOM     32  C   UNL A   1      43.060  26.504  27.377  1.00  0.00     0.074 A 
ATOM     33  C   UNL A   1      40.909  26.940  28.508  1.00  0.00     0.049 A 
ATOM     34  N   UNL A   1      43.684  27.636  27.585  1.00  0.00    -0.248 NA
ATOM     35  C   UNL A   1      43.809  25.559  26.534  1.00  0.00     0.031 C 
ATOM     36  C   UNL A   1      39.574  26.656  29.041  1.00  0.00     0.029 A 
ATOM     37  N   UNL A   1      41.101  28.270  28.807  1.00  0.00    -0.354 N 
ATOM     38  C   UNL A   1      44.927  27.507  26.974  1.00  0.00     0.074 A 
ATOM     39  C   UNL A   1      44.966  26.188  26.378  1.00  0.00     0.031 C 
ATOM     40  C   UNL A   1      39.060  27.772  29.575  1.00  0.00     0.029 A 
ATOM     41  C   UNL A   1      40.063  28.826  29.521  1.00  0.00     0.049 A 
ATOM     42  H   UNL A   1      41.902  28.773  28.538  1.00  0.00     0.167 HD
ATOM     43  C   UNL A   1      45.941  28.404  26.907  1.00  0.00     0.034 A 
ATOM     44  C   UNL A   1      39.943  30.028  30.118  1.00  0.00     0.034 A 
ATOM     45  C   UNL A   1      45.870  29.742  27.433  1.00  0.00     0.049 A 
ATOM     46  C   UNL A   1      41.084  31.001  30.035  1.00  0.00     0.074 A 
ATOM     47  C   UNL A   1      46.826  30.743  27.367  1.00  0.00     0.029 A 
ATOM     48  N   UNL A   1      44.786  30.272  28.114  1.00  0.00    -0.354 N 
ATOM     49  N   UNL A   1      42.231  30.877  29.414  1.00  0.00    -0.248 NA
ATOM     50  C   UNL A   1      40.910  32.286  30.727  1.00  0.00     0.031 C 
ATOM     51  C   UNL A   1      46.329  31.868  28.033  1.00  0.00     0.029 A 
ATOM     52  C   UNL A   1      45.051  31.580  28.485  1.00  0.00     0.049 A 
ATOM     53  H   UNL A   1      43.950  29.790  28.306  1.00  0.00     0.167 HD
ATOM     54  C   UNL A   1      42.905  32.074  29.617  1.00  0.00     0.074 A 
ATOM     55  C   UNL A   1      42.025  32.922  30.395  1.00  0.00     0.031 C 
ATOM     56  C   UNL A   1      44.148  32.433  29.214  1.00  0.00     0.034 A 
BRANCH  43  57
ATOM     57  C   UNL A   1      47.220  27.979  26.228  1.00  0.00     0.023 A 
ATOM     58  C   UNL A   1      48.282  27.448  26.986  1.00  0.00     0.012 A 
ATOM     59  C   UNL A   1      47.340  28.043  24.824  1.00  0.00     0.148 A 
ATOM     60  C   UNL A   1      49.455  27.022  26.364  1.00  0.00     0.002 A 
ATOM     61  C   UNL A   1      48.494  27.574  24.207  1.00  0.00     0.091 A 
ATOM     62  F   UNL A   1      46.326  28.565  24.119  1.00  0.00    -0.205 F 
ATOM     63  C   UNL A   1      49.557  27.075  24.977  1.00  0.00     0.022 A 
BRANCH  61  64
ATOM     64  S   UNL A   1      48.689  27.522  22.422  1.00  0.00     0.127 S 
ATOM     65  O   UNL A   1      50.018  28.109  22.253  1.00  0.00    -0.237 OA
ATOM     66  O   UNL A   1      48.619  26.087  22.146  1.00  0.00    -0.237 OA
ATOM     67  O   UNL A   1      47.589  28.301  21.873  1.00  0.00    -0.744 OA
ENDBRANCH  61  64
ENDBRANCH  43  57
BRANCH  44  68
ATOM     68  C   UNL A   1      38.695  30.370  30.860  1.00  0.00     0.023 A 
ATOM     69  C   UNL A   1      38.569  30.007  32.214  1.00  0.00     0.012 A 
ATOM     70  C   UNL A   1      37.645  31.076  30.239  1.00  0.00     0.148 A 
ATOM     71  C   UNL A   1      37.411  30.316  32.929  1.00  0.00     0.002 A 
ATOM     72  C   UNL A   1      36.522  31.438  30.973  1.00  0.00     0.091 A 
ATOM     73  F   UNL A   1      37.772  31.396  28.943  1.00  0.00    -0.205 F 
ATOM     74  C   UNL A   1      36.395  31.042  32.313  1.00  0.00     0.022 A 
BRANCH  72  75
ATOM     75  S   UNL A   1      35.232  32.493  30.302  1.00  0.00     0.127 S 
ATOM     76  O   UNL A   1      34.312  32.594  31.430  1.00  0.00    -0.237 OA
ATOM     77  O   UNL A   1      35.973  33.718  29.997  1.00  0.00    -0.237 OA
ATOM     78  O   UNL A   1      34.724  31.794  29.129  1.00  0.00    -0.744 OA
ENDBRANCH  72  75
ENDBRANCH  44  68
BRANCH  56  79
ATOM     79  C   UNL A   1      44.622  33.817  29.571  1.00  0.00     0.023 A 
ATOM     80  C   UNL A   1      45.297  34.036  30.788  1.00  0.00     0.012 A 
ATOM     81  C   UNL A   1      44.452  34.887  28.670  1.00  0.00     0.148 A 
ATOM     82  C   UNL A   1      45.765  35.308  31.118  1.00  0.00     0.002 A 
ATOM     83  C   UNL A   1      44.966  36.139  28.984  1.00  0.00     0.091 A 
ATOM     84  F   UNL A   1      43.790  34.661  27.526  1.00  0.00    -0.205 F 
ATOM     85  C   UNL A   1      45.610  36.355  30.213  1.00  0.00     0.022 A 
BRANCH  83  86
ATOM     86  S   UNL A   1      44.898  37.522  27.841  1.00  0.00     0.127 S 
ATOM     87  O   UNL A   1      45.514  38.591  28.627  1.00  0.00    -0.237 OA
ATOM     88  O   UNL A   1      45.712  37.040  26.724  1.00  0.00    -0.237 OA
ATOM     89  O   UNL A   1      43.489  37.715  27.524  1.00  0.00    -0.744 OA
ENDBRANCH  83  86
ENDBRANCH  56  79
ENDBRANCH  30  31
ENDBRANCH  23  25
ENDBRANCH  22  23
ENDBRANCH   1  22
TORSDOF 16
ENDMDL
MODEL 3
REMARK VINA RESULT:     -11.9      1.982      3.088
REMARK SMILES Cn1ncc(C(=O)OCCOC(=O)c2ccc(-c3c4nc(c(-c5cccc(S(=O)(=O)[O-])c5F)c5ccc([nH]5)c(-c5cccc(S(=O)(=O)[O-])c5F)c5nc(c(-c6cccc(S(=O)(=O)[O-])c6F)c6ccc3[nH]6)C=C5)C=C4)cc2)c1C(=O)Nc1ccccn1
REMARK SMILES IDX 10 1 9 2 8 3 6 4 7 5 5 6 1 7 2 8 3 9 77 10 4 11 78 12 79 13
REMARK SMILES IDX 80 14 81 16 82 17 86 18 83 19 85 20 84 21 11 22 12 23 13 24
REMARK SMILES IDX 14 25 15 26 76 27 16 28 75 29 17 30 18 31 19 32 69 33 20 34
REMARK SMILES IDX 74 35 68 36 70 37 21 38 73 39 67 40 66 41 22 43 54 44 34 45
REMARK SMILES IDX 53 46 35 47 38 48 52 49 71 50 36 51 37 52 51 54 72 55 39 56
REMARK SMILES IDX 23 57 24 58 32 59 25 60 27 61 33 62 26 63 28 64 29 65 30 66
REMARK SMILES IDX 31 67 55 68 56 69 64 70 57 71 59 72 65 73 58 74 60 75 61 76
REMARK SMILES IDX 62 77 63 78 40 79 41 80 49 81 42 82 44 83 50 84 43 85 45 86
REMARK SMILES IDX 46 87 47 88 48 89
REMARK H PARENT 80 15 70 42 38 53
REMARK Flexibility Score: inf
ROOT
ATOM      1  C   UNL A   1      36.576  20.278  25.003  1.00  0.00     0.275 C 
ENDROOT
BRANCH   1   2
ATOM      2  C   UNL A   1      35.127  20.660  25.300  1.00  0.00     0.275 C 
BRANCH   2   3
ATOM      3  O   UNL A   1      34.828  21.977  24.790  1.00  0.00    -0.458 OA
BRANCH   3   4
ATOM      4  C   UNL A   1      33.896  22.680  25.487  1.00  0.00     0.342 C 
ATOM      5  O   UNL A   1      34.077  23.145  26.610  1.00  0.00    -0.246 OA
BRANCH   4   6
ATOM      6  C   UNL A   1      32.666  22.948  24.761  1.00  0.00     0.111 A 
ATOM      7  C   UNL A   1      30.169  25.092  23.568  1.00  0.00     0.174 C 
ATOM      8  N   UNL A   1      30.876  23.901  23.982  1.00  0.00    -0.262 N 
ATOM      9  N   UNL A   1      31.278  23.118  22.969  1.00  0.00    -0.180 NA
ATOM     10  C   UNL A   1      31.503  23.609  25.183  1.00  0.00     0.140 A 
ATOM     11  C   UNL A   1      32.465  22.701  23.387  1.00  0.00     0.151 A 
BRANCH  10  12
ATOM     12  C   UNL A   1      31.226  24.097  26.522  1.00  0.00     0.275 C 
ATOM     13  O   UNL A   1      30.727  23.362  27.380  1.00  0.00    -0.267 OA
ATOM     14  N   UNL A   1      31.586  25.341  26.968  1.00  0.00    -0.305 N 
ATOM     15  H   UNL A   1      31.432  25.474  27.932  1.00  0.00     0.171 HD
BRANCH  14  16
ATOM     16  C   UNL A   1      32.119  26.450  26.336  1.00  0.00     0.132 A 
ATOM     17  C   UNL A   1      33.469  26.601  26.058  1.00  0.00     0.047 A 
ATOM     18  N   UNL A   1      31.205  27.414  26.099  1.00  0.00    -0.239 NA
ATOM     19  C   UNL A   1      33.908  27.844  25.599  1.00  0.00     0.005 A 
ATOM     20  C   UNL A   1      31.663  28.620  25.707  1.00  0.00     0.113 A 
ATOM     21  C   UNL A   1      32.995  28.886  25.459  1.00  0.00     0.020 A 
ENDBRANCH  14  16
ENDBRANCH  10  12
ENDBRANCH   4   6
ENDBRANCH   3   4
ENDBRANCH   2   3
ENDBRANCH   1   2
BRANCH   1  22
ATOM     22  O   UNL A   1      37.449  21.396  25.245  1.00  0.00    -0.458 OA
BRANCH  22  23
ATOM     23  C   UNL A   1      38.648  21.078  25.789  1.00  0.00     0.338 C 
ATOM     24  O   UNL A   1      39.260  20.032  25.674  1.00  0.00    -0.246 OA
BRANCH  23  25
ATOM     25  C   UNL A   1      39.205  22.244  26.489  1.00  0.00     0.060 A 
ATOM     26  C   UNL A   1      38.716  23.499  26.151  1.00  0.00     0.016 A 
ATOM     27  C   UNL A   1      40.318  22.132  27.316  1.00  0.00     0.016 A 
ATOM     28  C   UNL A   1      39.421  24.647  26.498  1.00  0.00     0.010 A 
ATOM     29  C   UNL A   1      40.939  23.296  27.789  1.00  0.00     0.010 A 
ATOM     30  C   UNL A   1      40.533  24.570  27.344  1.00  0.00    -0.014 A 
BRANCH  30  31
ATOM     31  C   UNL A   1      41.267  25.810  27.743  1.00  0.00     0.031 A 
ATOM     32  C   UNL A   1      40.581  26.875  28.566  1.00  0.00     0.074 A 
ATOM     33  C   UNL A   1      42.550  25.997  27.363  1.00  0.00     0.049 A 
ATOM     34  N   UNL A   1      40.982  28.089  28.848  1.00  0.00    -0.248 NA
ATOM     35  C   UNL A   1      39.264  26.539  29.131  1.00  0.00     0.031 C 
ATOM     36  C   UNL A   1      43.353  25.051  26.584  1.00  0.00     0.029 A 
ATOM     37  N   UNL A   1      43.404  27.056  27.568  1.00  0.00    -0.354 N 
ATOM     38  C   UNL A   1      39.937  28.687  29.546  1.00  0.00     0.074 A 
ATOM     39  C   UNL A   1      38.886  27.698  29.653  1.00  0.00     0.031 C 
ATOM     40  C   UNL A   1      44.580  25.557  26.397  1.00  0.00     0.029 A 
ATOM     41  C   UNL A   1      44.625  26.904  26.950  1.00  0.00     0.049 A 
ATOM     42  H   UNL A   1      43.164  27.847  28.103  1.00  0.00     0.167 HD
ATOM     43  C   UNL A   1      39.862  29.940  30.057  1.00  0.00     0.034 A 
ATOM     44  C   UNL A   1      45.650  27.763  26.789  1.00  0.00     0.034 A 
ATOM     45  C   UNL A   1      40.938  30.895  30.017  1.00  0.00     0.049 A 
ATOM     46  C   UNL A   1      45.537  29.147  27.359  1.00  0.00     0.074 A 
ATOM     47  C   UNL A   1      40.976  32.170  30.554  1.00  0.00     0.029 A 
ATOM     48  N   UNL A   1      42.168  30.681  29.414  1.00  0.00    -0.354 N 
ATOM     49  N   UNL A   1      44.561  29.677  28.055  1.00  0.00    -0.248 NA
ATOM     50  C   UNL A   1      46.674  30.052  27.132  1.00  0.00     0.031 C 
ATOM     51  C   UNL A   1      42.218  32.738  30.251  1.00  0.00     0.029 A 
ATOM     52  C   UNL A   1      42.967  31.803  29.554  1.00  0.00     0.049 A 
ATOM     53  H   UNL A   1      42.434  29.853  28.952  1.00  0.00     0.167 HD
ATOM     54  C   UNL A   1      44.974  30.964  28.370  1.00  0.00     0.074 A 
ATOM     55  C   UNL A   1      46.302  31.126  27.815  1.00  0.00     0.031 C 
ATOM     56  C   UNL A   1      44.306  31.934  29.042  1.00  0.00     0.034 A 
BRANCH  43  57
ATOM     57  C   UNL A   1      38.573  30.357  30.721  1.00  0.00     0.023 A 
ATOM     58  C   UNL A   1      38.349  30.063  32.081  1.00  0.00     0.012 A 
ATOM     59  C   UNL A   1      37.611  31.104  30.010  1.00  0.00     0.148 A 
ATOM     60  C   UNL A   1      37.175  30.472  32.712  1.00  0.00     0.002 A 
ATOM     61  C   UNL A   1      36.464  31.549  30.658  1.00  0.00     0.091 A 
ATOM     62  F   UNL A   1      37.832  31.362  28.713  1.00  0.00    -0.205 F 
ATOM     63  C   UNL A   1      36.239  31.223  32.006  1.00  0.00     0.022 A 
BRANCH  61  64
ATOM     64  S   UNL A   1      35.239  32.592  29.860  1.00  0.00     0.127 S 
ATOM     65  O   UNL A   1      34.731  31.703  28.814  1.00  0.00    -0.237 OA
ATOM     66  O   UNL A   1      34.297  32.850  30.949  1.00  0.00    -0.237 OA
ATOM     67  O   UNL A   1      35.956  33.766  29.385  1.00  0.00    -0.744 OA
ENDBRANCH  61  64
ENDBRANCH  43  57
BRANCH  44  68
ATOM     68  C   UNL A   1      46.869  27.337  26.043  1.00  0.00     0.023 A 
ATOM     69  C   UNL A   1      46.974  27.615  24.667  1.00  0.00     0.012 A 
ATOM     70  C   UNL A   1      47.935  26.683  26.694  1.00  0.00     0.148 A 
ATOM     71  C   UNL A   1      48.105  27.227  23.947  1.00  0.00     0.002 A 
ATOM     72  C   UNL A   1      49.085  26.357  25.985  1.00  0.00     0.091 A 
ATOM     73  F   UNL A   1      47.810  26.407  27.999  1.00  0.00    -0.205 F 
ATOM     74  C   UNL A   1      49.164  26.611  24.608  1.00  0.00     0.022 A 
BRANCH  72  75
ATOM     75  S   UNL A   1      50.550  25.692  26.784  1.00  0.00     0.127 S 
ATOM     76  O   UNL A   1      50.871  26.745  27.743  1.00  0.00    -0.237 OA
ATOM     77  O   UNL A   1      50.038  24.455  27.375  1.00  0.00    -0.237 OA
ATOM     78  O   UNL A   1      51.521  25.488  25.716  1.00  0.00    -0.744 OA
ENDBRANCH  72  75
ENDBRANCH  44  68
BRANCH  56  79
ATOM     79  C   UNL A   1      45.013  33.248  29.251  1.00  0.00     0.023 A 
ATOM     80  C   UNL A   1      45.728  33.479  30.442  1.00  0.00     0.012 A 
ATOM     81  C   UNL A   1      45.020  34.227  28.237  1.00  0.00     0.148 A 
ATOM     82  C   UNL A   1      46.410  34.680  30.637  1.00  0.00     0.002 A 
ATOM     83  C   UNL A   1      45.744  35.399  28.418  1.00  0.00     0.091 A 
ATOM     84  F   UNL A   1      44.318  33.995  27.119  1.00  0.00    -0.205 F 
ATOM     85  C   UNL A   1      46.427  35.633  29.622  1.00  0.00     0.022 A 
BRANCH  83  86
ATOM     86  S   UNL A   1      45.902  36.641  27.131  1.00  0.00     0.127 S 
ATOM     87  O   UNL A   1      46.212  35.821  25.960  1.00  0.00    -0.237 OA
ATOM     88  O   UNL A   1      44.568  37.244  27.117  1.00  0.00    -0.237 OA
ATOM     89  O   UNL A   1      46.966  37.537  27.563  1.00  0.00    -0.744 OA
ENDBRANCH  83  86
ENDBRANCH  56  79
ENDBRANCH  30  31
ENDBRANCH  23  25
ENDBRANCH  22  23
ENDBRANCH   1  22
TORSDOF 16
ENDMDL
