MODEL 1
REMARK VINA RESULT:     -10.6      0.000      0.000
REMARK SMILES Cc1ccc(C(N)=O)c(NCc2ccc(C(=O)OCCOC(=O)c3ccc(-c4c5nc(c(-c6cccc(S(=O)(=O)[O-])c6F)c6ccc([nH]6)c(-c6cccc(S(=O)(=O)[O-])c6F)c6nc(c(-c7cccc(S(=O)(=O)[O-])c7F)c7ccc4[nH]7)C=C6)C=C5)cc3)o2)n1
REMARK SMILES IDX 19 1 18 2 16 3 17 4 15 5 12 6 13 7 87 8 14 9 11 10 10 11
REMARK SMILES IDX 9 13 1 14 2 15 3 16 88 17 4 18 5 19 6 20 7 21 8 22 20 25
REMARK SMILES IDX 21 26 22 27 23 28 24 29 25 30 86 31 26 32 85 33 27 34 28 35
REMARK SMILES IDX 29 36 79 37 30 38 84 39 78 40 80 41 31 42 83 43 77 44 76 45
REMARK SMILES IDX 32 47 64 48 44 49 63 50 45 51 48 52 62 53 81 54 46 55 47 56
REMARK SMILES IDX 61 58 82 59 49 60 33 61 34 62 42 63 35 64 37 65 43 66 36 67
REMARK SMILES IDX 38 68 39 69 40 70 41 71 65 72 66 73 74 74 67 75 69 76 75 77
REMARK SMILES IDX 68 78 70 79 71 80 72 81 73 82 50 83 51 84 59 85 52 86 54 87
REMARK SMILES IDX 60 88 53 89 55 90 56 91 57 92 58 93
REMARK H PARENT 10 12 7 23 7 24 80 46 48 57
REMARK Flexibility Score: inf
ROOT
ATOM      1  C   UNL A   1      33.897  34.347  27.902  1.00  0.00     0.275 C 
ENDROOT
BRANCH   1   2
ATOM      2  O   UNL A   1      33.072  34.484  29.074  1.00  0.00    -0.456 OA
BRANCH   2   3
ATOM      3  C   UNL A   1      32.926  35.762  29.543  1.00  0.00     0.374 C 
ATOM      4  O   UNL A   1      32.570  36.708  28.858  1.00  0.00    -0.242 OA
BRANCH   3   5
ATOM      5  C   UNL A   1      33.161  35.799  30.969  1.00  0.00     0.211 A 
ATOM      6  C   UNL A   1      33.837  34.889  32.868  1.00  0.00     0.124 A 
ATOM      7  C   UNL A   1      33.620  36.225  33.132  1.00  0.00     0.048 A 
ATOM      8  O   UNL A   1      33.489  34.618  31.579  1.00  0.00    -0.452 OA
ATOM      9  C   UNL A   1      33.202  36.813  31.908  1.00  0.00     0.058 A 
BRANCH   6  10
ATOM     10  C   UNL A   1      34.411  33.741  33.635  1.00  0.00     0.190 C 
BRANCH  10  11
ATOM     11  N   UNL A   1      35.398  34.109  34.643  1.00  0.00    -0.362 N 
ATOM     12  H   UNL A   1      35.111  34.373  35.548  1.00  0.00     0.162 HD
BRANCH  11  13
ATOM     13  C   UNL A   1      36.751  34.085  34.315  1.00  0.00     0.139 A 
ATOM     14  C   UNL A   1      38.629  34.648  31.197  1.00  0.00     0.067 C 
ATOM     15  C   UNL A   1      38.370  34.358  32.643  1.00  0.00     0.040 A 
ATOM     16  C   UNL A   1      39.407  34.238  33.552  1.00  0.00     0.024 A 
ATOM     17  N   UNL A   1      37.072  34.263  33.013  1.00  0.00    -0.236 NA
ATOM     18  C   UNL A   1      39.090  34.007  34.886  1.00  0.00     0.019 A 
ATOM     19  C   UNL A   1      37.748  33.922  35.287  1.00  0.00     0.081 A 
BRANCH  19  20
ATOM     20  C   UNL A   1      37.497  33.649  36.729  1.00  0.00     0.252 C 
ATOM     21  N   UNL A   1      38.342  34.200  37.650  1.00  0.00    -0.365 N 
ATOM     22  O   UNL A   1      36.537  32.980  37.098  1.00  0.00    -0.269 OA
ATOM     23  H   UNL A   1      39.111  34.736  37.352  1.00  0.00     0.159 HD
ATOM     24  H   UNL A   1      38.181  34.060  38.611  1.00  0.00     0.159 HD
ENDBRANCH  19  20
ENDBRANCH  11  13
ENDBRANCH  10  11
ENDBRANCH   6  10
ENDBRANCH   3   5
ENDBRANCH   2   3
ENDBRANCH   1   2
BRANCH   1  25
ATOM     25  C   UNL A   1      34.908  33.203  28.051  1.00  0.00     0.275 C 
BRANCH  25  26
ATOM     26  O   UNL A   1      34.325  32.033  28.654  1.00  0.00    -0.458 OA
BRANCH  26  27
ATOM     27  C   UNL A   1      34.500  30.877  27.968  1.00  0.00     0.338 C 
ATOM     28  O   UNL A   1      33.748  30.408  27.128  1.00  0.00    -0.246 OA
BRANCH  27  29
ATOM     29  C   UNL A   1      35.822  30.302  28.273  1.00  0.00     0.060 A 
ATOM     30  C   UNL A   1      35.987  29.692  29.519  1.00  0.00     0.016 A 
ATOM     31  C   UNL A   1      36.901  30.414  27.396  1.00  0.00     0.016 A 
ATOM     32  C   UNL A   1      37.228  29.189  29.898  1.00  0.00     0.010 A 
ATOM     33  C   UNL A   1      38.152  29.910  27.779  1.00  0.00     0.010 A 
ATOM     34  C   UNL A   1      38.324  29.304  29.036  1.00  0.00    -0.014 A 
BRANCH  34  35
ATOM     35  C   UNL A   1      39.654  28.818  29.481  1.00  0.00     0.031 A 
ATOM     36  C   UNL A   1      40.381  29.523  30.591  1.00  0.00     0.074 A 
ATOM     37  C   UNL A   1      40.197  27.732  28.900  1.00  0.00     0.049 A 
ATOM     38  N   UNL A   1      41.549  29.254  31.112  1.00  0.00    -0.248 NA
ATOM     39  C   UNL A   1      39.704  30.681  31.196  1.00  0.00     0.031 C 
ATOM     40  C   UNL A   1      39.584  26.961  27.817  1.00  0.00     0.029 A 
ATOM     41  N   UNL A   1      41.392  27.097  29.129  1.00  0.00    -0.354 N 
ATOM     42  C   UNL A   1      41.767  30.226  32.081  1.00  0.00     0.074 A 
ATOM     43  C   UNL A   1      40.608  31.094  32.075  1.00  0.00     0.031 C 
ATOM     44  C   UNL A   1      40.415  25.966  27.466  1.00  0.00     0.029 A 
ATOM     45  C   UNL A   1      41.627  26.045  28.275  1.00  0.00     0.049 A 
ATOM     46  H   UNL A   1      42.021  27.370  29.836  1.00  0.00     0.167 HD
ATOM     47  C   UNL A   1      42.826  30.371  32.912  1.00  0.00     0.034 A 
ATOM     48  C   UNL A   1      42.705  25.245  28.149  1.00  0.00     0.034 A 
ATOM     49  C   UNL A   1      43.962  29.488  32.939  1.00  0.00     0.049 A 
ATOM     50  C   UNL A   1      43.872  25.436  29.081  1.00  0.00     0.074 A 
ATOM     51  C   UNL A   1      45.063  29.530  33.776  1.00  0.00     0.029 A 
ATOM     52  N   UNL A   1      44.147  28.410  32.088  1.00  0.00    -0.354 N 
ATOM     53  N   UNL A   1      44.011  26.289  30.067  1.00  0.00    -0.248 NA
ATOM     54  C   UNL A   1      45.020  24.535  28.902  1.00  0.00     0.031 C 
ATOM     55  C   UNL A   1      45.922  28.483  33.421  1.00  0.00     0.029 A 
ATOM     56  C   UNL A   1      45.348  27.782  32.374  1.00  0.00     0.049 A 
ATOM     57  H   UNL A   1      43.517  28.131  31.386  1.00  0.00     0.167 HD
ATOM     58  C   UNL A   1      45.245  26.011  30.643  1.00  0.00     0.074 A 
ATOM     59  C   UNL A   1      45.805  24.893  29.910  1.00  0.00     0.031 C 
ATOM     60  C   UNL A   1      45.868  26.636  31.672  1.00  0.00     0.034 A 
BRANCH  47  61
ATOM     61  C   UNL A   1      42.795  31.516  33.889  1.00  0.00     0.023 A 
ATOM     62  C   UNL A   1      43.239  32.790  33.480  1.00  0.00     0.012 A 
ATOM     63  C   UNL A   1      42.276  31.348  35.188  1.00  0.00     0.148 A 
ATOM     64  C   UNL A   1      43.191  33.873  34.357  1.00  0.00     0.002 A 
ATOM     65  C   UNL A   1      42.198  32.440  36.044  1.00  0.00     0.091 A 
ATOM     66  F   UNL A   1      41.883  30.123  35.566  1.00  0.00    -0.205 F 
ATOM     67  C   UNL A   1      42.663  33.700  35.634  1.00  0.00     0.022 A 
BRANCH  65  68
ATOM     68  S   UNL A   1      41.470  32.331  37.683  1.00  0.00     0.127 S 
ATOM     69  O   UNL A   1      40.166  31.740  37.385  1.00  0.00    -0.237 OA
ATOM     70  O   UNL A   1      42.399  31.439  38.377  1.00  0.00    -0.237 OA
ATOM     71  O   UNL A   1      41.440  33.693  38.199  1.00  0.00    -0.744 OA
ENDBRANCH  65  68
ENDBRANCH  47  61
BRANCH  48  72
ATOM     72  C   UNL A   1      42.711  24.164  27.124  1.00  0.00     0.023 A 
ATOM     73  C   UNL A   1      43.379  24.372  25.902  1.00  0.00     0.012 A 
ATOM     74  C   UNL A   1      42.088  22.925  27.365  1.00  0.00     0.148 A 
ATOM     75  C   UNL A   1      43.407  23.372  24.929  1.00  0.00     0.002 A 
ATOM     76  C   UNL A   1      42.165  21.914  26.413  1.00  0.00     0.091 A 
ATOM     77  F   UNL A   1      41.436  22.755  28.524  1.00  0.00    -0.205 F 
ATOM     78  C   UNL A   1      42.812  22.140  25.189  1.00  0.00     0.022 A 
BRANCH  76  79
ATOM     79  S   UNL A   1      41.537  20.259  26.722  1.00  0.00     0.127 S 
ATOM     80  O   UNL A   1      40.110  20.511  26.904  1.00  0.00    -0.237 OA
ATOM     81  O   UNL A   1      41.886  19.563  25.484  1.00  0.00    -0.237 OA
ATOM     82  O   UNL A   1      42.254  19.783  27.897  1.00  0.00    -0.744 OA
ENDBRANCH  76  79
ENDBRANCH  48  72
BRANCH  60  83
ATOM     83  C   UNL A   1      47.219  26.117  32.090  1.00  0.00     0.023 A 
ATOM     84  C   UNL A   1      47.319  25.255  33.200  1.00  0.00     0.012 A 
ATOM     85  C   UNL A   1      48.374  26.421  31.343  1.00  0.00     0.148 A 
ATOM     86  C   UNL A   1      48.553  24.723  33.575  1.00  0.00     0.002 A 
ATOM     87  C   UNL A   1      49.593  25.851  31.697  1.00  0.00     0.091 A 
ATOM     88  F   UNL A   1      48.261  27.259  30.303  1.00  0.00    -0.205 F 
ATOM     89  C   UNL A   1      49.685  25.012  32.818  1.00  0.00     0.022 A 
BRANCH  87  90
ATOM     90  S   UNL A   1      51.083  26.096  30.723  1.00  0.00     0.127 S 
ATOM     91  O   UNL A   1      50.689  25.542  29.430  1.00  0.00    -0.237 OA
ATOM     92  O   UNL A   1      51.234  27.553  30.742  1.00  0.00    -0.237 OA
ATOM     93  O   UNL A   1      52.138  25.375  31.421  1.00  0.00    -0.744 OA
ENDBRANCH  87  90
ENDBRANCH  60  83
ENDBRANCH  34  35
ENDBRANCH  27  29
ENDBRANCH  26  27
ENDBRANCH  25  26
ENDBRANCH   1  25
TORSDOF 18
ENDMDL
MODEL 2
REMARK VINA RESULT:     -10.6      4.093     12.337
REMARK SMILES Cc1ccc(C(N)=O)c(NCc2ccc(C(=O)OCCOC(=O)c3ccc(-c4c5nc(c(-c6cccc(S(=O)(=O)[O-])c6F)c6ccc([nH]6)c(-c6cccc(S(=O)(=O)[O-])c6F)c6nc(c(-c7cccc(S(=O)(=O)[O-])c7F)c7ccc4[nH]7)C=C6)C=C5)cc3)o2)n1
REMARK SMILES IDX 19 1 18 2 16 3 17 4 15 5 12 6 13 7 87 8 14 9 11 10 10 11
REMARK SMILES IDX 9 13 1 14 2 15 3 16 88 17 4 18 5 19 6 20 7 21 8 22 20 25
REMARK SMILES IDX 21 26 22 27 23 28 24 29 25 30 86 31 26 32 85 33 27 34 28 35
REMARK SMILES IDX 29 36 79 37 30 38 84 39 78 40 80 41 31 42 83 43 77 44 76 45
REMARK SMILES IDX 32 47 64 48 44 49 63 50 45 51 48 52 62 53 81 54 46 55 47 56
REMARK SMILES IDX 61 58 82 59 49 60 33 61 34 62 42 63 35 64 37 65 43 66 36 67
REMARK SMILES IDX 38 68 39 69 40 70 41 71 65 72 66 73 74 74 67 75 69 76 75 77
REMARK SMILES IDX 68 78 70 79 71 80 72 81 73 82 50 83 51 84 59 85 52 86 54 87
REMARK SMILES IDX 60 88 53 89 55 90 56 91 57 92 58 93
REMARK H PARENT 10 12 7 23 7 24 80 46 48 57
REMARK Flexibility Score: inf
ROOT
ATOM      1  C   UNL A   1      40.990  19.895  26.383  1.00  0.00     0.275 C 
ENDROOT
BRANCH   1   2
ATOM      2  O   UNL A   1      42.204  20.140  25.648  1.00  0.00    -0.456 OA
BRANCH   2   3
ATOM      3  C   UNL A   1      43.054  19.073  25.547  1.00  0.00     0.374 C 
ATOM      4  O   UNL A   1      42.714  17.908  25.689  1.00  0.00    -0.242 OA
BRANCH   3   5
ATOM      5  C   UNL A   1      44.373  19.520  25.156  1.00  0.00     0.211 A 
ATOM      6  C   UNL A   1      45.792  21.074  24.474  1.00  0.00     0.124 A 
ATOM      7  C   UNL A   1      46.552  19.975  24.817  1.00  0.00     0.048 A 
ATOM      8  O   UNL A   1      44.470  20.773  24.610  1.00  0.00    -0.452 OA
ATOM      9  C   UNL A   1      45.641  18.983  25.271  1.00  0.00     0.058 A 
BRANCH   6  10
ATOM     10  C   UNL A   1      46.094  22.481  24.072  1.00  0.00     0.190 C 
BRANCH  10  11
ATOM     11  N   UNL A   1      46.354  23.394  25.179  1.00  0.00    -0.362 N 
ATOM     12  H   UNL A   1      46.980  23.140  25.896  1.00  0.00     0.162 HD
BRANCH  11  13
ATOM     13  C   UNL A   1      45.710  24.627  25.213  1.00  0.00     0.139 A 
ATOM     14  C   UNL A   1      46.760  28.074  24.447  1.00  0.00     0.067 C 
ATOM     15  C   UNL A   1      45.872  26.936  24.847  1.00  0.00     0.040 A 
ATOM     16  C   UNL A   1      44.519  27.121  25.069  1.00  0.00     0.024 A 
ATOM     17  N   UNL A   1      46.459  25.721  24.937  1.00  0.00    -0.236 NA
ATOM     18  C   UNL A   1      43.748  26.012  25.399  1.00  0.00     0.019 A 
ATOM     19  C   UNL A   1      44.339  24.742  25.480  1.00  0.00     0.081 A 
BRANCH  19  20
ATOM     20  C   UNL A   1      43.447  23.612  25.863  1.00  0.00     0.252 C 
ATOM     21  N   UNL A   1      42.697  23.020  24.888  1.00  0.00    -0.365 N 
ATOM     22  O   UNL A   1      43.406  23.188  27.014  1.00  0.00    -0.269 OA
ATOM     23  H   UNL A   1      42.731  23.361  23.965  1.00  0.00     0.159 HD
ATOM     24  H   UNL A   1      42.122  22.252  25.107  1.00  0.00     0.159 HD
ENDBRANCH  19  20
ENDBRANCH  11  13
ENDBRANCH  10  11
ENDBRANCH   6  10
ENDBRANCH   3   5
ENDBRANCH   2   3
ENDBRANCH   1   2
BRANCH   1  25
ATOM     25  C   UNL A   1      40.480  21.164  27.077  1.00  0.00     0.275 C 
BRANCH  25  26
ATOM     26  O   UNL A   1      40.348  22.271  26.164  1.00  0.00    -0.458 OA
BRANCH  26  27
ATOM     27  C   UNL A   1      39.201  22.984  26.278  1.00  0.00     0.338 C 
ATOM     28  O   UNL A   1      38.077  22.607  25.985  1.00  0.00    -0.246 OA
BRANCH  27  29
ATOM     29  C   UNL A   1      39.468  24.269  26.949  1.00  0.00     0.060 A 
ATOM     30  C   UNL A   1      40.098  25.266  26.202  1.00  0.00     0.016 A 
ATOM     31  C   UNL A   1      39.177  24.477  28.297  1.00  0.00     0.016 A 
ATOM     32  C   UNL A   1      40.440  26.479  26.792  1.00  0.00     0.010 A 
ATOM     33  C   UNL A   1      39.524  25.698  28.894  1.00  0.00     0.010 A 
ATOM     34  C   UNL A   1      40.167  26.701  28.147  1.00  0.00    -0.014 A 
BRANCH  34  35
ATOM     35  C   UNL A   1      40.594  27.975  28.777  1.00  0.00     0.031 A 
ATOM     36  C   UNL A   1      42.053  28.244  29.018  1.00  0.00     0.074 A 
ATOM     37  C   UNL A   1      39.672  28.897  29.112  1.00  0.00     0.049 A 
ATOM     38  N   UNL A   1      42.619  29.289  29.561  1.00  0.00    -0.248 NA
ATOM     39  C   UNL A   1      42.999  27.200  28.592  1.00  0.00     0.031 C 
ATOM     40  C   UNL A   1      38.229  28.751  28.922  1.00  0.00     0.029 A 
ATOM     41  N   UNL A   1      39.812  30.131  29.696  1.00  0.00    -0.354 N 
ATOM     42  C   UNL A   1      43.982  29.020  29.574  1.00  0.00     0.074 A 
ATOM     43  C   UNL A   1      44.159  27.708  28.987  1.00  0.00     0.031 C 
ATOM     44  C   UNL A   1      37.614  29.848  29.395  1.00  0.00     0.029 A 
ATOM     45  C   UNL A   1      38.613  30.758  29.946  1.00  0.00     0.049 A 
ATOM     46  H   UNL A   1      40.685  30.528  29.916  1.00  0.00     0.167 HD
ATOM     47  C   UNL A   1      44.995  29.800  30.020  1.00  0.00     0.034 A 
ATOM     48  C   UNL A   1      38.351  31.927  30.564  1.00  0.00     0.034 A 
ATOM     49  C   UNL A   1      44.821  31.117  30.574  1.00  0.00     0.049 A 
ATOM     50  C   UNL A   1      39.496  32.770  31.056  1.00  0.00     0.074 A 
ATOM     51  C   UNL A   1      45.792  32.001  31.011  1.00  0.00     0.029 A 
ATOM     52  N   UNL A   1      43.597  31.736  30.773  1.00  0.00    -0.354 N 
ATOM     53  N   UNL A   1      40.785  32.550  30.958  1.00  0.00    -0.248 NA
ATOM     54  C   UNL A   1      39.154  34.036  31.719  1.00  0.00     0.031 C 
ATOM     55  C   UNL A   1      45.153  33.151  31.489  1.00  0.00     0.029 A 
ATOM     56  C   UNL A   1      43.786  32.988  31.335  1.00  0.00     0.049 A 
ATOM     57  H   UNL A   1      42.723  31.344  30.548  1.00  0.00     0.167 HD
ATOM     58  C   UNL A   1      41.407  33.659  31.519  1.00  0.00     0.074 A 
ATOM     59  C   UNL A   1      40.353  34.562  31.935  1.00  0.00     0.031 C 
ATOM     60  C   UNL A   1      42.730  33.900  31.694  1.00  0.00     0.034 A 
BRANCH  47  61
ATOM     61  C   UNL A   1      46.396  29.262  29.898  1.00  0.00     0.023 A 
ATOM     62  C   UNL A   1      46.911  28.431  30.913  1.00  0.00     0.012 A 
ATOM     63  C   UNL A   1      47.180  29.531  28.759  1.00  0.00     0.148 A 
ATOM     64  C   UNL A   1      48.194  27.895  30.809  1.00  0.00     0.002 A 
ATOM     65  C   UNL A   1      48.445  28.964  28.645  1.00  0.00     0.091 A 
ATOM     66  F   UNL A   1      46.682  30.345  27.817  1.00  0.00    -0.205 F 
ATOM     67  C   UNL A   1      48.956  28.154  29.672  1.00  0.00     0.022 A 
BRANCH  65  68
ATOM     68  S   UNL A   1      49.472  29.183  27.187  1.00  0.00     0.127 S 
ATOM     69  O   UNL A   1      48.741  30.226  26.467  1.00  0.00    -0.237 OA
ATOM     70  O   UNL A   1      50.743  29.619  27.766  1.00  0.00    -0.237 OA
ATOM     71  O   UNL A   1      49.520  27.883  26.533  1.00  0.00    -0.744 OA
ENDBRANCH  65  68
ENDBRANCH  47  61
BRANCH  48  72
ATOM     72  C   UNL A   1      36.941  32.386  30.714  1.00  0.00     0.023 A 
ATOM     73  C   UNL A   1      36.303  32.267  31.962  1.00  0.00     0.012 A 
ATOM     74  C   UNL A   1      36.243  32.968  29.638  1.00  0.00     0.148 A 
ATOM     75  C   UNL A   1      34.986  32.698  32.131  1.00  0.00     0.002 A 
ATOM     76  C   UNL A   1      34.951  33.443  29.826  1.00  0.00     0.091 A 
ATOM     77  F   UNL A   1      36.859  33.050  28.450  1.00  0.00    -0.205 F 
ATOM     78  C   UNL A   1      34.315  33.297  31.068  1.00  0.00     0.022 A 
BRANCH  76  79
ATOM     79  S   UNL A   1      34.065  34.342  28.547  1.00  0.00     0.127 S 
ATOM     80  O   UNL A   1      34.029  33.361  27.465  1.00  0.00    -0.237 OA
ATOM     81  O   UNL A   1      32.776  34.599  29.189  1.00  0.00    -0.237 OA
ATOM     82  O   UNL A   1      34.855  35.539  28.293  1.00  0.00    -0.744 OA
ENDBRANCH  76  79
ENDBRANCH  48  72
BRANCH  60  83
ATOM     83  C   UNL A   1      43.124  35.202  32.342  1.00  0.00     0.023 A 
ATOM     84  C   UNL A   1      43.139  35.301  33.747  1.00  0.00     0.012 A 
ATOM     85  C   UNL A   1      43.549  36.297  31.565  1.00  0.00     0.148 A 
ATOM     86  C   UNL A   1      43.548  36.480  34.370  1.00  0.00     0.002 A 
ATOM     87  C   UNL A   1      43.997  37.454  32.194  1.00  0.00     0.091 A 
ATOM     88  F   UNL A   1      43.507  36.190  30.229  1.00  0.00    -0.205 F 
ATOM     89  C   UNL A   1      43.988  37.551  33.594  1.00  0.00     0.022 A 
BRANCH  87  90
ATOM     90  S   UNL A   1      44.666  38.846  31.275  1.00  0.00     0.127 S 
ATOM     91  O   UNL A   1      45.706  38.203  30.474  1.00  0.00    -0.237 OA
ATOM     92  O   UNL A   1      43.504  39.304  30.510  1.00  0.00    -0.237 OA
ATOM     93  O   UNL A   1      45.138  39.794  32.274  1.00  0.00    -0.744 OA
ENDBRANCH  87  90
ENDBRANCH  60  83
ENDBRANCH  34  35
ENDBRANCH  27  29
ENDBRANCH  26  27
ENDBRANCH  25  26
ENDBRANCH   1  25
TORSDOF 18
ENDMDL
MODEL 3
REMARK VINA RESULT:     -10.4      5.527      9.943
REMARK SMILES Cc1ccc(C(N)=O)c(NCc2ccc(C(=O)OCCOC(=O)c3ccc(-c4c5nc(c(-c6cccc(S(=O)(=O)[O-])c6F)c6ccc([nH]6)c(-c6cccc(S(=O)(=O)[O-])c6F)c6nc(c(-c7cccc(S(=O)(=O)[O-])c7F)c7ccc4[nH]7)C=C6)C=C5)cc3)o2)n1
REMARK SMILES IDX 19 1 18 2 16 3 17 4 15 5 12 6 13 7 87 8 14 9 11 10 10 11
REMARK SMILES IDX 9 13 1 14 2 15 3 16 88 17 4 18 5 19 6 20 7 21 8 22 20 25
REMARK SMILES IDX 21 26 22 27 23 28 24 29 25 30 86 31 26 32 85 33 27 34 28 35
REMARK SMILES IDX 29 36 79 37 30 38 84 39 78 40 80 41 31 42 83 43 77 44 76 45
REMARK SMILES IDX 32 47 64 48 44 49 63 50 45 51 48 52 62 53 81 54 46 55 47 56
REMARK SMILES IDX 61 58 82 59 49 60 33 61 34 62 42 63 35 64 37 65 43 66 36 67
REMARK SMILES IDX 38 68 39 69 40 70 41 71 65 72 66 73 74 74 67 75 69 76 75 77
REMARK SMILES IDX 68 78 70 79 71 80 72 81 73 82 50 83 51 84 59 85 52 86 54 87
REMARK SMILES IDX 60 88 53 89 55 90 56 91 57 92 58 93
REMARK H PARENT 10 12 7 23 7 24 80 46 48 57
REMARK Flexibility Score: inf
ROOT
ATOM      1  C   UNL A   1      35.081  20.447  25.164  1.00  0.00     0.275 C 
ENDROOT
BRANCH   1   2
ATOM      2  O   UNL A   1      34.369  19.347  24.567  1.00  0.00    -0.456 OA
BRANCH   2   3
ATOM      3  C   UNL A   1      33.029  19.299  24.838  1.00  0.00     0.374 C 
ATOM      4  O   UNL A   1      32.464  18.342  25.345  1.00  0.00    -0.242 OA
BRANCH   3   5
ATOM      5  C   UNL A   1      32.411  20.569  24.526  1.00  0.00     0.211 A 
ATOM      6  C   UNL A   1      31.324  22.410  25.092  1.00  0.00     0.124 A 
ATOM      7  C   UNL A   1      31.735  22.585  23.787  1.00  0.00     0.048 A 
ATOM      8  O   UNL A   1      31.669  21.161  25.513  1.00  0.00    -0.452 OA
ATOM      9  C   UNL A   1      32.448  21.410  23.429  1.00  0.00     0.058 A 
BRANCH   6  10
ATOM     10  C   UNL A   1      30.673  23.278  26.119  1.00  0.00     0.190 C 
BRANCH  10  11
ATOM     11  N   UNL A   1      31.587  24.130  26.872  1.00  0.00    -0.362 N 
ATOM     12  H   UNL A   1      31.752  23.961  27.828  1.00  0.00     0.162 HD
BRANCH  11  13
ATOM     13  C   UNL A   1      32.224  25.185  26.225  1.00  0.00     0.139 A 
ATOM     14  C   UNL A   1      31.171  28.568  25.218  1.00  0.00     0.067 C 
ATOM     15  C   UNL A   1      32.058  27.377  25.412  1.00  0.00     0.040 A 
ATOM     16  C   UNL A   1      33.406  27.424  25.105  1.00  0.00     0.024 A 
ATOM     17  N   UNL A   1      31.475  26.276  25.941  1.00  0.00    -0.236 NA
ATOM     18  C   UNL A   1      34.176  26.291  25.348  1.00  0.00     0.019 A 
ATOM     19  C   UNL A   1      33.590  25.148  25.911  1.00  0.00     0.081 A 
BRANCH  19  20
ATOM     20  C   UNL A   1      34.480  23.972  26.117  1.00  0.00     0.252 C 
ATOM     21  N   UNL A   1      35.528  23.795  25.259  1.00  0.00    -0.365 N 
ATOM     22  O   UNL A   1      34.311  23.194  27.051  1.00  0.00    -0.269 OA
ATOM     23  H   UNL A   1      35.662  24.420  24.511  1.00  0.00     0.159 HD
ATOM     24  H   UNL A   1      36.150  23.043  25.390  1.00  0.00     0.159 HD
ENDBRANCH  19  20
ENDBRANCH  11  13
ENDBRANCH  10  11
ENDBRANCH   6  10
ENDBRANCH   3   5
ENDBRANCH   2   3
ENDBRANCH   1   2
BRANCH   1  25
ATOM     25  C   UNL A   1      36.598  20.303  24.990  1.00  0.00     0.275 C 
BRANCH  25  26
ATOM     26  O   UNL A   1      37.329  21.324  25.697  1.00  0.00    -0.458 OA
BRANCH  26  27
ATOM     27  C   UNL A   1      38.632  21.044  25.938  1.00  0.00     0.338 C 
ATOM     28  O   UNL A   1      39.217  20.007  25.667  1.00  0.00    -0.246 OA
BRANCH  27  29
ATOM     29  C   UNL A   1      39.317  22.237  26.467  1.00  0.00     0.060 A 
ATOM     30  C   UNL A   1      38.837  23.486  26.067  1.00  0.00     0.016 A 
ATOM     31  C   UNL A   1      40.447  22.145  27.280  1.00  0.00     0.016 A 
ATOM     32  C   UNL A   1      39.478  24.651  26.476  1.00  0.00     0.010 A 
ATOM     33  C   UNL A   1      41.096  23.319  27.689  1.00  0.00     0.010 A 
ATOM     34  C   UNL A   1      40.620  24.578  27.280  1.00  0.00    -0.014 A 
BRANCH  34  35
ATOM     35  C   UNL A   1      41.328  25.827  27.655  1.00  0.00     0.031 A 
ATOM     36  C   UNL A   1      40.614  26.891  28.440  1.00  0.00     0.074 A 
ATOM     37  C   UNL A   1      42.618  25.994  27.308  1.00  0.00     0.049 A 
ATOM     38  N   UNL A   1      41.058  28.049  28.853  1.00  0.00    -0.248 NA
ATOM     39  C   UNL A   1      39.217  26.617  28.810  1.00  0.00     0.031 C 
ATOM     40  C   UNL A   1      43.418  25.030  26.551  1.00  0.00     0.029 A 
ATOM     41  N   UNL A   1      43.477  27.041  27.532  1.00  0.00    -0.354 N 
ATOM     42  C   UNL A   1      39.991  28.658  29.501  1.00  0.00     0.074 A 
ATOM     43  C   UNL A   1      38.873  27.741  29.424  1.00  0.00     0.031 C 
ATOM     44  C   UNL A   1      44.647  25.537  26.361  1.00  0.00     0.029 A 
ATOM     45  C   UNL A   1      44.713  26.869  26.955  1.00  0.00     0.049 A 
ATOM     46  H   UNL A   1      43.231  27.838  28.055  1.00  0.00     0.167 HD
ATOM     47  C   UNL A   1      39.950  29.862  30.117  1.00  0.00     0.034 A 
ATOM     48  C   UNL A   1      45.774  27.699  26.898  1.00  0.00     0.034 A 
ATOM     49  C   UNL A   1      41.072  30.759  30.220  1.00  0.00     0.049 A 
ATOM     50  C   UNL A   1      45.698  29.035  27.585  1.00  0.00     0.074 A 
ATOM     51  C   UNL A   1      41.138  31.981  30.865  1.00  0.00     0.029 A 
ATOM     52  N   UNL A   1      42.319  30.533  29.661  1.00  0.00    -0.354 N 
ATOM     53  N   UNL A   1      44.718  29.546  28.290  1.00  0.00    -0.248 NA
ATOM     54  C   UNL A   1      46.884  29.899  27.495  1.00  0.00     0.031 C 
ATOM     55  C   UNL A   1      42.424  32.503  30.682  1.00  0.00     0.029 A 
ATOM     56  C   UNL A   1      43.162  31.598  29.936  1.00  0.00     0.049 A 
ATOM     57  H   UNL A   1      42.570  29.734  29.143  1.00  0.00     0.167 HD
ATOM     58  C   UNL A   1      45.176  30.775  28.750  1.00  0.00     0.074 A 
ATOM     59  C   UNL A   1      46.533  30.923  28.263  1.00  0.00     0.031 C 
ATOM     60  C   UNL A   1      44.528  31.707  29.491  1.00  0.00     0.034 A 
BRANCH  47  61
ATOM     61  C   UNL A   1      38.653  30.274  30.762  1.00  0.00     0.023 A 
ATOM     62  C   UNL A   1      38.415  29.947  32.112  1.00  0.00     0.012 A 
ATOM     63  C   UNL A   1      37.698  31.028  30.053  1.00  0.00     0.148 A 
ATOM     64  C   UNL A   1      37.235  30.343  32.741  1.00  0.00     0.002 A 
ATOM     65  C   UNL A   1      36.540  31.451  30.697  1.00  0.00     0.091 A 
ATOM     66  F   UNL A   1      37.932  31.306  28.763  1.00  0.00    -0.205 F 
ATOM     67  C   UNL A   1      36.304  31.102  32.037  1.00  0.00     0.022 A 
BRANCH  65  68
ATOM     68  S   UNL A   1      35.315  32.490  29.893  1.00  0.00     0.127 S 
ATOM     69  O   UNL A   1      34.350  32.695  30.973  1.00  0.00    -0.237 OA
ATOM     70  O   UNL A   1      36.096  33.676  29.541  1.00  0.00    -0.237 OA
ATOM     71  O   UNL A   1      34.829  31.725  28.752  1.00  0.00    -0.744 OA
ENDBRANCH  65  68
ENDBRANCH  47  61
BRANCH  48  72
ATOM     72  C   UNL A   1      47.015  27.268  26.194  1.00  0.00     0.023 A 
ATOM     73  C   UNL A   1      47.189  27.590  24.835  1.00  0.00     0.012 A 
ATOM     74  C   UNL A   1      48.036  26.572  26.871  1.00  0.00     0.148 A 
ATOM     75  C   UNL A   1      48.346  27.206  24.156  1.00  0.00     0.002 A 
ATOM     76  C   UNL A   1      49.208  26.240  26.203  1.00  0.00     0.091 A 
ATOM     77  F   UNL A   1      47.842  26.253  28.159  1.00  0.00    -0.205 F 
ATOM     78  C   UNL A   1      49.360  26.543  24.842  1.00  0.00     0.022 A 
BRANCH  76  79
ATOM     79  S   UNL A   1      50.613  25.501  27.045  1.00  0.00     0.127 S 
ATOM     80  O   UNL A   1      51.556  25.314  25.946  1.00  0.00    -0.237 OA
ATOM     81  O   UNL A   1      50.981  26.545  28.002  1.00  0.00    -0.237 OA
ATOM     82  O   UNL A   1      50.102  24.282  27.659  1.00  0.00    -0.744 OA
ENDBRANCH  76  79
ENDBRANCH  48  72
BRANCH  60  83
ATOM     83  C   UNL A   1      45.278  32.964  29.847  1.00  0.00     0.023 A 
ATOM     84  C   UNL A   1      46.069  32.995  31.011  1.00  0.00     0.012 A 
ATOM     85  C   UNL A   1      45.259  34.083  28.992  1.00  0.00     0.148 A 
ATOM     86  C   UNL A   1      46.811  34.131  31.334  1.00  0.00     0.002 A 
ATOM     87  C   UNL A   1      46.036  35.196  29.297  1.00  0.00     0.091 A 
ATOM     88  F   UNL A   1      44.483  34.042  27.899  1.00  0.00    -0.205 F 
ATOM     89  C   UNL A   1      46.804  35.225  30.472  1.00  0.00     0.022 A 
BRANCH  87  90
ATOM     90  S   UNL A   1      46.156  36.611  28.196  1.00  0.00     0.127 S 
ATOM     91  O   UNL A   1      47.249  37.369  28.802  1.00  0.00    -0.237 OA
ATOM     92  O   UNL A   1      46.486  35.984  26.915  1.00  0.00    -0.237 OA
ATOM     93  O   UNL A   1      44.850  37.255  28.231  1.00  0.00    -0.744 OA
ENDBRANCH  87  90
ENDBRANCH  60  83
ENDBRANCH  34  35
ENDBRANCH  27  29
ENDBRANCH  26  27
ENDBRANCH  25  26
ENDBRANCH   1  25
TORSDOF 18
ENDMDL
