MODEL 1
REMARK VINA RESULT:     -11.1      0.000      0.000
REMARK SMILES Cc1cc(Oc2ccnc(C(=O)OCCOC(=O)c3ccc(-c4c5nc(c(-c6cccc(S(=O)(=O)[O-])c6F)c6ccc([nH]6)c(-c6cccc(S(=O)(=O)[O-])c6F)c6nc(c(-c7cccc(S(=O)(=O)[O-])c7F)c7ccc4[nH]7)C=C6)C=C5)cc3)c2)cc(C)c1Cl
REMARK SMILES IDX 15 1 14 2 13 3 11 4 12 5 10 6 6 7 7 8 82 9 8 10 9 11 5 12
REMARK SMILES IDX 4 13 1 14 2 15 3 16 86 17 84 18 87 19 83 20 85 21 16 22
REMARK SMILES IDX 17 23 18 24 19 25 20 26 81 27 21 28 80 29 22 30 23 31 24 32
REMARK SMILES IDX 74 33 25 34 79 35 73 36 75 37 26 38 78 39 72 40 71 41 27 43
REMARK SMILES IDX 59 44 39 45 58 46 40 47 43 48 57 49 76 50 41 51 42 52 56 54
REMARK SMILES IDX 77 55 44 56 28 57 29 58 37 59 30 60 32 61 38 62 31 63 33 64
REMARK SMILES IDX 34 65 35 66 36 67 60 68 61 69 69 70 62 71 64 72 70 73 63 74
REMARK SMILES IDX 65 75 66 76 67 77 68 78 45 79 46 80 54 81 47 82 49 83 55 84
REMARK SMILES IDX 48 85 50 86 51 87 52 88 53 89
REMARK H PARENT 75 42 43 53
REMARK Flexibility Score: inf
ROOT
ATOM      1  C   UNL A   1      33.926  32.560  28.538  1.00  0.00     0.275 C 
ENDROOT
BRANCH   1   2
ATOM      2  C   UNL A   1      33.242  33.816  27.986  1.00  0.00     0.275 C 
BRANCH   2   3
ATOM      3  O   UNL A   1      33.857  35.021  28.483  1.00  0.00    -0.457 OA
BRANCH   3   4
ATOM      4  C   UNL A   1      33.027  35.876  29.146  1.00  0.00     0.357 C 
ATOM      5  O   UNL A   1      32.047  36.415  28.670  1.00  0.00    -0.244 OA
BRANCH   4   6
ATOM      6  C   UNL A   1      33.452  36.016  30.578  1.00  0.00     0.152 A 
ATOM      7  C   UNL A   1      34.529  35.256  32.558  1.00  0.00     0.131 A 
ATOM      8  C   UNL A   1      34.116  36.412  33.214  1.00  0.00     0.067 A 
ATOM      9  C   UNL A   1      34.203  35.047  31.220  1.00  0.00     0.083 A 
ATOM     10  C   UNL A   1      33.371  37.324  32.495  1.00  0.00     0.116 A 
ATOM     11  N   UNL A   1      33.050  37.161  31.196  1.00  0.00    -0.249 NA
BRANCH   7  12
ATOM     12  O   UNL A   1      35.370  34.334  33.128  1.00  0.00    -0.457 OA
BRANCH  12  13
ATOM     13  C   UNL A   1      36.693  34.278  32.758  1.00  0.00     0.128 A 
ATOM     14  C   UNL A   1      39.018  33.825  29.788  1.00  0.00     0.046 C 
ATOM     15  C   UNL A   1      38.546  34.086  31.193  1.00  0.00    -0.028 A 
ATOM     16  C   UNL A   1      37.166  34.053  31.465  1.00  0.00     0.052 A 
ATOM     17  C   UNL A   1      39.444  34.393  32.236  1.00  0.00     0.047 A 
ATOM     18  C   UNL A   1      38.974  34.639  33.539  1.00  0.00    -0.028 A 
ATOM     19  Cl  UNL A   1      41.146  34.494  31.907  1.00  0.00    -0.084 Cl
ATOM     20  C   UNL A   1      37.595  34.572  33.783  1.00  0.00     0.052 A 
ATOM     21  C   UNL A   1      39.895  35.005  34.670  1.00  0.00     0.046 C 
ENDBRANCH  12  13
ENDBRANCH   7  12
ENDBRANCH   4   6
ENDBRANCH   3   4
ENDBRANCH   2   3
ENDBRANCH   1   2
BRANCH   1  22
ATOM     22  O   UNL A   1      34.600  31.812  27.509  1.00  0.00    -0.458 OA
BRANCH  22  23
ATOM     23  C   UNL A   1      34.679  30.478  27.729  1.00  0.00     0.338 C 
ATOM     24  O   UNL A   1      33.847  29.635  27.431  1.00  0.00    -0.246 OA
BRANCH  23  25
ATOM     25  C   UNL A   1      36.001  30.134  28.278  1.00  0.00     0.060 A 
ATOM     26  C   UNL A   1      37.091  30.212  27.412  1.00  0.00     0.016 A 
ATOM     27  C   UNL A   1      36.170  29.655  29.578  1.00  0.00     0.016 A 
ATOM     28  C   UNL A   1      38.353  29.801  27.826  1.00  0.00     0.010 A 
ATOM     29  C   UNL A   1      37.445  29.250  29.999  1.00  0.00     0.010 A 
ATOM     30  C   UNL A   1      38.542  29.305  29.121  1.00  0.00    -0.014 A 
BRANCH  30  31
ATOM     31  C   UNL A   1      39.887  28.815  29.518  1.00  0.00     0.031 A 
ATOM     32  C   UNL A   1      40.642  29.491  30.628  1.00  0.00     0.074 A 
ATOM     33  C   UNL A   1      40.414  27.737  28.905  1.00  0.00     0.049 A 
ATOM     34  N   UNL A   1      41.831  29.222  31.101  1.00  0.00    -0.248 NA
ATOM     35  C   UNL A   1      39.971  30.618  31.297  1.00  0.00     0.031 C 
ATOM     36  C   UNL A   1      39.774  26.985  27.826  1.00  0.00     0.029 A 
ATOM     37  N   UNL A   1      41.610  27.091  29.100  1.00  0.00    -0.354 N 
ATOM     38  C   UNL A   1      42.071  30.169  32.090  1.00  0.00     0.074 A 
ATOM     39  C   UNL A   1      40.903  31.021  32.150  1.00  0.00     0.031 C 
ATOM     40  C   UNL A   1      40.582  25.979  27.453  1.00  0.00     0.029 A 
ATOM     41  C   UNL A   1      41.811  26.037  28.239  1.00  0.00     0.049 A 
ATOM     42  H   UNL A   1      42.260  27.356  29.789  1.00  0.00     0.167 HD
ATOM     43  C   UNL A   1      43.159  30.306  32.885  1.00  0.00     0.034 A 
ATOM     44  C   UNL A   1      42.873  25.222  28.086  1.00  0.00     0.034 A 
ATOM     45  C   UNL A   1      44.299  29.428  32.859  1.00  0.00     0.049 A 
ATOM     46  C   UNL A   1      44.068  25.399  28.983  1.00  0.00     0.074 A 
ATOM     47  C   UNL A   1      45.432  29.466  33.654  1.00  0.00     0.029 A 
ATOM     48  N   UNL A   1      44.453  28.355  31.996  1.00  0.00    -0.354 N 
ATOM     49  N   UNL A   1      44.240  26.244  29.971  1.00  0.00    -0.248 NA
ATOM     50  C   UNL A   1      45.207  24.496  28.761  1.00  0.00     0.031 C 
ATOM     51  C   UNL A   1      46.275  28.419  33.264  1.00  0.00     0.029 A 
ATOM     52  C   UNL A   1      45.662  27.723  32.234  1.00  0.00     0.049 A 
ATOM     53  H   UNL A   1      43.798  28.080  31.314  1.00  0.00     0.167 HD
ATOM     54  C   UNL A   1      45.494  25.960  30.501  1.00  0.00     0.074 A 
ATOM     55  C   UNL A   1      46.026  24.846  29.743  1.00  0.00     0.031 C 
ATOM     56  C   UNL A   1      46.155  26.581  31.509  1.00  0.00     0.034 A 
BRANCH  43  57
ATOM     57  C   UNL A   1      43.156  31.433  33.883  1.00  0.00     0.023 A 
ATOM     58  C   UNL A   1      43.771  32.657  33.550  1.00  0.00     0.012 A 
ATOM     59  C   UNL A   1      42.499  31.303  35.122  1.00  0.00     0.148 A 
ATOM     60  C   UNL A   1      43.753  33.727  34.445  1.00  0.00     0.002 A 
ATOM     61  C   UNL A   1      42.455  32.385  35.995  1.00  0.00     0.091 A 
ATOM     62  F   UNL A   1      41.943  30.123  35.430  1.00  0.00    -0.205 F 
ATOM     63  C   UNL A   1      43.088  33.593  35.661  1.00  0.00     0.022 A 
BRANCH  61  64
ATOM     64  S   UNL A   1      41.564  32.331  37.553  1.00  0.00     0.127 S 
ATOM     65  O   UNL A   1      42.343  31.349  38.305  1.00  0.00    -0.237 OA
ATOM     66  O   UNL A   1      41.693  33.707  38.034  1.00  0.00    -0.237 OA
ATOM     67  O   UNL A   1      40.202  31.933  37.220  1.00  0.00    -0.744 OA
ENDBRANCH  61  64
ENDBRANCH  43  57
BRANCH  44  68
ATOM     68  C   UNL A   1      42.837  24.139  27.063  1.00  0.00     0.023 A 
ATOM     69  C   UNL A   1      43.495  24.327  25.832  1.00  0.00     0.012 A 
ATOM     70  C   UNL A   1      42.184  22.917  27.311  1.00  0.00     0.148 A 
ATOM     71  C   UNL A   1      43.486  23.324  24.861  1.00  0.00     0.002 A 
ATOM     72  C   UNL A   1      42.226  21.902  26.362  1.00  0.00     0.091 A 
ATOM     73  F   UNL A   1      41.538  22.765  28.477  1.00  0.00    -0.205 F 
ATOM     74  C   UNL A   1      42.864  22.109  25.130  1.00  0.00     0.022 A 
BRANCH  72  75
ATOM     75  S   UNL A   1      41.561  20.264  26.688  1.00  0.00     0.127 S 
ATOM     76  O   UNL A   1      40.139  20.547  26.859  1.00  0.00    -0.237 OA
ATOM     77  O   UNL A   1      41.903  19.543  25.461  1.00  0.00    -0.237 OA
ATOM     78  O   UNL A   1      42.266  19.790  27.873  1.00  0.00    -0.744 OA
ENDBRANCH  72  75
ENDBRANCH  44  68
BRANCH  56  79
ATOM     79  C   UNL A   1      47.523  26.062  31.868  1.00  0.00     0.023 A 
ATOM     80  C   UNL A   1      48.643  26.498  31.134  1.00  0.00     0.012 A 
ATOM     81  C   UNL A   1      47.707  25.209  32.974  1.00  0.00     0.148 A 
ATOM     82  C   UNL A   1      49.925  26.070  31.477  1.00  0.00     0.002 A 
ATOM     83  C   UNL A   1      48.992  24.821  33.336  1.00  0.00     0.091 A 
ATOM     84  F   UNL A   1      46.626  24.789  33.647  1.00  0.00    -0.205 F 
ATOM     85  C   UNL A   1      50.100  25.242  32.583  1.00  0.00     0.022 A 
BRANCH  83  86
ATOM     86  S   UNL A   1      49.315  23.827  34.798  1.00  0.00     0.127 S 
ATOM     87  O   UNL A   1      48.637  22.575  34.466  1.00  0.00    -0.237 OA
ATOM     88  O   UNL A   1      50.776  23.746  34.806  1.00  0.00    -0.237 OA
ATOM     89  O   UNL A   1      48.750  24.572  35.915  1.00  0.00    -0.744 OA
ENDBRANCH  83  86
ENDBRANCH  56  79
ENDBRANCH  30  31
ENDBRANCH  23  25
ENDBRANCH  22  23
ENDBRANCH   1  22
TORSDOF 16
ENDMDL
MODEL 2
REMARK VINA RESULT:     -10.9      5.984     11.598
REMARK SMILES Cc1cc(Oc2ccnc(C(=O)OCCOC(=O)c3ccc(-c4c5nc(c(-c6cccc(S(=O)(=O)[O-])c6F)c6ccc([nH]6)c(-c6cccc(S(=O)(=O)[O-])c6F)c6nc(c(-c7cccc(S(=O)(=O)[O-])c7F)c7ccc4[nH]7)C=C6)C=C5)cc3)c2)cc(C)c1Cl
REMARK SMILES IDX 15 1 14 2 13 3 11 4 12 5 10 6 6 7 7 8 82 9 8 10 9 11 5 12
REMARK SMILES IDX 4 13 1 14 2 15 3 16 86 17 84 18 87 19 83 20 85 21 16 22
REMARK SMILES IDX 17 23 18 24 19 25 20 26 81 27 21 28 80 29 22 30 23 31 24 32
REMARK SMILES IDX 74 33 25 34 79 35 73 36 75 37 26 38 78 39 72 40 71 41 27 43
REMARK SMILES IDX 59 44 39 45 58 46 40 47 43 48 57 49 76 50 41 51 42 52 56 54
REMARK SMILES IDX 77 55 44 56 28 57 29 58 37 59 30 60 32 61 38 62 31 63 33 64
REMARK SMILES IDX 34 65 35 66 36 67 60 68 61 69 69 70 62 71 64 72 70 73 63 74
REMARK SMILES IDX 65 75 66 76 67 77 68 78 45 79 46 80 54 81 47 82 49 83 55 84
REMARK SMILES IDX 48 85 50 86 51 87 52 88 53 89
REMARK H PARENT 75 42 43 53
REMARK Flexibility Score: inf
ROOT
ATOM      1  C   UNL A   1      37.600  19.971  24.989  1.00  0.00     0.275 C 
ENDROOT
BRANCH   1   2
ATOM      2  C   UNL A   1      36.068  19.990  24.990  1.00  0.00     0.275 C 
BRANCH   2   3
ATOM      3  O   UNL A   1      35.548  21.074  25.785  1.00  0.00    -0.457 OA
BRANCH   3   4
ATOM      4  C   UNL A   1      34.188  21.165  25.841  1.00  0.00     0.357 C 
ATOM      5  O   UNL A   1      33.500  20.838  26.788  1.00  0.00    -0.244 OA
BRANCH   4   6
ATOM      6  C   UNL A   1      33.652  21.788  24.587  1.00  0.00     0.152 A 
ATOM      7  C   UNL A   1      33.435  23.569  23.024  1.00  0.00     0.131 A 
ATOM      8  C   UNL A   1      32.552  22.793  22.279  1.00  0.00     0.067 A 
ATOM      9  C   UNL A   1      34.004  23.067  24.193  1.00  0.00     0.083 A 
ATOM     10  C   UNL A   1      32.259  21.528  22.747  1.00  0.00     0.116 A 
ATOM     11  N   UNL A   1      32.802  21.007  23.866  1.00  0.00    -0.249 NA
BRANCH   7  12
ATOM     12  O   UNL A   1      33.894  24.791  22.603  1.00  0.00    -0.457 OA
BRANCH  12  13
ATOM     13  C   UNL A   1      33.289  25.947  23.035  1.00  0.00     0.128 A 
ATOM     14  C   UNL A   1      30.332  28.257  22.437  1.00  0.00     0.046 C 
ATOM     15  C   UNL A   1      31.569  27.667  23.062  1.00  0.00    -0.028 A 
ATOM     16  C   UNL A   1      32.137  26.514  22.490  1.00  0.00     0.052 A 
ATOM     17  C   UNL A   1      32.152  28.218  24.221  1.00  0.00     0.047 A 
ATOM     18  C   UNL A   1      33.304  27.641  24.789  1.00  0.00    -0.028 A 
ATOM     19  Cl  UNL A   1      31.432  29.606  24.974  1.00  0.00    -0.084 Cl
ATOM     20  C   UNL A   1      33.862  26.509  24.178  1.00  0.00     0.052 A 
ATOM     21  C   UNL A   1      33.936  28.176  26.043  1.00  0.00     0.046 C 
ENDBRANCH  12  13
ENDBRANCH   7  12
ENDBRANCH   4   6
ENDBRANCH   3   4
ENDBRANCH   2   3
ENDBRANCH   1   2
BRANCH   1  22
ATOM     22  O   UNL A   1      38.159  21.133  25.629  1.00  0.00    -0.458 OA
BRANCH  22  23
ATOM     23  C   UNL A   1      39.382  20.951  26.180  1.00  0.00     0.338 C 
ATOM     24  O   UNL A   1      40.051  19.930  26.160  1.00  0.00    -0.246 OA
BRANCH  23  25
ATOM     25  C   UNL A   1      39.888  22.224  26.720  1.00  0.00     0.060 A 
ATOM     26  C   UNL A   1      39.359  23.398  26.185  1.00  0.00     0.016 A 
ATOM     27  C   UNL A   1      40.921  22.282  27.657  1.00  0.00     0.016 A 
ATOM     28  C   UNL A   1      39.862  24.637  26.566  1.00  0.00     0.010 A 
ATOM     29  C   UNL A   1      41.420  23.532  28.049  1.00  0.00     0.010 A 
ATOM     30  C   UNL A   1      40.905  24.718  27.495  1.00  0.00    -0.014 A 
BRANCH  30  31
ATOM     31  C   UNL A   1      41.466  26.050  27.838  1.00  0.00     0.031 A 
ATOM     32  C   UNL A   1      42.858  26.420  27.407  1.00  0.00     0.074 A 
ATOM     33  C   UNL A   1      40.709  26.943  28.504  1.00  0.00     0.049 A 
ATOM     34  N   UNL A   1      43.525  27.522  27.629  1.00  0.00    -0.248 NA
ATOM     35  C   UNL A   1      43.598  25.419  26.622  1.00  0.00     0.031 C 
ATOM     36  C   UNL A   1      39.339  26.710  28.963  1.00  0.00     0.029 A 
ATOM     37  N   UNL A   1      40.985  28.223  28.916  1.00  0.00    -0.354 N 
ATOM     38  C   UNL A   1      44.775  27.334  27.053  1.00  0.00     0.074 A 
ATOM     39  C   UNL A   1      44.775  26.010  26.469  1.00  0.00     0.031 C 
ATOM     40  C   UNL A   1      38.893  27.810  29.591  1.00  0.00     0.029 A 
ATOM     41  C   UNL A   1      39.956  28.811  29.615  1.00  0.00     0.049 A 
ATOM     42  H   UNL A   1      41.838  28.678  28.729  1.00  0.00     0.167 HD
ATOM     43  C   UNL A   1      45.822  28.192  27.000  1.00  0.00     0.034 A 
ATOM     44  C   UNL A   1      39.883  30.011  30.222  1.00  0.00     0.034 A 
ATOM     45  C   UNL A   1      45.805  29.527  27.537  1.00  0.00     0.049 A 
ATOM     46  C   UNL A   1      41.062  30.943  30.148  1.00  0.00     0.074 A 
ATOM     47  C   UNL A   1      46.805  30.483  27.497  1.00  0.00     0.029 A 
ATOM     48  N   UNL A   1      44.734  30.097  28.209  1.00  0.00    -0.354 N 
ATOM     49  N   UNL A   1      42.203  30.782  29.523  1.00  0.00    -0.248 NA
ATOM     50  C   UNL A   1      40.936  32.232  30.844  1.00  0.00     0.031 C 
ATOM     51  C   UNL A   1      46.342  31.628  28.155  1.00  0.00     0.029 A 
ATOM     52  C   UNL A   1      45.049  31.389  28.593  1.00  0.00     0.049 A 
ATOM     53  H   UNL A   1      43.876  29.649  28.386  1.00  0.00     0.167 HD
ATOM     54  C   UNL A   1      42.921  31.954  29.730  1.00  0.00     0.074 A 
ATOM     55  C   UNL A   1      42.075  32.829  30.515  1.00  0.00     0.031 C 
ATOM     56  C   UNL A   1      44.176  32.269  29.327  1.00  0.00     0.034 A 
BRANCH  43  57
ATOM     57  C   UNL A   1      47.073  27.726  26.304  1.00  0.00     0.023 A 
ATOM     58  C   UNL A   1      48.061  27.039  27.039  1.00  0.00     0.012 A 
ATOM     59  C   UNL A   1      47.245  27.913  24.919  1.00  0.00     0.148 A 
ATOM     60  C   UNL A   1      49.213  26.568  26.410  1.00  0.00     0.002 A 
ATOM     61  C   UNL A   1      48.380  27.409  24.292  1.00  0.00     0.091 A 
ATOM     62  F   UNL A   1      46.306  28.590  24.243  1.00  0.00    -0.205 F 
ATOM     63  C   UNL A   1      49.368  26.745  25.038  1.00  0.00     0.022 A 
BRANCH  61  64
ATOM     64  S   UNL A   1      48.634  27.528  22.519  1.00  0.00     0.127 S 
ATOM     65  O   UNL A   1      48.642  26.119  22.126  1.00  0.00    -0.237 OA
ATOM     66  O   UNL A   1      47.453  28.274  22.083  1.00  0.00    -0.237 OA
ATOM     67  O   UNL A   1      49.895  28.237  22.343  1.00  0.00    -0.744 OA
ENDBRANCH  61  64
ENDBRANCH  43  57
BRANCH  44  68
ATOM     68  C   UNL A   1      38.631  30.414  30.922  1.00  0.00     0.023 A 
ATOM     69  C   UNL A   1      38.482  30.130  32.293  1.00  0.00     0.012 A 
ATOM     70  C   UNL A   1      37.603  31.102  30.249  1.00  0.00     0.148 A 
ATOM     71  C   UNL A   1      37.324  30.507  32.976  1.00  0.00     0.002 A 
ATOM     72  C   UNL A   1      36.477  31.523  30.947  1.00  0.00     0.091 A 
ATOM     73  F   UNL A   1      37.748  31.339  28.937  1.00  0.00    -0.205 F 
ATOM     74  C   UNL A   1      36.329  31.213  32.307  1.00  0.00     0.022 A 
BRANCH  72  75
ATOM     75  S   UNL A   1      35.213  32.550  30.188  1.00  0.00     0.127 S 
ATOM     76  O   UNL A   1      34.276  32.737  31.293  1.00  0.00    -0.237 OA
ATOM     77  O   UNL A   1      35.971  33.745  29.814  1.00  0.00    -0.237 OA
ATOM     78  O   UNL A   1      34.718  31.779  29.054  1.00  0.00    -0.744 OA
ENDBRANCH  72  75
ENDBRANCH  44  68
BRANCH  56  79
ATOM     79  C   UNL A   1      44.712  33.624  29.710  1.00  0.00     0.023 A 
ATOM     80  C   UNL A   1      45.499  33.754  30.871  1.00  0.00     0.012 A 
ATOM     81  C   UNL A   1      44.502  34.747  28.886  1.00  0.00     0.148 A 
ATOM     82  C   UNL A   1      46.045  34.988  31.222  1.00  0.00     0.002 A 
ATOM     83  C   UNL A   1      45.085  35.964  29.219  1.00  0.00     0.091 A 
ATOM     84  F   UNL A   1      43.733  34.607  27.796  1.00  0.00    -0.205 F 
ATOM     85  C   UNL A   1      45.849  36.088  30.391  1.00  0.00     0.022 A 
BRANCH  83  86
ATOM     86  S   UNL A   1      44.955  37.409  28.160  1.00  0.00     0.127 S 
ATOM     87  O   UNL A   1      45.695  38.410  28.927  1.00  0.00    -0.237 OA
ATOM     88  O   UNL A   1      45.623  36.964  26.937  1.00  0.00    -0.237 OA
ATOM     89  O   UNL A   1      43.529  37.661  28.006  1.00  0.00    -0.744 OA
ENDBRANCH  83  86
ENDBRANCH  56  79
ENDBRANCH  30  31
ENDBRANCH  23  25
ENDBRANCH  22  23
ENDBRANCH   1  22
TORSDOF 16
ENDMDL
MODEL 3
REMARK VINA RESULT:     -10.8      4.403      7.360
REMARK SMILES Cc1cc(Oc2ccnc(C(=O)OCCOC(=O)c3ccc(-c4c5nc(c(-c6cccc(S(=O)(=O)[O-])c6F)c6ccc([nH]6)c(-c6cccc(S(=O)(=O)[O-])c6F)c6nc(c(-c7cccc(S(=O)(=O)[O-])c7F)c7ccc4[nH]7)C=C6)C=C5)cc3)c2)cc(C)c1Cl
REMARK SMILES IDX 15 1 14 2 13 3 11 4 12 5 10 6 6 7 7 8 82 9 8 10 9 11 5 12
REMARK SMILES IDX 4 13 1 14 2 15 3 16 86 17 84 18 87 19 83 20 85 21 16 22
REMARK SMILES IDX 17 23 18 24 19 25 20 26 81 27 21 28 80 29 22 30 23 31 24 32
REMARK SMILES IDX 74 33 25 34 79 35 73 36 75 37 26 38 78 39 72 40 71 41 27 43
REMARK SMILES IDX 59 44 39 45 58 46 40 47 43 48 57 49 76 50 41 51 42 52 56 54
REMARK SMILES IDX 77 55 44 56 28 57 29 58 37 59 30 60 32 61 38 62 31 63 33 64
REMARK SMILES IDX 34 65 35 66 36 67 60 68 61 69 69 70 62 71 64 72 70 73 63 74
REMARK SMILES IDX 65 75 66 76 67 77 68 78 45 79 46 80 54 81 47 82 49 83 55 84
REMARK SMILES IDX 48 85 50 86 51 87 52 88 53 89
REMARK H PARENT 75 42 43 53
REMARK Flexibility Score: inf
ROOT
ATOM      1  C   UNL A   1      31.896  30.459  25.732  1.00  0.00     0.275 C 
ENDROOT
BRANCH   1   2
ATOM      2  C   UNL A   1      32.306  29.054  25.278  1.00  0.00     0.275 C 
BRANCH   2   3
ATOM      3  O   UNL A   1      31.172  28.167  25.200  1.00  0.00    -0.457 OA
BRANCH   3   4
ATOM      4  C   UNL A   1      31.144  27.164  26.124  1.00  0.00     0.357 C 
ATOM      5  O   UNL A   1      31.047  27.317  27.326  1.00  0.00    -0.244 OA
BRANCH   4   6
ATOM      6  C   UNL A   1      31.185  25.826  25.448  1.00  0.00     0.152 A 
ATOM      7  C   UNL A   1      31.800  23.532  25.311  1.00  0.00     0.131 A 
ATOM      8  C   UNL A   1      31.200  23.456  24.058  1.00  0.00     0.067 A 
ATOM      9  C   UNL A   1      31.794  24.727  26.028  1.00  0.00     0.083 A 
ATOM     10  C   UNL A   1      30.615  24.602  23.558  1.00  0.00     0.116 A 
ATOM     11  N   UNL A   1      30.578  25.770  24.230  1.00  0.00    -0.249 NA
BRANCH   7  12
ATOM     12  O   UNL A   1      32.308  22.437  25.964  1.00  0.00    -0.457 OA
BRANCH  12  13
ATOM     13  C   UNL A   1      33.535  21.926  25.613  1.00  0.00     0.128 A 
ATOM     14  C   UNL A   1      37.243  22.734  25.428  1.00  0.00     0.046 C 
ATOM     15  C   UNL A   1      35.954  21.958  25.357  1.00  0.00    -0.028 A 
ATOM     16  C   UNL A   1      34.749  22.609  25.679  1.00  0.00     0.052 A 
ATOM     17  C   UNL A   1      35.925  20.592  25.009  1.00  0.00     0.047 A 
ATOM     18  C   UNL A   1      34.707  19.890  24.958  1.00  0.00    -0.028 A 
ATOM     19  Cl  UNL A   1      37.408  19.758  24.664  1.00  0.00    -0.084 Cl
ATOM     20  C   UNL A   1      33.521  20.575  25.257  1.00  0.00     0.052 A 
ATOM     21  C   UNL A   1      34.636  18.426  24.626  1.00  0.00     0.046 C 
ENDBRANCH  12  13
ENDBRANCH   7  12
ENDBRANCH   4   6
ENDBRANCH   3   4
ENDBRANCH   2   3
ENDBRANCH   1   2
BRANCH   1  22
ATOM     22  O   UNL A   1      32.273  30.721  27.097  1.00  0.00    -0.458 OA
BRANCH  22  23
ATOM     23  C   UNL A   1      33.041  31.821  27.278  1.00  0.00     0.338 C 
ATOM     24  O   UNL A   1      32.703  32.985  27.127  1.00  0.00    -0.246 OA
BRANCH  23  25
ATOM     25  C   UNL A   1      34.352  31.438  27.827  1.00  0.00     0.060 A 
ATOM     26  C   UNL A   1      34.519  30.107  28.209  1.00  0.00     0.016 A 
ATOM     27  C   UNL A   1      35.369  32.367  28.055  1.00  0.00     0.016 A 
ATOM     28  C   UNL A   1      35.689  29.693  28.834  1.00  0.00     0.010 A 
ATOM     29  C   UNL A   1      36.554  31.947  28.675  1.00  0.00     0.010 A 
ATOM     30  C   UNL A   1      36.716  30.610  29.083  1.00  0.00    -0.014 A 
BRANCH  30  31
ATOM     31  C   UNL A   1      37.931  30.156  29.807  1.00  0.00     0.031 A 
ATOM     32  C   UNL A   1      38.192  30.617  31.214  1.00  0.00     0.074 A 
ATOM     33  C   UNL A   1      38.781  29.295  29.213  1.00  0.00     0.049 A 
ATOM     34  N   UNL A   1      39.203  30.347  31.997  1.00  0.00    -0.248 NA
ATOM     35  C   UNL A   1      37.183  31.500  31.820  1.00  0.00     0.031 C 
ATOM     36  C   UNL A   1      38.630  28.761  27.859  1.00  0.00     0.029 A 
ATOM     37  N   UNL A   1      39.943  28.724  29.670  1.00  0.00    -0.354 N 
ATOM     38  C   UNL A   1      38.978  31.056  33.170  1.00  0.00     0.074 A 
ATOM     39  C   UNL A   1      37.732  31.771  32.997  1.00  0.00     0.031 C 
ATOM     40  C   UNL A   1      39.659  27.940  27.595  1.00  0.00     0.029 A 
ATOM     41  C   UNL A   1      40.561  27.917  28.743  1.00  0.00     0.049 A 
ATOM     42  H   UNL A   1      40.300  28.875  30.575  1.00  0.00     0.167 HD
ATOM     43  C   UNL A   1      39.731  31.096  34.295  1.00  0.00     0.034 A 
ATOM     44  C   UNL A   1      41.730  27.250  28.803  1.00  0.00     0.034 A 
ATOM     45  C   UNL A   1      40.944  30.347  34.487  1.00  0.00     0.049 A 
ATOM     46  C   UNL A   1      42.546  27.314  30.065  1.00  0.00     0.074 A 
ATOM     47  C   UNL A   1      41.756  30.294  35.606  1.00  0.00     0.029 A 
ATOM     48  N   UNL A   1      41.521  29.517  33.537  1.00  0.00    -0.354 N 
ATOM     49  N   UNL A   1      42.273  27.920  31.194  1.00  0.00    -0.248 NA
ATOM     50  C   UNL A   1      43.823  26.584  30.069  1.00  0.00     0.031 C 
ATOM     51  C   UNL A   1      42.828  29.439  35.330  1.00  0.00     0.029 A 
ATOM     52  C   UNL A   1      42.679  28.951  34.042  1.00  0.00     0.049 A 
ATOM     53  H   UNL A   1      41.160  29.354  32.636  1.00  0.00     0.167 HD
ATOM     54  C   UNL A   1      43.328  27.627  32.050  1.00  0.00     0.074 A 
ATOM     55  C   UNL A   1      44.234  26.765  31.317  1.00  0.00     0.031 C 
ATOM     56  C   UNL A   1      43.542  28.051  33.320  1.00  0.00     0.034 A 
BRANCH  43  57
ATOM     57  C   UNL A   1      39.246  31.959  35.430  1.00  0.00     0.023 A 
ATOM     58  C   UNL A   1      39.467  33.351  35.388  1.00  0.00     0.012 A 
ATOM     59  C   UNL A   1      38.525  31.404  36.505  1.00  0.00     0.148 A 
ATOM     60  C   UNL A   1      38.998  34.174  36.411  1.00  0.00     0.002 A 
ATOM     61  C   UNL A   1      38.031  32.236  37.504  1.00  0.00     0.091 A 
ATOM     62  F   UNL A   1      38.348  30.076  36.540  1.00  0.00    -0.205 F 
ATOM     63  C   UNL A   1      38.273  33.619  37.462  1.00  0.00     0.022 A 
BRANCH  61  64
ATOM     64  S   UNL A   1      37.028  31.622  38.861  1.00  0.00     0.127 S 
ATOM     65  O   UNL A   1      37.947  31.753  39.991  1.00  0.00    -0.237 OA
ATOM     66  O   UNL A   1      35.910  32.566  38.875  1.00  0.00    -0.237 OA
ATOM     67  O   UNL A   1      36.662  30.258  38.502  1.00  0.00    -0.744 OA
ENDBRANCH  61  64
ENDBRANCH  43  57
BRANCH  44  68
ATOM     68  C   UNL A   1      42.179  26.433  27.640  1.00  0.00     0.023 A 
ATOM     69  C   UNL A   1      42.979  27.026  26.645  1.00  0.00     0.012 A 
ATOM     70  C   UNL A   1      41.846  25.069  27.530  1.00  0.00     0.148 A 
ATOM     71  C   UNL A   1      43.423  26.280  25.551  1.00  0.00     0.002 A 
ATOM     72  C   UNL A   1      42.337  24.319  26.467  1.00  0.00     0.091 A 
ATOM     73  F   UNL A   1      41.060  24.527  28.471  1.00  0.00    -0.205 F 
ATOM     74  C   UNL A   1      43.113  24.926  25.469  1.00  0.00     0.022 A 
BRANCH  72  75
ATOM     75  S   UNL A   1      42.091  22.542  26.361  1.00  0.00     0.127 S 
ATOM     76  O   UNL A   1      40.635  22.443  26.327  1.00  0.00    -0.237 OA
ATOM     77  O   UNL A   1      42.761  22.212  25.102  1.00  0.00    -0.237 OA
ATOM     78  O   UNL A   1      42.742  21.991  27.544  1.00  0.00    -0.744 OA
ENDBRANCH  72  75
ENDBRANCH  44  68
BRANCH  56  79
ATOM     79  C   UNL A   1      44.794  27.579  34.012  1.00  0.00     0.023 A 
ATOM     80  C   UNL A   1      45.949  28.384  33.977  1.00  0.00     0.012 A 
ATOM     81  C   UNL A   1      44.805  26.384  34.756  1.00  0.00     0.148 A 
ATOM     82  C   UNL A   1      47.106  27.992  34.649  1.00  0.00     0.002 A 
ATOM     83  C   UNL A   1      45.948  26.020  35.458  1.00  0.00     0.091 A 
ATOM     84  F   UNL A   1      43.702  25.621  34.760  1.00  0.00    -0.205 F 
ATOM     85  C   UNL A   1      47.102  26.818  35.398  1.00  0.00     0.022 A 
BRANCH  83  86
ATOM     86  S   UNL A   1      46.000  24.570  36.518  1.00  0.00     0.127 S 
ATOM     87  O   UNL A   1      47.427  24.473  36.822  1.00  0.00    -0.237 OA
ATOM     88  O   UNL A   1      45.164  24.976  37.647  1.00  0.00    -0.237 OA
ATOM     89  O   UNL A   1      45.450  23.480  35.725  1.00  0.00    -0.744 OA
ENDBRANCH  83  86
ENDBRANCH  56  79
ENDBRANCH  30  31
ENDBRANCH  23  25
ENDBRANCH  22  23
ENDBRANCH   1  22
TORSDOF 16
ENDMDL
